data_PCOD9443418
_publ_section_title
;
Structure prediction by ZEFSAII (Michael W. Deem and Ramdas Pophale) SiO2 
 PCOD9443418
Probable space group: P N N M
;
_chemical_formula_sum "Si O2"
_cell_formula_units_Z 56
_cell_length_a 16.373248
_cell_length_b 20.844789
_cell_length_c 8.174595
_cell_angle_alpha 90.000000
_cell_angle_beta 90.000000
_cell_angle_gamma 90.000000
_cell_volume 2789.963931
_symmetry_space_group_name_H-M "P N N M"
_symmetry_group_IT_number 58
_symmetry_cell_setting 'orthorhombic'
loop_
_space_group_symop_operation_xyz
x,y,z
-x,-y,z
1/2+x,1/2-y,1/2-z
1/2-x,1/2+y,1/2-z
-x,-y,-z
x,y,-z
1/2-x,1/2+y,1/2+z
1/2+x,1/2-y,1/2+z
loop_
_atom_site_type_symbol
_atom_site_label
_atom_site_fract_x
_atom_site_fract_y
_atom_site_fract_z
Si Si1 0.747326 0.466172 0.801986
Si Si2 0.004862 0.320540 0.192471
Si Si3 0.826586 0.097239 0.694303
Si Si4 0.929636 0.451394 0.304090
Si Si5 0.523032 0.680436 0.198134
Si Si6 0.688165 0.192335 0.806790
Si Si7 0.336085 0.664452 0.199533
O O1 0.694843 0.526679 0.740683
O O2 0.840907 0.473913 0.751534
O O3 0.713108 0.397622 0.744003
O O4 0.743699 0.465840 0.000000
O O5 0.949682 0.380857 0.238108
O O6 0.964663 0.253226 0.243442
O O7 0.093174 0.325131 0.279398
O O8 0.019995 0.319916 0.000000
O O9 0.839210 0.090087 0.500000
O O10 0.907107 0.132683 0.759953
O O11 0.749268 0.143433 0.721898
O O12 0.931997 0.449480 0.500000
O O13 0.000000 0.500000 0.246007
O O14 0.431286 0.660869 0.248001
O O15 0.524713 0.681112 0.000000
O O16 0.697334 0.266038 0.747400
O O17 0.705067 0.190336 0.000000
O O18 0.334259 0.665266 0.000000
#
# Coordination Sequence:
#
# PCOD9443418 Si02
#       7
#     8   8   8   8   8   8   8
#     4  10  21  37  57  85 117 151 195 239 286 341
#     4  11  22  37  59  85 112 146 192 241 291 343
#     4  10  21  35  56  86 118 151 191 239 285 339
#     4  11  24  40  58  82 115 154 192 235 295 357
#     4   9  19  37  58  84 116 151 191 235 288 341
#     4  10  20  36  58  82 115 152 190 236 288 347
#     4   8  17  35  57  81 111 149 190 234 283 336
#
# _framework density 20.071943999999998
#
# number of rings (size 3 to 8) (size 9 to 14) (size 15 to 20)
#    0.000    2.143    0.000    3.857    2.000    5.143 
#    0.000    5.714    0.000    0.000    0.000    6.000 
#    0.000    0.000    0.000    0.000    0.000    0.000 
#
# Total GULP energy -312796.392951 kJ/mol
# GULP energy per Si atom -5585.649874 kJ/mol
# Density = 2.002626 g / cm^3
# Si number density = 20.071944 Si / 1000 Ang^3
#
#
#
# Elastic Constant Matrix: (Units=GPa)
#
#
# Indices 1 2 3 4 5 6 
#
# 1 23.5784 14.2861 -1.2864 0.0000 0.0000 0.0000
# 2 14.2861 72.1600 9.3058 0.0000 0.0000 0.0000
# 3 -1.2864 9.3058 14.1496 0.0000 0.0000 0.0000
# 4 0.0000 0.0000 0.0000 15.9248 0.0000 0.0000
# 5 0.0000 0.0000 0.0000 0.0000 16.9995 0.0000
# 6 0.0000 0.0000 0.0000 0.0000 0.0000 33.6702
#
#
#
# Elastic Compliance Matrix: (Units=1/GPa)
#
#
# Indices 1 2 3 4 5 6 
#
# 1 0.050015 -0.011460 0.012084 0.000000 0.000000 0.000000
# 2 -0.011460 0.017768 -0.012728 0.000000 0.000000 0.000000
# 3 0.012084 -0.012728 0.080143 0.000000 0.000000 0.000000
# 4 0.000000 0.000000 0.000000 0.062795 0.000000 0.000000
# 5 0.000000 0.000000 0.000000 0.000000 0.058825 0.000000
# 6 0.000000 0.000000 0.000000 0.000000 0.000000 0.029700
#
#
# Mechanical properties :
#
#
# Convention : Reuss Voigt Hill
#
# Bulk Modulus (GPa) = 8.08288 17.16655 12.62471
# Shear Modulus (GPa) = 13.71017 19.15774 16.43396
#
# Velocity S-wave (km/s) = 2.61636 3.09277 2.86449
# Velocity P-wave (km/s) = 3.62806 4.61787 4.15256
#
# Compressibility (1/GPa) = 0.12371831
#
# Stress axis : x y z
#
# Youngs Moduli (GPa) = 19.99411 56.27995 12.47776
#
# Poissons Ratio (x) = 0.64498 -0.15078
# Poissons Ratio (y) = 0.22914 0.15881
# Poissons Ratio (z) = -0.24161 0.71631
#
# Static dielectric constant tensor:
#      x y z
#    x 1.683600 0.000000 0.000000 
#    y 0.000000 1.705650 0.000000 
#    z 0.000000 0.000000 1.698200 
# 
# From -- ./inp_files/6407.got.cif
#   From: 2010.05.17/outbox.cif.g08.bks.cpg/sg58_4_cif.got.tgz:6407.got - 2010.06.03 14:20:14.
