data_PCOD9443740
_publ_section_title
;
Structure prediction by ZEFSAII (Michael W. Deem and Ramdas Pophale) SiO2 
 PCOD9443740
Probable space group: P N N M
;
_chemical_formula_sum "Si O2"
_cell_formula_units_Z 48
_cell_length_a 8.456521
_cell_length_b 8.409340
_cell_length_c 33.424641
_cell_angle_alpha 90.000000
_cell_angle_beta 90.000000
_cell_angle_gamma 90.000000
_cell_volume 2376.951908
_symmetry_space_group_name_H-M "P N N M"
_symmetry_group_IT_number 58
_symmetry_cell_setting 'orthorhombic'
loop_
_space_group_symop_operation_xyz
x,y,z
-x,-y,z
1/2+x,1/2-y,1/2-z
1/2-x,1/2+y,1/2-z
-x,-y,-z
x,y,-z
1/2-x,1/2+y,1/2+z
1/2+x,1/2-y,1/2+z
loop_
_atom_site_type_symbol
_atom_site_label
_atom_site_fract_x
_atom_site_fract_y
_atom_site_fract_z
Si Si1 0.561242 0.320163 0.543218
Si Si2 0.062156 0.176247 0.207075
Si Si3 0.937191 0.320243 0.710659
Si Si4 0.939894 0.317324 0.456716
Si Si5 0.067992 0.680229 0.874499
Si Si6 0.932336 0.689062 0.373058
O O1 0.500000 0.500000 0.542345
O O2 0.513832 0.246347 0.500000
O O3 0.750827 0.318775 0.545113
O O4 0.495106 0.248624 0.583670
O O5 0.249781 0.180358 0.209369
O O6 0.995092 0.239412 0.248880
O O7 0.006213 0.264583 0.167413
O O8 0.000000 0.000000 0.202154
O O9 0.000000 0.500000 0.712389
O O10 0.999150 0.247639 0.668880
O O11 0.988530 0.246183 0.500000
O O12 0.000000 0.500000 0.457489
O O13 0.003573 0.245715 0.415375
O O14 0.248047 0.755053 0.872523
O O15 0.000000 0.500000 0.876674
O O16 0.000000 0.500000 0.373118
#
# Coordination Sequence:
#
# PCOD9443740 Si02
#       6
#     8   8   8   8   8   8
#     4  10  20  37  63  93 125 166 215 262 316 386
#     4  12  24  42  67  92 125 168 214 263 319 391
#     4  11  23  41  63  93 126 161 211 269 327 381
#     4   9  17  32  58  91 121 155 205 260 307 363
#     4  12  26  42  62  93 132 169 209 265 327 384
#     4  10  20  38  63  89 122 166 214 261 317 388
#
# _framework density 20.193930000000002
#
# number of rings (size 3 to 8) (size 9 to 14) (size 15 to 20)
#    0.000    1.333    0.000    8.000    0.000    3.667 
#    0.000    2.500    0.000    2.000    0.000    0.000 
#    0.000    0.000    0.000    0.000    0.000    0.000 
#
# Total GULP energy -267315.159743 kJ/mol
# GULP energy per Si atom -5569.065828 kJ/mol
# Density = 2.014797 g / cm^3
# Si number density = 20.193930 Si / 1000 Ang^3
#
#
#
# Elastic Constant Matrix: (Units=GPa)
#
#
# Indices 1 2 3 4 5 6 
#
# 1 171.7094 31.2552 81.0504 0.0000 0.0000 0.0000
# 2 31.2552 60.7814 57.2746 0.0000 0.0000 0.0000
# 3 81.0504 57.2746 237.6984 0.0000 0.0000 0.0000
# 4 0.0000 0.0000 0.0000 46.2685 0.0000 0.0000
# 5 0.0000 0.0000 0.0000 0.0000 45.4290 0.0000
# 6 0.0000 0.0000 0.0000 0.0000 0.0000 19.5741
#
#
#
# Elastic Compliance Matrix: (Units=1/GPa)
#
#
# Indices 1 2 3 4 5 6 
#
# 1 0.007085 -0.001768 -0.001990 0.000000 0.000000 0.000000
# 2 -0.001768 0.021727 -0.004632 0.000000 0.000000 0.000000
# 3 -0.001990 -0.004632 0.006002 0.000000 0.000000 0.000000
# 4 0.000000 0.000000 0.000000 0.021613 0.000000 0.000000
# 5 0.000000 0.000000 0.000000 0.000000 0.022012 0.000000
# 6 0.000000 0.000000 0.000000 0.000000 0.000000 0.051088
#
#
# Mechanical properties :
#
#
# Convention : Reuss Voigt Hill
#
# Bulk Modulus (GPa) = 55.45477 89.92775 72.69126
# Shear Modulus (GPa) = 32.82613 42.29491 37.56052
#
# Velocity S-wave (km/s) = 4.03618 4.58147 4.31744
# Velocity P-wave (km/s) = 7.01724 8.52145 7.80567
#
# Compressibility (1/GPa) = 0.01803271
#
# Stress axis : x y z
#
# Youngs Moduli (GPa) = 141.14625 46.02651 166.62180
#
# Poissons Ratio (x) = 0.08139 0.33153
# Poissons Ratio (y) = 0.24959 0.77182
# Poissons Ratio (z) = 0.28084 0.21320
#
# Static dielectric constant tensor:
#      x y z
#    x 1.722420 0.000000 0.000000 
#    y 0.000000 2.013240 0.000000 
#    z 0.000000 0.000000 1.831520 
# 
# From -- ./inp_files/34534.got.cif
#   From: 2010.05.17/outbox.cif.g08.bks.cpg/sg58_18_cif.got.tgz:34534.got - 2010.06.03 14:20:14.
