data_PCOD9443836
_publ_section_title
;
Structure prediction by ZEFSAII (Michael W. Deem and Ramdas Pophale) SiO2 
 PCOD9443836
Probable space group: P N N M
;
_chemical_formula_sum "Si O2"
_cell_formula_units_Z 40
_cell_length_a 12.028008
_cell_length_b 8.344010
_cell_length_c 16.691483
_cell_angle_alpha 90.000000
_cell_angle_beta 90.000000
_cell_angle_gamma 90.000000
_cell_volume 1675.187596
_symmetry_space_group_name_H-M "P N N M"
_symmetry_group_IT_number 58
_symmetry_cell_setting 'orthorhombic'
loop_
_space_group_symop_operation_xyz
x,y,z
-x,-y,z
1/2+x,1/2-y,1/2-z
1/2-x,1/2+y,1/2-z
-x,-y,-z
x,y,-z
1/2-x,1/2+y,1/2+z
1/2+x,1/2-y,1/2+z
loop_
_atom_site_type_symbol
_atom_site_label
_atom_site_fract_x
_atom_site_fract_y
_atom_site_fract_z
Si Si1 0.259391 0.975592 0.407006
Si Si2 0.047032 0.815759 0.591041
Si Si3 0.435247 0.744562 0.632406
Si Si4 0.834970 0.089921 0.092006
Si Si5 0.653037 0.229977 0.812708
O O1 0.233701 0.016276 0.500000
O O2 0.382780 0.906790 0.402237
O O3 0.174777 0.830739 0.384511
O O4 0.220413 0.117064 0.348961
O O5 0.041669 0.762961 0.500000
O O6 0.963634 0.712812 0.641859
O O7 0.000000 0.000000 0.596030
O O8 0.566321 0.710269 0.621434
O O9 0.383846 0.588042 0.590785
O O10 0.387334 0.746739 0.722672
O O11 0.736561 0.093395 0.157334
O O12 0.801992 0.131740 0.000000
#
# Coordination Sequence:
#
# PCOD9443836 Si02
#       5
#     8   8   8   8   8
#     4  10  20  38  62  88 117 155 201 246 295 359
#     4   8  16  31  56  84 113 146 188 240 297 351
#     4  11  24  38  62  89 125 159 200 249 304 357
#     4  11  24  43  62  87 126 170 200 237 306 379
#     4  11  22  36  64  90 121 151 207 255 296 342
#
# _framework density 23.877921000000001
#
# number of rings (size 3 to 8) (size 9 to 14) (size 15 to 20)
#    0.000    1.800    0.000    6.600   11.200    0.800 
#    0.000    3.000    0.000    3.600    0.000    0.000 
#    0.000    0.000    0.000    0.000    0.000    0.000 
#
# Total GULP energy -223364.844490 kJ/mol
# GULP energy per Si atom -5584.121112 kJ/mol
# Density = 2.382357 g / cm^3
# Si number density = 23.877921 Si / 1000 Ang^3
#
#
#
# Elastic Constant Matrix: (Units=GPa)
#
#
# Indices 1 2 3 4 5 6 
#
# 1 80.3324 3.4149 16.8419 0.0000 0.0000 0.0000
# 2 3.4149 38.6665 2.1324 0.0000 0.0000 0.0000
# 3 16.8419 2.1324 106.6199 0.0000 0.0000 0.0000
# 4 0.0000 0.0000 0.0000 962.6619 0.0000 0.0000
# 5 0.0000 0.0000 0.0000 0.0000 29.8401 0.0000
# 6 0.0000 0.0000 0.0000 0.0000 0.0000 37.2164
#
#
#
# Elastic Compliance Matrix: (Units=1/GPa)
#
#
# Indices 1 2 3 4 5 6 
#
# 1 0.012915 -0.001029 -0.002020 0.000000 0.000000 0.000000
# 2 -0.001029 0.025973 -0.000357 0.000000 0.000000 0.000000
# 3 -0.002020 -0.000357 0.009705 0.000000 0.000000 0.000000
# 4 0.000000 0.000000 0.000000 0.001039 0.000000 0.000000
# 5 0.000000 0.000000 0.000000 0.000000 0.033512 0.000000
# 6 0.000000 0.000000 0.000000 0.000000 0.000000 0.026870
#
#
# Mechanical properties :
#
#
# Convention : Reuss Voigt Hill
#
# Bulk Modulus (GPa) = 23.93374 30.04414 26.98894
# Shear Modulus (GPa) = 38.24007 219.49231 128.86619
#
# Velocity S-wave (km/s) = 4.00619 9.59803 7.35431
# Velocity P-wave (km/s) = 5.60755 11.63784 9.13466
#
# Compressibility (1/GPa) = 0.04178203
#
# Stress axis : x y z
#
# Youngs Moduli (GPa) = 77.42671 38.50189 103.03689
#
# Poissons Ratio (x) = 0.03963 0.20809
# Poissons Ratio (y) = 0.07969 0.03677
# Poissons Ratio (z) = 0.15637 0.01374
#
# Static dielectric constant tensor:
#      x y z
#    x 1.951240 0.000000 0.000000 
#    y 0.000000 1.963370 0.000000 
#    z 0.000000 0.000000 1.835520 
# 
# From -- ./inp_files/20899.got.cif
#   From: 2010.05.17/outbox.cif.g08.bks.cpg/sg58_11_cif.got.tgz:20899.got - 2010.06.03 14:20:14.
