data_PCOD9443198
_publ_section_title
;
Structure prediction by ZEFSAII (Michael W. Deem and Ramdas Pophale) SiO2 
 PCOD9443198
Probable space group: P N N M
;
_chemical_formula_sum "Si O2"
_cell_formula_units_Z 48
_cell_length_a 31.644753
_cell_length_b 9.526924
_cell_length_c 7.826099
_cell_angle_alpha 90.000000
_cell_angle_beta 90.000000
_cell_angle_gamma 90.000000
_cell_volume 2359.390076
_symmetry_space_group_name_H-M "P N N M"
_symmetry_group_IT_number 58
_symmetry_cell_setting 'orthorhombic'
loop_
_space_group_symop_operation_xyz
x,y,z
-x,-y,z
1/2+x,1/2-y,1/2-z
1/2-x,1/2+y,1/2-z
-x,-y,-z
x,y,-z
1/2-x,1/2+y,1/2+z
1/2+x,1/2-y,1/2+z
loop_
_atom_site_type_symbol
_atom_site_label
_atom_site_fract_x
_atom_site_fract_y
_atom_site_fract_z
Si Si1 0.366055 0.419072 0.299655
Si Si2 0.459714 0.087710 0.293103
Si Si3 0.365912 0.094746 0.202000
Si Si4 0.716642 0.423609 0.801990
Si Si5 0.206069 0.389551 0.300556
Si Si6 0.539988 0.588551 0.708654
O O1 0.363255 0.453445 0.500000
O O2 0.362050 0.250235 0.281307
O O3 0.328364 0.499632 0.208863
O O4 0.413156 0.457957 0.236150
O O5 0.458586 0.082243 0.500000
O O6 0.413658 0.041795 0.229950
O O7 0.464990 0.249572 0.241426
O O8 0.500000 0.000000 0.234059
O O9 0.331884 0.984223 0.272179
O O10 0.358361 0.113206 0.000000
O O11 0.751474 0.519643 0.712097
O O12 0.713017 0.266238 0.727906
O O13 0.730063 0.413368 0.000000
O O14 0.195349 0.366445 0.500000
O O15 0.500000 0.500000 0.768201
O O16 0.540421 0.583911 0.500000
#
# Coordination Sequence:
#
# PCOD9443198 Si02
#       6
#     8   8   8   8   8   8
#     4  10  20  35  56  81 109 140 177 221 267 318
#     4   9  18  32  51  76 106 140 180 224 267 315
#     4  10  20  36  57  79 108 145 182 222 270 321
#     4  11  23  38  57  80 107 138 174 218 264 314
#     4  10  23  40  56  79 109 140 177 219 264 318
#     4   8  15  29  49  73 101 134 172 214 258 304
#
# _framework density 20.344239000000002
#
# number of rings (size 3 to 8) (size 9 to 14) (size 15 to 20)
#    0.000    2.333    0.000    3.500    0.000    7.000 
#    0.000    1.667    0.000   12.500    0.000    0.000 
#    0.000    0.000    0.000    0.000    0.000    0.000 
#
# Total GULP energy -267944.566031 kJ/mol
# GULP energy per Si atom -5582.178459 kJ/mol
# Density = 2.029793 g / cm^3
# Si number density = 20.344239 Si / 1000 Ang^3
#
#
#
# Elastic Constant Matrix: (Units=GPa)
#
#
# Indices 1 2 3 4 5 6 
#
# 1 157.9353 83.6662 -15.8054 0.0000 0.0000 0.0000
# 2 83.6662 97.7716 -9.0087 0.0000 0.0000 0.0000
# 3 -15.8054 -9.0087 27.1228 0.0000 0.0000 0.0000
# 4 0.0000 0.0000 0.0000 16.2334 0.0000 0.0000
# 5 0.0000 0.0000 0.0000 0.0000 36.0344 0.0000
# 6 0.0000 0.0000 0.0000 0.0000 0.0000 41.3771
#
#
#
# Elastic Compliance Matrix: (Units=1/GPa)
#
#
# Indices 1 2 3 4 5 6 
#
# 1 0.011927 -0.009868 0.003673 0.000000 0.000000 0.000000
# 2 -0.009868 0.018715 0.000466 0.000000 0.000000 0.000000
# 3 0.003673 0.000466 0.039164 0.000000 0.000000 0.000000
# 4 0.000000 0.000000 0.000000 0.061601 0.000000 0.000000
# 5 0.000000 0.000000 0.000000 0.000000 0.027751 0.000000
# 6 0.000000 0.000000 0.000000 0.000000 0.000000 0.024168
#
#
# Mechanical properties :
#
#
# Convention : Reuss Voigt Hill
#
# Bulk Modulus (GPa) = 17.13873 44.50377 30.82125
# Shear Modulus (GPa) = 23.33900 33.66080 28.49990
#
# Velocity S-wave (km/s) = 3.39072 4.07204 3.74690
# Velocity P-wave (km/s) = 4.87565 6.63563 5.82252
#
# Compressibility (1/GPa) = 0.05834739
#
# Stress axis : x y z
#
# Youngs Moduli (GPa) = 83.84640 53.43365 25.53349
#
# Poissons Ratio (x) = 0.52726 -0.09377
# Poissons Ratio (y) = 0.82736 -0.01189
# Poissons Ratio (z) = -0.30793 -0.02489
#
# Static dielectric constant tensor:
#      x y z
#    x 1.706710 0.000000 0.000000 
#    y 0.000000 1.705130 0.000000 
#    z 0.000000 0.000000 1.754040 
# 
# From -- ./inp_files/2969.got.cif
#   From: 2010.05.17/outbox.cif.g08.bks.cpg/sg58_2_cif.got.tgz:2969.got - 2010.06.03 14:20:14.
