data_PCOD9443318
_publ_section_title
;
Structure prediction by ZEFSAII (Michael W. Deem and Ramdas Pophale) SiO2 
 PCOD9443318
Probable space group: P N N M
;
_chemical_formula_sum "Si O2"
_cell_formula_units_Z 48
_cell_length_a 8.126298
_cell_length_b 16.498634
_cell_length_c 17.290696
_cell_angle_alpha 90.000000
_cell_angle_beta 90.000000
_cell_angle_gamma 90.000000
_cell_volume 2318.212312
_symmetry_space_group_name_H-M "P N N M"
_symmetry_group_IT_number 58
_symmetry_cell_setting 'orthorhombic'
loop_
_space_group_symop_operation_xyz
x,y,z
-x,-y,z
1/2+x,1/2-y,1/2-z
1/2-x,1/2+y,1/2-z
-x,-y,-z
x,y,-z
1/2-x,1/2+y,1/2+z
1/2+x,1/2-y,1/2+z
loop_
_atom_site_type_symbol
_atom_site_label
_atom_site_fract_x
_atom_site_fract_y
_atom_site_fract_z
Si Si1 0.925476 0.580073 0.164420
Si Si2 0.318116 0.482321 0.700670
Si Si3 0.626312 0.767991 0.696540
Si Si4 0.349809 0.103246 0.084157
Si Si5 0.276404 0.762664 0.640382
Si Si6 0.725502 0.149954 0.910371
O O1 0.810770 0.550438 0.235420
O O2 0.816095 0.644952 0.116586
O O3 0.000000 0.500000 0.126295
O O4 0.078084 0.636896 0.193356
O O5 0.500000 0.500000 0.732999
O O6 0.237611 0.556614 0.653584
O O7 0.338592 0.412789 0.635679
O O8 0.454563 0.731090 0.667747
O O9 0.668561 0.739056 0.781869
O O10 0.762380 0.733983 0.637442
O O11 0.295206 0.196899 0.083934
O O12 0.545744 0.108985 0.094731
O O13 0.313246 0.065704 0.000000
O O14 0.767749 0.161803 0.000000
#
# Coordination Sequence:
#
# PCOD9443318 Si02
#       6
#     8   8   8   8   8   8
#     4  10  22  39  58  86 121 158 204 254 304 358
#     4  12  23  37  59  93 129 165 200 247 308 380
#     4  10  20  35  59  83 116 158 205 248 304 352
#     4  11  24  39  62  91 128 169 200 252 312 373
#     4  10  20  35  60  83 120 156 206 248 294 365
#     4  11  22  39  58  87 126 166 204 244 307 371
#
# _framework density 20.70561
#
# number of rings (size 3 to 8) (size 9 to 14) (size 15 to 20)
#    1.000    0.333    1.667    6.000    0.000    4.667 
#    3.000    0.000    0.000    2.000    0.000    2.333 
#    0.000    0.000    0.000    0.000    0.000    0.000 
#
# Total GULP energy -267552.274300 kJ/mol
# GULP energy per Si atom -5574.005715 kJ/mol
# Density = 2.065848 g / cm^3
# Si number density = 20.705610 Si / 1000 Ang^3
#
#
#
# Elastic Constant Matrix: (Units=GPa)
#
#
# Indices 1 2 3 4 5 6 
#
# 1 31.9180 14.4533 2.4930 0.0000 0.0000 0.0000
# 2 14.4533 122.5880 8.8663 0.0000 0.0000 0.0000
# 3 2.4930 8.8663 45.2653 0.0000 0.0000 0.0000
# 4 0.0000 0.0000 0.0000 23.5188 0.0000 0.0000
# 5 0.0000 0.0000 0.0000 0.0000 33.3499 0.0000
# 6 0.0000 0.0000 0.0000 0.0000 0.0000 42.2226
#
#
#
# Elastic Compliance Matrix: (Units=1/GPa)
#
#
# Indices 1 2 3 4 5 6 
#
# 1 0.033149 -0.003831 -0.001075 0.000000 0.000000 0.000000
# 2 -0.003831 0.008717 -0.001497 0.000000 0.000000 0.000000
# 3 -0.001075 -0.001497 0.022444 0.000000 0.000000 0.000000
# 4 0.000000 0.000000 0.000000 0.042519 0.000000 0.000000
# 5 0.000000 0.000000 0.000000 0.000000 0.029985 0.000000
# 6 0.000000 0.000000 0.000000 0.000000 0.000000 0.023684
#
#
# Mechanical properties :
#
#
# Convention : Reuss Voigt Hill
#
# Bulk Modulus (GPa) = 19.41536 27.93294 23.67415
# Shear Modulus (GPa) = 26.25057 31.41551 28.83304
#
# Velocity S-wave (km/s) = 3.56448 3.89941 3.73570
# Velocity P-wave (km/s) = 5.13205 5.81323 5.48323
#
# Compressibility (1/GPa) = 0.05150563
#
# Stress axis : x y z
#
# Youngs Moduli (GPa) = 30.16698 114.71484 44.55465
#
# Poissons Ratio (x) = 0.43942 0.04791
# Poissons Ratio (y) = 0.11556 0.06668
# Poissons Ratio (z) = 0.03244 0.17167
#
# Static dielectric constant tensor:
#      x y z
#    x 1.777880 0.000000 0.000000 
#    y 0.000000 1.910580 0.000000 
#    z 0.000000 0.000000 1.701800 
# 
# From -- ./inp_files/25420.got.cif
#   From: 2010.05.17/outbox.cif.g08.bks.cpg/sg58_13_cif.got.tgz:25420.got - 2010.06.03 14:20:14.
