data_PCOD9443268
_publ_section_title
;
Structure prediction by ZEFSAII (Michael W. Deem and Ramdas Pophale) SiO2 
 PCOD9443268
Probable space group: P N N M
;
_chemical_formula_sum "Si O2"
_cell_formula_units_Z 64
_cell_length_a 14.747678
_cell_length_b 24.090769
_cell_length_c 7.687869
_cell_angle_alpha 90.000000
_cell_angle_beta 90.000000
_cell_angle_gamma 90.000000
_cell_volume 2731.368424
_symmetry_space_group_name_H-M "P N N M"
_symmetry_group_IT_number 58
_symmetry_cell_setting 'orthorhombic'
loop_
_space_group_symop_operation_xyz
x,y,z
-x,-y,z
1/2+x,1/2-y,1/2-z
1/2-x,1/2+y,1/2-z
-x,-y,-z
x,y,-z
1/2-x,1/2+y,1/2+z
1/2+x,1/2-y,1/2+z
loop_
_atom_site_type_symbol
_atom_site_label
_atom_site_fract_x
_atom_site_fract_y
_atom_site_fract_z
Si Si1 0.670990 0.098677 0.711467
Si Si2 0.324007 0.325009 0.211023
Si Si3 0.193390 0.001169 0.794239
Si Si4 0.960237 0.075123 0.203317
Si Si5 0.777528 0.383958 0.199006
Si Si6 0.032847 0.739360 0.298500
Si Si7 0.023734 0.618321 0.802439
Si Si8 0.596151 0.337626 0.703669
O O1 0.668255 0.098068 0.500000
O O2 0.723287 0.155784 0.762298
O O3 0.733550 0.047945 0.770403
O O4 0.568404 0.094512 0.777383
O O5 0.388440 0.374246 0.279680
O O6 0.373761 0.268551 0.265219
O O7 0.328698 0.325901 0.000000
O O8 0.096718 0.977249 0.726614
O O9 0.233025 0.055463 0.707316
O O10 0.183322 0.012926 0.000000
O O11 0.050029 0.105179 0.274189
O O12 0.975981 0.063169 0.000000
O O13 0.877362 0.388650 0.280743
O O14 0.703595 0.342528 0.278259
O O15 0.790002 0.366312 0.000000
O O16 0.044439 0.723740 0.500000
O O17 0.009162 0.684518 0.194945
O O18 0.954175 0.785596 0.287387
O O19 0.029814 0.595841 0.000000
O O20 0.573920 0.334625 0.500000
#
# Coordination Sequence:
#
# PCOD9443268 Si02
#       8
#     8   8   8   8   8   8   8   8
#     4   9  18  36  59  80 104 140 186 230 275 330
#     4   8  15  29  52  80 106 132 168 216 266 319
#     4  10  20  36  58  84 112 143 181 228 285 340
#     4   8  16  31  53  81 110 139 174 217 267 328
#     4  11  24  40  55  78 114 152 191 233 278 330
#     4  10  20  35  57  86 116 143 176 223 278 335
#     4  10  23  40  56  77 109 150 193 233 276 329
#     4  10  20  37  60  84 113 149 186 227 280 338
#
# _framework density 23.431477000000001
#
# number of rings (size 3 to 8) (size 9 to 14) (size 15 to 20)
#    0.000    2.500    0.000    1.500    0.000    5.000 
#    0.000    6.250    0.000    0.000    0.000    0.000 
#    0.000    0.000    0.000    0.000    0.000    0.000 
#
# Total GULP energy -357234.080178 kJ/mol
# GULP energy per Si atom -5581.782503 kJ/mol
# Density = 2.337815 g / cm^3
# Si number density = 23.431477 Si / 1000 Ang^3
#
#
#
# Elastic Constant Matrix: (Units=GPa)
#
#
# Indices 1 2 3 4 5 6 
#
# 1 171.3620 11.9767 0.3742 0.0000 0.0000 0.0000
# 2 11.9767 41.3440 -9.2174 0.0000 0.0000 0.0000
# 3 0.3742 -9.2174 52.0393 0.0000 0.0000 0.0000
# 4 0.0000 0.0000 0.0000 11.3041 0.0000 0.0000
# 5 0.0000 0.0000 0.0000 0.0000 16.3301 0.0000
# 6 0.0000 0.0000 0.0000 0.0000 0.0000 -56.6772
#
#
#
# Elastic Compliance Matrix: (Units=1/GPa)
#
#
# Indices 1 2 3 4 5 6 
#
# 1 0.005963 -0.001808 -0.000363 0.000000 0.000000 0.000000
# 2 -0.001808 0.025730 0.004570 0.000000 0.000000 0.000000
# 3 -0.000363 0.004570 0.020028 0.000000 0.000000 0.000000
# 4 0.000000 0.000000 0.000000 0.088463 0.000000 0.000000
# 5 0.000000 0.000000 0.000000 0.000000 0.061237 0.000000
# 6 0.000000 0.000000 0.000000 0.000000 0.000000 -0.017644
#
#
# Mechanical properties :
#
#
# Convention : Reuss Voigt Hill
#
# Bulk Modulus (GPa) = 17.69311 30.11248 23.90279
# Shear Modulus (GPa) = 25.27563 11.63220 18.45392
#
# Velocity S-wave (km/s) = 3.28793 2.23050 2.80941
# Velocity P-wave (km/s) = 4.68843 4.41732 4.55489
#
# Compressibility (1/GPa) = 0.05651918
#
# Stress axis : x y z
#
# Youngs Moduli (GPa) = 167.70712 38.86503 49.92908
#
# Poissons Ratio (x) = 0.07028 0.01813
# Poissons Ratio (y) = 0.30326 -0.22820
# Poissons Ratio (z) = 0.06091 -0.17763
#
# Static dielectric constant tensor:
#      x y z
#    x 1.943560 0.000000 0.000000 
#    y 0.000000 1.888960 0.000000 
#    z 0.000000 0.000000 1.888330 
# 
# From -- ./inp_files/6743.got.cif
#   From: 2010.05.17/outbox.cif.g08.bks.cpg/sg58_4_cif.got.tgz:6743.got - 2010.06.03 14:20:14.
