data_PCOD9443156
_publ_section_title
;
Structure prediction by ZEFSAII (Michael W. Deem and Ramdas Pophale) SiO2 
 PCOD9443156
Probable space group: P N N M
;
_chemical_formula_sum "Si O2"
_cell_formula_units_Z 48
_cell_length_a 7.785057
_cell_length_b 27.910832
_cell_length_c 9.967883
_cell_angle_alpha 90.000000
_cell_angle_beta 90.000000
_cell_angle_gamma 90.000000
_cell_volume 2165.895560
_symmetry_space_group_name_H-M "P N N M"
_symmetry_group_IT_number 58
_symmetry_cell_setting 'orthorhombic'
loop_
_space_group_symop_operation_xyz
x,y,z
-x,-y,z
1/2+x,1/2-y,1/2-z
1/2-x,1/2+y,1/2-z
-x,-y,-z
x,y,-z
1/2-x,1/2+y,1/2+z
1/2+x,1/2-y,1/2+z
loop_
_atom_site_type_symbol
_atom_site_label
_atom_site_fract_x
_atom_site_fract_y
_atom_site_fract_z
Si Si1 0.938739 0.368859 0.155201
Si Si2 0.074180 0.945130 0.350109
Si Si3 0.356294 0.712463 0.154354
Si Si4 0.181546 0.474384 0.643675
Si Si5 0.702293 0.421197 0.349212
Si Si6 0.750616 0.699803 0.841958
O O1 0.793684 0.326982 0.163422
O O2 0.872730 0.405108 0.269345
O O3 0.121917 0.344576 0.183553
O O4 0.934664 0.387370 0.000000
O O5 0.082329 0.925334 0.500000
O O6 0.256114 0.948241 0.275916
O O7 0.953203 0.914052 0.253677
O O8 0.000000 0.000000 0.362026
O O9 0.547883 0.692867 0.182930
O O10 0.313804 0.755685 0.253652
O O11 0.357533 0.729823 0.000000
O O12 0.193590 0.447989 0.500000
O O13 0.300671 0.521485 0.634735
O O14 0.000000 0.500000 0.652746
O O15 0.691757 0.400568 0.500000
O O16 0.771794 0.710992 0.000000
#
# Coordination Sequence:
#
# PCOD9443156 Si02
#       6
#     8   8   8   8   8   8
#     4  10  21  37  54  77 114 148 178 226 277 320
#     4   9  17  31  53  77 101 133 173 212 256 314
#     4  10  20  35  57  82 108 141 183 224 270 326
#     4   9  18  34  55  78 108 140 176 221 266 318
#     4  10  20  35  55  78 105 140 177 217 270 322
#     4  10  20  35  57  82 108 142 183 224 271 324
#
# _framework density 22.161735
#
# number of rings (size 3 to 8) (size 9 to 14) (size 15 to 20)
#    0.000    2.333    1.667    1.000    0.000    4.333 
#    3.000    0.000    0.000    0.000    0.000    0.000 
#    0.000    0.000    0.000    0.000    0.000    0.000 
#
# Total GULP energy -267870.380000 kJ/mol
# GULP energy per Si atom -5580.632917 kJ/mol
# Density = 2.211129 g / cm^3
# Si number density = 22.161735 Si / 1000 Ang^3
#
#
#
# Elastic Constant Matrix: (Units=GPa)
#
#
# Indices 1 2 3 4 5 6 
#
# 1 96.3502 13.8012 42.3288 0.0000 0.0000 0.0000
# 2 13.8012 59.2232 38.6657 0.0000 0.0000 0.0000
# 3 42.3288 38.6657 141.3495 0.0000 0.0000 0.0000
# 4 0.0000 0.0000 0.0000 20.8065 0.0000 0.0000
# 5 0.0000 0.0000 0.0000 0.0000 18.6129 0.0000
# 6 0.0000 0.0000 0.0000 0.0000 0.0000 31.4877
#
#
#
# Elastic Compliance Matrix: (Units=1/GPa)
#
#
# Indices 1 2 3 4 5 6 
#
# 1 0.011966 -0.000547 -0.003434 0.000000 0.000000 0.000000
# 2 -0.000547 0.020581 -0.005466 0.000000 0.000000 0.000000
# 3 -0.003434 -0.005466 0.009598 0.000000 0.000000 0.000000
# 4 0.000000 0.000000 0.000000 0.048062 0.000000 0.000000
# 5 0.000000 0.000000 0.000000 0.000000 0.053726 0.000000
# 6 0.000000 0.000000 0.000000 0.000000 0.000000 0.031758
#
#
# Mechanical properties :
#
#
# Convention : Reuss Voigt Hill
#
# Bulk Modulus (GPa) = 43.00700 54.05715 48.53207
# Shear Modulus (GPa) = 24.71139 27.65657 26.18398
#
# Velocity S-wave (km/s) = 3.34286 3.53646 3.44102
# Velocity P-wave (km/s) = 5.86069 6.41252 6.14280
#
# Compressibility (1/GPa) = 0.02325203
#
# Stress axis : x y z
#
# Youngs Moduli (GPa) = 83.57276 48.58734 104.18597
#
# Poissons Ratio (x) = 0.02656 0.35775
# Poissons Ratio (y) = 0.04568 0.56951
# Poissons Ratio (z) = 0.28697 0.26559
#
# Static dielectric constant tensor:
#      x y z
#    x 1.871870 0.000000 0.000000 
#    y 0.000000 1.830040 0.000000 
#    z 0.000000 0.000000 1.834750 
# 
# From -- ./inp_files/2943.got.cif
#   From: 2010.05.17/outbox.cif.g08.bks.cpg/sg58_2_cif.got.tgz:2943.got - 2010.06.03 14:20:14.
