data_PCOD9443054
_publ_section_title
;
Structure prediction by ZEFSAII (Michael W. Deem and Ramdas Pophale) SiO2 
 PCOD9443054
Probable space group: P N N M
;
_chemical_formula_sum "Si O2"
_cell_formula_units_Z 40
_cell_length_a 16.018160
_cell_length_b 15.977867
_cell_length_c 8.761087
_cell_angle_alpha 90.000000
_cell_angle_beta 90.000000
_cell_angle_gamma 90.000000
_cell_volume 2242.277826
_symmetry_space_group_name_H-M "P N N M"
_symmetry_group_IT_number 58
_symmetry_cell_setting 'orthorhombic'
loop_
_space_group_symop_operation_xyz
x,y,z
-x,-y,z
1/2+x,1/2-y,1/2-z
1/2-x,1/2+y,1/2-z
-x,-y,-z
x,y,-z
1/2-x,1/2+y,1/2+z
1/2+x,1/2-y,1/2+z
loop_
_atom_site_type_symbol
_atom_site_label
_atom_site_fract_x
_atom_site_fract_y
_atom_site_fract_z
Si Si1 0.041987 0.120104 0.316834
Si Si2 0.377164 0.457854 0.317810
Si Si3 0.431788 0.075190 0.675200
Si Si4 0.803534 0.559403 0.183497
Si Si5 0.563601 0.187058 0.180916
O O1 0.044070 0.109254 0.500000
O O2 0.065921 0.215175 0.280262
O O3 0.949456 0.099094 0.256216
O O4 0.101700 0.051576 0.239857
O O5 0.382798 0.453901 0.500000
O O6 0.286128 0.432746 0.259668
O O7 0.421078 0.103268 0.500000
O O8 0.474057 0.147730 0.772691
O O9 0.500000 0.000000 0.673892
O O10 0.348164 0.028607 0.729184
O O11 0.865500 0.633495 0.234337
O O12 0.797202 0.558988 0.000000
O O13 0.575162 0.177273 0.000000
#
# Coordination Sequence:
#
# PCOD9443054 Si02
#       5
#     8   8   8   8   8
#     4  10  21  39  59  79 110 149 183 222 279 333
#     4  11  22  37  59  83 107 143 189 231 272 324
#     4   8  16  31  52  77 107 146 179 212 269 326
#     4  10  20  36  57  81 113 149 182 224 278 327
#     4  10  20  34  56  85 113 143 182 227 272 324
#
# _framework density 17.839003000000002
#
# number of rings (size 3 to 8) (size 9 to 14) (size 15 to 20)
#    0.000    2.200    0.000    6.000    0.000    7.600 
#    3.600    0.000    0.000    0.000    0.000    0.000 
#    0.000    0.000    0.000    0.000    0.000    0.000 
#
# Total GULP energy -223174.430240 kJ/mol
# GULP energy per Si atom -5579.360756 kJ/mol
# Density = 1.779840 g / cm^3
# Si number density = 17.839003 Si / 1000 Ang^3
#
#
#
# Elastic Constant Matrix: (Units=GPa)
#
#
# Indices 1 2 3 4 5 6 
#
# 1 83.0516 35.7948 27.7534 0.0000 0.0000 0.0000
# 2 35.7948 83.0313 34.8586 0.0000 0.0000 0.0000
# 3 27.7534 34.8586 65.4944 0.0000 0.0000 0.0000
# 4 0.0000 0.0000 0.0000 27.7539 0.0000 0.0000
# 5 0.0000 0.0000 0.0000 0.0000 56.7379 0.0000
# 6 0.0000 0.0000 0.0000 0.0000 0.0000 7.1232
#
#
#
# Elastic Compliance Matrix: (Units=1/GPa)
#
#
# Indices 1 2 3 4 5 6 
#
# 1 0.015519 -0.005060 -0.003883 0.000000 0.000000 0.000000
# 2 -0.005060 0.017159 -0.006988 0.000000 0.000000 0.000000
# 3 -0.003883 -0.006988 0.020633 0.000000 0.000000 0.000000
# 4 0.000000 0.000000 0.000000 0.036031 0.000000 0.000000
# 5 0.000000 0.000000 0.000000 0.000000 0.017625 0.000000
# 6 0.000000 0.000000 0.000000 0.000000 0.000000 0.140387
#
#
# Mechanical properties :
#
#
# Convention : Reuss Voigt Hill
#
# Bulk Modulus (GPa) = 46.62365 47.59901 47.11133
# Shear Modulus (GPa) = 17.46011 27.20103 22.33057
#
# Velocity S-wave (km/s) = 3.13191 3.90911 3.54189
# Velocity P-wave (km/s) = 6.26666 6.86406 6.57215
#
# Compressibility (1/GPa) = 0.02144834
#
# Stress axis : x y z
#
# Youngs Moduli (GPa) = 64.43627 58.27853 48.46496
#
# Poissons Ratio (x) = 0.29490 0.18820
# Poissons Ratio (y) = 0.32605 0.33869
# Poissons Ratio (z) = 0.25021 0.40728
#
# Static dielectric constant tensor:
#      x y z
#    x 1.609370 0.000000 0.000000 
#    y 0.000000 1.601920 0.000000 
#    z 0.000000 0.000000 1.596900 
# 
# From -- ./inp_files/5389.got.cif
#   From: 2010.05.17/outbox.cif.g08.bks.cpg/sg58_3_cif.got.tgz:5389.got - 2010.06.03 14:20:14.
