data_PCOD9443511
_publ_section_title
;
Structure prediction by ZEFSAII (Michael W. Deem and Ramdas Pophale) SiO2 
 PCOD9443511
Probable space group: P N N M
;
_chemical_formula_sum "Si O2"
_cell_formula_units_Z 48
_cell_length_a 9.643134
_cell_length_b 16.411678
_cell_length_c 13.564328
_cell_angle_alpha 90.000000
_cell_angle_beta 90.000000
_cell_angle_gamma 90.000000
_cell_volume 2146.690687
_symmetry_space_group_name_H-M "P N N M"
_symmetry_group_IT_number 58
_symmetry_cell_setting 'orthorhombic'
loop_
_space_group_symop_operation_xyz
x,y,z
-x,-y,z
1/2+x,1/2-y,1/2-z
1/2-x,1/2+y,1/2-z
-x,-y,-z
x,y,-z
1/2-x,1/2+y,1/2+z
1/2+x,1/2-y,1/2+z
loop_
_atom_site_type_symbol
_atom_site_label
_atom_site_fract_x
_atom_site_fract_y
_atom_site_fract_z
Si Si1 0.288980 0.404465 0.882787
Si Si2 0.524447 0.085768 0.288562
Si Si3 0.313846 0.870641 0.116255
Si Si4 0.990943 0.901975 0.889721
Si Si5 0.788349 0.913922 0.291993
Si Si6 0.963903 0.792576 0.388337
O O1 0.137028 0.370140 0.855903
O O2 0.307001 0.491070 0.824963
O O3 0.400452 0.337651 0.848384
O O4 0.305069 0.418205 0.000000
O O5 0.607255 0.066530 0.186938
O O6 0.369077 0.114304 0.272635
O O7 0.500000 0.000000 0.343398
O O8 0.148034 0.870718 0.129222
O O9 0.391802 0.788417 0.152024
O O10 0.336414 0.884748 0.000000
O O11 0.881262 0.888908 0.802466
O O12 0.948698 0.873198 0.000000
O O13 0.000000 0.000000 0.894649
O O14 0.847573 0.861720 0.381839
O O15 0.999316 0.771028 0.500000
#
# Coordination Sequence:
#
# PCOD9443511 Si02
#       6
#     8   8   8   8   8   8
#     4  10  21  39  62  88 122 162 205 252 301 358
#     4  10  22  36  56  87 118 156 201 248 300 359
#     4  10  22  40  59  83 118 158 203 253 305 363
#     4  10  20  36  60  87 118 159 206 256 306 363
#     4  11  21  34  59  91 122 159 204 249 301 364
#     4  10  21  37  59  85 114 155 204 253 304 359
#
# _framework density 22.359998999999998
#
# number of rings (size 3 to 8) (size 9 to 14) (size 15 to 20)
#    0.000    1.833    0.000    5.000    0.000    8.667 
#    0.000    0.000    0.000    7.000    0.000    0.000 
#    0.000    0.000    0.000    0.000    0.000    0.000 
#
# Total GULP energy -267393.563682 kJ/mol
# GULP energy per Si atom -5570.699243 kJ/mol
# Density = 2.230911 g / cm^3
# Si number density = 22.359999 Si / 1000 Ang^3
#
#
#
# Elastic Constant Matrix: (Units=GPa)
#
#
# Indices 1 2 3 4 5 6 
#
# 1 186.5302 28.4663 50.0583 0.0000 0.0000 0.0000
# 2 28.4663 56.9502 10.5215 0.0000 0.0000 0.0000
# 3 50.0583 10.5215 111.4679 0.0000 0.0000 0.0000
# 4 0.0000 0.0000 0.0000 12.5640 0.0000 0.0000
# 5 0.0000 0.0000 0.0000 0.0000 24.4747 0.0000
# 6 0.0000 0.0000 0.0000 0.0000 0.0000 17.9414
#
#
#
# Elastic Compliance Matrix: (Units=1/GPa)
#
#
# Indices 1 2 3 4 5 6 
#
# 1 0.006494 -0.002755 -0.002656 0.000000 0.000000 0.000000
# 2 -0.002755 0.019040 -0.000560 0.000000 0.000000 0.000000
# 3 -0.002656 -0.000560 0.010217 0.000000 0.000000 0.000000
# 4 0.000000 0.000000 0.000000 0.079593 0.000000 0.000000
# 5 0.000000 0.000000 0.000000 0.000000 0.040858 0.000000
# 6 0.000000 0.000000 0.000000 0.000000 0.000000 0.055737
#
#
# Mechanical properties :
#
#
# Convention : Reuss Voigt Hill
#
# Bulk Modulus (GPa) = 42.00262 59.22671 50.61466
# Shear Modulus (GPa) = 21.56856 28.72283 25.14570
#
# Velocity S-wave (km/s) = 3.10918 3.58797 3.35712
# Velocity P-wave (km/s) = 5.63159 6.61135 6.14104
#
# Compressibility (1/GPa) = 0.02380804
#
# Stress axis : x y z
#
# Youngs Moduli (GPa) = 153.97705 52.52123 97.87607
#
# Poissons Ratio (x) = 0.14472 0.26000
# Poissons Ratio (y) = 0.42428 0.05479
# Poissons Ratio (z) = 0.40903 0.02940
#
# Static dielectric constant tensor:
#      x y z
#    x 1.872970 0.000000 0.000000 
#    y 0.000000 1.949610 0.000000 
#    z 0.000000 0.000000 1.885350 
# 
# From -- ./inp_files/19809.got.cif
#   From: 2010.05.17/outbox.cif.g08.bks.cpg/sg58_10_cif.got.tgz:19809.got - 2010.06.03 14:20:14.
