data_PCOD9443635
_publ_section_title
;
Structure prediction by ZEFSAII (Michael W. Deem and Ramdas Pophale) SiO2 
 PCOD9443635
Probable space group: P N N M
;
_chemical_formula_sum "Si O2"
_cell_formula_units_Z 64
_cell_length_a 14.607924
_cell_length_b 25.332969
_cell_length_c 7.620712
_cell_angle_alpha 90.000000
_cell_angle_beta 90.000000
_cell_angle_gamma 90.000000
_cell_volume 2820.136578
_symmetry_space_group_name_H-M "P N N M"
_symmetry_group_IT_number 58
_symmetry_cell_setting 'orthorhombic'
loop_
_space_group_symop_operation_xyz
x,y,z
-x,-y,z
1/2+x,1/2-y,1/2-z
1/2-x,1/2+y,1/2-z
-x,-y,-z
x,y,-z
1/2-x,1/2+y,1/2+z
1/2+x,1/2-y,1/2+z
loop_
_atom_site_type_symbol
_atom_site_label
_atom_site_fract_x
_atom_site_fract_y
_atom_site_fract_z
Si Si1 0.510886 0.350799 0.700441
Si Si2 0.446910 0.950378 0.798750
Si Si3 0.215557 0.168306 0.705867
Si Si4 0.250483 0.903823 0.293070
Si Si5 0.071398 0.958095 0.300445
Si Si6 0.999817 0.262890 0.213340
Si Si7 0.597828 0.866618 0.713236
Si Si8 0.291379 0.786609 0.287888
O O1 0.479245 0.357316 0.500000
O O2 0.620153 0.342131 0.700211
O O3 0.480955 0.402274 0.801752
O O4 0.475268 0.295403 0.777148
O O5 0.351578 0.929041 0.722446
O O6 0.523720 0.905533 0.790143
O O7 0.500000 0.000000 0.714661
O O8 0.425259 0.964235 0.000000
O O9 0.199480 0.159684 0.500000
O O10 0.296492 0.129508 0.764596
O O11 0.245382 0.229757 0.726710
O O12 0.229980 0.898791 0.500000
O O13 0.170448 0.942083 0.221076
O O14 0.252875 0.843128 0.223595
O O15 0.088701 0.977498 0.500000
O O16 0.000000 0.000000 0.218317
O O17 0.101498 0.281628 0.264328
O O18 0.932687 0.308407 0.267409
O O19 0.000248 0.259458 0.000000
O O20 0.592544 0.870269 0.500000
O O21 0.287362 0.787204 0.500000
#
# Coordination Sequence:
#
# PCOD9443635 Si02
#       8
#     8   8   8   8   8   8   8   8
#     4  10  21  38  60  84 119 162 199 245 301 357
#     4  11  25  42  60  89 125 157 198 253 302 353
#     4  10  21  34  56  89 124 160 199 245 296 356
#     4  10  21  40  64  87 115 156 200 247 300 357
#     4  10  23  42  63  89 120 154 204 261 302 349
#     4   8  15  31  54  80 113 147 186 239 287 344
#     4  10  20  37  59  85 119 160 201 241 293 358
#     4   9  17  33  56  82 116 154 195 241 294 357
#
# _framework density 22.693936000000001
#
# number of rings (size 3 to 8) (size 9 to 14) (size 15 to 20)
#    0.000    2.250    1.250    1.875    1.750    4.250 
#    0.000    4.375    0.000    0.000    0.000    0.000 
#    0.000    0.000    0.000    0.000    0.000    0.000 
#
# Total GULP energy -357129.515485 kJ/mol
# GULP energy per Si atom -5580.148679 kJ/mol
# Density = 2.264228 g / cm^3
# Si number density = 22.693936 Si / 1000 Ang^3
#
#
#
# Elastic Constant Matrix: (Units=GPa)
#
#
# Indices 1 2 3 4 5 6 
#
# 1 96.1601 47.7738 -5.8205 0.0000 0.0000 0.0000
# 2 47.7738 92.9294 -7.3816 0.0000 0.0000 0.0000
# 3 -5.8205 -7.3816 52.4365 0.0000 0.0000 0.0000
# 4 0.0000 0.0000 0.0000 -120.4308 0.0000 0.0000
# 5 0.0000 0.0000 0.0000 0.0000 4.0054 0.0000
# 6 0.0000 0.0000 0.0000 0.0000 0.0000 35.8237
#
#
#
# Elastic Compliance Matrix: (Units=1/GPa)
#
#
# Indices 1 2 3 4 5 6 
#
# 1 0.013982 -0.007145 0.000546 0.000000 0.000000 0.000000
# 2 -0.007145 0.014533 0.001253 0.000000 0.000000 0.000000
# 3 0.000546 0.001253 0.019308 0.000000 0.000000 0.000000
# 4 0.000000 0.000000 0.000000 -0.008304 0.000000 0.000000
# 5 0.000000 0.000000 0.000000 0.000000 0.249665 0.000000
# 6 0.000000 0.000000 0.000000 0.000000 0.000000 0.027914
#
#
# Mechanical properties :
#
#
# Convention : Reuss Voigt Hill
#
# Bulk Modulus (GPa) = 26.93094 34.51881 30.72488
# Shear Modulus (GPa) = 14.69864 -2.32340 6.18762
#
# Velocity S-wave (km/s) = 2.54774 -1.01293 1.65302
# Velocity P-wave (km/s) = 4.53292 3.72499 4.14867
#
# Compressibility (1/GPa) = 0.03713201
#
# Stress axis : x y z
#
# Youngs Moduli (GPa) = 71.52102 68.80756 51.79282
#
# Poissons Ratio (x) = 0.49160 -0.02829
# Poissons Ratio (y) = 0.51098 -0.06489
# Poissons Ratio (z) = -0.03907 -0.08621
#
# Static dielectric constant tensor:
#      x y z
#    x 1.867810 0.000000 0.000000 
#    y 0.000000 1.847950 0.000000 
#    z 0.000000 0.000000 1.841800 
# 
# From -- ./inp_files/6971.got.cif
#   From: 2010.05.17/outbox.cif.g08.bks.cpg/sg58_4_cif.got.tgz:6971.got - 2010.06.03 14:20:14.
