data_PCOD9443883
_publ_section_title
;
Structure prediction by ZEFSAII (Michael W. Deem and Ramdas Pophale) SiO2 
 PCOD9443883
Probable space group: P N N M
;
_chemical_formula_sum "Si O2"
_cell_formula_units_Z 48
_cell_length_a 9.000542
_cell_length_b 15.072419
_cell_length_c 14.233239
_cell_angle_alpha 90.000000
_cell_angle_beta 90.000000
_cell_angle_gamma 90.000000
_cell_volume 1930.880352
_symmetry_space_group_name_H-M "P N N M"
_symmetry_group_IT_number 58
_symmetry_cell_setting 'orthorhombic'
loop_
_space_group_symop_operation_xyz
x,y,z
-x,-y,z
1/2+x,1/2-y,1/2-z
1/2-x,1/2+y,1/2-z
-x,-y,-z
x,y,-z
1/2-x,1/2+y,1/2+z
1/2+x,1/2-y,1/2+z
loop_
_atom_site_type_symbol
_atom_site_label
_atom_site_fract_x
_atom_site_fract_y
_atom_site_fract_z
Si Si1 0.971063 0.341982 0.788839
Si Si2 0.690748 0.065546 0.605359
Si Si3 0.325594 0.575759 0.753523
Si Si4 0.989565 0.157438 0.109779
Si Si5 0.367585 0.853178 0.896323
Si Si6 0.525158 0.660463 0.899122
O O1 0.024368 0.402197 0.875216
O O2 0.054960 0.384032 0.698931
O O3 0.799541 0.348577 0.763533
O O4 0.009206 0.243035 0.822506
O O5 0.706927 0.028711 0.500000
O O6 0.797131 0.153950 0.608615
O O7 0.748856 0.004508 0.690320
O O8 0.398203 0.582180 0.650267
O O9 0.463072 0.600866 0.817907
O O10 0.810805 0.140895 0.114138
O O11 0.022457 0.175391 0.000000
O O12 0.440887 0.754099 0.897906
O O13 0.403652 0.891751 0.000000
O O14 0.487153 0.619704 0.000000
#
# Coordination Sequence:
#
# PCOD9443883 Si02
#       6
#     8   8   8   8   8   8
#     4  12  23  41  66  99 137 177 224 279 332 397
#     4  11  26  43  67 101 140 181 221 273 338 404
#     4  12  24  40  64  98 139 178 221 273 333 404
#     4  11  23  41  67  97 131 176 228 281 333 396
#     4  10  22  41  66  99 132 168 220 277 335 393
#     4  10  20  38  64  94 128 168 215 268 328 394
#
# _framework density 24.859128999999999
#
# number of rings (size 3 to 8) (size 9 to 14) (size 15 to 20)
#    0.000    1.000    3.333    3.000    2.333    4.667 
#    0.000    0.833    0.000    6.000    0.000    0.000 
#    0.000    0.000    0.000    0.000    0.000    0.000 
#
# Total GULP energy -267787.558557 kJ/mol
# GULP energy per Si atom -5578.907470 kJ/mol
# Density = 2.480255 g / cm^3
# Si number density = 24.859129 Si / 1000 Ang^3
#
#
#
# Elastic Constant Matrix: (Units=GPa)
#
#
# Indices 1 2 3 4 5 6 
#
# 1 122.1166 21.3380 49.9311 0.0000 0.0000 0.0000
# 2 21.3380 61.9472 26.7701 0.0000 0.0000 0.0000
# 3 49.9311 26.7701 158.7511 0.0000 0.0000 0.0000
# 4 0.0000 0.0000 0.0000 18.4918 0.0000 0.0000
# 5 0.0000 0.0000 0.0000 0.0000 29.5613 0.0000
# 6 0.0000 0.0000 0.0000 0.0000 0.0000 30.1526
#
#
#
# Elastic Compliance Matrix: (Units=1/GPa)
#
#
# Indices 1 2 3 4 5 6 
#
# 1 0.009661 -0.002173 -0.002672 0.000000 0.000000 0.000000
# 2 -0.002173 0.017900 -0.002335 0.000000 0.000000 0.000000
# 3 -0.002672 -0.002335 0.007533 0.000000 0.000000 0.000000
# 4 0.000000 0.000000 0.000000 0.054078 0.000000 0.000000
# 5 0.000000 0.000000 0.000000 0.000000 0.033828 0.000000
# 6 0.000000 0.000000 0.000000 0.000000 0.000000 0.033165
#
#
# Mechanical properties :
#
#
# Convention : Reuss Voigt Hill
#
# Bulk Modulus (GPa) = 48.22924 59.87703 54.05314
# Shear Modulus (GPa) = 28.17890 31.95953 30.06921
#
# Velocity S-wave (km/s) = 3.37047 3.58945 3.48168
# Velocity P-wave (km/s) = 5.88131 6.42789 6.16066
#
# Compressibility (1/GPa) = 0.02073431
#
# Stress axis : x y z
#
# Youngs Moduli (GPa) = 103.50647 55.86473 132.74189
#
# Poissons Ratio (x) = 0.12140 0.35472
# Poissons Ratio (y) = 0.22493 0.30996
# Poissons Ratio (z) = 0.27660 0.13045
#
# Static dielectric constant tensor:
#      x y z
#    x 1.945980 0.000000 0.000000 
#    y 0.000000 2.059970 0.000000 
#    z 0.000000 0.000000 1.983940 
# 
# From -- ./inp_files/19810.got.cif
#   From: 2010.05.17/outbox.cif.g08.bks.cpg/sg58_10_cif.got.tgz:19810.got - 2010.06.03 14:20:14.
