data_PCOD9443767
_publ_section_title
;
Structure prediction by ZEFSAII (Michael W. Deem and Ramdas Pophale) SiO2 
 PCOD9443767
Probable space group: P N N M
;
_chemical_formula_sum "Si O2"
_cell_formula_units_Z 58
_cell_length_a 14.730244
_cell_length_b 22.684975
_cell_length_c 7.622268
_cell_angle_alpha 90.000000
_cell_angle_beta 90.000000
_cell_angle_gamma 90.000000
_cell_volume 2547.020617
_symmetry_space_group_name_H-M "P N N M"
_symmetry_group_IT_number 58
_symmetry_cell_setting 'orthorhombic'
loop_
_space_group_symop_operation_xyz
x,y,z
-x,-y,z
1/2+x,1/2-y,1/2-z
1/2-x,1/2+y,1/2-z
-x,-y,-z
x,y,-z
1/2-x,1/2+y,1/2+z
1/2+x,1/2-y,1/2+z
loop_
_atom_site_type_symbol
_atom_site_label
_atom_site_fract_x
_atom_site_fract_y
_atom_site_fract_z
Si Si1 0.202716 0.717032 0.203135
Si Si2 0.034123 0.785732 0.212655
Si Si3 0.964930 0.591298 0.798278
Si Si4 0.859063 0.476215 0.298548
Si Si5 0.366342 0.791060 0.712322
Si Si6 0.008947 0.916243 0.704180
Si Si7 0.695632 0.396314 0.205283
Si Si8 0.000000 0.000000 0.000000
O O1 0.107530 0.738399 0.277568
O O2 0.269746 0.772773 0.212972
O O3 0.254536 0.661149 0.284024
O O4 0.185522 0.701073 0.000000
O O5 0.935413 0.761380 0.260396
O O6 0.049361 0.850845 0.283213
O O7 0.039109 0.788121 0.000000
O O8 0.899479 0.534389 0.791301
O O9 0.911576 0.647889 0.727841
O O10 0.059469 0.571897 0.711742
O O11 0.988509 0.604569 0.000000
O O12 0.843306 0.491090 0.500000
O O13 0.767422 0.448980 0.222436
O O14 0.358594 0.793363 0.500000
O O15 0.011210 0.934423 0.500000
O O16 0.904395 0.909692 0.776211
O O17 0.050456 0.961102 0.842645
O O18 0.678458 0.384422 0.000000
#
# Coordination Sequence:
#
# PCOD9443767 Si02
#       8
#     8   8   8   8   8   8   8   2
#     4  10  21  37  62  93 125 163 209 262 332 391
#     4  10  20  39  64  92 131 174 209 270 341 399
#     4  10  20  38  58  83 123 170 205 256 317 384
#     4  11  22  35  58  88 121 159 210 260 319 387
#     4  10  21  37  61  89 123 164 207 256 326 388
#     4  11  24  44  71  97 129 174 228 274 335 399
#     4  10  21  40  64  93 122 164 219 272 319 397
#     4  12  26  48  72  94 132 178 218 286 332 378
#
# _framework density 22.771702000000001
#
# number of rings (size 3 to 8) (size 9 to 14) (size 15 to 20)
#    0.000    1.655    2.069    3.517    0.966    4.414 
#    2.483    1.379    0.000    0.000    0.000    0.000 
#    0.000    0.000    0.000    0.000    0.000    0.000 
#
# Total GULP energy -323649.965176 kJ/mol
# GULP energy per Si atom -5580.171813 kJ/mol
# Density = 2.271987 g / cm^3
# Si number density = 22.771702 Si / 1000 Ang^3
#
#
#
# Elastic Constant Matrix: (Units=GPa)
#
#
# Indices 1 2 3 4 5 6 
#
# 1 54.9776 -8.6595 -5.3212 0.0000 0.0000 0.0000
# 2 -8.6595 69.4371 3.3409 0.0000 0.0000 0.0000
# 3 -5.3212 3.3409 88.1637 0.0000 0.0000 0.0000
# 4 0.0000 0.0000 0.0000 8.4133 0.0000 0.0000
# 5 0.0000 0.0000 0.0000 0.0000 14.2034 0.0000
# 6 0.0000 0.0000 0.0000 0.0000 0.0000 31.6063
#
#
#
# Elastic Compliance Matrix: (Units=1/GPa)
#
#
# Indices 1 2 3 4 5 6 
#
# 1 0.018648 0.002276 0.001039 0.000000 0.000000 0.000000
# 2 0.002276 0.014706 -0.000420 0.000000 0.000000 0.000000
# 3 0.001039 -0.000420 0.011421 0.000000 0.000000 0.000000
# 4 0.000000 0.000000 0.000000 0.118859 0.000000 0.000000
# 5 0.000000 0.000000 0.000000 0.000000 0.070406 0.000000
# 6 0.000000 0.000000 0.000000 0.000000 0.000000 0.031639
#
#
# Mechanical properties :
#
#
# Convention : Reuss Voigt Hill
#
# Bulk Modulus (GPa) = 19.77653 21.25541 20.51597
# Shear Modulus (GPa) = 18.06722 25.72582 21.89652
#
# Velocity S-wave (km/s) = 2.81980 3.36479 3.10428
# Velocity P-wave (km/s) = 4.39378 4.94471 4.67736
#
# Compressibility (1/GPa) = 0.05056500
#
# Stress axis : x y z
#
# Youngs Moduli (GPa) = 53.62432 68.00167 87.55662
#
# Poissons Ratio (x) = -0.15475 -0.09100
# Poissons Ratio (y) = -0.12203 0.03677
# Poissons Ratio (z) = -0.05573 0.02855
#
# Static dielectric constant tensor:
#      x y z
#    x 1.845390 0.000000 0.000000 
#    y 0.000000 1.897340 0.000000 
#    z 0.000000 0.000000 1.825690 
# 
# From -- ./inp_files/6708.got.cif
#   From: 2010.05.17/outbox.cif.g08.bks.cpg/sg58_4_cif.got.tgz:6708.got - 2010.06.03 14:20:14.
