data_PCOD9443746
_publ_section_title
;
Structure prediction by ZEFSAII (Michael W. Deem and Ramdas Pophale) SiO2 
 PCOD9443746
Probable space group: P N N M
;
_chemical_formula_sum "Si O2"
_cell_formula_units_Z 34
_cell_length_a 18.548744
_cell_length_b 5.772500
_cell_length_c 13.602105
_cell_angle_alpha 90.000000
_cell_angle_beta 90.000000
_cell_angle_gamma 90.000000
_cell_volume 1456.413084
_symmetry_space_group_name_H-M "P N N M"
_symmetry_group_IT_number 58
_symmetry_cell_setting 'orthorhombic'
loop_
_space_group_symop_operation_xyz
x,y,z
-x,-y,z
1/2+x,1/2-y,1/2-z
1/2-x,1/2+y,1/2-z
-x,-y,-z
x,y,-z
1/2-x,1/2+y,1/2+z
1/2+x,1/2-y,1/2+z
loop_
_atom_site_type_symbol
_atom_site_label
_atom_site_fract_x
_atom_site_fract_y
_atom_site_fract_z
Si Si1 0.078768 0.262546 0.821605
Si Si2 0.525768 0.745887 0.145199
Si Si3 0.189447 0.895608 0.111065
Si Si4 0.324975 0.094915 0.201057
Si Si5 0.000000 0.500000 0.000000
O O1 0.134895 0.365470 0.741629
O O2 0.057880 0.422289 0.913188
O O3 0.007521 0.238729 0.755398
O O4 0.115982 0.035422 0.866785
O O5 0.500000 0.500000 0.102299
O O6 0.611777 0.755726 0.151412
O O7 0.500000 0.000000 0.106534
O O8 0.199165 0.711532 0.197417
O O9 0.258833 0.058407 0.128561
O O10 0.188213 0.807305 0.000000
#
# Coordination Sequence:
#
# PCOD9443746 Si02
#       5
#     8   8   8   8   2
#     4  11  22  37  60  95 129 168 216 279 343 405
#     4  10  20  37  64  90 122 175 214 273 344 404
#     4  12  25  38  64  94 130 177 225 268 344 421
#     4  11  23  41  60  91 137 171 219 278 340 405
#     4  12  20  36  62 100 132 160 218 298 342 428
#
# _framework density 23.345025
#
# number of rings (size 3 to 8) (size 9 to 14) (size 15 to 20)
#    0.000    0.941    9.412    0.000    1.647    0.000 
#    0.000    2.941    0.000    7.059    0.000    0.000 
#    0.000    0.000    0.000    0.000    0.000    0.000 
#
# Total GULP energy -189305.467567 kJ/mol
# GULP energy per Si atom -5567.807870 kJ/mol
# Density = 2.329189 g / cm^3
# Si number density = 23.345025 Si / 1000 Ang^3
#
#
#
# Elastic Constant Matrix: (Units=GPa)
#
#
# Indices 1 2 3 4 5 6 
#
# 1 101.5346 4.9079 12.7079 0.0000 0.0000 0.0000
# 2 4.9079 90.1804 14.6546 0.0000 0.0000 0.0000
# 3 12.7079 14.6546 110.8907 0.0000 0.0000 0.0000
# 4 0.0000 0.0000 0.0000 -8.0502 0.0000 0.0000
# 5 0.0000 0.0000 0.0000 0.0000 8.7724 0.0000
# 6 0.0000 0.0000 0.0000 0.0000 0.0000 20.5314
#
#
#
# Elastic Compliance Matrix: (Units=1/GPa)
#
#
# Indices 1 2 3 4 5 6 
#
# 1 0.010004 -0.000366 -0.001098 0.000000 0.000000 0.000000
# 2 -0.000366 0.011346 -0.001457 0.000000 0.000000 0.000000
# 3 -0.001098 -0.001457 0.009336 0.000000 0.000000 0.000000
# 4 0.000000 0.000000 0.000000 -0.124220 0.000000 0.000000
# 5 0.000000 0.000000 0.000000 0.000000 0.113994 0.000000
# 6 0.000000 0.000000 0.000000 0.000000 0.000000 0.048706
#
#
# Mechanical properties :
#
#
# Convention : Reuss Voigt Hill
#
# Bulk Modulus (GPa) = 40.25286 40.79405 40.52345
# Shear Modulus (GPa) = 60.03123 22.27306 41.15215
#
# Velocity S-wave (km/s) = 5.07648 3.09217 4.20310
# Velocity P-wave (km/s) = 7.18616 5.50100 6.39929
#
# Compressibility (1/GPa) = 0.02484296
#
# Stress axis : x y z
#
# Youngs Moduli (GPa) = 99.96013 88.13959 107.10847
#
# Poissons Ratio (x) = 0.03226 0.11761
# Poissons Ratio (y) = 0.03659 0.15610
# Poissons Ratio (z) = 0.10976 0.12846
#
# Static dielectric constant tensor:
#      x y z
#    x 1.907560 0.000000 0.000000 
#    y 0.000000 2.033040 0.000000 
#    z 0.000000 0.000000 1.783380 
# 
# From -- ./inp_files/18413.got.cif
#   From: 2010.05.17/outbox.cif.g08.bks.cpg/sg58_10_cif.got.tgz:18413.got - 2010.06.03 14:20:14.
