data_PCOD9443202
_publ_section_title
;
Structure prediction by ZEFSAII (Michael W. Deem and Ramdas Pophale) SiO2 
 PCOD9443202
Probable space group: P N N M
;
_chemical_formula_sum "Si O2"
_cell_formula_units_Z 64
_cell_length_a 17.543841
_cell_length_b 22.198093
_cell_length_c 9.094806
_cell_angle_alpha 90.000000
_cell_angle_beta 90.000000
_cell_angle_gamma 90.000000
_cell_volume 3541.879558
_symmetry_space_group_name_H-M "P N N M"
_symmetry_group_IT_number 58
_symmetry_cell_setting 'orthorhombic'
loop_
_space_group_symop_operation_xyz
x,y,z
-x,-y,z
1/2+x,1/2-y,1/2-z
1/2-x,1/2+y,1/2-z
-x,-y,-z
x,y,-z
1/2-x,1/2+y,1/2+z
1/2+x,1/2-y,1/2+z
loop_
_atom_site_type_symbol
_atom_site_label
_atom_site_fract_x
_atom_site_fract_y
_atom_site_fract_z
Si Si1 0.290909 0.346077 0.174865
Si Si2 0.838776 0.276224 0.173348
Si Si3 0.225251 0.113183 0.326413
Si Si4 0.867412 0.598391 0.824175
Si Si5 0.040345 0.625829 0.823788
Si Si6 0.577917 0.421779 0.324979
Si Si7 0.094976 0.935679 0.824939
Si Si8 0.651111 0.969034 0.824066
O O1 0.322536 0.284164 0.239798
O O2 0.202487 0.357814 0.213658
O O3 0.340229 0.400935 0.238780
O O4 0.297186 0.345239 0.000000
O O5 0.771161 0.324754 0.196038
O O6 0.915560 0.312589 0.214471
O O7 0.842888 0.262198 0.000000
O O8 0.226377 0.099602 0.500000
O O9 0.140058 0.115000 0.264880
O O10 0.272633 0.062193 0.239523
O O11 0.857410 0.536018 0.738175
O O12 0.950731 0.625487 0.793902
O O13 0.863684 0.585949 0.000000
O O14 0.082139 0.571882 0.738385
O O15 0.052152 0.616337 0.000000
O O16 0.586916 0.411838 0.500000
O O17 0.489496 0.411067 0.287314
O O18 0.593531 0.492778 0.296964
O O19 0.105796 0.927680 0.000000
O O20 0.652228 0.968593 0.000000
#
# Coordination Sequence:
#
# PCOD9443202 Si02
#       8
#     8   8   8   8   8   8   8   8
#     4  11  23  37  55  80 109 143 186 232 273 318
#     4   9  20  39  58  74 102 144 185 222 270 326
#     4  10  20  35  56  81 110 146 184 223 272 327
#     4  10  21  37  56  81 111 143 181 223 272 330
#     4   9  19  38  60  79 106 146 186 222 270 332
#     4   9  18  34  57  85 111 140 182 226 269 323
#     4   9  19  36  56  79 112 148 179 218 274 332
#     4  11  21  32  53  86 119 146 177 219 272 325
#
# _framework density 18.069503000000001
#
# number of rings (size 3 to 8) (size 9 to 14) (size 15 to 20)
#    0.000    2.250    0.000    4.500    0.000    8.500 
#    2.250    1.250    0.000    0.000    0.000    0.000 
#    0.000    0.000    0.000    0.000    0.000    0.000 
#
# Total GULP energy -357323.895588 kJ/mol
# GULP energy per Si atom -5583.185869 kJ/mol
# Density = 1.802838 g / cm^3
# Si number density = 18.069503 Si / 1000 Ang^3
#
#
#
# Elastic Constant Matrix: (Units=GPa)
#
#
# Indices 1 2 3 4 5 6 
#
# 1 75.6061 15.6454 27.9336 0.0000 0.0000 0.0000
# 2 15.6454 48.9856 25.9482 0.0000 0.0000 0.0000
# 3 27.9336 25.9482 37.7631 0.0000 0.0000 0.0000
# 4 0.0000 0.0000 0.0000 22.3993 0.0000 0.0000
# 5 0.0000 0.0000 0.0000 0.0000 21.3624 0.0000
# 6 0.0000 0.0000 0.0000 0.0000 0.0000 5.3516
#
#
#
# Elastic Compliance Matrix: (Units=1/GPa)
#
#
# Indices 1 2 3 4 5 6 
#
# 1 0.018335 0.002088 -0.014998 0.000000 0.000000 0.000000
# 2 0.002088 0.032335 -0.023763 0.000000 0.000000 0.000000
# 3 -0.014998 -0.023763 0.053903 0.000000 0.000000 0.000000
# 4 0.000000 0.000000 0.000000 0.044644 0.000000 0.000000
# 5 0.000000 0.000000 0.000000 0.000000 0.046811 0.000000
# 6 0.000000 0.000000 0.000000 0.000000 0.000000 0.186861
#
#
# Mechanical properties :
#
#
# Convention : Reuss Voigt Hill
#
# Bulk Modulus (GPa) = 32.02210 33.48992 32.75601
# Shear Modulus (GPa) = 10.71481 16.01115 13.36298
#
# Velocity S-wave (km/s) = 2.43776 2.97995 2.72238
# Velocity P-wave (km/s) = 5.06790 5.51492 5.29613
#
# Compressibility (1/GPa) = 0.03122844
#
# Stress axis : x y z
#
# Youngs Moduli (GPa) = 54.53919 30.92664 18.55182
#
# Poissons Ratio (x) = -0.06459 0.27824
# Poissons Ratio (y) = -0.11390 0.44084
# Poissons Ratio (z) = 0.81797 0.73491
#
# Static dielectric constant tensor:
#      x y z
#    x 1.630310 0.000000 0.000000 
#    y 0.000000 1.590700 0.000000 
#    z 0.000000 0.000000 1.600820 
# 
# From -- ./inp_files/8518.got.cif
#   From: 2010.05.17/outbox.cif.g08.bks.cpg/sg58_5_cif.got.tgz:8518.got - 2010.06.03 14:20:14.
