data_PCOD9443088
_publ_section_title
;
Structure prediction by ZEFSAII (Michael W. Deem and Ramdas Pophale) SiO2 
 PCOD9443088
Probable space group: P N N M
;
_chemical_formula_sum "Si O2"
_cell_formula_units_Z 56
_cell_length_a 14.958970
_cell_length_b 21.480615
_cell_length_c 7.516035
_cell_angle_alpha 90.000000
_cell_angle_beta 90.000000
_cell_angle_gamma 90.000000
_cell_volume 2415.111558
_symmetry_space_group_name_H-M "P N N M"
_symmetry_group_IT_number 58
_symmetry_cell_setting 'orthorhombic'
loop_
_space_group_symop_operation_xyz
x,y,z
-x,-y,z
1/2+x,1/2-y,1/2-z
1/2-x,1/2+y,1/2-z
-x,-y,-z
x,y,-z
1/2-x,1/2+y,1/2+z
1/2+x,1/2-y,1/2+z
loop_
_atom_site_type_symbol
_atom_site_label
_atom_site_fract_x
_atom_site_fract_y
_atom_site_fract_z
Si Si1 0.915081 0.676486 0.717529
Si Si2 0.598063 0.760103 0.790667
Si Si3 0.909189 0.533522 0.718062
Si Si4 0.793198 0.788504 0.714885
Si Si5 0.583925 0.399886 0.204742
Si Si6 0.113034 0.881171 0.715948
Si Si7 0.219583 0.997310 0.203422
O O1 0.915165 0.675736 0.500000
O O2 0.906822 0.605368 0.775471
O O3 0.835406 0.722642 0.773308
O O4 0.009495 0.706128 0.778471
O O5 0.690637 0.796439 0.768663
O O6 0.614363 0.690227 0.721811
O O7 0.581090 0.752158 0.000000
O O8 0.906996 0.533194 0.500000
O O9 0.819278 0.498809 0.778411
O O10 0.000000 0.500000 0.773098
O O11 0.794262 0.789436 0.500000
O O12 0.857660 0.843474 0.782040
O O13 0.484035 0.407164 0.275718
O O14 0.643515 0.461367 0.207648
O O15 0.568392 0.381605 0.000000
O O16 0.121628 0.883735 0.500000
O O17 0.189561 0.925555 0.789397
O O18 0.221581 0.018633 0.000000
#
# Coordination Sequence:
#
# PCOD9443088 Si02
#       7
#     8   8   8   8   8   8   8
#     4   9  17  34  57  78 107 146 186 223 265 330
#     4  10  20  34  58  86 109 142 187 233 276 326
#     4   9  19  34  53  80 112 145 181 224 277 335
#     4  10  20  36  57  82 112 148 189 232 280 333
#     4  10  21  38  58  80 110 152 194 229 278 344
#     4  10  20  38  59  82 112 151 192 225 275 346
#     4  11  23  36  56  87 114 144 187 238 290 328
#
# _framework density 23.187334
#
# number of rings (size 3 to 8) (size 9 to 14) (size 15 to 20)
#    0.000    2.143    1.429    1.714    2.000    4.571 
#    0.000    0.714    0.000    3.429    0.000    0.000 
#    0.000    0.000    0.000    0.000    0.000    0.000 
#
# Total GULP energy -313013.722355 kJ/mol
# GULP energy per Si atom -5589.530756 kJ/mol
# Density = 2.313456 g / cm^3
# Si number density = 23.187334 Si / 1000 Ang^3
#
#
#
# Elastic Constant Matrix: (Units=GPa)
#
#
# Indices 1 2 3 4 5 6 
#
# 1 125.7564 -5.9253 -5.3624 0.0000 0.0000 0.0000
# 2 -5.9253 47.3459 -4.4675 0.0000 0.0000 0.0000
# 3 -5.3624 -4.4675 58.6234 0.0000 0.0000 0.0000
# 4 0.0000 0.0000 0.0000 2.6140 0.0000 0.0000
# 5 0.0000 0.0000 0.0000 0.0000 11.2953 0.0000
# 6 0.0000 0.0000 0.0000 0.0000 0.0000 29.5556
#
#
#
# Elastic Compliance Matrix: (Units=1/GPa)
#
#
# Indices 1 2 3 4 5 6 
#
# 1 0.008038 0.001083 0.000818 0.000000 0.000000 0.000000
# 2 0.001083 0.021420 0.001731 0.000000 0.000000 0.000000
# 3 0.000818 0.001731 0.017265 0.000000 0.000000 0.000000
# 4 0.000000 0.000000 0.000000 0.382552 0.000000 0.000000
# 5 0.000000 0.000000 0.000000 0.000000 0.088533 0.000000
# 6 0.000000 0.000000 0.000000 0.000000 0.000000 0.033835
#
#
# Mechanical properties :
#
#
# Convention : Reuss Voigt Hill
#
# Bulk Modulus (GPa) = 18.52289 22.24613 20.38451
# Shear Modulus (GPa) = 8.89090 25.19170 17.04130
#
# Velocity S-wave (km/s) = 1.96028 3.29970 2.71392
# Velocity P-wave (km/s) = 3.62344 4.91246 4.31634
#
# Compressibility (1/GPa) = 0.05398725
#
# Stress axis : x y z
#
# Youngs Moduli (GPa) = 124.41237 46.68514 57.92138
#
# Poissons Ratio (x) = -0.05056 -0.04737
# Poissons Ratio (y) = -0.13475 -0.10029
# Poissons Ratio (z) = -0.10174 -0.08083
#
# Static dielectric constant tensor:
#      x y z
#    x 1.838080 0.000000 0.000000 
#    y 0.000000 1.837680 0.000000 
#    z 0.000000 0.000000 1.902080 
# 
# From -- ./inp_files/6373.got.cif
#   From: 2010.05.17/outbox.cif.g08.bks.cpg/sg58_4_cif.got.tgz:6373.got - 2010.06.03 14:20:14.
