data_PCOD9443430
_publ_section_title
;
Structure prediction by ZEFSAII (Michael W. Deem and Ramdas Pophale) SiO2 
 PCOD9443430
Probable space group: P N N M
;
_chemical_formula_sum "Si O2"
_cell_formula_units_Z 48
_cell_length_a 9.646205
_cell_length_b 28.878782
_cell_length_c 8.669570
_cell_angle_alpha 90.000000
_cell_angle_beta 90.000000
_cell_angle_gamma 90.000000
_cell_volume 2415.087762
_symmetry_space_group_name_H-M "P N N M"
_symmetry_group_IT_number 58
_symmetry_cell_setting 'orthorhombic'
loop_
_space_group_symop_operation_xyz
x,y,z
-x,-y,z
1/2+x,1/2-y,1/2-z
1/2-x,1/2+y,1/2-z
-x,-y,-z
x,y,-z
1/2-x,1/2+y,1/2+z
1/2+x,1/2-y,1/2+z
loop_
_atom_site_type_symbol
_atom_site_label
_atom_site_fract_x
_atom_site_fract_y
_atom_site_fract_z
Si Si1 0.690078 0.718278 0.186706
Si Si2 0.994283 0.697236 0.315468
Si Si3 0.344383 0.017597 0.818524
Si Si4 0.899189 0.044161 0.179821
Si Si5 0.017475 0.137452 0.315243
Si Si6 0.324286 0.119568 0.315621
O O1 0.611592 0.765433 0.232496
O O2 0.587959 0.676866 0.239788
O O3 0.844016 0.711492 0.251592
O O4 0.698413 0.717237 0.000000
O O5 0.986574 0.697174 0.500000
O O6 0.048665 0.647760 0.256867
O O7 0.324939 0.065862 0.732181
O O8 0.500000 0.000000 0.808303
O O9 0.245487 0.976409 0.761521
O O10 0.309061 0.025352 0.000000
O O11 0.958655 0.087445 0.270233
O O12 0.885796 0.057840 0.000000
O O13 0.000000 0.000000 0.188127
O O14 0.023021 0.141229 0.500000
O O15 0.176506 0.140533 0.259688
O O16 0.331479 0.123420 0.500000
#
# Coordination Sequence:
#
# PCOD9443430 Si02
#       6
#     8   8   8   8   8   8
#     4  10  23  43  64  91 123 156 196 246 299 358
#     4  11  24  42  66  92 123 159 199 246 301 359
#     4  10  22  39  58  84 122 161 204 253 301 358
#     4  10  20  36  58  85 118 157 201 248 294 352
#     4  10  22  39  61  88 121 158 199 248 300 357
#     4  11  23  40  62  89 123 162 205 251 302 358
#
# _framework density 19.875053999999999
#
# number of rings (size 3 to 8) (size 9 to 14) (size 15 to 20)
#    0.000    1.667    1.667    2.000    2.333    5.333 
#    0.000    0.000    0.000    0.000    0.000    0.000 
#    0.000    0.000    0.000    0.000    0.000    0.000 
#
# Total GULP energy -268170.355571 kJ/mol
# GULP energy per Si atom -5586.882408 kJ/mol
# Density = 1.982982 g / cm^3
# Si number density = 19.875054 Si / 1000 Ang^3
#
#
#
# Elastic Constant Matrix: (Units=GPa)
#
#
# Indices 1 2 3 4 5 6 
#
# 1 105.8064 14.1623 22.8689 0.0000 0.0000 0.0000
# 2 14.1623 55.1255 7.0941 0.0000 0.0000 0.0000
# 3 22.8689 7.0941 21.2075 0.0000 0.0000 0.0000
# 4 0.0000 0.0000 0.0000 14.1948 0.0000 0.0000
# 5 0.0000 0.0000 0.0000 0.0000 27.2576 0.0000
# 6 0.0000 0.0000 0.0000 0.0000 0.0000 36.7750
#
#
#
# Elastic Compliance Matrix: (Units=1/GPa)
#
#
# Indices 1 2 3 4 5 6 
#
# 1 0.012447 -0.001537 -0.012908 0.000000 0.000000 0.000000
# 2 -0.001537 0.019146 -0.004748 0.000000 0.000000 0.000000
# 3 -0.012908 -0.004748 0.062660 0.000000 0.000000 0.000000
# 4 0.000000 0.000000 0.000000 0.070448 0.000000 0.000000
# 5 0.000000 0.000000 0.000000 0.000000 0.036687 0.000000
# 6 0.000000 0.000000 0.000000 0.000000 0.000000 0.027192
#
#
# Mechanical properties :
#
#
# Convention : Reuss Voigt Hill
#
# Bulk Modulus (GPa) = 17.89897 30.04333 23.97115
# Shear Modulus (GPa) = 17.50773 24.84644 21.17708
#
# Velocity S-wave (km/s) = 2.97120 3.53956 3.26776
# Velocity P-wave (km/s) = 4.56026 5.64389 5.13077
#
# Compressibility (1/GPa) = 0.05586914
#
# Stress axis : x y z
#
# Youngs Moduli (GPa) = 80.34199 52.22976 15.95905
#
# Poissons Ratio (x) = 0.08026 0.20600
# Poissons Ratio (y) = 0.12345 0.07577
# Poissons Ratio (z) = 1.03705 0.24797
#
# Static dielectric constant tensor:
#      x y z
#    x 1.732220 0.000000 0.000000 
#    y 0.000000 1.674410 0.000000 
#    z 0.000000 0.000000 1.682360 
# 
# From -- ./inp_files/2909.got.cif
#   From: 2010.05.17/outbox.cif.g08.bks.cpg/sg58_2_cif.got.tgz:2909.got - 2010.06.03 14:20:14.
