data_PCOD9443833
_publ_section_title
;
Structure prediction by ZEFSAII (Michael W. Deem and Ramdas Pophale) SiO2 
 PCOD9443833
Probable space group: P N N M
;
_chemical_formula_sum "Si O2"
_cell_formula_units_Z 58
_cell_length_a 17.468774
_cell_length_b 19.247499
_cell_length_c 7.464019
_cell_angle_alpha 90.000000
_cell_angle_beta 90.000000
_cell_angle_gamma 90.000000
_cell_volume 2509.628677
_symmetry_space_group_name_H-M "P N N M"
_symmetry_group_IT_number 58
_symmetry_cell_setting 'orthorhombic'
loop_
_space_group_symop_operation_xyz
x,y,z
-x,-y,z
1/2+x,1/2-y,1/2-z
1/2-x,1/2+y,1/2-z
-x,-y,-z
x,y,-z
1/2-x,1/2+y,1/2+z
1/2+x,1/2-y,1/2+z
loop_
_atom_site_type_symbol
_atom_site_label
_atom_site_fract_x
_atom_site_fract_y
_atom_site_fract_z
Si Si1 0.165204 0.432482 0.782374
Si Si2 0.723846 0.679959 0.787223
Si Si3 0.023969 0.341986 0.796007
Si Si4 0.954800 0.198730 0.785167
Si Si5 0.500000 0.500000 0.000000
Si Si6 0.629005 0.910122 0.207055
Si Si7 0.224078 0.173742 0.781943
Si Si8 0.075408 0.083059 0.216010
O O1 0.241992 0.392895 0.722455
O O2 0.153427 0.510165 0.716867
O O3 0.095286 0.383599 0.718911
O O4 0.162746 0.437158 0.000000
O O5 0.634293 0.692397 0.758288
O O6 0.771636 0.746680 0.719378
O O7 0.735595 0.679030 0.000000
O O8 0.993848 0.269593 0.715641
O O9 0.950997 0.392890 0.798664
O O10 0.047597 0.325069 0.000000
O O11 0.003704 0.132219 0.728790
O O12 0.959816 0.201336 0.000000
O O13 0.564100 0.483008 0.159294
O O14 0.698257 0.863602 0.279491
O O15 0.617549 0.890798 0.000000
O O16 0.150446 0.128083 0.737147
O O17 0.225233 0.174718 0.000000
O O18 0.074641 0.070274 0.000000
#
# Coordination Sequence:
#
# PCOD9443833 Si02
#       8
#     8   8   8   8   2   8   8   8
#     4  10  22  38  58  86 119 160 202 247 305 375
#     4  10  20  38  64  90 122 160 210 265 317 379
#     4  10  20  38  62  87 119 160 207 251 305 381
#     4  10  21  38  64  93 121 161 206 263 324 373
#     4  12  26  44  64 102 124 172 226 276 328 394
#     4  11  22  37  59  89 125 163 203 248 313 375
#     4   9  19  40  65  87 120 170 209 255 324 385
#     4  10  23  45  68  93 133 174 219 274 327 392
#
# _framework density 23.110987999999999
#
# number of rings (size 3 to 8) (size 9 to 14) (size 15 to 20)
#    0.000    1.931    1.379    1.862    0.966    7.172 
#    6.207    2.759    3.034    0.000    0.000    0.000 
#    0.000    0.000    0.000    0.000    0.000    0.000 
#
# Total GULP energy -323644.499473 kJ/mol
# GULP energy per Si atom -5580.077577 kJ/mol
# Density = 2.305839 g / cm^3
# Si number density = 23.110988 Si / 1000 Ang^3
#
#
#
# Elastic Constant Matrix: (Units=GPa)
#
#
# Indices 1 2 3 4 5 6 
#
# 1 45.0559 -3.2169 -2.9954 0.0000 0.0000 0.0000
# 2 -3.2169 69.9915 -4.4184 0.0000 0.0000 0.0000
# 3 -2.9954 -4.4184 84.9028 0.0000 0.0000 0.0000
# 4 0.0000 0.0000 0.0000 6.4268 0.0000 0.0000
# 5 0.0000 0.0000 0.0000 0.0000 1113.6566 0.0000
# 6 0.0000 0.0000 0.0000 0.0000 0.0000 -117.6038
#
#
#
# Elastic Compliance Matrix: (Units=1/GPa)
#
#
# Indices 1 2 3 4 5 6 
#
# 1 0.022328 0.001080 0.000844 0.000000 0.000000 0.000000
# 2 0.001080 0.014387 0.000787 0.000000 0.000000 0.000000
# 3 0.000844 0.000787 0.011849 0.000000 0.000000 0.000000
# 4 0.000000 0.000000 0.000000 0.155599 0.000000 0.000000
# 5 0.000000 0.000000 0.000000 0.000000 0.000898 0.000000
# 6 0.000000 0.000000 0.000000 0.000000 0.000000 -0.008503
#
#
# Mechanical properties :
#
#
# Convention : Reuss Voigt Hill
#
# Bulk Modulus (GPa) = 18.52405 19.85429 19.18917
# Shear Modulus (GPa) = 23.90844 214.53464 119.22154
#
# Velocity S-wave (km/s) = 3.21986 9.64518 7.19017
# Velocity P-wave (km/s) = 4.67504 11.51733 8.78934
#
# Compressibility (1/GPa) = 0.05398388
#
# Stress axis : x y z
#
# Youngs Moduli (GPa) = 44.78714 69.50844 84.39611
#
# Poissons Ratio (x) = -0.07503 -0.07122
# Poissons Ratio (y) = -0.04835 -0.06640
# Poissons Ratio (z) = -0.03780 -0.05469
#
# Static dielectric constant tensor:
#      x y z
#    x 1.854230 0.000000 0.000000 
#    y 0.000000 1.906200 0.000000 
#    z 0.000000 0.000000 1.889810 
# 
# From -- ./inp_files/8024.got.cif
#   From: 2010.05.17/outbox.cif.g08.bks.cpg/sg58_5_cif.got.tgz:8024.got - 2010.06.03 14:20:14.
