data_PCOD9443771
_publ_section_title
;
Structure prediction by ZEFSAII (Michael W. Deem and Ramdas Pophale) SiO2 
 PCOD9443771
Probable space group: P N N M
;
_chemical_formula_sum "Si O2"
_cell_formula_units_Z 42
_cell_length_a 14.904334
_cell_length_b 9.417112
_cell_length_c 13.114056
_cell_angle_alpha 90.000000
_cell_angle_beta 90.000000
_cell_angle_gamma 90.000000
_cell_volume 1840.633592
_symmetry_space_group_name_H-M "P N N M"
_symmetry_group_IT_number 58
_symmetry_cell_setting 'orthorhombic'
loop_
_space_group_symop_operation_xyz
x,y,z
-x,-y,z
1/2+x,1/2-y,1/2-z
1/2-x,1/2+y,1/2-z
-x,-y,-z
x,y,-z
1/2-x,1/2+y,1/2+z
1/2+x,1/2-y,1/2+z
loop_
_atom_site_type_symbol
_atom_site_label
_atom_site_fract_x
_atom_site_fract_y
_atom_site_fract_z
Si Si1 0.181163 0.607806 0.881591
Si Si2 0.151020 0.932706 0.886412
Si Si3 0.440166 0.287362 0.886006
Si Si4 0.115402 0.084036 0.682904
Si Si5 0.000000 0.500000 0.500000
Si Si6 0.648317 0.984262 0.827753
O O1 0.135722 0.763547 0.878991
O O2 0.284870 0.631695 0.845898
O O3 0.142302 0.500342 0.795414
O O4 0.179116 0.559213 0.000000
O O5 0.107551 0.021913 0.796238
O O6 0.256507 0.961975 0.866799
O O7 0.126611 0.979597 0.000000
O O8 0.535766 0.305285 0.832635
O O9 0.403582 0.446939 0.887901
O O10 0.365312 0.186983 0.838468
O O11 0.456306 0.225285 0.000000
O O12 0.925332 0.534641 0.592862
#
# Coordination Sequence:
#
# PCOD9443771 Si02
#       6
#     8   8   8   8   2   8
#     4  10  21  39  61  85 119 159 198 243 302 367
#     4  10  20  38  59  86 118 155 202 249 297 365
#     4  11  20  36  55  87 120 149 199 253 295 356
#     4  10  21  34  57  85 116 157 197 246 305 351
#     4  12  24  40  62  94 124 154 198 256 294 346
#     4  11  23  37  60  92 119 155 202 247 299 348
#
# _framework density 22.81823
#
# number of rings (size 3 to 8) (size 9 to 14) (size 15 to 20)
#    0.000    1.524    3.810    2.286    2.667    0.000 
#    0.000    3.333    0.000    0.000    0.000    0.000 
#    0.000    0.000    0.000    0.000    0.000    0.000 
#
# Total GULP energy -234041.224567 kJ/mol
# GULP energy per Si atom -5572.410109 kJ/mol
# Density = 2.276629 g / cm^3
# Si number density = 22.818230 Si / 1000 Ang^3
#
#
#
# Elastic Constant Matrix: (Units=GPa)
#
#
# Indices 1 2 3 4 5 6 
#
# 1 52.8952 7.1549 25.9666 0.0000 0.0000 0.0000
# 2 7.1549 62.4367 15.8753 0.0000 0.0000 0.0000
# 3 25.9666 15.8753 230.2730 0.0000 0.0000 0.0000
# 4 0.0000 0.0000 0.0000 34.0940 0.0000 0.0000
# 5 0.0000 0.0000 0.0000 0.0000 35.3202 0.0000
# 6 0.0000 0.0000 0.0000 0.0000 0.0000 34.5611
#
#
#
# Elastic Compliance Matrix: (Units=1/GPa)
#
#
# Indices 1 2 3 4 5 6 
#
# 1 0.020203 -0.001767 -0.002156 0.000000 0.000000 0.000000
# 2 -0.001767 0.016457 -0.000935 0.000000 0.000000 0.000000
# 3 -0.002156 -0.000935 0.004650 0.000000 0.000000 0.000000
# 4 0.000000 0.000000 0.000000 0.029331 0.000000 0.000000
# 5 0.000000 0.000000 0.000000 0.000000 0.028312 0.000000
# 6 0.000000 0.000000 0.000000 0.000000 0.000000 0.028934
#
#
# Mechanical properties :
#
#
# Convention : Reuss Voigt Hill
#
# Bulk Modulus (GPa) = 31.65291 49.28872 40.47082
# Shear Modulus (GPa) = 33.75300 40.56893 37.16096
#
# Velocity S-wave (km/s) = 3.85023 4.22111 4.03993
# Velocity P-wave (km/s) = 5.80237 6.73829 6.28777
#
# Compressibility (1/GPa) = 0.03159267
#
# Stress axis : x y z
#
# Youngs Moduli (GPa) = 49.49790 60.76622 215.03938
#
# Poissons Ratio (x) = 0.10737 0.46370
# Poissons Ratio (y) = 0.08746 0.20112
# Poissons Ratio (z) = 0.10673 0.05683
#
# Static dielectric constant tensor:
#      x y z
#    x 1.748760 0.000000 0.000000 
#    y 0.000000 2.160450 0.000000 
#    z 0.000000 0.000000 1.883820 
# 
# From -- ./inp_files/14277.got.cif
#   From: 2010.05.17/outbox.cif.g08.bks.cpg/sg58_8_cif.got.tgz:14277.got - 2010.06.03 14:20:14.
