data_PCOD9443108
_publ_section_title
;
Structure prediction by ZEFSAII (Michael W. Deem and Ramdas Pophale) SiO2 
 PCOD9443108
Probable space group: P N N M
;
_chemical_formula_sum "Si O2"
_cell_formula_units_Z 48
_cell_length_a 14.313233
_cell_length_b 9.716212
_cell_length_c 14.159519
_cell_angle_alpha 90.000000
_cell_angle_beta 90.000000
_cell_angle_gamma 90.000000
_cell_volume 1969.170059
_symmetry_space_group_name_H-M "P N N M"
_symmetry_group_IT_number 58
_symmetry_cell_setting 'orthorhombic'
loop_
_space_group_symop_operation_xyz
x,y,z
-x,-y,z
1/2+x,1/2-y,1/2-z
1/2-x,1/2+y,1/2-z
-x,-y,-z
x,y,-z
1/2-x,1/2+y,1/2+z
1/2+x,1/2-y,1/2+z
loop_
_atom_site_type_symbol
_atom_site_label
_atom_site_fract_x
_atom_site_fract_y
_atom_site_fract_z
Si Si1 0.916956 0.609144 0.896660
Si Si2 0.338027 0.142655 0.893618
Si Si3 0.347866 0.369913 0.248039
Si Si4 0.599469 0.422338 0.891394
Si Si5 0.647789 0.138668 0.189467
Si Si6 0.384986 0.585935 0.394296
O O1 0.869997 0.587944 0.795673
O O2 0.942236 0.771947 0.890329
O O3 0.000000 0.500000 0.899813
O O4 0.867419 0.597190 0.000000
O O5 0.378833 0.236499 0.810149
O O6 0.224409 0.134763 0.880761
O O7 0.372120 0.987136 0.879947
O O8 0.357995 0.193247 0.000000
O O9 0.329158 0.478126 0.162814
O O10 0.258009 0.328739 0.309217
O O11 0.404397 0.467390 0.319161
O O12 0.500000 0.500000 0.886954
O O13 0.596039 0.276931 0.838955
O O14 0.624580 0.400672 0.000000
O O15 0.391375 0.529335 0.500000
#
# Coordination Sequence:
#
# PCOD9443108 Si02
#       6
#     8   8   8   8   8   8
#     4  10  20  36  62  93 129 174 221 279 347 407
#     4  10  20  34  60  95 130 165 215 277 335 397
#     4  11  20  39  66  97 128 180 230 279 345 409
#     4  11  25  44  68  99 143 191 235 288 355 427
#     4  11  21  41  65  98 133 179 233 287 341 411
#     4   9  18  36  60  90 130 170 215 280 342 399
#
# _framework density 24.37575
#
# number of rings (size 3 to 8) (size 9 to 14) (size 15 to 20)
#    0.000    1.667    3.333    2.000    0.000    2.667 
#    0.000    0.833    0.000    6.000    0.000    0.000 
#    0.000    0.000    0.000    0.000    0.000    0.000 
#
# Total GULP energy -268120.071896 kJ/mol
# GULP energy per Si atom -5585.834831 kJ/mol
# Density = 2.432027 g / cm^3
# Si number density = 24.375750 Si / 1000 Ang^3
#
#
#
# Elastic Constant Matrix: (Units=GPa)
#
#
# Indices 1 2 3 4 5 6 
#
# 1 61.8858 27.6821 12.6567 0.0000 0.0000 0.0000
# 2 27.6821 139.4476 32.1963 0.0000 0.0000 0.0000
# 3 12.6567 32.1963 129.9408 0.0000 0.0000 0.0000
# 4 0.0000 0.0000 0.0000 45.1930 0.0000 0.0000
# 5 0.0000 0.0000 0.0000 0.0000 1.9430 0.0000
# 6 0.0000 0.0000 0.0000 0.0000 0.0000 29.9432
#
#
#
# Elastic Compliance Matrix: (Units=1/GPa)
#
#
# Indices 1 2 3 4 5 6 
#
# 1 0.017835 -0.003330 -0.000912 0.000000 0.000000 0.000000
# 2 -0.003330 0.008228 -0.001714 0.000000 0.000000 0.000000
# 3 -0.000912 -0.001714 0.008209 0.000000 0.000000 0.000000
# 4 0.000000 0.000000 0.000000 0.022127 0.000000 0.000000
# 5 0.000000 0.000000 0.000000 0.000000 0.514671 0.000000
# 6 0.000000 0.000000 0.000000 0.000000 0.000000 0.033397
#
#
# Mechanical properties :
#
#
# Convention : Reuss Voigt Hill
#
# Bulk Modulus (GPa) = 44.72353 52.92715 48.82534
# Shear Modulus (GPa) = 8.01496 32.66510 20.34003
#
# Velocity S-wave (km/s) = 1.81528 3.66466 2.89180
# Velocity P-wave (km/s) = 4.77295 6.29813 5.58782
#
# Compressibility (1/GPa) = 0.02235960
#
# Stress axis : x y z
#
# Youngs Moduli (GPa) = 56.07010 121.53642 121.81100
#
# Poissons Ratio (x) = 0.40470 0.11111
# Poissons Ratio (y) = 0.18670 0.20883
# Poissons Ratio (z) = 0.05114 0.20836
#
# Static dielectric constant tensor:
#      x y z
#    x 2.053830 0.000000 0.000000 
#    y 0.000000 1.899660 0.000000 
#    z 0.000000 0.000000 1.932470 
# 
# From -- ./inp_files/22768.got.cif
#   From: 2010.05.17/outbox.cif.g08.bks.cpg/sg58_12_cif.got.tgz:22768.got - 2010.06.03 14:20:14.
