data_PCOD9443098
_publ_section_title
;
Structure prediction by ZEFSAII (Michael W. Deem and Ramdas Pophale) SiO2 
 PCOD9443098
Probable space group: P N N M
;
_chemical_formula_sum "Si O2"
_cell_formula_units_Z 56
_cell_length_a 11.685633
_cell_length_b 12.203994
_cell_length_c 19.483708
_cell_angle_alpha 90.000000
_cell_angle_beta 90.000000
_cell_angle_gamma 90.000000
_cell_volume 2778.598778
_symmetry_space_group_name_H-M "P N N M"
_symmetry_group_IT_number 58
_symmetry_cell_setting 'orthorhombic'
loop_
_space_group_symop_operation_xyz
x,y,z
-x,-y,z
1/2+x,1/2-y,1/2-z
1/2-x,1/2+y,1/2-z
-x,-y,-z
x,y,-z
1/2-x,1/2+y,1/2+z
1/2+x,1/2-y,1/2+z
loop_
_atom_site_type_symbol
_atom_site_label
_atom_site_fract_x
_atom_site_fract_y
_atom_site_fract_z
Si Si1 0.366599 0.736787 0.798534
Si Si2 0.248643 0.434857 0.077155
Si Si3 0.616198 0.426470 0.329980
Si Si4 0.043661 0.265933 0.923663
Si Si5 0.148528 0.626184 0.831194
Si Si6 0.376039 0.989186 0.195736
Si Si7 0.487491 0.367876 0.080466
O O1 0.389869 0.651327 0.737470
O O2 0.233870 0.723289 0.814757
O O3 0.379356 0.863162 0.780957
O O4 0.438274 0.699321 0.865427
O O5 0.220096 0.535274 0.126253
O O6 0.353647 0.357447 0.098178
O O7 0.140276 0.358001 0.073147
O O8 0.275286 0.476945 0.000000
O O9 0.500000 0.500000 0.327617
O O10 0.597571 0.344320 0.393454
O O11 0.745246 0.481839 0.331759
O O12 0.950917 0.321338 0.875016
O O13 0.996609 0.247259 0.000000
O O14 0.112202 0.568116 0.761305
O O15 0.500000 0.000000 0.155574
O O16 0.500000 0.500000 0.088234
O O17 0.508110 0.339981 0.000000
#
# Coordination Sequence:
#
# PCOD9443098 Si02
#       7
#     8   8   8   8   8   8   8
#     4  11  23  39  66  92 125 172 211 262 331 385
#     4  10  20  34  58  91 125 159 201 260 324 378
#     4  11  25  44  65  94 131 170 221 266 326 395
#     4  11  24  42  66  94 128 171 214 267 331 391
#     4  11  21  38  62  93 126 162 213 266 323 389
#     4  11  25  41  62  94 128 168 216 271 321 381
#     4  10  20  36  59  93 127 161 208 261 319 379
#
# _framework density 20.154043999999999
#
# number of rings (size 3 to 8) (size 9 to 14) (size 15 to 20)
#    0.000    1.286    1.429    4.714    4.000    3.143 
#    0.000    0.714    0.000    0.857    0.000    0.000 
#    0.000    0.000    0.000    0.000    0.000    0.000 
#
# Total GULP energy -312268.524159 kJ/mol
# GULP energy per Si atom -5576.223646 kJ/mol
# Density = 2.010817 g / cm^3
# Si number density = 20.154044 Si / 1000 Ang^3
#
#
#
# Elastic Constant Matrix: (Units=GPa)
#
#
# Indices 1 2 3 4 5 6 
#
# 1 127.6490 35.4112 27.9078 0.0000 0.0000 0.0000
# 2 35.4112 67.2891 11.0461 0.0000 0.0000 0.0000
# 3 27.9078 11.0461 47.8122 0.0000 0.0000 0.0000
# 4 0.0000 0.0000 0.0000 14.1644 0.0000 0.0000
# 5 0.0000 0.0000 0.0000 0.0000 27.3788 0.0000
# 6 0.0000 0.0000 0.0000 0.0000 0.0000 22.8925
#
#
#
# Elastic Compliance Matrix: (Units=1/GPa)
#
#
# Indices 1 2 3 4 5 6 
#
# 1 0.010163 -0.004547 -0.004881 0.000000 0.000000 0.000000
# 2 -0.004547 0.017481 -0.001385 0.000000 0.000000 0.000000
# 3 -0.004881 -0.001385 0.024084 0.000000 0.000000 0.000000
# 4 0.000000 0.000000 0.000000 0.070600 0.000000 0.000000
# 5 0.000000 0.000000 0.000000 0.000000 0.036525 0.000000
# 6 0.000000 0.000000 0.000000 0.000000 0.000000 0.043682
#
#
# Mechanical properties :
#
#
# Convention : Reuss Voigt Hill
#
# Bulk Modulus (GPa) = 33.22004 43.49784 38.35894
# Shear Modulus (GPa) = 21.34974 24.11281 22.73128
#
# Velocity S-wave (km/s) = 3.25826 3.46269 3.36203
# Velocity P-wave (km/s) = 5.53840 6.13323 5.84339
#
# Compressibility (1/GPa) = 0.03010231
#
# Stress axis : x y z
#
# Youngs Moduli (GPa) = 98.40079 57.20387 41.52073
#
# Poissons Ratio (x) = 0.26009 0.20268
# Poissons Ratio (y) = 0.44740 0.05750
# Poissons Ratio (z) = 0.48033 0.07922
#
# Static dielectric constant tensor:
#      x y z
#    x 1.838360 0.000000 0.000000 
#    y 0.000000 1.685420 0.000000 
#    z 0.000000 0.000000 1.758090 
# 
# From -- ./inp_files/29586.got.cif
#   From: 2010.05.17/outbox.cif.g08.bks.cpg/sg58_15_cif.got.tgz:29586.got - 2010.06.03 14:20:14.
