data_PCOD9443340
_publ_section_title
;
Structure prediction by ZEFSAII (Michael W. Deem and Ramdas Pophale) SiO2 
 PCOD9443340
Probable space group: P N N M
;
_chemical_formula_sum "Si O2"
_cell_formula_units_Z 64
_cell_length_a 15.416414
_cell_length_b 24.280056
_cell_length_c 7.902364
_cell_angle_alpha 90.000000
_cell_angle_beta 90.000000
_cell_angle_gamma 90.000000
_cell_volume 2957.944895
_symmetry_space_group_name_H-M "P N N M"
_symmetry_group_IT_number 58
_symmetry_cell_setting 'orthorhombic'
loop_
_space_group_symop_operation_xyz
x,y,z
-x,-y,z
1/2+x,1/2-y,1/2-z
1/2-x,1/2+y,1/2-z
-x,-y,-z
x,y,-z
1/2-x,1/2+y,1/2+z
1/2+x,1/2-y,1/2+z
loop_
_atom_site_type_symbol
_atom_site_label
_atom_site_fract_x
_atom_site_fract_y
_atom_site_fract_z
Si Si1 0.186591 0.306240 0.701614
Si Si2 0.321167 0.688461 0.687865
Si Si3 0.337731 0.122180 0.300628
Si Si4 0.598659 0.997423 0.706986
Si Si5 0.751208 0.576225 0.797051
Si Si6 0.060227 0.948953 0.707646
Si Si7 0.486220 0.206973 0.794467
Si Si8 0.493819 0.328478 0.807676
O O1 0.188162 0.301903 0.500000
O O2 0.218460 0.248592 0.776779
O O3 0.240294 0.359565 0.753827
O O4 0.084792 0.309378 0.755476
O O5 0.358327 0.687660 0.500000
O O6 0.246154 0.644696 0.707850
O O7 0.401857 0.677334 0.809266
O O8 0.318214 0.121011 0.500000
O O9 0.362619 0.061294 0.245086
O O10 0.417915 0.163018 0.270324
O O11 0.596235 0.999914 0.500000
O O12 0.500000 0.000000 0.766953
O O13 0.662991 0.045188 0.767313
O O14 0.661199 0.548552 0.740227
O O15 0.751513 0.571791 0.000000
O O16 0.056609 0.949495 0.500000
O O17 0.028873 0.888180 0.766052
O O18 0.000000 0.000000 0.763925
O O19 0.465492 0.269355 0.733082
O O20 0.483944 0.207790 0.000000
O O21 0.459775 0.329610 0.000000
#
# Coordination Sequence:
#
# PCOD9443340 Si02
#       8
#     8   8   8   8   8   8   8   8
#     4  10  21  39  60  86 118 153 191 237 295 353
#     4  11  23  38  58  84 115 152 194 240 293 353
#     4  11  22  35  58  88 118 153 195 241 289 345
#     4   9  19  35  56  86 121 154 195 243 287 342
#     4  10  20  35  60  90 117 155 200 245 295 349
#     4   9  19  34  58  87 113 151 202 250 294 349
#     4   9  19  35  55  82 117 152 187 238 296 354
#     4   9  19  37  59  83 115 149 192 244 297 349
#
# _framework density 21.636645000000001
#
# number of rings (size 3 to 8) (size 9 to 14) (size 15 to 20)
#    0.000    2.250    0.000    3.375    3.500    3.500 
#    0.000    1.875    0.000    4.125    0.000    0.000 
#    0.000    0.000    0.000    0.000    0.000    0.000 
#
# Total GULP energy -357417.579567 kJ/mol
# GULP energy per Si atom -5584.649681 kJ/mol
# Density = 2.158740 g / cm^3
# Si number density = 21.636645 Si / 1000 Ang^3
#
#
#
# Elastic Constant Matrix: (Units=GPa)
#
#
# Indices 1 2 3 4 5 6 
#
# 1 56.5306 29.1034 4.4767 0.0000 0.0000 0.0000
# 2 29.1034 100.6450 3.2472 0.0000 0.0000 0.0000
# 3 4.4767 3.2472 31.1047 0.0000 0.0000 0.0000
# 4 0.0000 0.0000 0.0000 14.9852 0.0000 0.0000
# 5 0.0000 0.0000 0.0000 0.0000 9.1063 0.0000
# 6 0.0000 0.0000 0.0000 0.0000 0.0000 37.9463
#
#
#
# Elastic Compliance Matrix: (Units=1/GPa)
#
#
# Indices 1 2 3 4 5 6 
#
# 1 0.020959 -0.005984 -0.002392 0.000000 0.000000 0.000000
# 2 -0.005984 0.011678 -0.000358 0.000000 0.000000 0.000000
# 3 -0.002392 -0.000358 0.032531 0.000000 0.000000 0.000000
# 4 0.000000 0.000000 0.000000 0.066732 0.000000 0.000000
# 5 0.000000 0.000000 0.000000 0.000000 0.109815 0.000000
# 6 0.000000 0.000000 0.000000 0.000000 0.000000 0.026353
#
#
# Mechanical properties :
#
#
# Convention : Reuss Voigt Hill
#
# Bulk Modulus (GPa) = 20.96376 29.10387 25.03382
# Shear Modulus (GPa) = 16.58729 22.50444 19.54586
#
# Velocity S-wave (km/s) = 2.77181 3.22857 3.00887
# Velocity P-wave (km/s) = 4.46699 5.23246 4.86480
#
# Compressibility (1/GPa) = 0.04770136
#
# Stress axis : x y z
#
# Youngs Moduli (GPa) = 47.71110 85.63300 30.73985
#
# Poissons Ratio (x) = 0.51240 0.07353
# Poissons Ratio (y) = 0.28549 0.01100
# Poissons Ratio (z) = 0.11412 0.03065
#
# Static dielectric constant tensor:
#      x y z
#    x 1.768100 0.000000 0.000000 
#    y 0.000000 1.769000 0.000000 
#    z 0.000000 0.000000 1.790500 
# 
# From -- ./inp_files/6762.got.cif
#   From: 2010.05.17/outbox.cif.g08.bks.cpg/sg58_4_cif.got.tgz:6762.got - 2010.06.03 14:20:14.
