data_PCOD9443743
_publ_section_title
;
Structure prediction by ZEFSAII (Michael W. Deem and Ramdas Pophale) SiO2 
 PCOD9443743
Probable space group: P N N M
;
_chemical_formula_sum "Si O2"
_cell_formula_units_Z 56
_cell_length_a 11.988016
_cell_length_b 15.806477
_cell_length_c 13.609643
_cell_angle_alpha 90.000000
_cell_angle_beta 90.000000
_cell_angle_gamma 90.000000
_cell_volume 2578.868105
_symmetry_space_group_name_H-M "P N N M"
_symmetry_group_IT_number 58
_symmetry_cell_setting 'orthorhombic'
loop_
_space_group_symop_operation_xyz
x,y,z
-x,-y,z
1/2+x,1/2-y,1/2-z
1/2-x,1/2+y,1/2-z
-x,-y,-z
x,y,-z
1/2-x,1/2+y,1/2+z
1/2+x,1/2-y,1/2+z
loop_
_atom_site_type_symbol
_atom_site_label
_atom_site_fract_x
_atom_site_fract_y
_atom_site_fract_z
Si Si1 0.955093 0.096620 0.611800
Si Si2 0.070607 0.178706 0.197003
Si Si3 0.778719 0.675895 0.616459
Si Si4 0.708064 0.032719 0.613083
Si Si5 0.543767 0.135212 0.742817
Si Si6 0.914477 0.063986 0.109455
Si Si7 0.783924 0.357523 0.210900
O O1 0.979450 0.127899 0.500000
O O2 0.821263 0.087899 0.623710
O O3 0.010126 0.151998 0.699021
O O4 0.000000 0.000000 0.616082
O O5 0.078386 0.278352 0.188226
O O6 0.192420 0.137300 0.202618
O O7 0.992140 0.146211 0.111143
O O8 0.767396 0.681487 0.500000
O O9 0.901248 0.649828 0.651004
O O10 0.699665 0.598365 0.652309
O O11 0.739849 0.765350 0.662657
O O12 0.671722 0.038779 0.500000
O O13 0.609389 0.062574 0.684852
O O14 0.738175 0.935429 0.637750
O O15 0.411111 0.133172 0.743825
O O16 0.892409 0.031193 0.000000
O O17 0.000000 0.000000 0.161887
#
# Coordination Sequence:
#
# PCOD9443743 Si02
#       7
#     8   8   8   8   8   8   8
#     4  10  20  37  63  95 122 153 207 269 323 374
#     4  11  22  38  64  86 125 164 205 260 313 368
#     4  10  22  42  68  93 127 172 220 263 316 380
#     4  11  24  41  65  96 129 164 207 265 329 390
#     4  11  25  40  59  93 130 168 214 253 316 386
#     4  10  21  38  64  92 114 154 212 262 304 354
#     4  11  23  40  63  92 130 170 210 255 323 393
#
# _framework density 21.714953000000001
#
# number of rings (size 3 to 8) (size 9 to 14) (size 15 to 20)
#    0.000    1.429    2.857    2.143    4.000    4.571 
#    0.000    0.714    0.000    1.714    0.000    0.000 
#    0.000    0.000    0.000    0.000    0.000    0.000 
#
# Total GULP energy -312473.739151 kJ/mol
# GULP energy per Si atom -5579.888199 kJ/mol
# Density = 2.166553 g / cm^3
# Si number density = 21.714953 Si / 1000 Ang^3
#
#
#
# Elastic Constant Matrix: (Units=GPa)
#
#
# Indices 1 2 3 4 5 6 
#
# 1 145.1820 2.8487 21.4293 0.0000 0.0000 0.0000
# 2 2.8487 59.7835 2.3584 0.0000 0.0000 0.0000
# 3 21.4293 2.3584 67.1950 0.0000 0.0000 0.0000
# 4 0.0000 0.0000 0.0000 13.1811 0.0000 0.0000
# 5 0.0000 0.0000 0.0000 0.0000 11.7607 0.0000
# 6 0.0000 0.0000 0.0000 0.0000 0.0000 25.4867
#
#
#
# Elastic Compliance Matrix: (Units=1/GPa)
#
#
# Indices 1 2 3 4 5 6 
#
# 1 0.007232 -0.000254 -0.002297 0.000000 0.000000 0.000000
# 2 -0.000254 0.016759 -0.000507 0.000000 0.000000 0.000000
# 3 -0.002297 -0.000507 0.015633 0.000000 0.000000 0.000000
# 4 0.000000 0.000000 0.000000 0.075866 0.000000 0.000000
# 5 0.000000 0.000000 0.000000 0.000000 0.085029 0.000000
# 6 0.000000 0.000000 0.000000 0.000000 0.000000 0.039236
#
#
# Mechanical properties :
#
#
# Convention : Reuss Voigt Hill
#
# Bulk Modulus (GPa) = 29.84505 36.15925 33.00215
# Shear Modulus (GPa) = 19.45215 26.45399 22.95307
#
# Velocity S-wave (km/s) = 2.99623 3.49411 3.25471
# Velocity P-wave (km/s) = 5.07383 5.74163 5.41803
#
# Compressibility (1/GPa) = 0.03350639
#
# Stress axis : x y z
#
# Youngs Moduli (GPa) = 138.27431 59.66894 63.96911
#
# Poissons Ratio (x) = 0.01515 0.14697
# Poissons Ratio (y) = 0.03512 0.03245
# Poissons Ratio (z) = 0.31768 0.03027
#
# Static dielectric constant tensor:
#      x y z
#    x 1.836540 0.000000 0.000000 
#    y 0.000000 1.842720 0.000000 
#    z 0.000000 0.000000 1.787900 
# 
# From -- ./inp_files/21244.got.cif
#   From: 2010.05.17/outbox.cif.g08.bks.cpg/sg58_11_cif.got.tgz:21244.got - 2010.06.03 14:20:14.
