data_PCOD9443950
_publ_section_title
;
Structure prediction by ZEFSAII (Michael W. Deem and Ramdas Pophale) SiO2 
 PCOD9443950
Probable space group: P N N M
;
_chemical_formula_sum "Si O2"
_cell_formula_units_Z 64
_cell_length_a 17.190807
_cell_length_b 20.938136
_cell_length_c 9.253621
_cell_angle_alpha 90.000000
_cell_angle_beta 90.000000
_cell_angle_gamma 90.000000
_cell_volume 3330.780313
_symmetry_space_group_name_H-M "P N N M"
_symmetry_group_IT_number 58
_symmetry_cell_setting 'orthorhombic'
loop_
_space_group_symop_operation_xyz
x,y,z
-x,-y,z
1/2+x,1/2-y,1/2-z
1/2-x,1/2+y,1/2-z
-x,-y,-z
x,y,-z
1/2-x,1/2+y,1/2+z
1/2+x,1/2-y,1/2+z
loop_
_atom_site_type_symbol
_atom_site_label
_atom_site_fract_x
_atom_site_fract_y
_atom_site_fract_z
Si Si1 0.787735 0.824706 0.332832
Si Si2 0.920245 0.758950 0.168840
Si Si3 0.035683 0.388693 0.168651
Si Si4 0.893140 0.952426 0.665341
Si Si5 0.663913 0.575878 0.328362
Si Si6 0.645793 0.902508 0.326622
Si Si7 0.833228 0.534253 0.328032
Si Si8 0.968494 0.142564 0.328738
O O1 0.789301 0.803051 0.500000
O O2 0.836565 0.777181 0.234403
O O3 0.834154 0.892353 0.327610
O O4 0.700187 0.842280 0.288744
O O5 0.937700 0.684354 0.182983
O O6 0.984337 0.800028 0.254982
O O7 0.923440 0.776509 0.000000
O O8 0.090253 0.432833 0.264736
O O9 0.944817 0.393324 0.206226
O O10 0.044058 0.407950 0.000000
O O11 0.891261 0.977514 0.500000
O O12 0.976999 0.920407 0.692456
O O13 0.868235 0.007300 0.774251
O O14 0.653508 0.582342 0.500000
O O15 0.755749 0.575141 0.294861
O O16 0.613596 0.628467 0.245025
O O17 0.654162 0.911265 0.500000
O O18 0.674769 0.965365 0.245715
O O19 0.838206 0.527214 0.500000
O O20 0.962345 0.152890 0.500000
#
# Coordination Sequence:
#
# PCOD9443950 Si02
#       8
#     8   8   8   8   8   8   8   8
#     4   9  18  34  59  87 115 152 195 237 287 349
#     4  10  21  39  60  84 119 153 193 243 289 341
#     4  10  23  42  63  86 115 156 199 240 292 350
#     4   9  17  31  52  80 112 147 188 232 282 345
#     4  11  22  34  51  81 118 152 188 234 292 345
#     4  10  20  39  65  89 114 151 197 241 290 353
#     4  11  24  39  58  89 123 153 190 244 300 346
#     4  10  21  36  56  82 112 152 197 236 284 347
#
# _framework density 19.214718000000001
#
# number of rings (size 3 to 8) (size 9 to 14) (size 15 to 20)
#    0.000    2.000    1.250    3.000    0.000    9.000 
#    2.250    0.000    0.000    0.000    0.000    0.000 
#    0.000    0.000    0.000    0.000    0.000    0.000 
#
# Total GULP energy -357521.465388 kJ/mol
# GULP energy per Si atom -5586.272897 kJ/mol
# Density = 1.917098 g / cm^3
# Si number density = 19.214718 Si / 1000 Ang^3
#
#
#
# Elastic Constant Matrix: (Units=GPa)
#
#
# Indices 1 2 3 4 5 6 
#
# 1 120.1850 11.7095 47.6410 0.0000 0.0000 0.0000
# 2 11.7095 18.7535 20.1110 0.0000 0.0000 0.0000
# 3 47.6410 20.1110 60.9260 0.0000 0.0000 0.0000
# 4 0.0000 0.0000 0.0000 15.2783 0.0000 0.0000
# 5 0.0000 0.0000 0.0000 0.0000 -486.7546 0.0000
# 6 0.0000 0.0000 0.0000 0.0000 0.0000 8.6420
#
#
#
# Elastic Compliance Matrix: (Units=1/GPa)
#
#
# Indices 1 2 3 4 5 6 
#
# 1 0.012255 0.004063 -0.010924 0.000000 0.000000 0.000000
# 2 0.004063 0.083888 -0.030867 0.000000 0.000000 0.000000
# 3 -0.010924 -0.030867 0.035144 0.000000 0.000000 0.000000
# 4 0.000000 0.000000 0.000000 0.065452 0.000000 0.000000
# 5 0.000000 0.000000 0.000000 0.000000 -0.002054 0.000000
# 6 0.000000 0.000000 0.000000 0.000000 0.000000 0.115714
#
#
# Mechanical properties :
#
#
# Convention : Reuss Voigt Hill
#
# Bulk Modulus (GPa) = 17.91138 39.86528 28.88833
# Shear Modulus (GPa) = 12.36199 -84.54000 -36.08901
#
# Velocity S-wave (km/s) = 2.53921 -6.64026 -4.33852
# Velocity P-wave (km/s) = 4.23541 6.16429 3.16700
#
# Compressibility (1/GPa) = 0.05583042
#
# Stress axis : x y z
#
# Youngs Moduli (GPa) = 81.60066 11.92061 28.45433
#
# Poissons Ratio (x) = -0.04843 0.31083
# Poissons Ratio (y) = -0.33151 0.87831
# Poissons Ratio (z) = 0.89138 0.36796
#
# Static dielectric constant tensor:
#      x y z
#    x 1.696950 0.000000 0.000000 
#    y 0.000000 1.646340 0.000000 
#    z 0.000000 0.000000 1.638990 
# 
# From -- ./inp_files/8340.got.cif
#   From: 2010.05.17/outbox.cif.g08.bks.cpg/sg58_5_cif.got.tgz:8340.got - 2010.06.03 14:20:14.
