data_PCOD9443433
_publ_section_title
;
Structure prediction by ZEFSAII (Michael W. Deem and Ramdas Pophale) SiO2 
 PCOD9443433
Probable space group: P N N M
;
_chemical_formula_sum "Si O2"
_cell_formula_units_Z 58
_cell_length_a 29.813468
_cell_length_b 12.344106
_cell_length_c 7.747839
_cell_angle_alpha 90.000000
_cell_angle_beta 90.000000
_cell_angle_gamma 90.000000
_cell_volume 2851.364429
_symmetry_space_group_name_H-M "P N N M"
_symmetry_group_IT_number 58
_symmetry_cell_setting 'orthorhombic'
loop_
_space_group_symop_operation_xyz
x,y,z
-x,-y,z
1/2+x,1/2-y,1/2-z
1/2-x,1/2+y,1/2-z
-x,-y,-z
x,y,-z
1/2-x,1/2+y,1/2+z
1/2+x,1/2-y,1/2+z
loop_
_atom_site_type_symbol
_atom_site_label
_atom_site_fract_x
_atom_site_fract_y
_atom_site_fract_z
Si Si1 0.865259 0.995780 0.201091
Si Si2 0.317877 0.910892 0.209181
Si Si3 0.416521 0.290581 0.293496
Si Si4 0.000000 0.000000 0.500000
Si Si5 0.391705 0.741812 0.200088
Si Si6 0.517350 0.337179 0.698303
Si Si7 0.284235 0.363017 0.794432
Si Si8 0.334920 0.151887 0.797171
O O1 0.872127 0.880010 0.286226
O O2 0.896346 0.094280 0.271188
O O3 0.814916 0.041652 0.217061
O O4 0.876979 0.981194 0.000000
O O5 0.355281 0.826103 0.270968
O O6 0.267855 0.876182 0.258045
O O7 0.327238 0.032545 0.274692
O O8 0.320035 0.910993 0.000000
O O9 0.410849 0.290131 0.500000
O O10 0.469103 0.285224 0.255964
O O11 0.385503 0.195499 0.222354
O O12 0.023749 0.073071 0.654413
O O13 0.439825 0.740299 0.291402
O O14 0.399404 0.767897 0.000000
O O15 0.514086 0.377722 0.500000
O O16 0.303803 0.248713 0.725779
O O17 0.291770 0.366379 0.000000
O O18 0.324392 0.144804 0.000000
#
# Coordination Sequence:
#
# PCOD9443433 Si02
#       8
#     8   8   8   2   8   8   8   8
#     4  10  20  36  58  85 121 157 197 250 312 367
#     4  10  23  41  60  85 121 162 206 256 311 370
#     4   9  20  37  60  89 120 157 199 253 305 366
#     4  12  22  36  64  94 126 176 206 260 312 376
#     4  11  23  39  58  88 127 169 210 254 313 378
#     4  11  23  39  60  93 132 167 213 259 318 379
#     4  10  21  37  59  89 116 152 204 253 311 381
#     4   9  20  39  62  85 115 156 205 254 305 371
#
# _framework density 20.341138999999998
#
# number of rings (size 3 to 8) (size 9 to 14) (size 15 to 20)
#    0.000    1.931    0.690    2.276    2.897    3.862 
#    0.000    0.690    0.000    4.138    0.000    0.000 
#    0.000    0.000    0.000    0.000    0.000    0.000 
#
# Total GULP energy -323377.650498 kJ/mol
# GULP energy per Si atom -5575.476733 kJ/mol
# Density = 2.029484 g / cm^3
# Si number density = 20.341139 Si / 1000 Ang^3
#
#
#
# Elastic Constant Matrix: (Units=GPa)
#
#
# Indices 1 2 3 4 5 6 
#
# 1 151.3867 72.6400 1.6917 0.0000 0.0000 0.0000
# 2 72.6400 109.2891 5.0006 0.0000 0.0000 0.0000
# 3 1.6917 5.0006 62.8592 0.0000 0.0000 0.0000
# 4 0.0000 0.0000 0.0000 14.7934 0.0000 0.0000
# 5 0.0000 0.0000 0.0000 0.0000 29.3520 0.0000
# 6 0.0000 0.0000 0.0000 0.0000 0.0000 19.2121
#
#
#
# Elastic Compliance Matrix: (Units=1/GPa)
#
#
# Indices 1 2 3 4 5 6 
#
# 1 0.009703 -0.006461 0.000253 0.000000 0.000000 0.000000
# 2 -0.006461 0.013485 -0.000899 0.000000 0.000000 0.000000
# 3 0.000253 -0.000899 0.015973 0.000000 0.000000 0.000000
# 4 0.000000 0.000000 0.000000 0.067598 0.000000 0.000000
# 5 0.000000 0.000000 0.000000 0.000000 0.034069 0.000000
# 6 0.000000 0.000000 0.000000 0.000000 0.000000 0.052050
#
#
# Mechanical properties :
#
#
# Convention : Reuss Voigt Hill
#
# Bulk Modulus (GPa) = 40.08347 53.57773 46.83060
# Shear Modulus (GPa) = 23.21173 28.95167 26.08170
#
# Velocity S-wave (km/s) = 3.38171 3.77677 3.58469
# Velocity P-wave (km/s) = 5.91577 6.73909 6.34081
#
# Compressibility (1/GPa) = 0.02494794
#
# Stress axis : x y z
#
# Youngs Moduli (GPa) = 103.06323 74.15487 62.60460
#
# Poissons Ratio (x) = 0.47909 -0.01583
# Poissons Ratio (y) = 0.66585 0.05628
# Poissons Ratio (z) = -0.02606 0.06666
#
# Static dielectric constant tensor:
#      x y z
#    x 1.727350 0.000000 0.000000 
#    y 0.000000 1.720910 0.000000 
#    z 0.000000 0.000000 1.746810 
# 
# From -- ./inp_files/10898.got.cif
#   From: 2010.05.17/outbox.cif.g08.bks.cpg/sg58_6_cif.got.tgz:10898.got - 2010.06.03 14:20:14.
