data_PCOD9443409
_publ_section_title
;
Structure prediction by ZEFSAII (Michael W. Deem and Ramdas Pophale) SiO2 
 PCOD9443409
Probable space group: P N N M
;
_chemical_formula_sum "Si O2"
_cell_formula_units_Z 56
_cell_length_a 20.802226
_cell_length_b 5.386424
_cell_length_c 25.413489
_cell_angle_alpha 90.000000
_cell_angle_beta 90.000000
_cell_angle_gamma 90.000000
_cell_volume 2847.571515
_symmetry_space_group_name_H-M "P N N M"
_symmetry_group_IT_number 58
_symmetry_cell_setting 'orthorhombic'
loop_
_space_group_symop_operation_xyz
x,y,z
-x,-y,z
1/2+x,1/2-y,1/2-z
1/2-x,1/2+y,1/2-z
-x,-y,-z
x,y,-z
1/2-x,1/2+y,1/2+z
1/2+x,1/2-y,1/2+z
loop_
_atom_site_type_symbol
_atom_site_label
_atom_site_fract_x
_atom_site_fract_y
_atom_site_fract_z
Si Si1 0.461126 0.747880 0.716570
Si Si2 0.358929 0.473979 0.890339
Si Si3 0.742865 0.099494 0.000000
Si Si4 0.267862 0.252660 0.386267
Si Si5 0.037104 0.252638 0.343080
Si Si6 0.328756 0.946676 0.302356
Si Si7 0.658207 0.603827 0.000000
Si Si8 0.802691 0.354796 0.309969
O O1 0.500000 0.500000 0.701790
O O2 0.454095 0.746805 0.780130
O O3 0.389428 0.765439 0.692953
O O4 0.500000 0.000000 0.703007
O O5 0.283253 0.532501 0.897136
O O6 0.604150 0.281475 0.872712
O O7 0.358141 0.282742 0.842670
O O8 0.381403 0.376179 0.946235
O O9 0.779803 0.130601 0.943940
O O10 0.690461 0.326395 0.000000
O O11 0.708470 0.831998 0.000000
O O12 0.229920 0.435602 0.346518
O O13 0.324538 0.134362 0.351591
O O14 0.000000 0.500000 0.357617
O O15 0.000000 0.000000 0.357607
O O16 0.258882 0.818588 0.298180
O O17 0.333734 0.074501 0.245476
#
# Coordination Sequence:
#
# PCOD9443409 Si02
#       8
#     8   8   4   8   8   8   4   8
#     4  10  24  40  58  80 118 163 200 239 286 367
#     4  10  22  36  57  80 113 161 200 252 307 359
#     4  10  20  38  56  85 120 156 203 234 299 372
#     4  10  21  36  57  85 120 157 191 249 302 373
#     4  10  23  37  55  79 109 156 208 253 296 357
#     4  11  23  34  56  93 123 155 196 244 315 367
#     4  10  20  36  58  81 110 155 209 249 295 364
#     4  11  21  33  57  88 125 155 186 251 317 372
#
# _framework density 19.665882
#
# number of rings (size 3 to 8) (size 9 to 14) (size 15 to 20)
#    0.000    1.714    2.857    0.857   12.000    0.000 
#    0.000    0.714    0.000    0.000    0.000    1.000 
#    0.000    0.000    0.000    0.000    0.000    0.000 
#
# Total GULP energy -312374.307791 kJ/mol
# GULP energy per Si atom -5578.112639 kJ/mol
# Density = 1.962112 g / cm^3
# Si number density = 19.665882 Si / 1000 Ang^3
#
#
#
# Elastic Constant Matrix: (Units=GPa)
#
#
# Indices 1 2 3 4 5 6 
#
# 1 64.8135 37.1112 23.9428 0.0000 0.0000 0.0000
# 2 37.1112 103.8924 37.7996 0.0000 0.0000 0.0000
# 3 23.9428 37.7996 102.7740 0.0000 0.0000 0.0000
# 4 0.0000 0.0000 0.0000 21.8425 0.0000 0.0000
# 5 0.0000 0.0000 0.0000 0.0000 5.0294 0.0000
# 6 0.0000 0.0000 0.0000 0.0000 0.0000 29.1335
#
#
#
# Elastic Compliance Matrix: (Units=1/GPa)
#
#
# Indices 1 2 3 4 5 6 
#
# 1 0.019868 -0.006249 -0.002330 0.000000 0.000000 0.000000
# 2 -0.006249 0.013078 -0.003354 0.000000 0.000000 0.000000
# 3 -0.002330 -0.003354 0.011507 0.000000 0.000000 0.000000
# 4 0.000000 0.000000 0.000000 0.045782 0.000000 0.000000
# 5 0.000000 0.000000 0.000000 0.000000 0.198830 0.000000
# 6 0.000000 0.000000 0.000000 0.000000 0.000000 0.034325
#
#
# Mechanical properties :
#
#
# Convention : Reuss Voigt Hill
#
# Bulk Modulus (GPa) = 48.57794 52.13191 50.35492
# Shear Modulus (GPa) = 14.11958 22.70950 18.41454
#
# Velocity S-wave (km/s) = 2.68241 3.40187 3.06334
# Velocity P-wave (km/s) = 5.86080 6.48048 6.17842
#
# Compressibility (1/GPa) = 0.02058548
#
# Stress axis : x y z
#
# Youngs Moduli (GPa) = 50.33261 76.46450 86.90701
#
# Poissons Ratio (x) = 0.47784 0.20250
# Poissons Ratio (y) = 0.31454 0.29150
# Poissons Ratio (z) = 0.11728 0.25647
#
# Static dielectric constant tensor:
#      x y z
#    x 1.729750 0.000000 0.000000 
#    y 0.000000 1.766260 0.000000 
#    z 0.000000 0.000000 1.757590 
# 
# From -- ./inp_files/32395.got.cif
#   From: 2010.05.17/outbox.cif.g08.bks.cpg/sg58_17_cif.got.tgz:32395.got - 2010.06.03 14:20:14.
