data_PCOD9443849
_publ_section_title
;
Structure prediction by ZEFSAII (Michael W. Deem and Ramdas Pophale) SiO2 
 PCOD9443849
Probable space group: P N N M
;
_chemical_formula_sum "Si O2"
_cell_formula_units_Z 44
_cell_length_a 8.165935
_cell_length_b 17.942068
_cell_length_c 15.003765
_cell_angle_alpha 90.000000
_cell_angle_beta 90.000000
_cell_angle_gamma 90.000000
_cell_volume 2198.258040
_symmetry_space_group_name_H-M "P N N M"
_symmetry_group_IT_number 58
_symmetry_cell_setting 'orthorhombic'
loop_
_space_group_symop_operation_xyz
x,y,z
-x,-y,z
1/2+x,1/2-y,1/2-z
1/2-x,1/2+y,1/2-z
-x,-y,-z
x,y,-z
1/2-x,1/2+y,1/2+z
1/2+x,1/2-y,1/2+z
loop_
_atom_site_type_symbol
_atom_site_label
_atom_site_fract_x
_atom_site_fract_y
_atom_site_fract_z
Si Si1 0.264156 0.328138 0.193331
Si Si2 0.226297 0.310655 0.000000
Si Si3 0.172919 0.039341 0.903856
Si Si4 0.569315 0.325774 0.315054
Si Si5 0.510446 0.181965 0.000000
Si Si6 0.402003 0.286742 0.500000
Si Si7 0.579194 0.075032 0.838620
O O1 0.446384 0.326472 0.232555
O O2 0.184950 0.245688 0.190848
O O3 0.158309 0.377111 0.260927
O O4 0.256452 0.354014 0.091480
O O5 0.363859 0.243268 0.000000
O O6 0.035805 0.281867 0.000000
O O7 0.176239 0.099874 0.826002
O O8 0.293099 0.970391 0.898795
O O9 0.191451 0.076917 0.000000
O O10 0.000000 0.000000 0.898407
O O11 0.456811 0.323308 0.405428
O O12 0.700835 0.215652 0.000000
O O13 0.497135 0.130744 0.910714
O O14 0.500000 0.000000 0.797088
#
# Coordination Sequence:
#
# PCOD9443849 Si02
#       7
#     8   4   8   8   4   4   8
#     4  11  24  42  58  93 123 173 221 262 310 382
#     4  10  26  41  69  88 133 180 222 269 316 359
#     4  11  21  38  62  93 131 166 193 254 343 405
#     4  11  22  38  64  88 130 166 211 258 325 391
#     4  12  21  43  64 105 137 162 207 265 338 408
#     4  10  20  38  62  95 128 166 196 260 332 388
#     4  12  26  38  61  97 136 166 206 266 331 395
#
# _framework density 20.015848999999999
#
# number of rings (size 3 to 8) (size 9 to 14) (size 15 to 20)
#    0.000    0.909    5.455    1.364    7.636    0.000 
#    0.000    0.455    0.000    2.182    0.000    0.000 
#    0.000    0.000    0.000    0.000    0.000    0.000 
#
# Total GULP energy -245270.805468 kJ/mol
# GULP energy per Si atom -5574.336488 kJ/mol
# Density = 1.997029 g / cm^3
# Si number density = 20.015849 Si / 1000 Ang^3
#
#
#
# Elastic Constant Matrix: (Units=GPa)
#
#
# Indices 1 2 3 4 5 6 
#
# 1 80.8267 28.1281 17.2566 0.0000 0.0000 0.0000
# 2 28.1281 79.1161 33.6770 0.0000 0.0000 0.0000
# 3 17.2566 33.6770 135.8584 0.0000 0.0000 0.0000
# 4 0.0000 0.0000 0.0000 45.1216 0.0000 0.0000
# 5 0.0000 0.0000 0.0000 0.0000 40.1296 0.0000
# 6 0.0000 0.0000 0.0000 0.0000 0.0000 33.7677
#
#
#
# Elastic Compliance Matrix: (Units=1/GPa)
#
#
# Indices 1 2 3 4 5 6 
#
# 1 0.014165 -0.004774 -0.000616 0.000000 0.000000 0.000000
# 2 -0.004774 0.015740 -0.003295 0.000000 0.000000 0.000000
# 3 -0.000616 -0.003295 0.008256 0.000000 0.000000 0.000000
# 4 0.000000 0.000000 0.000000 0.022162 0.000000 0.000000
# 5 0.000000 0.000000 0.000000 0.000000 0.024919 0.000000
# 6 0.000000 0.000000 0.000000 0.000000 0.000000 0.029614
#
#
# Mechanical properties :
#
#
# Convention : Reuss Voigt Hill
#
# Bulk Modulus (GPa) = 48.09939 50.43606 49.26772
# Shear Modulus (GPa) = 35.93090 38.25306 37.09198
#
# Velocity S-wave (km/s) = 4.24149 4.37640 4.30947
# Velocity P-wave (km/s) = 6.93323 7.12671 7.03064
#
# Compressibility (1/GPa) = 0.02079029
#
# Stress axis : x y z
#
# Youngs Moduli (GPa) = 70.59661 63.53409 121.12914
#
# Poissons Ratio (x) = 0.30331 0.07460
# Poissons Ratio (y) = 0.33702 0.39914
# Poissons Ratio (z) = 0.04348 0.20936
#
# Static dielectric constant tensor:
#      x y z
#    x 1.890080 0.000000 0.000000 
#    y 0.000000 1.690130 0.000000 
#    z 0.000000 0.000000 1.705330 
# 
# From -- ./inp_files/19761.got.cif
#   From: 2010.05.17/outbox.cif.g08.bks.cpg/sg58_10_cif.got.tgz:19761.got - 2010.06.03 14:20:14.
