data_PCOD9443157
_publ_section_title
;
Structure prediction by ZEFSAII (Michael W. Deem and Ramdas Pophale) SiO2 
 PCOD9443157
Probable space group: P N N M
;
_chemical_formula_sum "Si O2"
_cell_formula_units_Z 64
_cell_length_a 16.144807
_cell_length_b 23.048044
_cell_length_c 9.304732
_cell_angle_alpha 90.000000
_cell_angle_beta 90.000000
_cell_angle_gamma 90.000000
_cell_volume 3462.348672
_symmetry_space_group_name_H-M "P N N M"
_symmetry_group_IT_number 58
_symmetry_cell_setting 'orthorhombic'
loop_
_space_group_symop_operation_xyz
x,y,z
-x,-y,z
1/2+x,1/2-y,1/2-z
1/2-x,1/2+y,1/2-z
-x,-y,-z
x,y,-z
1/2-x,1/2+y,1/2+z
1/2+x,1/2-y,1/2+z
loop_
_atom_site_type_symbol
_atom_site_label
_atom_site_fract_x
_atom_site_fract_y
_atom_site_fract_z
Si Si1 0.404964 0.667842 0.333426
Si Si2 0.408808 0.027438 0.834433
Si Si3 0.054373 0.281014 0.333921
Si Si4 0.744188 0.175194 0.832072
Si Si5 0.283773 0.213451 0.835506
Si Si6 0.756327 0.041714 0.826250
Si Si7 0.419608 0.145140 0.669388
Si Si8 0.584441 0.466943 0.675095
O O1 0.434009 0.671707 0.500000
O O2 0.447029 0.717034 0.236141
O O3 0.308386 0.686415 0.333031
O O4 0.414653 0.601163 0.283826
O O5 0.412173 0.080403 0.726856
O O6 0.500000 0.000000 0.834893
O O7 0.333644 0.984992 0.791804
O O8 0.391787 0.046893 0.000000
O O9 0.029062 0.278479 0.500000
O O10 0.146855 0.307954 0.329480
O O11 0.996145 0.323159 0.244697
O O12 0.784045 0.221347 0.724786
O O13 0.759943 0.109203 0.784537
O O14 0.771151 0.181908 0.000000
O O15 0.338925 0.177380 0.727193
O O16 0.313373 0.210420 0.000000
O O17 0.833324 0.001970 0.775929
O O18 0.760604 0.042057 0.000000
O O19 0.427275 0.148010 0.500000
O O20 0.500000 0.500000 0.718455
O O21 0.586495 0.467024 0.500000
#
# Coordination Sequence:
#
# PCOD9443157 Si02
#       8
#     8   8   8   8   8   8   8   8
#     4   9  18  34  55  78 104 137 179 225 273 324
#     4  10  20  36  58  81 108 146 188 228 276 335
#     4  10  20  35  55  78 106 140 178 223 277 334
#     4   9  18  34  56  81 107 139 182 226 270 323
#     4  10  20  35  55  78 107 142 180 225 276 329
#     4   9  17  31  52  77 108 146 184 222 265 321
#     4  12  24  36  53  80 112 143 182 229 277 331
#     4   9  17  29  48  76 107 138 175 218 263 316
#
# _framework density 18.484563999999999
#
# number of rings (size 3 to 8) (size 9 to 14) (size 15 to 20)
#    0.000    2.250    0.000    3.375    0.000    6.250 
#    0.000    3.125    0.000    1.125    0.000    0.000 
#    0.000    0.000    0.000    0.000    0.000    0.000 
#
# Total GULP energy -357019.602014 kJ/mol
# GULP energy per Si atom -5578.431281 kJ/mol
# Density = 1.844249 g / cm^3
# Si number density = 18.484564 Si / 1000 Ang^3
#
#
#
# Elastic Constant Matrix: (Units=GPa)
#
#
# Indices 1 2 3 4 5 6 
#
# 1 35.0663 13.1627 8.0130 0.0000 0.0000 0.0000
# 2 13.1627 126.5482 37.1579 0.0000 0.0000 0.0000
# 3 8.0130 37.1579 83.8412 0.0000 0.0000 0.0000
# 4 0.0000 0.0000 0.0000 36.5878 0.0000 0.0000
# 5 0.0000 0.0000 0.0000 0.0000 15.9263 0.0000
# 6 0.0000 0.0000 0.0000 0.0000 0.0000 20.6561
#
#
#
# Elastic Compliance Matrix: (Units=1/GPa)
#
#
# Indices 1 2 3 4 5 6 
#
# 1 0.029885 -0.002609 -0.001700 0.000000 0.000000 0.000000
# 2 -0.002609 0.009312 -0.003878 0.000000 0.000000 0.000000
# 3 -0.001700 -0.003878 0.013808 0.000000 0.000000 0.000000
# 4 0.000000 0.000000 0.000000 0.027331 0.000000 0.000000
# 5 0.000000 0.000000 0.000000 0.000000 0.062789 0.000000
# 6 0.000000 0.000000 0.000000 0.000000 0.000000 0.048412
#
#
# Mechanical properties :
#
#
# Convention : Reuss Voigt Hill
#
# Bulk Modulus (GPa) = 27.29849 40.23588 33.76718
# Shear Modulus (GPa) = 22.71462 27.10886 24.91174
#
# Velocity S-wave (km/s) = 3.50929 3.83373 3.67509
# Velocity P-wave (km/s) = 5.58753 6.43516 6.02626
#
# Compressibility (1/GPa) = 0.03663206
#
# Stress axis : x y z
#
# Youngs Moduli (GPa) = 33.46127 107.38684 72.42004
#
# Poissons Ratio (x) = 0.28021 0.12310
# Poissons Ratio (y) = 0.08731 0.28082
# Poissons Ratio (z) = 0.05688 0.41641
#
# Static dielectric constant tensor:
#      x y z
#    x 1.647030 0.000000 0.000000 
#    y 0.000000 1.632200 0.000000 
#    z 0.000000 0.000000 1.600220 
# 
# From -- ./inp_files/8359.got.cif
#   From: 2010.05.17/outbox.cif.g08.bks.cpg/sg58_5_cif.got.tgz:8359.got - 2010.06.03 14:20:14.
