data_PCOD9443173
_publ_section_title
;
Structure prediction by ZEFSAII (Michael W. Deem and Ramdas Pophale) SiO2 
 PCOD9443173
Probable space group: P N N M
;
_chemical_formula_sum "Si O2"
_cell_formula_units_Z 64
_cell_length_a 22.558391
_cell_length_b 17.303732
_cell_length_c 7.596385
_cell_angle_alpha 90.000000
_cell_angle_beta 90.000000
_cell_angle_gamma 90.000000
_cell_volume 2965.205982
_symmetry_space_group_name_H-M "P N N M"
_symmetry_group_IT_number 58
_symmetry_cell_setting 'orthorhombic'
loop_
_space_group_symop_operation_xyz
x,y,z
-x,-y,z
1/2+x,1/2-y,1/2-z
1/2-x,1/2+y,1/2-z
-x,-y,-z
x,y,-z
1/2-x,1/2+y,1/2+z
1/2+x,1/2-y,1/2+z
loop_
_atom_site_type_symbol
_atom_site_label
_atom_site_fract_x
_atom_site_fract_y
_atom_site_fract_z
Si Si1 0.233886 0.087090 0.211772
Si Si2 0.431375 0.002289 0.284345
Si Si3 0.263427 0.410068 0.713442
Si Si4 0.116313 0.825293 0.786640
Si Si5 0.364305 0.850224 0.706765
Si Si6 0.004768 0.086937 0.293377
Si Si7 0.120920 0.180274 0.793442
Si Si8 0.361205 0.152879 0.710484
O O1 0.174812 0.129001 0.280104
O O2 0.292358 0.135530 0.255074
O O3 0.240027 0.998890 0.275790
O O4 0.229598 0.081610 0.000000
O O5 0.428767 0.003147 0.500000
O O6 0.397353 0.925758 0.220341
O O7 0.500000 0.000000 0.234477
O O8 0.398878 0.080076 0.222134
O O9 0.262368 0.409641 0.500000
O O10 0.324691 0.370759 0.770584
O O11 0.205776 0.363923 0.775115
O O12 0.119497 0.736839 0.722841
O O13 0.056930 0.868835 0.731549
O O14 0.116890 0.824459 0.000000
O O15 0.380113 0.849194 0.500000
O O16 0.381504 0.766800 0.782687
O O17 0.017469 0.080035 0.500000
O O18 0.059248 0.135535 0.218060
O O19 0.000000 0.000000 0.219346
O O20 0.135130 0.190314 0.000000
O O21 0.369444 0.154756 0.500000
#
# Coordination Sequence:
#
# PCOD9443173 Si02
#       8
#     8   8   8   8   8   8   8   8
#     4  10  20  35  55  81 116 153 189 237 294 344
#     4   9  18  32  53  81 115 148 185 236 283 331
#     4  10  20  35  55  81 116 153 189 237 294 344
#     4  10  22  38  60  86 113 152 197 237 284 345
#     4  10  20  35  58  86 113 149 195 240 286 336
#     4  11  25  43  61  86 117 150 188 236 290 339
#     4  10  22  38  60  86 113 152 197 237 284 345
#     4  10  20  35  58  86 113 149 195 240 286 336
#
# _framework density 21.583662
#
# number of rings (size 3 to 8) (size 9 to 14) (size 15 to 20)
#    0.000    2.000    1.250    1.875    1.750    4.000 
#    0.000    0.000    0.000    0.750    0.000    0.000 
#    0.000    0.000    0.000    0.000    0.000    0.000 
#
# Total GULP energy -357710.094681 kJ/mol
# GULP energy per Si atom -5589.220229 kJ/mol
# Density = 2.153454 g / cm^3
# Si number density = 21.583662 Si / 1000 Ang^3
#
#
#
# Elastic Constant Matrix: (Units=GPa)
#
#
# Indices 1 2 3 4 5 6 
#
# 1 136.0246 75.2892 -25.5996 0.0000 0.0000 0.0000
# 2 75.2892 194.9744 -2.5754 0.0000 0.0000 0.0000
# 3 -25.5996 -2.5754 42.3955 0.0000 0.0000 0.0000
# 4 0.0000 0.0000 0.0000 -10.6410 0.0000 0.0000
# 5 0.0000 0.0000 0.0000 0.0000 28.5693 0.0000
# 6 0.0000 0.0000 0.0000 0.0000 0.0000 22.2701
#
#
#
# Elastic Compliance Matrix: (Units=1/GPa)
#
#
# Indices 1 2 3 4 5 6 
#
# 1 0.010792 -0.004085 0.006268 0.000000 0.000000 0.000000
# 2 -0.004085 0.006679 -0.002061 0.000000 0.000000 0.000000
# 3 0.006268 -0.002061 0.027247 0.000000 0.000000 0.000000
# 4 0.000000 0.000000 0.000000 -0.093977 0.000000 0.000000
# 5 0.000000 0.000000 0.000000 0.000000 0.035003 0.000000
# 6 0.000000 0.000000 0.000000 0.000000 0.000000 0.044903
#
#
# Mechanical properties :
#
#
# Convention : Reuss Voigt Hill
#
# Bulk Modulus (GPa) = 22.23963 51.95808 37.09886
# Shear Modulus (GPa) = 110.15778 29.79171 69.97474
#
# Velocity S-wave (km/s) = 7.15181 3.71926 5.70005
# Velocity P-wave (km/s) = 8.86138 6.52449 7.78117
#
# Compressibility (1/GPa) = 0.04496478
#
# Stress axis : x y z
#
# Youngs Moduli (GPa) = 92.66024 149.72506 36.70093
#
# Poissons Ratio (x) = 0.61156 -0.23006
# Poissons Ratio (y) = 0.37848 0.07563
# Poissons Ratio (z) = -0.58084 0.30853
#
# Static dielectric constant tensor:
#      x y z
#    x 1.710790 0.000000 0.000000 
#    y 0.000000 1.787880 0.000000 
#    z 0.000000 0.000000 1.812590 
# 
# From -- ./inp_files/9962.got.cif
#   From: 2010.05.17/outbox.cif.g08.bks.cpg/sg58_5_cif.got.tgz:9962.got - 2010.06.03 14:20:14.
