data_PCOD9443415
_publ_section_title
;
Structure prediction by ZEFSAII (Michael W. Deem and Ramdas Pophale) SiO2 
 PCOD9443415
Probable space group: P N N M
;
_chemical_formula_sum "Si O2"
_cell_formula_units_Z 48
_cell_length_a 20.475216
_cell_length_b 12.303909
_cell_length_c 7.618782
_cell_angle_alpha 90.000000
_cell_angle_beta 90.000000
_cell_angle_gamma 90.000000
_cell_volume 1919.363137
_symmetry_space_group_name_H-M "P N N M"
_symmetry_group_IT_number 58
_symmetry_cell_setting 'orthorhombic'
loop_
_space_group_symop_operation_xyz
x,y,z
-x,-y,z
1/2+x,1/2-y,1/2-z
1/2-x,1/2+y,1/2-z
-x,-y,-z
x,y,-z
1/2-x,1/2+y,1/2+z
1/2+x,1/2-y,1/2+z
loop_
_atom_site_type_symbol
_atom_site_label
_atom_site_fract_x
_atom_site_fract_y
_atom_site_fract_z
Si Si1 0.006630 0.669038 0.287965
Si Si2 0.635734 0.160557 0.215247
Si Si3 0.377555 0.595576 0.200647
Si Si4 0.066348 0.883266 0.291793
Si Si5 0.852754 0.315568 0.800403
Si Si6 0.256743 0.005773 0.800470
O O1 0.011595 0.661474 0.500000
O O2 0.937319 0.622114 0.235007
O O3 0.009990 0.798158 0.236877
O O4 0.075414 0.628641 0.214457
O O5 0.637388 0.285649 0.275541
O O6 0.695696 0.087151 0.274981
O O7 0.638507 0.157047 0.000000
O O8 0.424258 0.503152 0.282737
O O9 0.308144 0.534284 0.197860
O O10 0.399736 0.615974 0.000000
O O11 0.059499 0.896830 0.500000
O O12 0.129999 0.806510 0.259733
O O13 0.801397 0.385932 0.696363
O O14 0.830550 0.312599 0.000000
O O15 0.238093 0.976986 0.000000
#
# Coordination Sequence:
#
# PCOD9443415 Si02
#       6
#     8   8   8   8   8   8
#     4   8  16  35  59  86 113 144 183 230 280 338
#     4   9  20  37  59  85 113 146 188 229 280 342
#     4  10  21  38  59  86 114 147 187 235 281 335
#     4   8  17  34  59  85 112 144 185 227 279 336
#     4  10  20  36  58  82 111 149 188 230 279 329
#     4  11  23  38  56  82 114 153 190 229 279 337
#
# _framework density 25.008293999999999
#
# number of rings (size 3 to 8) (size 9 to 14) (size 15 to 20)
#    1.000    1.667    0.000    1.500    2.333    2.000 
#    0.000   10.000    0.000    1.000    0.000    0.000 
#    0.000    0.000    0.000    0.000    0.000    0.000 
#
# Total GULP energy -267780.713379 kJ/mol
# GULP energy per Si atom -5578.764862 kJ/mol
# Density = 2.495137 g / cm^3
# Si number density = 25.008294 Si / 1000 Ang^3
#
#
#
# Elastic Constant Matrix: (Units=GPa)
#
#
# Indices 1 2 3 4 5 6 
#
# 1 72.9704 -0.0918 5.7807 0.0000 0.0000 0.0000
# 2 -0.0918 90.0954 -5.2098 0.0000 0.0000 0.0000
# 3 5.7807 -5.2098 60.5325 0.0000 0.0000 0.0000
# 4 0.0000 0.0000 0.0000 -0.9841 0.0000 0.0000
# 5 0.0000 0.0000 0.0000 0.0000 10.0240 0.0000
# 6 0.0000 0.0000 0.0000 0.0000 0.0000 43.7610
#
#
#
# Elastic Compliance Matrix: (Units=1/GPa)
#
#
# Indices 1 2 3 4 5 6 
#
# 1 0.013809 -0.000062 -0.001324 0.000000 0.000000 0.000000
# 2 -0.000062 0.011155 0.000966 0.000000 0.000000 0.000000
# 3 -0.001324 0.000966 0.016730 0.000000 0.000000 0.000000
# 4 0.000000 0.000000 0.000000 -1.016165 0.000000 0.000000
# 5 0.000000 0.000000 0.000000 0.000000 0.099761 0.000000
# 6 0.000000 0.000000 0.000000 0.000000 0.000000 0.022851
#
#
# Mechanical properties :
#
#
# Convention : Reuss Voigt Hill
#
# Bulk Modulus (GPa) = 24.47819 24.95072 24.71446
# Shear Modulus (GPa) = -5.97086 25.43479 9.73196
#
# Velocity S-wave (km/s) = -1.54685 3.19259 1.97483
# Velocity P-wave (km/s) = 2.57273 4.85683 3.88637
#
# Compressibility (1/GPa) = 0.04085269
#
# Stress axis : x y z
#
# Youngs Moduli (GPa) = 72.41651 89.64476 59.77414
#
# Poissons Ratio (x) = 0.00560 0.07915
# Poissons Ratio (y) = 0.00453 -0.05774
# Poissons Ratio (z) = 0.09589 -0.08660
#
# Static dielectric constant tensor:
#      x y z
#    x 1.998080 0.000000 0.000000 
#    y 0.000000 2.033430 0.000000 
#    z 0.000000 0.000000 1.858860 
# 
# From -- ./inp_files/9710.got.cif
#   From: 2010.05.17/outbox.cif.g08.bks.cpg/sg58_5_cif.got.tgz:9710.got - 2010.06.03 14:20:14.
