data_PCOD9443881
_publ_section_title
;
Structure prediction by ZEFSAII (Michael W. Deem and Ramdas Pophale) SiO2 
 PCOD9443881
Probable space group: P N N M
;
_chemical_formula_sum "Si O2"
_cell_formula_units_Z 64
_cell_length_a 11.102675
_cell_length_b 33.616727
_cell_length_c 8.333902
_cell_angle_alpha 90.000000
_cell_angle_beta 90.000000
_cell_angle_gamma 90.000000
_cell_volume 3110.508867
_symmetry_space_group_name_H-M "P N N M"
_symmetry_group_IT_number 58
_symmetry_cell_setting 'orthorhombic'
loop_
_space_group_symop_operation_xyz
x,y,z
-x,-y,z
1/2+x,1/2-y,1/2-z
1/2-x,1/2+y,1/2-z
-x,-y,-z
x,y,-z
1/2-x,1/2+y,1/2+z
1/2+x,1/2-y,1/2+z
loop_
_atom_site_type_symbol
_atom_site_label
_atom_site_fract_x
_atom_site_fract_y
_atom_site_fract_z
Si Si1 0.522501 0.720197 0.683872
Si Si2 0.242795 0.824614 0.314736
Si Si3 0.007316 0.304838 0.688433
Si Si4 0.098258 0.143275 0.307699
Si Si5 0.859305 0.096220 0.693225
Si Si6 0.893128 0.469596 0.806400
Si Si7 0.860090 0.007486 0.303859
Si Si8 0.357233 0.117435 0.808307
O O1 0.497094 0.729874 0.500000
O O2 0.647117 0.696715 0.703043
O O3 0.540117 0.760519 0.782942
O O4 0.423909 0.688311 0.746382
O O5 0.201382 0.821048 0.500000
O O6 0.371686 0.806673 0.289993
O O7 0.242237 0.871291 0.272652
O O8 0.033625 0.309977 0.500000
O O9 0.924993 0.341842 0.740290
O O10 0.097431 0.144341 0.500000
O O11 0.220528 0.123552 0.249119
O O12 0.985122 0.116049 0.253595
O O13 0.868253 0.092430 0.500000
O O14 0.835045 0.052416 0.752483
O O15 0.756537 0.481781 0.751933
O O16 0.911727 0.423648 0.758053
O O17 0.000000 0.500000 0.751963
O O18 0.892858 0.471745 0.000000
O O19 0.860892 0.004754 0.500000
O O20 0.000000 0.000000 0.255295
O O21 0.359392 0.115317 0.000000
#
# Coordination Sequence:
#
# PCOD9443881 Si02
#       8
#     8   8   8   8   8   8   8   8
#     4  11  23  40  63  91 124 161 198 247 309 366
#     4  10  21  38  61  88 120 156 201 251 301 358
#     4  11  25  42  60  84 117 159 209 253 300 366
#     4  10  20  38  64  92 124 159 204 255 302 361
#     4   8  16  31  56  88 118 152 191 241 299 354
#     4  10  22  38  61  91 121 157 208 262 313 379
#     4   9  16  29  54  87 119 151 193 246 303 362
#     4  11  25  42  61  86 122 165 208 252 312 377
#
# _framework density 20.575413000000001
#
# number of rings (size 3 to 8) (size 9 to 14) (size 15 to 20)
#    0.000    2.000    0.000    4.125    3.500    4.250 
#    0.000    0.000    0.000    4.125    0.000    0.000 
#    0.000    0.000    0.000    0.000    0.000    0.000 
#
# Total GULP energy -357025.507581 kJ/mol
# GULP energy per Si atom -5578.523556 kJ/mol
# Density = 2.052858 g / cm^3
# Si number density = 20.575413 Si / 1000 Ang^3
#
#
#
# Elastic Constant Matrix: (Units=GPa)
#
#
# Indices 1 2 3 4 5 6 
#
# 1 45.2659 17.2301 8.3628 0.0000 0.0000 0.0000
# 2 17.2301 126.3481 10.3451 0.0000 0.0000 0.0000
# 3 8.3628 10.3451 28.5004 0.0000 0.0000 0.0000
# 4 0.0000 0.0000 0.0000 26.2956 0.0000 0.0000
# 5 0.0000 0.0000 0.0000 0.0000 12.2257 0.0000
# 6 0.0000 0.0000 0.0000 0.0000 0.0000 27.4776
#
#
#
# Elastic Compliance Matrix: (Units=1/GPa)
#
#
# Indices 1 2 3 4 5 6 
#
# 1 0.024290 -0.002812 -0.006107 0.000000 0.000000 0.000000
# 2 -0.002812 0.008483 -0.002254 0.000000 0.000000 0.000000
# 3 -0.006107 -0.002254 0.037697 0.000000 0.000000 0.000000
# 4 0.000000 0.000000 0.000000 0.038029 0.000000 0.000000
# 5 0.000000 0.000000 0.000000 0.000000 0.081795 0.000000
# 6 0.000000 0.000000 0.000000 0.000000 0.000000 0.036393
#
#
# Mechanical properties :
#
#
# Convention : Reuss Voigt Hill
#
# Bulk Modulus (GPa) = 20.77943 30.22116 25.50029
# Shear Modulus (GPa) = 18.86261 24.14489 21.50375
#
# Velocity S-wave (km/s) = 3.03108 3.42933 3.23634
# Velocity P-wave (km/s) = 4.72980 5.51365 5.13670
#
# Compressibility (1/GPa) = 0.04812452
#
# Stress axis : x y z
#
# Youngs Moduli (GPa) = 41.16855 117.88673 26.52724
#
# Poissons Ratio (x) = 0.33156 0.16199
# Poissons Ratio (y) = 0.11579 0.05979
# Poissons Ratio (z) = 0.25140 0.26569
#
# Static dielectric constant tensor:
#      x y z
#    x 1.735330 0.000000 0.000000 
#    y 0.000000 1.753500 0.000000 
#    z 0.000000 0.000000 1.703110 
# 
# From -- ./inp_files/4796.got.cif
#   From: 2010.05.17/outbox.cif.g08.bks.cpg/sg58_3_cif.got.tgz:4796.got - 2010.06.03 14:20:14.
