data_PCOD9443024
_publ_section_title
;
Structure prediction by ZEFSAII (Michael W. Deem and Ramdas Pophale) SiO2 
 PCOD9443024
Probable space group: P N N M
;
_chemical_formula_sum "Si O2"
_cell_formula_units_Z 48
_cell_length_a 12.522971
_cell_length_b 17.078547
_cell_length_c 10.663766
_cell_angle_alpha 90.000000
_cell_angle_beta 90.000000
_cell_angle_gamma 90.000000
_cell_volume 2280.703876
_symmetry_space_group_name_H-M "P N N M"
_symmetry_group_IT_number 58
_symmetry_cell_setting 'orthorhombic'
loop_
_space_group_symop_operation_xyz
x,y,z
-x,-y,z
1/2+x,1/2-y,1/2-z
1/2-x,1/2+y,1/2-z
-x,-y,-z
x,y,-z
1/2-x,1/2+y,1/2+z
1/2+x,1/2-y,1/2+z
loop_
_atom_site_type_symbol
_atom_site_label
_atom_site_fract_x
_atom_site_fract_y
_atom_site_fract_z
Si Si1 0.397214 0.304041 0.227362
Si Si2 0.386549 0.457200 0.642694
Si Si3 0.665700 0.200659 0.639874
Si Si4 0.876061 0.815047 0.632368
Si Si5 0.239361 0.526486 0.143616
Si Si6 0.445558 0.137720 0.352006
O O1 0.402408 0.364100 0.343064
O O2 0.288479 0.320086 0.154069
O O3 0.497566 0.325903 0.141910
O O4 0.407430 0.214276 0.274470
O O5 0.500000 0.500000 0.670195
O O6 0.356397 0.477887 0.500000
O O7 0.297432 0.479781 0.745426
O O8 0.645571 0.231546 0.500000
O O9 0.650010 0.264720 0.746640
O O10 0.574218 0.135375 0.662422
O O11 0.849120 0.774531 0.500000
O O12 0.812674 0.895471 0.635465
O O13 0.122746 0.560881 0.179122
O O14 0.236084 0.492977 0.000000
O O15 0.423987 0.151399 0.500000
#
# Coordination Sequence:
#
# PCOD9443024 Si02
#       6
#     8   8   8   8   8   8
#     4  11  20  36  58  87 120 151 191 243 289 348
#     4  11  24  39  58  89 122 156 192 240 300 355
#     4  10  21  35  57  87 116 148 195 243 287 340
#     4  10  20  34  55  84 117 151 189 234 290 339
#     4  10  20  38  59  81 114 154 192 237 288 348
#     4   9  19  37  59  84 113 154 196 236 287 343
#
# _framework density 21.046135
#
# number of rings (size 3 to 8) (size 9 to 14) (size 15 to 20)
#    0.000    1.833    3.333    1.000    0.000    3.667 
#    0.000    1.667    0.000    4.000    0.000    0.000 
#    0.000    0.000    0.000    0.000    0.000    0.000 
#
# Total GULP energy -267770.650891 kJ/mol
# GULP energy per Si atom -5578.555227 kJ/mol
# Density = 2.099823 g / cm^3
# Si number density = 21.046135 Si / 1000 Ang^3
#
#
#
# Elastic Constant Matrix: (Units=GPa)
#
#
# Indices 1 2 3 4 5 6 
#
# 1 102.9562 -9.1630 1.4251 0.0000 0.0000 0.0000
# 2 -9.1630 36.6341 13.5801 0.0000 0.0000 0.0000
# 3 1.4251 13.5801 95.8348 0.0000 0.0000 0.0000
# 4 0.0000 0.0000 0.0000 27.6625 0.0000 0.0000
# 5 0.0000 0.0000 0.0000 0.0000 19.7759 0.0000
# 6 0.0000 0.0000 0.0000 0.0000 0.0000 17.3839
#
#
#
# Elastic Compliance Matrix: (Units=1/GPa)
#
#
# Indices 1 2 3 4 5 6 
#
# 1 0.009959 0.002687 -0.000529 0.000000 0.000000 0.000000
# 2 0.002687 0.029535 -0.004225 0.000000 0.000000 0.000000
# 3 -0.000529 -0.004225 0.011041 0.000000 0.000000 0.000000
# 4 0.000000 0.000000 0.000000 0.036150 0.000000 0.000000
# 5 0.000000 0.000000 0.000000 0.000000 0.050567 0.000000
# 6 0.000000 0.000000 0.000000 0.000000 0.000000 0.057525
#
#
# Mechanical properties :
#
#
# Convention : Reuss Voigt Hill
#
# Bulk Modulus (GPa) = 21.55083 27.45663 24.50373
# Shear Modulus (GPa) = 23.32326 28.26999 25.79662
#
# Velocity S-wave (km/s) = 3.33257 3.66900 3.50482
# Velocity P-wave (km/s) = 5.00700 5.56983 5.29590
#
# Compressibility (1/GPa) = 0.04640192
#
# Stress axis : x y z
#
# Youngs Moduli (GPa) = 100.40831 33.85772 90.56975
#
# Poissons Ratio (x) = -0.09098 0.04790
# Poissons Ratio (y) = -0.26981 0.38268
# Poissons Ratio (z) = 0.05310 0.14306
#
# Static dielectric constant tensor:
#      x y z
#    x 1.818020 0.000000 0.000000 
#    y 0.000000 1.771500 0.000000 
#    z 0.000000 0.000000 1.750090 
# 
# From -- ./inp_files/14405.got.cif
#   From: 2010.05.17/outbox.cif.g08.bks.cpg/sg58_8_cif.got.tgz:14405.got - 2010.06.03 14:20:14.
