data_PCOD9443501
_publ_section_title
;
Structure prediction by ZEFSAII (Michael W. Deem and Ramdas Pophale) SiO2 
 PCOD9443501
Probable space group: P N N M
;
_chemical_formula_sum "Si O2"
_cell_formula_units_Z 56
_cell_length_a 18.840000
_cell_length_b 17.421794
_cell_length_c 9.722014
_cell_angle_alpha 90.000000
_cell_angle_beta 90.000000
_cell_angle_gamma 90.000000
_cell_volume 3191.023590
_symmetry_space_group_name_H-M "P N N M"
_symmetry_group_IT_number 58
_symmetry_cell_setting 'orthorhombic'
loop_
_space_group_symop_operation_xyz
x,y,z
-x,-y,z
1/2+x,1/2-y,1/2-z
1/2-x,1/2+y,1/2-z
-x,-y,-z
x,y,-z
1/2-x,1/2+y,1/2+z
1/2+x,1/2-y,1/2+z
loop_
_atom_site_type_symbol
_atom_site_label
_atom_site_fract_x
_atom_site_fract_y
_atom_site_fract_z
Si Si1 0.197369 0.173829 0.837108
Si Si2 0.078173 0.466915 0.662138
Si Si3 0.449516 0.243408 0.338688
Si Si4 0.859920 0.370865 0.660172
Si Si5 0.895590 0.940925 0.659806
Si Si6 0.607630 0.183333 0.661372
Si Si7 0.439463 0.390683 0.160065
O O1 0.280537 0.159238 0.817466
O O2 0.153416 0.110340 0.754959
O O3 0.170264 0.258598 0.796026
O O4 0.181933 0.166636 0.000000
O O5 0.924621 0.553145 0.500000
O O6 0.131836 0.538011 0.680860
O O7 0.099597 0.393210 0.749748
O O8 0.000000 0.500000 0.699444
O O9 0.432373 0.245578 0.500000
O O10 0.412120 0.173073 0.261902
O O11 0.534138 0.230867 0.325195
O O12 0.426226 0.320413 0.260755
O O13 0.879884 0.356036 0.500000
O O14 0.874429 0.933265 0.500000
O O15 0.977067 0.912260 0.669446
O O16 0.897285 0.031402 0.694287
O O17 0.616180 0.163573 0.500000
O O18 0.425086 0.370601 0.000000
#
# Coordination Sequence:
#
# PCOD9443501 Si02
#       7
#     8   8   8   8   8   8   8
#     4  10  21  39  58  79 114 154 187 228 290 348
#     4  10  20  36  60  86 107 140 190 235 277 330
#     4  11  21  34  56  85 112 141 186 236 278 329
#     4  10  22  40  59  79 112 152 187 230 287 342
#     4   9  18  33  55  81 108 143 186 228 271 328
#     4  10  21  36  57  85 113 146 184 228 286 339
#     4   9  18  33  54  81 111 143 182 227 277 329
#
# _framework density 17.549229
#
# number of rings (size 3 to 8) (size 9 to 14) (size 15 to 20)
#    0.000    2.143    2.857    1.286    0.000    3.143 
#    2.571    1.429    0.000    0.000    0.000    0.000 
#    0.000    0.000    0.000    0.000    0.000    0.000 
#
# Total GULP energy -312449.241655 kJ/mol
# GULP energy per Si atom -5579.450744 kJ/mol
# Density = 1.750929 g / cm^3
# Si number density = 17.549229 Si / 1000 Ang^3
#
#
#
# Elastic Constant Matrix: (Units=GPa)
#
#
# Indices 1 2 3 4 5 6 
#
# 1 52.2331 31.9556 29.9251 0.0000 0.0000 0.0000
# 2 31.9556 118.5510 64.6891 0.0000 0.0000 0.0000
# 3 29.9251 64.6891 63.4269 0.0000 0.0000 0.0000
# 4 0.0000 0.0000 0.0000 35.8356 0.0000 0.0000
# 5 0.0000 0.0000 0.0000 0.0000 5.5660 0.0000
# 6 0.0000 0.0000 0.0000 0.0000 0.0000 27.8147
#
#
#
# Elastic Compliance Matrix: (Units=1/GPa)
#
#
# Indices 1 2 3 4 5 6 
#
# 1 0.026264 -0.000717 -0.011660 0.000000 0.000000 0.000000
# 2 -0.000717 0.019040 -0.019081 0.000000 0.000000 0.000000
# 3 -0.011660 -0.019081 0.040728 0.000000 0.000000 0.000000
# 4 0.000000 0.000000 0.000000 0.027905 0.000000 0.000000
# 5 0.000000 0.000000 0.000000 0.000000 0.179662 0.000000
# 6 0.000000 0.000000 0.000000 0.000000 0.000000 0.035952
#
#
# Mechanical properties :
#
#
# Convention : Reuss Voigt Hill
#
# Bulk Modulus (GPa) = 43.25977 54.15006 48.70492
# Shear Modulus (GPa) = 12.49458 21.01934 16.75696
#
# Velocity S-wave (km/s) = 2.67118 3.46459 3.09342
# Velocity P-wave (km/s) = 5.84958 6.85037 6.36966
#
# Compressibility (1/GPa) = 0.02311616
#
# Stress axis : x y z
#
# Youngs Moduli (GPa) = 38.07515 52.52045 24.55304
#
# Poissons Ratio (x) = 0.03765 0.28630
# Poissons Ratio (y) = 0.02729 0.46849
# Poissons Ratio (z) = 0.44397 1.00214
#
# Static dielectric constant tensor:
#      x y z
#    x 1.590280 0.000000 0.000000 
#    y 0.000000 1.590050 0.000000 
#    z 0.000000 0.000000 1.580770 
# 
# From -- ./inp_files/9076.got.cif
#   From: 2010.05.17/outbox.cif.g08.bks.cpg/sg58_5_cif.got.tgz:9076.got - 2010.06.03 14:20:14.
