data_PCOD9443273
_publ_section_title
;
Structure prediction by ZEFSAII (Michael W. Deem and Ramdas Pophale) SiO2 
 PCOD9443273
Probable space group: P N N M
;
_chemical_formula_sum "Si O2"
_cell_formula_units_Z 56
_cell_length_a 14.702196
_cell_length_b 21.646707
_cell_length_c 8.776846
_cell_angle_alpha 90.000000
_cell_angle_beta 90.000000
_cell_angle_gamma 90.000000
_cell_volume 2793.267480
_symmetry_space_group_name_H-M "P N N M"
_symmetry_group_IT_number 58
_symmetry_cell_setting 'orthorhombic'
loop_
_space_group_symop_operation_xyz
x,y,z
-x,-y,z
1/2+x,1/2-y,1/2-z
1/2-x,1/2+y,1/2-z
-x,-y,-z
x,y,-z
1/2-x,1/2+y,1/2+z
1/2+x,1/2-y,1/2+z
loop_
_atom_site_type_symbol
_atom_site_label
_atom_site_fract_x
_atom_site_fract_y
_atom_site_fract_z
Si Si1 0.493482 0.646873 0.678278
Si Si2 0.204535 0.612059 0.317904
Si Si3 0.014390 0.572310 0.818378
Si Si4 0.661496 0.595511 0.174968
Si Si5 0.371259 0.545991 0.176295
Si Si6 0.822912 0.768400 0.181458
Si Si7 0.660361 0.135815 0.822232
O O1 0.515415 0.649389 0.500000
O O2 0.585543 0.644317 0.773843
O O3 0.437745 0.584604 0.716589
O O4 0.421019 0.700365 0.714170
O O5 0.213769 0.602858 0.500000
O O6 0.270012 0.565009 0.227735
O O7 0.246060 0.680138 0.283801
O O8 0.102124 0.600518 0.265291
O O9 0.924785 0.609802 0.771335
O O10 0.000000 0.500000 0.777575
O O11 0.028387 0.575752 0.000000
O O12 0.618934 0.527241 0.185970
O O13 0.749520 0.597963 0.279936
O O14 0.688756 0.605983 0.000000
O O15 0.386956 0.564467 0.000000
O O16 0.816546 0.705629 0.273341
O O17 0.818629 0.756053 0.000000
O O18 0.639762 0.131794 0.000000
#
# Coordination Sequence:
#
# PCOD9443273 Si02
#       7
#     8   8   8   8   8   8   8
#     4  10  21  37  60  88 117 152 193 238 285 337
#     4  10  21  38  63  91 118 154 198 245 294 346
#     4  11  24  42  64  90 122 161 201 245 303 364
#     4  11  23  38  57  83 118 156 190 231 287 346
#     4  10  20  35  57  87 121 156 191 229 283 347
#     4   9  21  42  62  84 117 153 193 241 294 352
#     4  12  26  41  61  87 115 152 198 248 296 345
#
# _framework density 20.048204999999999
#
# number of rings (size 3 to 8) (size 9 to 14) (size 15 to 20)
#    0.000    1.571    0.000    5.571    0.000   13.143 
#    0.000    0.000    0.000    0.000    0.000    0.000 
#    0.000    0.000    0.000    0.000    0.000    0.000 
#
# Total GULP energy -313049.815791 kJ/mol
# GULP energy per Si atom -5590.175282 kJ/mol
# Density = 2.000257 g / cm^3
# Si number density = 20.048205 Si / 1000 Ang^3
#
#
#
# Elastic Constant Matrix: (Units=GPa)
#
#
# Indices 1 2 3 4 5 6 
#
# 1 57.8419 -12.0802 -17.5703 0.0000 0.0000 0.0000
# 2 -12.0802 48.3533 15.3594 0.0000 0.0000 0.0000
# 3 -17.5703 15.3594 31.9688 0.0000 0.0000 0.0000
# 4 0.0000 0.0000 0.0000 28.0253 0.0000 0.0000
# 5 0.0000 0.0000 0.0000 0.0000 54.4016 0.0000
# 6 0.0000 0.0000 0.0000 0.0000 0.0000 9.6850
#
#
#
# Elastic Compliance Matrix: (Units=1/GPa)
#
#
# Indices 1 2 3 4 5 6 
#
# 1 0.020893 0.001855 0.010592 0.000000 0.000000 0.000000
# 2 0.001855 0.024571 -0.010785 0.000000 0.000000 0.000000
# 3 0.010592 -0.010785 0.042284 0.000000 0.000000 0.000000
# 4 0.000000 0.000000 0.000000 0.035682 0.000000 0.000000
# 5 0.000000 0.000000 0.000000 0.000000 0.018382 0.000000
# 6 0.000000 0.000000 0.000000 0.000000 0.000000 0.103252
#
#
# Mechanical properties :
#
#
# Convention : Reuss Voigt Hill
#
# Bulk Modulus (GPa) = 10.98039 12.17574 11.57806
# Shear Modulus (GPa) = 18.37583 28.58606 23.48094
#
# Velocity S-wave (km/s) = 3.03080 3.78016 3.42603
# Velocity P-wave (km/s) = 4.21147 5.01390 4.63011
#
# Compressibility (1/GPa) = 0.09107147
#
# Stress axis : x y z
#
# Youngs Moduli (GPa) = 47.86197 40.69913 23.64988
#
# Poissons Ratio (x) = -0.07551 -0.25049
# Poissons Ratio (y) = -0.08880 0.25507
# Poissons Ratio (z) = -0.50694 0.43895
#
# Static dielectric constant tensor:
#      x y z
#    x 1.709650 0.000000 0.000000 
#    y 0.000000 1.720580 0.000000 
#    z 0.000000 0.000000 1.671620 
# 
# From -- ./inp_files/6439.got.cif
#   From: 2010.05.17/outbox.cif.g08.bks.cpg/sg58_4_cif.got.tgz:6439.got - 2010.06.03 14:20:14.
