data_PCOD9443873
_publ_section_title
;
Structure prediction by ZEFSAII (Michael W. Deem and Ramdas Pophale) SiO2 
 PCOD9443873
Probable space group: P N N M
;
_chemical_formula_sum "Si O2"
_cell_formula_units_Z 40
_cell_length_a 9.026789
_cell_length_b 14.231976
_cell_length_c 13.096374
_cell_angle_alpha 90.000000
_cell_angle_beta 90.000000
_cell_angle_gamma 90.000000
_cell_volume 1682.478653
_symmetry_space_group_name_H-M "P N N M"
_symmetry_group_IT_number 58
_symmetry_cell_setting 'orthorhombic'
loop_
_space_group_symop_operation_xyz
x,y,z
-x,-y,z
1/2+x,1/2-y,1/2-z
1/2-x,1/2+y,1/2-z
-x,-y,-z
x,y,-z
1/2-x,1/2+y,1/2+z
1/2+x,1/2-y,1/2+z
loop_
_atom_site_type_symbol
_atom_site_label
_atom_site_fract_x
_atom_site_fract_y
_atom_site_fract_z
Si Si1 0.445808 0.655384 0.000000
Si Si2 0.825256 0.509531 0.609758
Si Si3 0.063334 0.106619 0.888674
Si Si4 0.158621 0.371815 0.198141
Si Si5 0.049802 0.764136 0.292119
Si Si6 0.254199 0.472788 0.000000
O O1 0.460016 0.718093 0.897668
O O2 0.308418 0.581423 0.000000
O O3 0.592879 0.588659 0.000000
O O4 0.784963 0.553629 0.500000
O O5 0.739457 0.411559 0.614636
O O6 0.783087 0.568633 0.706932
O O7 0.000000 0.500000 0.610647
O O8 0.005668 0.159812 0.790941
O O9 0.029043 0.150765 0.000000
O O10 0.000000 0.000000 0.888702
O O11 0.001557 0.330860 0.235470
O O12 0.278752 0.287992 0.185940
O O13 0.165487 0.437527 0.099353
#
# Coordination Sequence:
#
# PCOD9443873 Si02
#       6
#     4   8   8   8   8   4
#     4   9  20  40  67  88 115 170 217 247 302 387
#     4  10  22  40  64  91 120 160 206 254 302 370
#     4  10  20  38  64  90 115 158 206 252 302 363
#     4  11  24  41  62  91 129 161 205 257 312 367
#     4  11  24  39  63  91 124 163 205 257 312 370
#     4   9  20  42  66  89 120 165 216 257 299 375
#
# _framework density 23.774446999999999
#
# number of rings (size 3 to 8) (size 9 to 14) (size 15 to 20)
#    0.000    1.800    2.000    1.200    8.400    0.000 
#    0.000    0.500    0.000    0.000    0.000    0.000 
#    0.000    0.000    0.000    0.000    0.000    0.000 
#
# Total GULP energy -223439.855257 kJ/mol
# GULP energy per Si atom -5585.996381 kJ/mol
# Density = 2.372034 g / cm^3
# Si number density = 23.774447 Si / 1000 Ang^3
#
#
#
# Elastic Constant Matrix: (Units=GPa)
#
#
# Indices 1 2 3 4 5 6 
#
# 1 83.3424 -6.4038 5.8055 0.0000 0.0000 0.0000
# 2 -6.4038 34.1248 35.1554 0.0000 0.0000 0.0000
# 3 5.8055 35.1554 187.7541 0.0000 0.0000 0.0000
# 4 0.0000 0.0000 0.0000 4.5998 0.0000 0.0000
# 5 0.0000 0.0000 0.0000 0.0000 35.3616 0.0000
# 6 0.0000 0.0000 0.0000 0.0000 0.0000 29.4968
#
#
#
# Elastic Compliance Matrix: (Units=1/GPa)
#
#
# Indices 1 2 3 4 5 6 
#
# 1 0.012327 0.003353 -0.001009 0.000000 0.000000 0.000000
# 2 0.003353 0.037220 -0.007073 0.000000 0.000000 0.000000
# 3 -0.001009 -0.007073 0.006682 0.000000 0.000000 0.000000
# 4 0.000000 0.000000 0.000000 0.217399 0.000000 0.000000
# 5 0.000000 0.000000 0.000000 0.000000 0.028279 0.000000
# 6 0.000000 0.000000 0.000000 0.000000 0.000000 0.033902
#
#
# Mechanical properties :
#
#
# Convention : Reuss Voigt Hill
#
# Bulk Modulus (GPa) = 21.38137 41.59282 31.48710
# Shear Modulus (GPa) = 13.85595 31.93593 22.89594
#
# Velocity S-wave (km/s) = 2.41676 3.66907 3.10667
# Velocity P-wave (km/s) = 4.09885 5.95669 5.11286
#
# Compressibility (1/GPa) = 0.04676968
#
# Stress axis : x y z
#
# Youngs Moduli (GPa) = 81.12553 26.86756 149.66432
#
# Poissons Ratio (x) = -0.09007 0.15099
# Poissons Ratio (y) = -0.27198 1.05853
# Poissons Ratio (z) = 0.08185 0.19003
#
# Static dielectric constant tensor:
#      x y z
#    x 1.991970 0.000000 0.000000 
#    y 0.000000 2.042120 0.000000 
#    z 0.000000 0.000000 1.853250 
# 
# From -- ./inp_files/19529.got.cif
#   From: 2010.05.17/outbox.cif.g08.bks.cpg/sg58_10_cif.got.tgz:19529.got - 2010.06.03 14:20:14.
