data_PCOD9443172
_publ_section_title
;
Structure prediction by ZEFSAII (Michael W. Deem and Ramdas Pophale) SiO2 
 PCOD9443172
Probable space group: P N N M
;
_chemical_formula_sum "Si O2"
_cell_formula_units_Z 56
_cell_length_a 14.926089
_cell_length_b 21.563223
_cell_length_c 9.049597
_cell_angle_alpha 90.000000
_cell_angle_beta 90.000000
_cell_angle_gamma 90.000000
_cell_volume 2912.654293
_symmetry_space_group_name_H-M "P N N M"
_symmetry_group_IT_number 58
_symmetry_cell_setting 'orthorhombic'
loop_
_space_group_symop_operation_xyz
x,y,z
-x,-y,z
1/2+x,1/2-y,1/2-z
1/2-x,1/2+y,1/2-z
-x,-y,-z
x,y,-z
1/2-x,1/2+y,1/2+z
1/2+x,1/2-y,1/2+z
loop_
_atom_site_type_symbol
_atom_site_label
_atom_site_fract_x
_atom_site_fract_y
_atom_site_fract_z
Si Si1 0.408949 0.353519 0.176769
Si Si2 0.097821 0.285466 0.326095
Si Si3 0.896924 0.505591 0.325419
Si Si4 0.214119 0.385869 0.824573
Si Si5 0.089037 0.719412 0.176227
Si Si6 0.286946 0.120887 0.827357
Si Si7 0.892766 0.863661 0.672982
O O1 0.320115 0.392982 0.205277
O O2 0.399154 0.288895 0.262652
O O3 0.505670 0.382211 0.214237
O O4 0.412772 0.339607 0.000000
O O5 0.091256 0.299476 0.500000
O O6 0.177613 0.323770 0.253115
O O7 0.109624 0.211435 0.310487
O O8 0.005098 0.303341 0.245893
O O9 0.896982 0.521883 0.500000
O O10 0.843604 0.557845 0.237880
O O11 0.847040 0.440191 0.308452
O O12 0.000000 0.500000 0.277262
O O13 0.202297 0.380151 0.000000
O O14 0.168156 0.675808 0.233936
O O15 0.084829 0.719107 0.000000
O O16 0.186635 0.109471 0.770382
O O17 0.286511 0.137998 0.000000
O O18 0.877812 0.878030 0.500000
#
# Coordination Sequence:
#
# PCOD9443172 Si02
#       7
#     8   8   8   8   8   8   8
#     4   9  20  38  57  81 114 148 182 223 275 331
#     4  10  20  35  55  81 116 152 182 220 275 334
#     4  10  23  42  60  78 106 146 185 223 276 335
#     4  11  22  36  58  85 110 142 187 234 276 324
#     4  11  21  33  55  86 115 146 185 228 274 325
#     4  11  22  36  56  81 110 146 186 229 278 330
#     4   9  19  36  57  81 111 147 184 223 270 325
#
# _framework density 19.226448999999999
#
# number of rings (size 3 to 8) (size 9 to 14) (size 15 to 20)
#    0.000    1.857    0.000    5.143    0.000    8.857 
#    0.000    0.714    0.000    4.286    0.000    0.000 
#    0.000    0.000    0.000    0.000    0.000    0.000 
#
# Total GULP energy -312911.814160 kJ/mol
# GULP energy per Si atom -5587.710967 kJ/mol
# Density = 1.918269 g / cm^3
# Si number density = 19.226449 Si / 1000 Ang^3
#
#
#
# Elastic Constant Matrix: (Units=GPa)
#
#
# Indices 1 2 3 4 5 6 
#
# 1 175.4805 33.4902 70.8082 0.0000 0.0000 0.0000
# 2 33.4902 18.2295 27.9708 0.0000 0.0000 0.0000
# 3 70.8082 27.9708 83.7600 0.0000 0.0000 0.0000
# 4 0.0000 0.0000 0.0000 11.0499 0.0000 0.0000
# 5 0.0000 0.0000 0.0000 0.0000 30.2671 0.0000
# 6 0.0000 0.0000 0.0000 0.0000 0.0000 19.5468
#
#
#
# Elastic Compliance Matrix: (Units=1/GPa)
#
#
# Indices 1 2 3 4 5 6 
#
# 1 0.009549 -0.010576 -0.004541 0.000000 0.000000 0.000000
# 2 -0.010576 0.124212 -0.032539 0.000000 0.000000 0.000000
# 3 -0.004541 -0.032539 0.026644 0.000000 0.000000 0.000000
# 4 0.000000 0.000000 0.000000 0.090499 0.000000 0.000000
# 5 0.000000 0.000000 0.000000 0.000000 0.033039 0.000000
# 6 0.000000 0.000000 0.000000 0.000000 0.000000 0.051159
#
#
# Mechanical properties :
#
#
# Convention : Reuss Voigt Hill
#
# Bulk Modulus (GPa) = 15.36251 60.22317 37.79284
# Shear Modulus (GPa) = 11.05923 21.85280 16.45601
#
# Velocity S-wave (km/s) = 2.40095 3.37501 2.92876
# Velocity P-wave (km/s) = 3.96153 6.82486 5.57998
#
# Compressibility (1/GPa) = 0.06509354
#
# Stress axis : x y z
#
# Youngs Moduli (GPa) = 104.71855 8.05077 37.53237
#
# Poissons Ratio (x) = 0.08514 0.17044
# Poissons Ratio (y) = 1.10750 1.22125
# Poissons Ratio (z) = 0.47553 0.26196
#
# Static dielectric constant tensor:
#      x y z
#    x 1.697880 0.000000 0.000000 
#    y 0.000000 1.643230 0.000000 
#    z 0.000000 0.000000 1.640840 
# 
# From -- ./inp_files/6367.got.cif
#   From: 2010.05.17/outbox.cif.g08.bks.cpg/sg58_4_cif.got.tgz:6367.got - 2010.06.03 14:20:14.
