data_PCOD9443517
_publ_section_title
;
Structure prediction by ZEFSAII (Michael W. Deem and Ramdas Pophale) SiO2 
 PCOD9443517
Probable space group: P N N M
;
_chemical_formula_sum "Si O2"
_cell_formula_units_Z 40
_cell_length_a 7.185897
_cell_length_b 12.718325
_cell_length_c 16.846425
_cell_angle_alpha 90.000000
_cell_angle_beta 90.000000
_cell_angle_gamma 90.000000
_cell_volume 1539.638134
_symmetry_space_group_name_H-M "P N N M"
_symmetry_group_IT_number 58
_symmetry_cell_setting 'orthorhombic'
loop_
_space_group_symop_operation_xyz
x,y,z
-x,-y,z
1/2+x,1/2-y,1/2-z
1/2-x,1/2+y,1/2-z
-x,-y,-z
x,y,-z
1/2-x,1/2+y,1/2+z
1/2+x,1/2-y,1/2+z
loop_
_atom_site_type_symbol
_atom_site_label
_atom_site_fract_x
_atom_site_fract_y
_atom_site_fract_z
Si Si1 0.061250 0.886047 0.409425
Si Si2 0.920982 0.217207 0.086060
Si Si3 0.416691 0.887473 0.673540
Si Si4 0.141854 0.655903 0.591340
Si Si5 0.286926 0.462673 0.320761
O O1 0.996439 0.886282 0.500000
O O2 0.283608 0.890721 0.402853
O O3 0.035334 0.763626 0.381447
O O4 0.000000 0.000000 0.374307
O O5 0.925697 0.302053 0.156663
O O6 0.136615 0.180653 0.085291
O O7 0.801311 0.114332 0.103929
O O8 0.873588 0.261765 0.000000
O O9 0.282519 0.887393 0.749685
O O10 0.500000 0.000000 0.679921
O O11 0.085706 0.630159 0.500000
O O12 0.157325 0.561947 0.655415
O O13 0.500000 0.500000 0.304898
#
# Coordination Sequence:
#
# PCOD9443517 Si02
#       5
#     8   8   8   8   8
#     4   9  18  35  60  89 122 162 205 247 301 378
#     4   9  19  36  59  84 114 158 209 257 308 376
#     4  11  23  36  54  85 123 158 199 259 323 386
#     4   8  15  31  58  89 118 150 196 251 303 368
#     4  10  20  36  60  88 119 158 205 260 327 387
#
# _framework density 25.980129999999999
#
# number of rings (size 3 to 8) (size 9 to 14) (size 15 to 20)
#    0.000    2.600    0.000    3.000    0.000    8.800 
#    0.000    4.000    0.000    4.800    0.000    4.200 
#    0.000    0.000    0.000    0.000    0.000    0.000 
#
# Total GULP energy -222920.067916 kJ/mol
# GULP energy per Si atom -5573.001698 kJ/mol
# Density = 2.592100 g / cm^3
# Si number density = 25.980130 Si / 1000 Ang^3
#
#
#
# Elastic Constant Matrix: (Units=GPa)
#
#
# Indices 1 2 3 4 5 6 
#
# 1 45.6107 45.9956 14.4503 0.0000 0.0000 0.0000
# 2 45.9956 182.9187 74.3576 0.0000 0.0000 0.0000
# 3 14.4503 74.3576 111.6612 0.0000 0.0000 0.0000
# 4 0.0000 0.0000 0.0000 32.6949 0.0000 0.0000
# 5 0.0000 0.0000 0.0000 0.0000 10.7366 0.0000
# 6 0.0000 0.0000 0.0000 0.0000 0.0000 57.0171
#
#
#
# Elastic Compliance Matrix: (Units=1/GPa)
#
#
# Indices 1 2 3 4 5 6 
#
# 1 0.029565 -0.008061 0.001542 0.000000 0.000000 0.000000
# 2 -0.008061 0.009694 -0.005412 0.000000 0.000000 0.000000
# 3 0.001542 -0.005412 0.012360 0.000000 0.000000 0.000000
# 4 0.000000 0.000000 0.000000 0.030586 0.000000 0.000000
# 5 0.000000 0.000000 0.000000 0.000000 0.093139 0.000000
# 6 0.000000 0.000000 0.000000 0.000000 0.000000 0.017539
#
#
# Mechanical properties :
#
#
# Convention : Reuss Voigt Hill
#
# Bulk Modulus (GPa) = 36.02725 67.75527 51.89126
# Shear Modulus (GPa) = 22.12407 33.78220 27.95314
#
# Velocity S-wave (km/s) = 2.92134 3.60989 3.28372
# Velocity P-wave (km/s) = 5.02756 6.59631 5.86463
#
# Compressibility (1/GPa) = 0.02775676
#
# Stress axis : x y z
#
# Youngs Moduli (GPa) = 33.82344 103.15638 80.90460
#
# Poissons Ratio (x) = 0.83156 -0.12475
# Poissons Ratio (y) = 0.27265 0.43788
# Poissons Ratio (z) = -0.05215 0.55831
#
# Static dielectric constant tensor:
#      x y z
#    x 2.476290 0.000000 0.000000 
#    y 0.000000 2.168210 0.000000 
#    z 0.000000 0.000000 2.055160 
# 
# From -- ./inp_files/24947.got.cif
#   From: 2010.05.17/outbox.cif.g08.bks.cpg/sg58_13_cif.got.tgz:24947.got - 2010.06.03 14:20:14.
