data_PCOD9443021
_publ_section_title
;
Structure prediction by ZEFSAII (Michael W. Deem and Ramdas Pophale) SiO2 
 PCOD9443021
Probable space group: P N N M
;
_chemical_formula_sum "Si O2"
_cell_formula_units_Z 60
_cell_length_a 12.217475
_cell_length_b 21.453910
_cell_length_c 13.686203
_cell_angle_alpha 90.000000
_cell_angle_beta 90.000000
_cell_angle_gamma 90.000000
_cell_volume 3587.326377
_symmetry_space_group_name_H-M "P N N M"
_symmetry_group_IT_number 58
_symmetry_cell_setting 'orthorhombic'
loop_
_space_group_symop_operation_xyz
x,y,z
-x,-y,z
1/2+x,1/2-y,1/2-z
1/2-x,1/2+y,1/2-z
-x,-y,-z
x,y,-z
1/2-x,1/2+y,1/2+z
1/2+x,1/2-y,1/2+z
loop_
_atom_site_type_symbol
_atom_site_label
_atom_site_fract_x
_atom_site_fract_y
_atom_site_fract_z
Si Si1 0.055025 0.672074 0.279327
Si Si2 0.370966 0.297343 0.886020
Si Si3 0.795269 0.673889 0.284258
Si Si4 0.500000 0.500000 0.257978
Si Si5 0.073276 0.106803 0.613602
Si Si6 0.301189 0.449507 0.383941
Si Si7 0.602459 0.956125 0.115722
Si Si8 0.224130 0.698537 0.885062
O O1 0.086869 0.730328 0.348441
O O2 0.097126 0.608000 0.326305
O O3 0.117147 0.683375 0.177733
O O4 0.924678 0.668960 0.268458
O O5 0.271654 0.318077 0.816450
O O6 0.470207 0.346490 0.875386
O O7 0.340845 0.294299 0.000000
O O8 0.750841 0.613534 0.341047
O O9 0.770272 0.735411 0.347847
O O10 0.441816 0.550292 0.187879
O O11 0.410885 0.466264 0.325922
O O12 0.075569 0.085888 0.500000
O O13 0.182722 0.146519 0.632692
O O14 0.320459 0.443025 0.500000
O O15 0.213035 0.504824 0.369405
O O16 0.500000 0.000000 0.143494
O O17 0.591471 0.942740 0.000000
O O18 0.202276 0.701163 0.000000
#
# Coordination Sequence:
#
# PCOD9443021 Si02
#       8
#     8   8   8   4   8   8   8   8
#     4  11  21  36  62  83 111 148 187 228 280 332
#     4  10  21  37  58  86 111 139 185 235 278 324
#     4  11  21  37  59  84 111 150 187 230 278 335
#     4  12  22  38  58  82 118 152 190 230 284 334
#     4  10  20  37  60  83 110 147 191 235 277 330
#     4  11  23  37  55  83 118 151 186 228 280 338
#     4  10  20  34  55  84 112 143 185 231 275 326
#     4  10  22  38  57  84 116 147 186 234 284 332
#
# _framework density 16.725546999999999
#
# number of rings (size 3 to 8) (size 9 to 14) (size 15 to 20)
#    0.000    1.467    4.000    2.000    0.000    1.600 
#    0.000    0.000    0.000    1.200    0.000    0.000 
#    0.000    0.000    0.000    0.000    0.000    0.000 
#
# Total GULP energy -335092.549100 kJ/mol
# GULP energy per Si atom -5584.875818 kJ/mol
# Density = 1.668748 g / cm^3
# Si number density = 16.725547 Si / 1000 Ang^3
#
#
#
# Elastic Constant Matrix: (Units=GPa)
#
#
# Indices 1 2 3 4 5 6 
#
# 1 109.8646 66.5476 75.6619 0.0000 0.0000 0.0000
# 2 66.5476 98.6943 77.0049 0.0000 0.0000 0.0000
# 3 75.6619 77.0049 132.4649 0.0000 0.0000 0.0000
# 4 0.0000 0.0000 0.0000 23.8460 0.0000 0.0000
# 5 0.0000 0.0000 0.0000 0.0000 19.8869 0.0000
# 6 0.0000 0.0000 0.0000 0.0000 0.0000 24.9025
#
#
#
# Elastic Compliance Matrix: (Units=1/GPa)
#
#
# Indices 1 2 3 4 5 6 
#
# 1 0.017480 -0.007314 -0.005733 0.000000 0.000000 0.000000
# 2 -0.007314 0.021603 -0.008381 0.000000 0.000000 0.000000
# 3 -0.005733 -0.008381 0.015696 0.000000 0.000000 0.000000
# 4 0.000000 0.000000 0.000000 0.041936 0.000000 0.000000
# 5 0.000000 0.000000 0.000000 0.000000 0.050284 0.000000
# 6 0.000000 0.000000 0.000000 0.000000 0.000000 0.040157
#
#
# Mechanical properties :
#
#
# Convention : Reuss Voigt Hill
#
# Bulk Modulus (GPa) = 83.86350 86.60582 85.23466
# Shear Modulus (GPa) = 21.36896 21.84772 21.60834
#
# Velocity S-wave (km/s) = 3.57826 3.61813 3.59825
# Velocity P-wave (km/s) = 8.20499 8.32751 8.26647
#
# Compressibility (1/GPa) = 0.01192414
#
# Stress axis : x y z
#
# Youngs Moduli (GPa) = 57.20731 46.29072 63.71208
#
# Poissons Ratio (x) = 0.33855 0.36526
# Poissons Ratio (y) = 0.41839 0.53395
# Poissons Ratio (z) = 0.32796 0.38795
#
# Static dielectric constant tensor:
#      x y z
#    x 1.540100 0.000000 0.000000 
#    y 0.000000 1.542430 0.000000 
#    z 0.000000 0.000000 1.537790 
# 
# From -- ./inp_files/14655.got.cif
#   From: 2010.05.17/outbox.cif.g08.bks.cpg/sg58_8_cif.got.tgz:14655.got - 2010.06.03 14:20:14.
