data_PCOD9443875
_publ_section_title
;
Structure prediction by ZEFSAII (Michael W. Deem and Ramdas Pophale) SiO2 
 PCOD9443875
Probable space group: P N N M
;
_chemical_formula_sum "Si O2"
_cell_formula_units_Z 64
_cell_length_a 25.139919
_cell_length_b 14.907956
_cell_length_c 8.422199
_cell_angle_alpha 90.000000
_cell_angle_beta 90.000000
_cell_angle_gamma 90.000000
_cell_volume 3156.512221
_symmetry_space_group_name_H-M "P N N M"
_symmetry_group_IT_number 58
_symmetry_cell_setting 'orthorhombic'
loop_
_space_group_symop_operation_xyz
x,y,z
-x,-y,z
1/2+x,1/2-y,1/2-z
1/2-x,1/2+y,1/2-z
-x,-y,-z
x,y,-z
1/2-x,1/2+y,1/2+z
1/2+x,1/2-y,1/2+z
loop_
_atom_site_type_symbol
_atom_site_label
_atom_site_fract_x
_atom_site_fract_y
_atom_site_fract_z
Si Si1 0.243482 0.163795 0.811008
Si Si2 0.124194 0.430533 0.317952
Si Si3 0.933485 0.255122 0.687229
Si Si4 0.053025 0.949590 0.306412
Si Si5 0.830551 0.984562 0.307554
Si Si6 0.645742 0.886858 0.318409
Si Si7 0.985213 0.601781 0.813770
Si Si8 0.238905 0.374309 0.190832
O O1 0.191306 0.108692 0.761957
O O2 0.292253 0.119275 0.717866
O O3 0.244182 0.269053 0.771195
O O4 0.252216 0.154838 0.000000
O O5 0.115751 0.406638 0.500000
O O6 0.120572 0.537398 0.292423
O O7 0.077493 0.386887 0.215299
O O8 0.183450 0.406150 0.264502
O O9 0.921133 0.253393 0.500000
O O10 0.947584 0.154868 0.738660
O O11 0.882515 0.293723 0.778623
O O12 0.981003 0.324194 0.721901
O O13 0.052516 0.952787 0.500000
O O14 0.109417 0.992298 0.257034
O O15 0.000000 0.000000 0.250286
O O16 0.829630 0.979823 0.500000
O O17 0.788802 0.063524 0.259773
O O18 0.636301 0.913005 0.500000
O O19 0.000000 0.500000 0.763477
O O20 0.998148 0.609321 0.000000
O O21 0.235021 0.382108 0.000000
#
# Coordination Sequence:
#
# PCOD9443875 Si02
#       8
#     8   8   8   8   8   8   8   8
#     4  11  23  39  62  93 125 163 208 258 309 368
#     4  12  24  38  61  90 121 159 206 258 305 366
#     4  11  22  38  64  94 122 162 215 265 306 364
#     4   9  20  40  65  93 125 162 206 257 310 363
#     4  10  20  38  64  90 123 167 208 253 311 372
#     4  12  23  38  60  88 124 165 205 254 316 374
#     4  11  23  39  60  87 126 168 199 245 312 376
#     4  10  22  40  60  87 128 168 203 251 317 375
#
# _framework density 20.275544
#
# number of rings (size 3 to 8) (size 9 to 14) (size 15 to 20)
#    0.000    1.250    2.500    4.125    0.000    4.500 
#    0.000    3.750    0.000    2.625    0.000    0.000 
#    0.000    0.000    0.000    0.000    0.000    0.000 
#
# Total GULP energy -357761.254306 kJ/mol
# GULP energy per Si atom -5590.019599 kJ/mol
# Density = 2.022940 g / cm^3
# Si number density = 20.275544 Si / 1000 Ang^3
#
#
#
# Elastic Constant Matrix: (Units=GPa)
#
#
# Indices 1 2 3 4 5 6 
#
# 1 124.8584 26.7514 8.0868 0.0000 0.0000 0.0000
# 2 26.7514 67.1820 6.2343 0.0000 0.0000 0.0000
# 3 8.0868 6.2343 19.2744 0.0000 0.0000 0.0000
# 4 0.0000 0.0000 0.0000 22.2462 0.0000 0.0000
# 5 0.0000 0.0000 0.0000 0.0000 17.8428 0.0000
# 6 0.0000 0.0000 0.0000 0.0000 0.0000 31.0534
#
#
#
# Elastic Compliance Matrix: (Units=1/GPa)
#
#
# Indices 1 2 3 4 5 6 
#
# 1 0.008887 -0.003291 -0.002664 0.000000 0.000000 0.000000
# 2 -0.003291 0.016565 -0.003977 0.000000 0.000000 0.000000
# 3 -0.002664 -0.003977 0.054286 0.000000 0.000000 0.000000
# 4 0.000000 0.000000 0.000000 0.044952 0.000000 0.000000
# 5 0.000000 0.000000 0.000000 0.000000 0.056045 0.000000
# 6 0.000000 0.000000 0.000000 0.000000 0.000000 0.032203
#
#
# Mechanical properties :
#
#
# Convention : Reuss Voigt Hill
#
# Bulk Modulus (GPa) = 16.70200 32.60666 24.65433
# Shear Modulus (GPa) = 19.78169 25.57796 22.67983
#
# Velocity S-wave (km/s) = 3.12692 3.55564 3.34815
# Velocity P-wave (km/s) = 4.61435 5.74225 5.20892
#
# Compressibility (1/GPa) = 0.05987307
#
# Stress axis : x y z
#
# Youngs Moduli (GPa) = 112.52625 60.36959 18.42090
#
# Poissons Ratio (x) = 0.19870 0.04907
# Poissons Ratio (y) = 0.37038 0.07326
# Poissons Ratio (z) = 0.29976 0.24008
#
# Static dielectric constant tensor:
#      x y z
#    x 1.718720 0.000000 0.000000 
#    y 0.000000 1.723510 0.000000 
#    z 0.000000 0.000000 1.691860 
# 
# From -- ./inp_files/9979.got.cif
#   From: 2010.05.17/outbox.cif.g08.bks.cpg/sg58_5_cif.got.tgz:9979.got - 2010.06.03 14:20:14.
