data_PCOD9443016
_publ_section_title
;
Structure prediction by ZEFSAII (Michael W. Deem and Ramdas Pophale) SiO2 
 PCOD9443016
Probable space group: P N N M
;
_chemical_formula_sum "Si O2"
_cell_formula_units_Z 48
_cell_length_a 12.913199
_cell_length_b 9.283780
_cell_length_c 21.714699
_cell_angle_alpha 90.000000
_cell_angle_beta 90.000000
_cell_angle_gamma 90.000000
_cell_volume 2603.229744
_symmetry_space_group_name_H-M "P N N M"
_symmetry_group_IT_number 58
_symmetry_cell_setting 'orthorhombic'
loop_
_space_group_symop_operation_xyz
x,y,z
-x,-y,z
1/2+x,1/2-y,1/2-z
1/2-x,1/2+y,1/2-z
-x,-y,-z
x,y,-z
1/2-x,1/2+y,1/2+z
1/2+x,1/2-y,1/2+z
loop_
_atom_site_type_symbol
_atom_site_label
_atom_site_fract_x
_atom_site_fract_y
_atom_site_fract_z
Si Si1 0.710376 0.486747 0.209513
Si Si2 0.139294 0.855237 0.500000
Si Si3 0.200727 0.281881 0.372098
Si Si4 0.220086 0.738737 0.372034
Si Si5 0.892083 0.458357 0.705943
Si Si6 0.878987 0.018005 0.157760
Si Si7 0.894861 0.800655 0.500000
O O1 0.676875 0.371083 0.159349
O O2 0.742074 0.631190 0.174503
O O3 0.810468 0.418966 0.242291
O O4 0.635169 0.517174 0.267455
O O5 0.197461 0.797213 0.439532
O O6 0.020039 0.799905 0.500000
O O7 0.135816 0.029407 0.500000
O O8 0.145890 0.399762 0.329359
O O9 0.320029 0.339857 0.368781
O O10 0.153893 0.274559 0.439995
O O11 0.115030 0.665241 0.345236
O O12 0.309802 0.617660 0.366760
O O13 0.000000 0.500000 0.733907
O O14 0.000000 0.000000 0.142757
#
# Coordination Sequence:
#
# PCOD9443016 Si02
#       7
#     8   4   8   8   8   8   4
#     4  10  20  35  57  84 117 146 183 237 280 323
#     4  11  22  37  61  86 110 146 183 227 291 345
#     4  10  21  38  56  84 118 144 186 239 273 331
#     4  10  21  38  56  84 118 144 186 239 273 331
#     4  10  20  34  55  83 113 148 183 227 286 333
#     4  10  22  38  60  84 112 156 192 226 282 334
#     4  11  22  37  61  86 110 146 183 227 291 345
#
# _framework density 18.438632999999999
#
# number of rings (size 3 to 8) (size 9 to 14) (size 15 to 20)
#    0.000    2.167    1.667    5.000    0.000    9.333 
#    0.000    5.833    0.000    1.000    0.000    0.000 
#    0.000    0.000    0.000    0.000    0.000    0.000 
#
# Total GULP energy -267471.754278 kJ/mol
# GULP energy per Si atom -5572.328214 kJ/mol
# Density = 1.839667 g / cm^3
# Si number density = 18.438633 Si / 1000 Ang^3
#
#
#
# Elastic Constant Matrix: (Units=GPa)
#
#
# Indices 1 2 3 4 5 6 
#
# 1 71.8116 -3.0515 25.5550 0.0000 0.0000 0.0000
# 2 -3.0515 61.1619 6.8068 0.0000 0.0000 0.0000
# 3 25.5550 6.8068 78.7295 0.0000 0.0000 0.0000
# 4 0.0000 0.0000 0.0000 8.6308 0.0000 0.0000
# 5 0.0000 0.0000 0.0000 0.0000 8.0884 0.0000
# 6 0.0000 0.0000 0.0000 0.0000 0.0000 12.2600
#
#
#
# Elastic Compliance Matrix: (Units=1/GPa)
#
#
# Indices 1 2 3 4 5 6 
#
# 1 0.015858 0.001377 -0.005266 0.000000 0.000000 0.000000
# 2 0.001377 0.016629 -0.001885 0.000000 0.000000 0.000000
# 3 -0.005266 -0.001885 0.014574 0.000000 0.000000 0.000000
# 4 0.000000 0.000000 0.000000 0.115865 0.000000 0.000000
# 5 0.000000 0.000000 0.000000 0.000000 0.123634 0.000000
# 6 0.000000 0.000000 0.000000 0.000000 0.000000 0.081566
#
#
# Mechanical properties :
#
#
# Convention : Reuss Voigt Hill
#
# Bulk Modulus (GPa) = 28.15883 30.03596 29.09739
# Shear Modulus (GPa) = 12.77104 17.95533 15.36318
#
# Velocity S-wave (km/s) = 2.63463 3.12394 2.88966
# Velocity P-wave (km/s) = 4.95579 5.41637 5.19119
#
# Compressibility (1/GPa) = 0.03551284
#
# Stress axis : x y z
#
# Youngs Moduli (GPa) = 63.05968 60.13763 68.61471
#
# Poissons Ratio (x) = -0.08283 0.36136
# Poissons Ratio (y) = -0.08685 0.12932
# Poissons Ratio (z) = 0.33210 0.11334
#
# Static dielectric constant tensor:
#      x y z
#    x 1.681120 0.000000 0.000000 
#    y 0.000000 1.678650 0.000000 
#    z 0.000000 0.000000 1.621530 
# 
# From -- ./inp_files/19999.got.cif
#   From: 2010.05.17/outbox.cif.g08.bks.cpg/sg58_10_cif.got.tgz:19999.got - 2010.06.03 14:20:14.
