data_PCOD9443319
_publ_section_title
;
Structure prediction by ZEFSAII (Michael W. Deem and Ramdas Pophale) SiO2 
 PCOD9443319
Probable space group: P N N M
;
_chemical_formula_sum "Si O2"
_cell_formula_units_Z 64
_cell_length_a 25.178050
_cell_length_b 14.382552
_cell_length_c 7.445984
_cell_angle_alpha 90.000000
_cell_angle_beta 90.000000
_cell_angle_gamma 90.000000
_cell_volume 2696.374077
_symmetry_space_group_name_H-M "P N N M"
_symmetry_group_IT_number 58
_symmetry_cell_setting 'orthorhombic'
loop_
_space_group_symop_operation_xyz
x,y,z
-x,-y,z
1/2+x,1/2-y,1/2-z
1/2-x,1/2+y,1/2-z
-x,-y,-z
x,y,-z
1/2-x,1/2+y,1/2+z
1/2+x,1/2-y,1/2+z
loop_
_atom_site_type_symbol
_atom_site_label
_atom_site_fract_x
_atom_site_fract_y
_atom_site_fract_z
Si Si1 0.910143 0.244320 0.295031
Si Si2 0.758134 0.093104 0.217690
Si Si3 0.454366 0.066624 0.291972
Si Si4 0.004295 0.893080 0.279284
Si Si5 0.798100 0.293905 0.296418
Si Si6 0.197207 0.096425 0.217547
Si Si7 0.136192 0.423640 0.717309
Si Si8 0.596366 0.276339 0.790747
O O1 0.896191 0.218831 0.500000
O O2 0.948588 0.333379 0.296772
O O3 0.855553 0.279977 0.208921
O O4 0.941883 0.157561 0.217925
O O5 0.773566 0.191205 0.298801
O O6 0.697749 0.068706 0.269801
O O7 0.798837 0.011438 0.268300
O O8 0.759088 0.102093 0.000000
O O9 0.467087 0.084300 0.500000
O O10 0.500000 0.000000 0.215599
O O11 0.399985 0.008748 0.278078
O O12 0.004260 0.891997 0.500000
O O13 0.954381 0.831176 0.216863
O O14 0.000000 0.000000 0.224216
O O15 0.806986 0.330731 0.500000
O O16 0.752188 0.357593 0.216399
O O17 0.147116 0.155625 0.279462
O O18 0.197074 0.101834 0.000000
O O19 0.135319 0.423327 0.500000
O O20 0.112028 0.325058 0.783164
O O21 0.584673 0.259980 0.000000
#
# Coordination Sequence:
#
# PCOD9443319 Si02
#       8
#     8   8   8   8   8   8   8   8
#     4  10  21  39  62  86 115 155 198 243 293 347
#     4  10  21  37  57  83 116 152 190 236 288 343
#     4  11  24  39  58  87 119 152 191 240 297 353
#     4   9  19  35  57  86 115 145 191 247 287 324
#     4  10  21  37  59  87 116 151 193 235 288 347
#     4  10  21  36  54  81 119 154 184 228 289 348
#     4  10  20  37  60  86 115 150 194 239 285 348
#     4  10  20  35  59  85 110 147 194 238 282 334
#
# _framework density 23.735578
#
# number of rings (size 3 to 8) (size 9 to 14) (size 15 to 20)
#    0.000    2.000    1.250    1.875    1.750    6.000 
#    0.000    1.875    0.000    0.750    0.000    0.000 
#    0.000    0.000    0.000    0.000    0.000    0.000 
#
# Total GULP energy -357867.965109 kJ/mol
# GULP energy per Si atom -5591.686955 kJ/mol
# Density = 2.368155 g / cm^3
# Si number density = 23.735578 Si / 1000 Ang^3
#
#
#
# Elastic Constant Matrix: (Units=GPa)
#
#
# Indices 1 2 3 4 5 6 
#
# 1 77.4089 -9.1250 -5.0304 0.0000 0.0000 0.0000
# 2 -9.1250 78.9816 -7.2261 0.0000 0.0000 0.0000
# 3 -5.0304 -7.2261 72.9509 0.0000 0.0000 0.0000
# 4 0.0000 0.0000 0.0000 21.0538 0.0000 0.0000
# 5 0.0000 0.0000 0.0000 0.0000 15.4034 0.0000
# 6 0.0000 0.0000 0.0000 0.0000 0.0000 39.8350
#
#
#
# Elastic Compliance Matrix: (Units=1/GPa)
#
#
# Indices 1 2 3 4 5 6 
#
# 1 0.013179 0.001620 0.001069 0.000000 0.000000 0.000000
# 2 0.001620 0.012976 0.001397 0.000000 0.000000 0.000000
# 3 0.001069 0.001397 0.013920 0.000000 0.000000 0.000000
# 4 0.000000 0.000000 0.000000 0.047497 0.000000 0.000000
# 5 0.000000 0.000000 0.000000 0.000000 0.064921 0.000000
# 6 0.000000 0.000000 0.000000 0.000000 0.000000 0.025104
#
#
# Mechanical properties :
#
#
# Convention : Reuss Voigt Hill
#
# Bulk Modulus (GPa) = 20.72595 20.73093 20.72844
# Shear Modulus (GPa) = 26.95330 31.97329 29.46330
#
# Velocity S-wave (km/s) = 3.37347 3.67422 3.52705
# Velocity P-wave (km/s) = 4.89129 5.17232 5.03377
#
# Compressibility (1/GPa) = 0.04824869
#
# Stress axis : x y z
#
# Youngs Moduli (GPa) = 75.87879 77.06408 71.83921
#
# Poissons Ratio (x) = -0.12488 -0.07682
# Poissons Ratio (y) = -0.12296 -0.10037
# Poissons Ratio (z) = -0.08114 -0.10767
#
# Static dielectric constant tensor:
#      x y z
#    x 1.916450 0.000000 0.000000 
#    y 0.000000 1.842680 0.000000 
#    z 0.000000 0.000000 1.984120 
# 
# From -- ./inp_files/10094.got.cif
#   From: 2010.05.17/outbox.cif.g08.bks.cpg/sg58_6_cif.got.tgz:10094.got - 2010.06.03 14:20:14.
