data_PCOD9443482
_publ_section_title
;
Structure prediction by ZEFSAII (Michael W. Deem and Ramdas Pophale) SiO2 
 PCOD9443482
Probable space group: P N N M
;
_chemical_formula_sum "Si O2"
_cell_formula_units_Z 64
_cell_length_a 20.312527
_cell_length_b 18.960074
_cell_length_c 8.491674
_cell_angle_alpha 90.000000
_cell_angle_beta 90.000000
_cell_angle_gamma 90.000000
_cell_volume 3270.373060
_symmetry_space_group_name_H-M "P N N M"
_symmetry_group_IT_number 58
_symmetry_cell_setting 'orthorhombic'
loop_
_space_group_symop_operation_xyz
x,y,z
-x,-y,z
1/2+x,1/2-y,1/2-z
1/2-x,1/2+y,1/2-z
-x,-y,-z
x,y,-z
1/2-x,1/2+y,1/2+z
1/2+x,1/2-y,1/2+z
loop_
_atom_site_type_symbol
_atom_site_label
_atom_site_fract_x
_atom_site_fract_y
_atom_site_fract_z
Si Si1 0.552406 0.558961 0.309292
Si Si2 0.199629 0.980900 0.810042
Si Si3 0.926817 0.479397 0.192031
Si Si4 0.128722 0.672274 0.188818
Si Si5 0.177108 0.401560 0.190101
Si Si6 0.618299 0.248541 0.309357
Si Si7 0.025490 0.784823 0.686948
Si Si8 0.728439 0.359786 0.309658
O O1 0.500000 0.500000 0.258929
O O2 0.551371 0.561427 0.500000
O O3 0.625747 0.537071 0.258925
O O4 0.534032 0.635601 0.246993
O O5 0.251725 0.923723 0.751468
O O6 0.220775 0.059221 0.755439
O O7 0.200363 0.981716 0.000000
O O8 0.904048 0.401817 0.242517
O O9 0.874420 0.538267 0.242373
O O10 0.000000 0.500000 0.244554
O O11 0.927392 0.479305 0.000000
O O12 0.084149 0.736205 0.247847
O O13 0.203460 0.672592 0.249013
O O14 0.129210 0.672848 0.000000
O O15 0.151664 0.324992 0.240300
O O16 0.178648 0.401961 0.000000
O O17 0.614342 0.248703 0.500000
O O18 0.544958 0.256306 0.245206
O O19 0.665771 0.312920 0.261236
O O20 0.027473 0.783422 0.500000
O O21 0.730108 0.359768 0.500000
#
# Coordination Sequence:
#
# PCOD9443482 Si02
#       8
#     8   8   8   8   8   8   8   8
#     4  10  22  43  69  93 122 165 212 255 311 378
#     4  10  21  37  60  89 124 161 199 252 306 366
#     4   9  17  32  56  84 114 151 198 244 289 351
#     4  11  22  38  61  88 124 167 206 250 305 370
#     4  10  20  36  59  89 120 156 203 255 305 363
#     4  10  22  41  65  88 118 162 207 254 316 381
#     4  12  26  42  62  92 128 162 207 264 314 368
#     4  10  21  39  62  91 126 162 203 252 311 372
#
# _framework density 19.569631999999999
#
# number of rings (size 3 to 8) (size 9 to 14) (size 15 to 20)
#    0.000    1.750    1.250    3.000    1.750    5.750 
#    0.000    1.250    0.000    1.875    0.000    0.000 
#    0.000    0.000    0.000    0.000    0.000    0.000 
#
# Total GULP energy -357726.287461 kJ/mol
# GULP energy per Si atom -5589.473242 kJ/mol
# Density = 1.952509 g / cm^3
# Si number density = 19.569632 Si / 1000 Ang^3
#
#
#
# Elastic Constant Matrix: (Units=GPa)
#
#
# Indices 1 2 3 4 5 6 
#
# 1 158.3025 61.8914 25.7312 0.0000 0.0000 0.0000
# 2 61.8914 129.9787 24.3610 0.0000 0.0000 0.0000
# 3 25.7312 24.3610 16.6410 0.0000 0.0000 0.0000
# 4 0.0000 0.0000 0.0000 41.1814 0.0000 0.0000
# 5 0.0000 0.0000 0.0000 0.0000 29.4634 0.0000
# 6 0.0000 0.0000 0.0000 0.0000 0.0000 42.7260
#
#
#
# Elastic Compliance Matrix: (Units=1/GPa)
#
#
# Indices 1 2 3 4 5 6 
#
# 1 0.008905 -0.002287 -0.010421 0.000000 0.000000 0.000000
# 2 -0.002287 0.011190 -0.012845 0.000000 0.000000 0.000000
# 3 -0.010421 -0.012845 0.095010 0.000000 0.000000 0.000000
# 4 0.000000 0.000000 0.000000 0.024283 0.000000 0.000000
# 5 0.000000 0.000000 0.000000 0.000000 0.033940 0.000000
# 6 0.000000 0.000000 0.000000 0.000000 0.000000 0.023405
#
#
# Mechanical properties :
#
#
# Convention : Reuss Voigt Hill
#
# Bulk Modulus (GPa) = 15.62533 58.76549 37.19541
# Shear Modulus (GPa) = 18.57543 35.53675 27.05609
#
# Velocity S-wave (km/s) = 3.08425 4.26598 3.72231
# Velocity P-wave (km/s) = 4.54810 7.37284 6.12552
#
# Compressibility (1/GPa) = 0.06399867
#
# Stress axis : x y z
#
# Youngs Moduli (GPa) = 112.29437 89.36548 10.52520
#
# Poissons Ratio (x) = 0.20439 0.10969
# Poissons Ratio (y) = 0.25683 0.13519
# Poissons Ratio (z) = 1.17027 1.14787
#
# Static dielectric constant tensor:
#      x y z
#    x 1.652600 0.000000 0.000000 
#    y 0.000000 1.667330 0.000000 
#    z 0.000000 0.000000 1.674480 
# 
# From -- ./inp_files/9216.got.cif
#   From: 2010.05.17/outbox.cif.g08.bks.cpg/sg58_5_cif.got.tgz:9216.got - 2010.06.03 14:20:14.
