data_PCOD9443763
_publ_section_title
;
Structure prediction by ZEFSAII (Michael W. Deem and Ramdas Pophale) SiO2 
 PCOD9443763
Probable space group: P N N M
;
_chemical_formula_sum "Si O2"
_cell_formula_units_Z 40
_cell_length_a 7.969651
_cell_length_b 15.030657
_cell_length_c 14.920725
_cell_angle_alpha 90.000000
_cell_angle_beta 90.000000
_cell_angle_gamma 90.000000
_cell_volume 1787.340079
_symmetry_space_group_name_H-M "P N N M"
_symmetry_group_IT_number 58
_symmetry_cell_setting 'orthorhombic'
loop_
_space_group_symop_operation_xyz
x,y,z
-x,-y,z
1/2+x,1/2-y,1/2-z
1/2-x,1/2+y,1/2-z
-x,-y,-z
x,y,-z
1/2-x,1/2+y,1/2+z
1/2+x,1/2-y,1/2+z
loop_
_atom_site_type_symbol
_atom_site_label
_atom_site_fract_x
_atom_site_fract_y
_atom_site_fract_z
Si Si1 0.751501 0.706526 0.500000
Si Si2 0.881857 0.268629 0.500000
Si Si3 0.472842 0.138923 0.303653
Si Si4 0.349982 0.066382 0.871397
Si Si5 0.000000 0.000000 0.838295
Si Si6 0.952762 0.655101 0.000000
Si Si7 0.311582 0.334445 0.303717
O O1 0.579275 0.760870 0.500000
O O2 0.748123 0.654427 0.406864
O O3 0.924575 0.763219 0.500000
O O4 0.864196 0.336551 0.583804
O O5 0.736473 0.194931 0.500000
O O6 0.369526 0.076572 0.236220
O O7 0.500956 0.109342 0.405938
O O8 0.385475 0.235790 0.299750
O O9 0.654405 0.152725 0.259820
O O10 0.500000 0.000000 0.899498
O O11 0.164750 0.030929 0.891433
O O12 0.055931 0.912123 0.784704
#
# Coordination Sequence:
#
# PCOD9443763 Si02
#       7
#     4   4   8   8   4   4   8
#     4  10  20  38  56  98 124 166 206 249 323 389
#     4  12  21  39  65  99 136 167 201 260 337 399
#     4  11  22  43  63  94 125 174 219 268 321 378
#     4  12  24  41  65  97 136 170 212 264 326 395
#     4  12  24  41  62  97 130 170 208 259 324 391
#     4  10  24  39  64  92 127 169 221 272 314 382
#     4  11  22  38  65  89 131 164 212 265 320 392
#
# _framework density 22.379625000000001
#
# number of rings (size 3 to 8) (size 9 to 14) (size 15 to 20)
#    0.000    0.800    4.000    5.100    0.000    1.600 
#    0.000    0.500    0.000    1.200    0.000    0.000 
#    0.000    0.000    0.000    0.000    0.000    0.000 
#
# Total GULP energy -223466.843818 kJ/mol
# GULP energy per Si atom -5586.671095 kJ/mol
# Density = 2.232869 g / cm^3
# Si number density = 22.379625 Si / 1000 Ang^3
#
#
#
# Elastic Constant Matrix: (Units=GPa)
#
#
# Indices 1 2 3 4 5 6 
#
# 1 133.1881 13.2217 10.2385 0.0000 0.0000 0.0000
# 2 13.2217 57.0139 3.2820 0.0000 0.0000 0.0000
# 3 10.2385 3.2820 170.0146 0.0000 0.0000 0.0000
# 4 0.0000 0.0000 0.0000 -4.7100 0.0000 0.0000
# 5 0.0000 0.0000 0.0000 0.0000 36.5814 0.0000
# 6 0.0000 0.0000 0.0000 0.0000 0.0000 31.6822
#
#
#
# Elastic Compliance Matrix: (Units=1/GPa)
#
#
# Indices 1 2 3 4 5 6 
#
# 1 0.007716 -0.001765 -0.000431 0.000000 0.000000 0.000000
# 2 -0.001765 0.017963 -0.000240 0.000000 0.000000 0.000000
# 3 -0.000431 -0.000240 0.005912 0.000000 0.000000 0.000000
# 4 0.000000 0.000000 0.000000 -0.212316 0.000000 0.000000
# 5 0.000000 0.000000 0.000000 0.000000 0.027336 0.000000
# 6 0.000000 0.000000 0.000000 0.000000 0.000000 0.031563
#
#
# Mechanical properties :
#
#
# Convention : Reuss Voigt Hill
#
# Bulk Modulus (GPa) = 37.42519 45.96676 41.69597
# Shear Modulus (GPa) = -46.27633 34.94235 -5.66699
#
# Velocity S-wave (km/s) = -4.55223 3.95567 -1.59302
# Velocity P-wave (km/s) = 3.29715 6.43796 3.90999
#
# Compressibility (1/GPa) = 0.02671997
#
# Stress axis : x y z
#
# Youngs Moduli (GPa) = 129.59302 55.67102 169.13539
#
# Poissons Ratio (x) = 0.09824 0.07283
# Poissons Ratio (y) = 0.22869 0.04067
# Poissons Ratio (z) = 0.05581 0.01339
#
# Static dielectric constant tensor:
#      x y z
#    x 1.832900 0.000000 0.000000 
#    y 0.000000 1.852790 0.000000 
#    z 0.000000 0.000000 1.878640 
# 
# From -- ./inp_files/19547.got.cif
#   From: 2010.05.17/outbox.cif.g08.bks.cpg/sg58_10_cif.got.tgz:19547.got - 2010.06.03 14:20:14.
