data_PCOD9443598
_publ_section_title
;
Structure prediction by ZEFSAII (Michael W. Deem and Ramdas Pophale) SiO2 
 PCOD9443598
Probable space group: P N N M
;
_chemical_formula_sum "Si O2"
_cell_formula_units_Z 56
_cell_length_a 14.026524
_cell_length_b 23.724647
_cell_length_c 9.007562
_cell_angle_alpha 90.000000
_cell_angle_beta 90.000000
_cell_angle_gamma 90.000000
_cell_volume 2997.485414
_symmetry_space_group_name_H-M "P N N M"
_symmetry_group_IT_number 58
_symmetry_cell_setting 'orthorhombic'
loop_
_space_group_symop_operation_xyz
x,y,z
-x,-y,z
1/2+x,1/2-y,1/2-z
1/2-x,1/2+y,1/2-z
-x,-y,-z
x,y,-z
1/2-x,1/2+y,1/2+z
1/2+x,1/2-y,1/2+z
loop_
_atom_site_type_symbol
_atom_site_label
_atom_site_fract_x
_atom_site_fract_y
_atom_site_fract_z
Si Si1 0.303352 0.734896 0.822530
Si Si2 0.099166 0.064308 0.169672
Si Si3 0.798168 0.365255 0.328991
Si Si4 0.901255 0.472987 0.319387
Si Si5 0.202068 0.835707 0.677696
Si Si6 0.789264 0.041718 0.179877
Si Si7 0.989771 0.832272 0.322504
O O1 0.226033 0.688700 0.768675
O O2 0.278552 0.794050 0.748794
O O3 0.405614 0.709551 0.772899
O O4 0.302693 0.739617 0.000000
O O5 0.201554 0.096833 0.167942
O O6 0.031597 0.105367 0.260764
O O7 0.125876 0.001671 0.222917
O O8 0.064888 0.061156 0.000000
O O9 0.817849 0.348258 0.500000
O O10 0.878699 0.408670 0.273355
O O11 0.903421 0.471018 0.500000
O O12 0.810948 0.511759 0.280277
O O13 0.000000 0.500000 0.267359
O O14 0.211004 0.836586 0.500000
O O15 0.207124 0.898298 0.743162
O O16 0.095845 0.813822 0.718060
O O17 0.792785 0.046912 0.000000
O O18 0.984206 0.835194 0.500000
#
# Coordination Sequence:
#
# PCOD9443598 Si02
#       7
#     8   8   8   8   8   8   8
#     4  10  20  37  57  75  99 135 179 224 266 313
#     4   8  15  29  52  78 104 134 168 209 256 306
#     4   8  14  28  51  76 101 132 171 213 256 303
#     4   8  14  28  52  80 107 139 178 214 253 310
#     4  11  23  38  54  76 108 142 177 220 270 319
#     4   9  18  33  52  78 111 142 175 216 262 311
#     4   9  20  37  56  77 101 135 179 219 261 319
#
# _framework density 18.682327000000001
#
# number of rings (size 3 to 8) (size 9 to 14) (size 15 to 20)
#    0.000    3.000    0.000    2.571    0.000    2.857 
#    2.571    5.000    0.000    0.857    0.000    0.000 
#    0.000    0.000    0.000    0.000    0.000    0.000 
#
# Total GULP energy -312189.458181 kJ/mol
# GULP energy per Si atom -5574.811753 kJ/mol
# Density = 1.863981 g / cm^3
# Si number density = 18.682327 Si / 1000 Ang^3
#
#
#
# Elastic Constant Matrix: (Units=GPa)
#
#
# Indices 1 2 3 4 5 6 
#
# 1 57.0432 21.4110 17.3583 0.0000 0.0000 0.0000
# 2 21.4110 104.2142 31.1873 0.0000 0.0000 0.0000
# 3 17.3583 31.1873 25.7034 0.0000 0.0000 0.0000
# 4 0.0000 0.0000 0.0000 32.2256 0.0000 0.0000
# 5 0.0000 0.0000 0.0000 0.0000 -17.7530 0.0000
# 6 0.0000 0.0000 0.0000 0.0000 0.0000 25.7077
#
#
#
# Elastic Compliance Matrix: (Units=1/GPa)
#
#
# Indices 1 2 3 4 5 6 
#
# 1 0.022066 -0.000116 -0.014761 0.000000 0.000000 0.000000
# 2 -0.000116 0.015067 -0.018203 0.000000 0.000000 0.000000
# 3 -0.014761 -0.018203 0.070961 0.000000 0.000000 0.000000
# 4 0.000000 0.000000 0.000000 0.031031 0.000000 0.000000
# 5 0.000000 0.000000 0.000000 0.000000 -0.056328 0.000000
# 6 0.000000 0.000000 0.000000 0.000000 0.000000 0.038899
#
#
# Mechanical properties :
#
#
# Convention : Reuss Voigt Hill
#
# Bulk Modulus (GPa) = 23.84743 36.31934 30.08338
# Shear Modulus (GPa) = 24.77295 15.83633 20.30464
#
# Velocity S-wave (km/s) = 3.64539 2.91462 3.30030
# Velocity P-wave (km/s) = 5.52367 5.55062 5.53716
#
# Compressibility (1/GPa) = 0.04193325
#
# Stress axis : x y z
#
# Youngs Moduli (GPa) = 45.31881 66.37034 14.09233
#
# Poissons Ratio (x) = 0.00771 0.20801
# Poissons Ratio (y) = 0.00526 0.25652
# Poissons Ratio (z) = 0.66894 1.20815
#
# Static dielectric constant tensor:
#      x y z
#    x 1.679870 0.000000 0.000000 
#    y 0.000000 1.646260 0.000000 
#    z 0.000000 0.000000 1.622810 
# 
# From -- ./inp_files/6385.got.cif
#   From: 2010.05.17/outbox.cif.g08.bks.cpg/sg58_4_cif.got.tgz:6385.got - 2010.06.03 14:20:14.
