data_PCOD9443123
_publ_section_title
;
Structure prediction by ZEFSAII (Michael W. Deem and Ramdas Pophale) SiO2 
 PCOD9443123
Probable space group: P N N M
;
_chemical_formula_sum "Si O2"
_cell_formula_units_Z 64
_cell_length_a 23.988182
_cell_length_b 19.842124
_cell_length_c 8.500672
_cell_angle_alpha 90.000000
_cell_angle_beta 90.000000
_cell_angle_gamma 90.000000
_cell_volume 4046.119951
_symmetry_space_group_name_H-M "P N N M"
_symmetry_group_IT_number 58
_symmetry_cell_setting 'orthorhombic'
loop_
_space_group_symop_operation_xyz
x,y,z
-x,-y,z
1/2+x,1/2-y,1/2-z
1/2-x,1/2+y,1/2-z
-x,-y,-z
x,y,-z
1/2-x,1/2+y,1/2+z
1/2+x,1/2-y,1/2+z
loop_
_atom_site_type_symbol
_atom_site_label
_atom_site_fract_x
_atom_site_fract_y
_atom_site_fract_z
Si Si1 0.338495 0.776769 0.689944
Si Si2 0.247463 0.501389 0.688334
Si Si3 0.227283 0.148464 0.808616
Si Si4 0.563066 0.862199 0.809541
Si Si5 0.273520 0.358742 0.189469
Si Si6 0.435445 0.866116 0.188246
Si Si7 0.337849 0.229800 0.191537
Si Si8 0.879110 0.497777 0.187302
O O1 0.342928 0.777770 0.500000
O O2 0.319714 0.701896 0.740962
O O3 0.286544 0.825906 0.731748
O O4 0.394495 0.805983 0.762134
O O5 0.245766 0.502250 0.500000
O O6 0.275571 0.571302 0.743695
O O7 0.277056 0.433352 0.743812
O O8 0.183932 0.500621 0.748973
O O9 0.287131 0.180066 0.762215
O O10 0.226595 0.148843 0.000000
O O11 0.499110 0.855520 0.758668
O O12 0.604038 0.802102 0.755856
O O13 0.589175 0.932382 0.752369
O O14 0.563898 0.862848 0.000000
O O15 0.320024 0.304698 0.242238
O O16 0.274928 0.362235 0.000000
O O17 0.410788 0.934808 0.259425
O O18 0.435093 0.872606 0.000000
O O19 0.338111 0.230735 0.000000
O O20 0.877370 0.495341 0.000000
#
# Coordination Sequence:
#
# PCOD9443123 Si02
#       8
#     8   8   8   8   8   8   8   8
#     4   9  17  31  49  68  92 123 156 190 230 279
#     4  11  19  30  50  72  96 125 157 193 233 276
#     4   8  15  28  49  70  89 120 157 188 230 282
#     4  10  20  35  52  68  90 125 165 198 230 271
#     4   9  17  29  48  71  94 121 153 188 233 284
#     4  11  22  33  48  70  94 124 162 198 230 268
#     4   8  14  29  50  68  89 121 156 190 230 278
#     4  12  23  33  45  66  97 131 164 192 226 272
#
# _framework density 15.817622
#
# number of rings (size 3 to 8) (size 9 to 14) (size 15 to 20)
#    0.000    2.250    2.500    3.750    0.000    2.500 
#    0.000    1.875    0.000    0.000    0.000    0.875 
#    0.000    7.000    0.000    0.000    0.000    0.000 
#
# Total GULP energy -356893.961995 kJ/mol
# GULP energy per Si atom -5576.468156 kJ/mol
# Density = 1.578162 g / cm^3
# Si number density = 15.817622 Si / 1000 Ang^3
#
#
#
# Elastic Constant Matrix: (Units=GPa)
#
#
# Indices 1 2 3 4 5 6 
#
# 1 88.4736 74.5196 13.2412 0.0000 0.0000 0.0000
# 2 74.5196 154.7255 19.1536 0.0000 0.0000 0.0000
# 3 13.2412 19.1536 13.5534 0.0000 0.0000 0.0000
# 4 0.0000 0.0000 0.0000 -2.6144 0.0000 0.0000
# 5 0.0000 0.0000 0.0000 0.0000 69.1835 0.0000
# 6 0.0000 0.0000 0.0000 0.0000 0.0000 16.2844
#
#
#
# Elastic Compliance Matrix: (Units=1/GPa)
#
#
# Indices 1 2 3 4 5 6 
#
# 1 0.019554 -0.008548 -0.007023 0.000000 0.000000 0.000000
# 2 -0.008548 0.011570 -0.008000 0.000000 0.000000 0.000000
# 3 -0.007023 -0.008000 0.091949 0.000000 0.000000 0.000000
# 4 0.000000 0.000000 0.000000 -0.382490 0.000000 0.000000
# 5 0.000000 0.000000 0.000000 0.000000 0.014454 0.000000
# 6 0.000000 0.000000 0.000000 0.000000 0.000000 0.061409
#
#
# Mechanical properties :
#
#
# Convention : Reuss Voigt Hill
#
# Bulk Modulus (GPa) = 13.16990 52.28683 32.72837
# Shear Modulus (GPa) = -45.00413 26.55988 -9.22213
#
# Velocity S-wave (km/s) = -5.33982 4.10217 -2.41722
# Velocity P-wave (km/s) = 5.44739 7.45418 3.59797
#
# Compressibility (1/GPa) = 0.07593073
#
# Stress axis : x y z
#
# Youngs Moduli (GPa) = 51.14054 86.42723 10.87558
#
# Poissons Ratio (x) = 0.73880 0.07638
# Poissons Ratio (y) = 0.43716 0.08700
# Poissons Ratio (z) = 0.35917 0.69141
#
# Static dielectric constant tensor:
#      x y z
#    x 1.513990 0.000000 0.000000 
#    y 0.000000 1.539020 0.000000 
#    z 0.000000 0.000000 1.543600 
# 
# From -- ./inp_files/9429.got.cif
#   From: 2010.05.17/outbox.cif.g08.bks.cpg/sg58_5_cif.got.tgz:9429.got - 2010.06.03 14:20:14.
