data_PCOD9443532
_publ_section_title
;
Structure prediction by ZEFSAII (Michael W. Deem and Ramdas Pophale) SiO2 
 PCOD9443532
Probable space group: P N N M
;
_chemical_formula_sum "Si O2"
_cell_formula_units_Z 48
_cell_length_a 19.033464
_cell_length_b 8.295717
_cell_length_c 13.015282
_cell_angle_alpha 90.000000
_cell_angle_beta 90.000000
_cell_angle_gamma 90.000000
_cell_volume 2055.063972
_symmetry_space_group_name_H-M "P N N M"
_symmetry_group_IT_number 58
_symmetry_cell_setting 'orthorhombic'
loop_
_space_group_symop_operation_xyz
x,y,z
-x,-y,z
1/2+x,1/2-y,1/2-z
1/2-x,1/2+y,1/2-z
-x,-y,-z
x,y,-z
1/2-x,1/2+y,1/2+z
1/2+x,1/2-y,1/2+z
loop_
_atom_site_type_symbol
_atom_site_label
_atom_site_fract_x
_atom_site_fract_y
_atom_site_fract_z
Si Si1 0.532924 0.320161 0.303337
Si Si2 0.675800 0.456571 0.385496
Si Si3 0.842238 0.146659 0.613868
Si Si4 0.390733 0.209359 0.322965
Si Si5 0.117253 0.231934 0.617444
Si Si6 0.289460 0.939167 0.730995
O O1 0.500000 0.500000 0.298227
O O2 0.608171 0.345610 0.358320
O O3 0.472293 0.211642 0.352800
O O4 0.549285 0.255341 0.189605
O O5 0.701049 0.425417 0.500000
O O6 0.647318 0.642033 0.379692
O O7 0.734773 0.454952 0.298071
O O8 0.853248 0.211315 0.500000
O O9 0.883628 0.239656 0.702547
O O10 0.760658 0.141153 0.646589
O O11 0.865826 0.959136 0.615441
O O12 0.347635 0.045298 0.326796
O O13 0.111027 0.286784 0.500000
O O14 0.175751 0.328732 0.681295
#
# Coordination Sequence:
#
# PCOD9443532 Si02
#       6
#     8   8   8   8   8   8
#     4  10  20  40  61  88 119 162 206 255 297 362
#     4  10  21  38  65  92 121 164 213 257 308 371
#     4  10  20  36  61  85 113 156 203 247 296 361
#     4  10  22  38  60  88 123 154 206 253 303 361
#     4  11  22  38  61  87 121 160 202 249 308 368
#     4  11  22  38  56  90 128 155 195 256 314 362
#
# _framework density 23.356936000000001
#
# number of rings (size 3 to 8) (size 9 to 14) (size 15 to 20)
#    0.000    1.667    5.000    2.500    0.000    8.000 
#    0.000    0.833    0.000    0.000    0.000    7.000 
#    0.000    0.000    0.000    0.000    0.000    0.000 
#
# Total GULP energy -268237.296054 kJ/mol
# GULP energy per Si atom -5588.277001 kJ/mol
# Density = 2.330377 g / cm^3
# Si number density = 23.356936 Si / 1000 Ang^3
#
#
#
# Elastic Constant Matrix: (Units=GPa)
#
#
# Indices 1 2 3 4 5 6 
#
# 1 73.6632 -1.6791 -19.6656 0.0000 0.0000 0.0000
# 2 -1.6791 36.9768 -7.9701 0.0000 0.0000 0.0000
# 3 -19.6656 -7.9701 78.2967 0.0000 0.0000 0.0000
# 4 0.0000 0.0000 0.0000 15.5542 0.0000 0.0000
# 5 0.0000 0.0000 0.0000 0.0000 10.9991 0.0000
# 6 0.0000 0.0000 0.0000 0.0000 0.0000 24.4761
#
#
#
# Elastic Compliance Matrix: (Units=1/GPa)
#
#
# Indices 1 2 3 4 5 6 
#
# 1 0.014631 0.001489 0.003826 0.000000 0.000000 0.000000
# 2 0.001489 0.027802 0.003204 0.000000 0.000000 0.000000
# 3 0.003826 0.003204 0.014059 0.000000 0.000000 0.000000
# 4 0.000000 0.000000 0.000000 0.064291 0.000000 0.000000
# 5 0.000000 0.000000 0.000000 0.000000 0.090917 0.000000
# 6 0.000000 0.000000 0.000000 0.000000 0.000000 0.040856
#
#
# Mechanical properties :
#
#
# Convention : Reuss Voigt Hill
#
# Bulk Modulus (GPa) = 13.59965 14.47856 14.03911
# Shear Modulus (GPa) = 19.22876 24.75599 21.99238
#
# Velocity S-wave (km/s) = 2.87236 3.25914 3.07184
# Velocity P-wave (km/s) = 4.10314 4.51386 4.31339
#
# Compressibility (1/GPa) = 0.07353131
#
# Stress axis : x y z
#
# Youngs Moduli (GPa) = 68.34918 35.96835 71.12808
#
# Poissons Ratio (x) = -0.05356 -0.27216
# Poissons Ratio (y) = -0.10178 -0.22790
# Poissons Ratio (z) = -0.26153 -0.11525
#
# Static dielectric constant tensor:
#      x y z
#    x 1.923040 0.000000 0.000000 
#    y 0.000000 1.963250 0.000000 
#    z 0.000000 0.000000 1.854040 
# 
# From -- ./inp_files/23151.got.cif
#   From: 2010.05.17/outbox.cif.g08.bks.cpg/sg58_12_cif.got.tgz:23151.got - 2010.06.03 14:20:14.
