data_PCOD9443667
_publ_section_title
;
Structure prediction by ZEFSAII (Michael W. Deem and Ramdas Pophale) SiO2 
 PCOD9443667
Probable space group: P N N M
;
_chemical_formula_sum "Si O2"
_cell_formula_units_Z 56
_cell_length_a 23.634945
_cell_length_b 8.672324
_cell_length_c 14.742154
_cell_angle_alpha 90.000000
_cell_angle_beta 90.000000
_cell_angle_gamma 90.000000
_cell_volume 3021.697842
_symmetry_space_group_name_H-M "P N N M"
_symmetry_group_IT_number 58
_symmetry_cell_setting 'orthorhombic'
loop_
_space_group_symop_operation_xyz
x,y,z
-x,-y,z
1/2+x,1/2-y,1/2-z
1/2-x,1/2+y,1/2-z
-x,-y,-z
x,y,-z
1/2-x,1/2+y,1/2+z
1/2+x,1/2-y,1/2+z
loop_
_atom_site_type_symbol
_atom_site_label
_atom_site_fract_x
_atom_site_fract_y
_atom_site_fract_z
Si Si1 0.559073 0.577253 0.810022
Si Si2 0.033622 0.755143 0.500000
Si Si3 0.871119 0.820578 0.780972
Si Si4 0.914705 0.590690 0.500000
Si Si5 0.560984 0.076531 0.606991
Si Si6 0.173436 0.435677 0.659873
Si Si7 0.802170 0.061740 0.894968
Si Si8 0.370986 0.181092 0.296318
O O1 0.500000 0.500000 0.784375
O O2 0.551574 0.649421 0.910448
O O3 0.604282 0.440666 0.793052
O O4 0.578524 0.712962 0.742646
O O5 0.061728 0.585090 0.500000
O O6 0.966519 0.712316 0.500000
O O7 0.920602 0.721018 0.830258
O O8 0.829390 0.700834 0.732938
O O9 0.836442 0.918113 0.854144
O O10 0.874582 0.605262 0.586857
O O11 0.562531 0.115486 0.500000
O O12 0.500000 0.000000 0.627670
O O13 0.605510 0.942825 0.632573
O O14 0.235155 0.454073 0.618348
O O15 0.154889 0.589786 0.711651
O O16 0.824825 0.209856 0.841340
O O17 0.815543 0.078851 0.000000
#
# Coordination Sequence:
#
# PCOD9443667 Si02
#       8
#     8   4   8   4   8   8   8   8
#     4  11  21  37  56  86 122 156 188 239 296 353
#     4  11  23  38  60  92 126 158 194 240 299 350
#     4  10  23  37  59  87 116 154 201 241 300 358
#     4  11  22  38  64  92 118 160 199 242 289 368
#     4  10  20  37  60  87 119 152 195 246 297 360
#     4  11  21  41  60  84 116 155 203 243 294 353
#     4  11  22  39  61  83 116 154 198 254 301 343
#     4  10  22  37  59  85 117 153 202 241 295 357
#
# _framework density 18.532629
#
# number of rings (size 3 to 8) (size 9 to 14) (size 15 to 20)
#    0.000    1.429    2.143    3.643    0.000    1.714 
#    0.000    0.000    0.000    6.857    0.000    0.000 
#    0.000    0.000    0.000    0.000    0.000    0.000 
#
# Total GULP energy -312623.029594 kJ/mol
# GULP energy per Si atom -5582.554100 kJ/mol
# Density = 1.849045 g / cm^3
# Si number density = 18.532629 Si / 1000 Ang^3
#
#
#
# Elastic Constant Matrix: (Units=GPa)
#
#
# Indices 1 2 3 4 5 6 
#
# 1 72.0409 17.5913 30.3461 0.0000 0.0000 0.0000
# 2 17.5913 92.7176 38.6712 0.0000 0.0000 0.0000
# 3 30.3461 38.6712 96.7904 0.0000 0.0000 0.0000
# 4 0.0000 0.0000 0.0000 24.7410 0.0000 0.0000
# 5 0.0000 0.0000 0.0000 0.0000 29.8612 0.0000
# 6 0.0000 0.0000 0.0000 0.0000 0.0000 19.6511
#
#
#
# Elastic Compliance Matrix: (Units=1/GPa)
#
#
# Indices 1 2 3 4 5 6 
#
# 1 0.016093 -0.001139 -0.004591 0.000000 0.000000 0.000000
# 2 -0.001139 0.013023 -0.004846 0.000000 0.000000 0.000000
# 3 -0.004591 -0.004846 0.013707 0.000000 0.000000 0.000000
# 4 0.000000 0.000000 0.000000 0.040419 0.000000 0.000000
# 5 0.000000 0.000000 0.000000 0.000000 0.033488 0.000000
# 6 0.000000 0.000000 0.000000 0.000000 0.000000 0.050888
#
#
# Mechanical properties :
#
#
# Convention : Reuss Voigt Hill
#
# Bulk Modulus (GPa) = 46.14245 48.30736 47.22490
# Shear Modulus (GPa) = 25.51131 26.51335 26.01233
#
# Velocity S-wave (km/s) = 3.71423 3.78647 3.75052
# Velocity P-wave (km/s) = 6.58377 6.72601 6.65527
#
# Compressibility (1/GPa) = 0.02167202
#
# Stress axis : x y z
#
# Youngs Moduli (GPa) = 62.13986 76.78911 72.95535
#
# Poissons Ratio (x) = 0.08743 0.33490
# Poissons Ratio (y) = 0.07075 0.35354
# Poissons Ratio (z) = 0.28526 0.37212
#
# Static dielectric constant tensor:
#      x y z
#    x 1.620300 0.000000 0.000000 
#    y 0.000000 1.633360 0.000000 
#    z 0.000000 0.000000 1.620860 
# 
# From -- ./inp_files/23291.got.cif
#   From: 2010.05.17/outbox.cif.g08.bks.cpg/sg58_12_cif.got.tgz:23291.got - 2010.06.03 14:20:14.
