data_PCOD9443018
_publ_section_title
;
Structure prediction by ZEFSAII (Michael W. Deem and Ramdas Pophale) SiO2 
 PCOD9443018
Probable space group: P N N M
;
_chemical_formula_sum "Si O2"
_cell_formula_units_Z 64
_cell_length_a 17.107080
_cell_length_b 18.774366
_cell_length_c 10.139060
_cell_angle_alpha 90.000000
_cell_angle_beta 90.000000
_cell_angle_gamma 90.000000
_cell_volume 3256.408348
_symmetry_space_group_name_H-M "P N N M"
_symmetry_group_IT_number 58
_symmetry_cell_setting 'orthorhombic'
loop_
_space_group_symop_operation_xyz
x,y,z
-x,-y,z
1/2+x,1/2-y,1/2-z
1/2-x,1/2+y,1/2-z
-x,-y,-z
x,y,-z
1/2-x,1/2+y,1/2+z
1/2+x,1/2-y,1/2+z
loop_
_atom_site_type_symbol
_atom_site_label
_atom_site_fract_x
_atom_site_fract_y
_atom_site_fract_z
Si Si1 0.405872 0.154495 0.849984
Si Si2 0.546735 0.068665 0.280360
Si Si3 0.133880 0.293801 0.850496
Si Si4 0.583293 0.326088 0.157801
Si Si5 0.687337 0.988765 0.853376
Si Si6 0.314391 0.290858 0.840302
Si Si7 0.931210 0.086868 0.658551
Si Si8 0.174758 0.036357 0.342847
O O1 0.479008 0.118093 0.780101
O O2 0.365830 0.224485 0.789932
O O3 0.340381 0.093264 0.854508
O O4 0.430214 0.171501 0.000000
O O5 0.599456 0.126347 0.355834
O O6 0.609087 0.033476 0.179726
O O7 0.500000 0.000000 0.340293
O O8 0.090067 0.243858 0.745898
O O9 0.223963 0.293378 0.803820
O O10 0.129970 0.264392 0.000000
O O11 0.507730 0.371268 0.202567
O O12 0.656002 0.380330 0.177599
O O13 0.577576 0.311027 0.000000
O O14 0.753245 0.992453 0.741904
O O15 0.715838 0.007805 0.000000
O O16 0.358302 0.363074 0.806322
O O17 0.315043 0.285077 0.000000
O O18 0.940376 0.084075 0.500000
O O19 0.903321 0.008101 0.695567
O O20 0.188110 0.025415 0.500000
#
# Coordination Sequence:
#
# PCOD9443018 Si02
#       8
#     8   8   8   8   8   8   8   8
#     4   9  17  32  54  80 110 145 187 233 278 327
#     4  10  21  36  56  83 115 151 194 238 282 339
#     4  11  23  38  57  83 115 147 181 229 292 354
#     4  10  21  37  59  84 109 145 193 240 281 330
#     4  10  20  34  55  83 114 149 189 235 284 334
#     4   9  17  30  52  79 107 144 186 228 277 333
#     4   9  17  32  55  80 106 140 186 232 271 322
#     4  10  20  35  56  83 115 149 187 233 285 340
#
# _framework density 19.653555999999998
#
# number of rings (size 3 to 8) (size 9 to 14) (size 15 to 20)
#    0.000    2.250    0.000    3.000    0.000    8.250 
#    0.000    2.500    0.000    7.500    0.000    0.000 
#    0.000    0.000    0.000    0.000    0.000    0.000 
#
# Total GULP energy -356548.731905 kJ/mol
# GULP energy per Si atom -5571.073936 kJ/mol
# Density = 1.960882 g / cm^3
# Si number density = 19.653556 Si / 1000 Ang^3
#
#
#
# Elastic Constant Matrix: (Units=GPa)
#
#
# Indices 1 2 3 4 5 6 
#
# 1 83.1909 28.2752 26.6178 0.0000 0.0000 0.0000
# 2 28.2752 112.8006 26.6525 0.0000 0.0000 0.0000
# 3 26.6178 26.6525 53.6036 0.0000 0.0000 0.0000
# 4 0.0000 0.0000 0.0000 21.2128 0.0000 0.0000
# 5 0.0000 0.0000 0.0000 0.0000 -5.2982 0.0000
# 6 0.0000 0.0000 0.0000 0.0000 0.0000 30.4505
#
#
#
# Elastic Compliance Matrix: (Units=1/GPa)
#
#
# Indices 1 2 3 4 5 6 
#
# 1 0.014771 -0.002232 -0.006225 0.000000 0.000000 0.000000
# 2 -0.002232 0.010383 -0.004054 0.000000 0.000000 0.000000
# 3 -0.006225 -0.004054 0.023762 0.000000 0.000000 0.000000
# 4 0.000000 0.000000 0.000000 0.047141 0.000000 0.000000
# 5 0.000000 0.000000 0.000000 0.000000 -0.188743 0.000000
# 6 0.000000 0.000000 0.000000 0.000000 0.000000 0.032840
#
#
# Mechanical properties :
#
#
# Convention : Reuss Voigt Hill
#
# Bulk Modulus (GPa) = 41.85163 45.85401 43.85282
# Shear Modulus (GPa) = -186.15628 20.47633 -82.83998
#
# Velocity S-wave (km/s) = -9.74292 3.23129 -6.49936
# Velocity P-wave (km/s) = 10.25793 6.10766 5.82759
#
# Compressibility (1/GPa) = 0.02389393
#
# Stress axis : x y z
#
# Youngs Moduli (GPa) = 67.70101 96.31569 42.08325
#
# Poissons Ratio (x) = 0.21495 0.26197
# Poissons Ratio (y) = 0.15109 0.17061
# Poissons Ratio (z) = 0.42144 0.39048
#
# Static dielectric constant tensor:
#      x y z
#    x 1.709870 0.000000 0.000000 
#    y 0.000000 1.712080 0.000000 
#    z 0.000000 0.000000 1.676520 
# 
# From -- ./inp_files/15895.got.cif
#   From: 2010.05.17/outbox.cif.g08.bks.cpg/sg58_8_cif.got.tgz:15895.got - 2010.06.03 14:20:14.
