data_PCOD9443276
_publ_section_title
;
Structure prediction by ZEFSAII (Michael W. Deem and Ramdas Pophale) SiO2 
 PCOD9443276
Probable space group: P N N M
;
_chemical_formula_sum "Si O2"
_cell_formula_units_Z 64
_cell_length_a 12.376111
_cell_length_b 19.328938
_cell_length_c 14.228106
_cell_angle_alpha 90.000000
_cell_angle_beta 90.000000
_cell_angle_gamma 90.000000
_cell_volume 3403.606003
_symmetry_space_group_name_H-M "P N N M"
_symmetry_group_IT_number 58
_symmetry_cell_setting 'orthorhombic'
loop_
_space_group_symop_operation_xyz
x,y,z
-x,-y,z
1/2+x,1/2-y,1/2-z
1/2-x,1/2+y,1/2-z
-x,-y,-z
x,y,-z
1/2-x,1/2+y,1/2+z
1/2+x,1/2-y,1/2+z
loop_
_atom_site_type_symbol
_atom_site_label
_atom_site_fract_x
_atom_site_fract_y
_atom_site_fract_z
Si Si1 0.985694 0.075011 0.826141
Si Si2 0.738143 0.218868 0.611902
Si Si3 0.133050 0.652536 0.112541
Si Si4 0.510074 0.271943 0.610370
Si Si5 0.332705 0.130143 0.889300
Si Si6 0.198424 0.070084 0.279824
Si Si7 0.483043 0.918321 0.236562
Si Si8 0.736511 0.584054 0.224564
O O1 0.861464 0.081755 0.797371
O O2 0.013324 0.146436 0.876088
O O3 0.070400 0.072497 0.738443
O O4 0.000000 0.000000 0.874208
O O5 0.731587 0.208157 0.500000
O O6 0.618122 0.236913 0.650974
O O7 0.804675 0.289304 0.626576
O O8 0.782561 0.149011 0.656826
O O9 0.247184 0.627437 0.153872
O O10 0.097686 0.730859 0.139911
O O11 0.042151 0.607608 0.167699
O O12 0.130220 0.643577 0.000000
O O13 0.516607 0.259494 0.500000
O O14 0.253738 0.084572 0.822526
O O15 0.451404 0.115712 0.848953
O O16 0.320436 0.115039 0.000000
O O17 0.232629 0.994172 0.316561
O O18 0.356041 0.905139 0.235164
O O19 0.500000 0.000000 0.230564
#
# Coordination Sequence:
#
# PCOD9443276 Si02
#       8
#     8   8   8   8   8   8   8   8
#     4  10  23  38  58  81 116 160 199 243 294 353
#     4  10  21  36  59  87 116 157 203 247 293 353
#     4  10  21  36  61  91 121 150 192 252 302 351
#     4  10  20  35  57  88 115 150 201 246 299 354
#     4  10  21  38  62  87 119 159 197 240 298 362
#     4  10  21  41  59  89 119 160 200 238 306 361
#     4  11  21  38  59  92 120 152 197 240 307 363
#     4  11  22  37  57  90 119 150 203 242 291 364
#
# _framework density 18.803587
#
# number of rings (size 3 to 8) (size 9 to 14) (size 15 to 20)
#    0.000    1.750    5.000    0.000    3.500    1.250 
#    0.000    3.125    0.000    5.250    0.000    0.000 
#    0.000    0.000    0.000    0.000    0.000    0.000 
#
# Total GULP energy -356519.681287 kJ/mol
# GULP energy per Si atom -5570.620020 kJ/mol
# Density = 1.876079 g / cm^3
# Si number density = 18.803587 Si / 1000 Ang^3
#
#
#
# Elastic Constant Matrix: (Units=GPa)
#
#
# Indices 1 2 3 4 5 6 
#
# 1 80.1072 -1.2555 9.5356 0.0000 0.0000 0.0000
# 2 -1.2555 106.8641 22.2854 0.0000 0.0000 0.0000
# 3 9.5356 22.2854 63.4072 0.0000 0.0000 0.0000
# 4 0.0000 0.0000 0.0000 -9.9059 0.0000 0.0000
# 5 0.0000 0.0000 0.0000 0.0000 7.6157 0.0000
# 6 0.0000 0.0000 0.0000 0.0000 0.0000 24.4990
#
#
#
# Elastic Compliance Matrix: (Units=1/GPa)
#
#
# Indices 1 2 3 4 5 6 
#
# 1 0.012746 0.000593 -0.002125 0.000000 0.000000 0.000000
# 2 0.000593 0.010125 -0.003648 0.000000 0.000000 0.000000
# 3 -0.002125 -0.003648 0.017373 0.000000 0.000000 0.000000
# 4 0.000000 0.000000 0.000000 -0.100950 0.000000 0.000000
# 5 0.000000 0.000000 0.000000 0.000000 0.131308 0.000000
# 6 0.000000 0.000000 0.000000 0.000000 0.000000 0.040818
#
#
# Mechanical properties :
#
#
# Convention : Reuss Voigt Hill
#
# Bulk Modulus (GPa) = 33.46332 34.61217 34.03774
# Shear Modulus (GPa) = 37.95309 19.09595 28.52452
#
# Velocity S-wave (km/s) = 4.49753 3.19022 3.89906
# Velocity P-wave (km/s) = 6.69367 5.65838 6.19768
#
# Compressibility (1/GPa) = 0.02988346
#
# Stress axis : x y z
#
# Youngs Moduli (GPa) = 78.45881 98.76181 57.56133
#
# Poissons Ratio (x) = -0.05856 0.12233
# Poissons Ratio (y) = -0.04652 0.20998
# Poissons Ratio (z) = 0.16674 0.36027
#
# Static dielectric constant tensor:
#      x y z
#    x 1.695550 0.000000 0.000000 
#    y 0.000000 1.694540 0.000000 
#    z 0.000000 0.000000 1.640690 
# 
# From -- ./inp_files/21529.got.cif
#   From: 2010.05.17/outbox.cif.g08.bks.cpg/sg58_11_cif.got.tgz:21529.got - 2010.06.03 14:20:14.
