data_PCOD9443804
_publ_section_title
;
Structure prediction by ZEFSAII (Michael W. Deem and Ramdas Pophale) SiO2 
 PCOD9443804
Probable space group: P N N M
;
_chemical_formula_sum "Si O2"
_cell_formula_units_Z 56
_cell_length_a 14.458777
_cell_length_b 19.694338
_cell_length_c 8.662258
_cell_angle_alpha 90.000000
_cell_angle_beta 90.000000
_cell_angle_gamma 90.000000
_cell_volume 2466.630297
_symmetry_space_group_name_H-M "P N N M"
_symmetry_group_IT_number 58
_symmetry_cell_setting 'orthorhombic'
loop_
_space_group_symop_operation_xyz
x,y,z
-x,-y,z
1/2+x,1/2-y,1/2-z
1/2-x,1/2+y,1/2-z
-x,-y,-z
x,y,-z
1/2-x,1/2+y,1/2+z
1/2+x,1/2-y,1/2+z
loop_
_atom_site_type_symbol
_atom_site_label
_atom_site_fract_x
_atom_site_fract_y
_atom_site_fract_z
Si Si1 0.563574 0.566048 0.321083
Si Si2 0.724600 0.490119 0.818903
Si Si3 0.266893 0.789469 0.817417
Si Si4 0.059812 0.796889 0.316060
Si Si5 0.618245 0.085538 0.683988
Si Si6 0.728790 0.350518 0.681498
Si Si7 0.948006 0.354642 0.684111
O O1 0.500000 0.500000 0.305537
O O2 0.591477 0.572114 0.500000
O O3 0.652234 0.549911 0.215992
O O4 0.519770 0.636987 0.267443
O O5 0.824168 0.519035 0.767492
O O6 0.691649 0.423839 0.728315
O O7 0.727113 0.474423 0.000000
O O8 0.168562 0.795387 0.730130
O O9 0.332212 0.850046 0.762732
O O10 0.305211 0.714839 0.774594
O O11 0.251936 0.793755 0.000000
O O12 0.050677 0.803358 0.500000
O O13 0.023410 0.722486 0.270162
O O14 0.627869 0.090833 0.500000
O O15 0.511781 0.091292 0.731018
O O16 0.717054 0.337940 0.500000
O O17 0.838946 0.358338 0.715839
O O18 0.960825 0.361194 0.500000
#
# Coordination Sequence:
#
# PCOD9443804 Si02
#       7
#     8   8   8   8   8   8   8
#     4  11  24  40  61  90 122 161 206 253 309 368
#     4  11  24  41  62  89 124 165 206 252 310 369
#     4  11  21  36  62  88 116 157 203 251 306 366
#     4  10  20  38  61  86 117 153 198 248 305 361
#     4  11  23  38  60  90 124 162 206 255 304 363
#     4  10  22  41  63  88 124 162 204 257 309 365
#     4   9  21  39  60  88 120 159 203 254 308 360
#
# _framework density 22.703036000000001
#
# number of rings (size 3 to 8) (size 9 to 14) (size 15 to 20)
#    0.000    1.571    1.429    4.286    0.000    8.000 
#    0.000    5.714    0.000    0.000    0.000    0.000 
#    0.000    0.000    0.000    0.000    0.000    0.000 
#
# Total GULP energy -313294.889753 kJ/mol
# GULP energy per Si atom -5594.551603 kJ/mol
# Density = 2.265136 g / cm^3
# Si number density = 22.703036 Si / 1000 Ang^3
#
#
#
# Elastic Constant Matrix: (Units=GPa)
#
#
# Indices 1 2 3 4 5 6 
#
# 1 34.9013 2.9927 1.2551 0.0000 0.0000 0.0000
# 2 2.9927 100.0471 3.7697 0.0000 0.0000 0.0000
# 3 1.2551 3.7697 17.7098 0.0000 0.0000 0.0000
# 4 0.0000 0.0000 0.0000 149.8048 0.0000 0.0000
# 5 0.0000 0.0000 0.0000 0.0000 215.4009 0.0000
# 6 0.0000 0.0000 0.0000 0.0000 0.0000 34.2402
#
#
#
# Elastic Compliance Matrix: (Units=1/GPa)
#
#
# Indices 1 2 3 4 5 6 
#
# 1 0.028787 -0.000791 -0.001872 0.000000 0.000000 0.000000
# 2 -0.000791 0.010098 -0.002093 0.000000 0.000000 0.000000
# 3 -0.001872 -0.002093 0.057044 0.000000 0.000000 0.000000
# 4 0.000000 0.000000 0.000000 0.006675 0.000000 0.000000
# 5 0.000000 0.000000 0.000000 0.000000 0.004643 0.000000
# 6 0.000000 0.000000 0.000000 0.000000 0.000000 0.029205
#
#
# Mechanical properties :
#
#
# Convention : Reuss Voigt Hill
#
# Bulk Modulus (GPa) = 11.57171 18.74369 15.15770
# Shear Modulus (GPa) = 28.60902 89.53187 59.07044
#
# Velocity S-wave (km/s) = 3.55370 6.28663 5.10639
# Velocity P-wave (km/s) = 4.68470 7.80830 6.43879
#
# Compressibility (1/GPa) = 0.08641766
#
# Stress axis : x y z
#
# Youngs Moduli (GPa) = 34.73749 99.03128 17.53030
#
# Poissons Ratio (x) = 0.07829 0.03281
# Poissons Ratio (y) = 0.02746 0.03670
# Poissons Ratio (z) = 0.06502 0.20731
#
# Static dielectric constant tensor:
#      x y z
#    x 1.896630 0.000000 0.000000 
#    y 0.000000 1.841480 0.000000 
#    z 0.000000 0.000000 1.747630 
# 
# From -- ./inp_files/6345.got.cif
#   From: 2010.05.17/outbox.cif.g08.bks.cpg/sg58_4_cif.got.tgz:6345.got - 2010.06.03 14:20:14.
