data_PCOD9443335
_publ_section_title
;
Structure prediction by ZEFSAII (Michael W. Deem and Ramdas Pophale) SiO2 
 PCOD9443335
Probable space group: P N N M
;
_chemical_formula_sum "Si O2"
_cell_formula_units_Z 64
_cell_length_a 19.175588
_cell_length_b 8.079563
_cell_length_c 20.650655
_cell_angle_alpha 90.000000
_cell_angle_beta 90.000000
_cell_angle_gamma 90.000000
_cell_volume 3199.413647
_symmetry_space_group_name_H-M "P N N M"
_symmetry_group_IT_number 58
_symmetry_cell_setting 'orthorhombic'
loop_
_space_group_symop_operation_xyz
x,y,z
-x,-y,z
1/2+x,1/2-y,1/2-z
1/2-x,1/2+y,1/2-z
-x,-y,-z
x,y,-z
1/2-x,1/2+y,1/2+z
1/2+x,1/2-y,1/2+z
loop_
_atom_site_type_symbol
_atom_site_label
_atom_site_fract_x
_atom_site_fract_y
_atom_site_fract_z
Si Si1 0.688898 0.269317 0.922424
Si Si2 0.326673 0.156347 0.763263
Si Si3 0.704262 0.517996 0.817255
Si Si4 0.339650 0.280228 0.372117
Si Si5 0.438715 0.619601 0.242121
Si Si6 0.429783 0.589696 0.395614
Si Si7 0.428607 0.925498 0.844838
Si Si8 0.922783 0.530827 0.074940
O O1 0.694147 0.452063 0.890253
O O2 0.758428 0.196502 0.888432
O O3 0.621696 0.170069 0.895627
O O4 0.692717 0.268575 0.000000
O O5 0.291794 0.285994 0.811813
O O6 0.356579 0.268183 0.704339
O O7 0.270167 0.048406 0.723973
O O8 0.381814 0.054960 0.804514
O O9 0.636222 0.441412 0.782684
O O10 0.375264 0.441074 0.402099
O O11 0.368425 0.102058 0.396580
O O12 0.500000 0.500000 0.219232
O O13 0.440047 0.625083 0.319298
O O14 0.451662 0.795119 0.209663
O O15 0.500000 0.500000 0.420932
O O16 0.410004 0.771458 0.421725
O O17 0.500000 0.000000 0.873367
O O18 0.000000 0.500000 0.104524
O O19 0.926506 0.483888 0.000000
#
# Coordination Sequence:
#
# PCOD9443335 Si02
#       8
#     8   8   8   8   8   8   8   8
#     4  10  24  46  64  87 126 172 219 267 324 387
#     4  11  21  38  63  97 128 154 199 260 333 398
#     4  10  20  37  63  90 123 161 196 251 319 382
#     4  11  22  41  66  92 130 172 213 270 329 388
#     4  10  20  35  59  93 127 154 198 257 318 390
#     4  11  22  36  62  93 127 174 214 262 325 387
#     4  11  24  39  66  97 126 166 210 271 337 398
#     4  11  24  38  54  84 127 174 226 266 307 375
#
# _framework density 20.003665000000002
#
# number of rings (size 3 to 8) (size 9 to 14) (size 15 to 20)
#    0.000    1.375    2.500    4.125    1.750    3.500 
#    0.000    0.625    0.000   12.750    0.000    0.000 
#    0.000    0.000    0.000    0.000    0.000    0.000 
#
# Total GULP energy -356880.267847 kJ/mol
# GULP energy per Si atom -5576.254185 kJ/mol
# Density = 1.995814 g / cm^3
# Si number density = 20.003665 Si / 1000 Ang^3
#
#
#
# Elastic Constant Matrix: (Units=GPa)
#
#
# Indices 1 2 3 4 5 6 
#
# 1 72.0169 30.0105 0.5919 0.0000 0.0000 0.0000
# 2 30.0105 112.8847 10.1740 0.0000 0.0000 0.0000
# 3 0.5919 10.1740 78.7842 0.0000 0.0000 0.0000
# 4 0.0000 0.0000 0.0000 -78.6780 0.0000 0.0000
# 5 0.0000 0.0000 0.0000 0.0000 9.3345 0.0000
# 6 0.0000 0.0000 0.0000 0.0000 0.0000 32.5726
#
#
#
# Elastic Compliance Matrix: (Units=1/GPa)
#
#
# Indices 1 2 3 4 5 6 
#
# 1 0.015630 -0.004193 0.000424 0.000000 0.000000 0.000000
# 2 -0.004193 0.010088 -0.001271 0.000000 0.000000 0.000000
# 3 0.000424 -0.001271 0.012854 0.000000 0.000000 0.000000
# 4 0.000000 0.000000 0.000000 -0.012710 0.000000 0.000000
# 5 0.000000 0.000000 0.000000 0.000000 0.107130 0.000000
# 6 0.000000 0.000000 0.000000 0.000000 0.000000 0.030701
#
#
# Mechanical properties :
#
#
# Convention : Reuss Voigt Hill
#
# Bulk Modulus (GPa) = 35.09949 38.35984 36.72967
# Shear Modulus (GPa) = 27.28221 7.50645 17.39433
#
# Velocity S-wave (km/s) = 3.69705 1.93925 2.95202
# Velocity P-wave (km/s) = 5.98405 4.92263 5.47911
#
# Compressibility (1/GPa) = 0.02849044
#
# Stress axis : x y z
#
# Youngs Moduli (GPa) = 63.98128 99.12784 77.79749
#
# Poissons Ratio (x) = 0.41568 -0.03299
# Poissons Ratio (y) = 0.26830 0.09890
# Poissons Ratio (z) = -0.02713 0.12602
#
# Static dielectric constant tensor:
#      x y z
#    x 1.776800 0.000000 0.000000 
#    y 0.000000 1.738330 0.000000 
#    z 0.000000 0.000000 1.691690 
# 
# From -- ./inp_files/30280.got.cif
#   From: 2010.05.17/outbox.cif.g08.bks.cpg/sg58_16_cif.got.tgz:30280.got - 2010.06.03 14:20:14.
