data_PCOD9443294
_publ_section_title
;
Structure prediction by ZEFSAII (Michael W. Deem and Ramdas Pophale) SiO2 
 PCOD9443294
Probable space group: P N N M
;
_chemical_formula_sum "Si O2"
_cell_formula_units_Z 56
_cell_length_a 17.147865
_cell_length_b 11.809498
_cell_length_c 14.675686
_cell_angle_alpha 90.000000
_cell_angle_beta 90.000000
_cell_angle_gamma 90.000000
_cell_volume 2971.939086
_symmetry_space_group_name_H-M "P N N M"
_symmetry_group_IT_number 58
_symmetry_cell_setting 'orthorhombic'
loop_
_space_group_symop_operation_xyz
x,y,z
-x,-y,z
1/2+x,1/2-y,1/2-z
1/2-x,1/2+y,1/2-z
-x,-y,-z
x,y,-z
1/2-x,1/2+y,1/2+z
1/2+x,1/2-y,1/2+z
loop_
_atom_site_type_symbol
_atom_site_label
_atom_site_fract_x
_atom_site_fract_y
_atom_site_fract_z
Si Si1 0.348296 0.711560 0.897258
Si Si2 0.639773 0.981702 0.709215
Si Si3 0.082762 0.439972 0.401629
Si Si4 0.046867 0.700334 0.106194
Si Si5 0.197246 0.088292 0.766873
Si Si6 0.366336 0.781752 0.391946
Si Si7 0.692415 0.631713 0.393820
O O1 0.358085 0.619698 0.818415
O O2 0.270158 0.790178 0.882441
O O3 0.417396 0.804224 0.893719
O O4 0.342384 0.665280 0.000000
O O5 0.623895 0.015190 0.812701
O O6 0.571480 0.904714 0.668558
O O7 0.719657 0.913531 0.716329
O O8 0.649193 0.093938 0.648828
O O9 0.121575 0.464567 0.500000
O O10 0.000000 0.500000 0.403267
O O11 0.113944 0.794240 0.117848
O O12 0.958903 0.740695 0.124409
O O13 0.049261 0.663816 0.000000
O O14 0.184170 0.189418 0.838438
O O15 0.189908 0.971158 0.822122
O O16 0.352452 0.778664 0.500000
O O17 0.692746 0.592406 0.500000
#
# Coordination Sequence:
#
# PCOD9443294 Si02
#       7
#     8   8   8   8   8   8   8
#     4  10  20  37  56  82 118 156 201 245 293 350
#     4  12  22  36  62  87 123 156 199 248 302 354
#     4  10  20  35  58  85 112 149 199 250 293 337
#     4  10  22  40  63  90 123 159 196 246 309 368
#     4  12  22  36  58  88 121 160 198 240 291 362
#     4  11  24  40  61  94 124 153 195 252 309 358
#     4  10  20  37  59  83 116 160 199 238 294 362
#
# _framework density 18.842915999999999
#
# number of rings (size 3 to 8) (size 9 to 14) (size 15 to 20)
#    0.000    1.286    4.286    2.143    0.000    2.857 
#    0.000    2.143    0.000    0.000    0.000    1.000 
#    0.000    0.000    0.000    0.000    0.000    0.000 
#
# Total GULP energy -312356.761860 kJ/mol
# GULP energy per Si atom -5577.799319 kJ/mol
# Density = 1.880003 g / cm^3
# Si number density = 18.842916 Si / 1000 Ang^3
#
#
#
# Elastic Constant Matrix: (Units=GPa)
#
#
# Indices 1 2 3 4 5 6 
#
# 1 62.0644 16.4888 8.4914 0.0000 0.0000 0.0000
# 2 16.4888 57.2482 50.9377 0.0000 0.0000 0.0000
# 3 8.4914 50.9377 106.9158 0.0000 0.0000 0.0000
# 4 0.0000 0.0000 0.0000 33.6161 0.0000 0.0000
# 5 0.0000 0.0000 0.0000 0.0000 37.0242 0.0000
# 6 0.0000 0.0000 0.0000 0.0000 0.0000 27.5182
#
#
#
# Elastic Compliance Matrix: (Units=1/GPa)
#
#
# Indices 1 2 3 4 5 6 
#
# 1 0.017638 -0.006655 0.001770 0.000000 0.000000 0.000000
# 2 -0.006655 0.032832 -0.015114 0.000000 0.000000 0.000000
# 3 0.001770 -0.015114 0.016413 0.000000 0.000000 0.000000
# 4 0.000000 0.000000 0.000000 0.029748 0.000000 0.000000
# 5 0.000000 0.000000 0.000000 0.000000 0.027009 0.000000
# 6 0.000000 0.000000 0.000000 0.000000 0.000000 0.036340
#
#
# Mechanical properties :
#
#
# Convention : Reuss Voigt Hill
#
# Bulk Modulus (GPa) = 37.19410 42.00714 39.60062
# Shear Modulus (GPa) = 23.93035 29.65242 26.79138
#
# Velocity S-wave (km/s) = 3.56756 3.97125 3.77480
# Velocity P-wave (km/s) = 6.06233 6.58555 6.32935
#
# Compressibility (1/GPa) = 0.02688598
#
# Stress axis : x y z
#
# Youngs Moduli (GPa) = 56.69520 30.45788 60.92666
#
# Poissons Ratio (x) = 0.20269 -0.10782
# Poissons Ratio (y) = 0.37730 0.92083
# Poissons Ratio (z) = -0.10033 0.46033
#
# Static dielectric constant tensor:
#      x y z
#    x 1.707070 0.000000 0.000000 
#    y 0.000000 -1.616400 0.000000 
#    z 0.000000 0.000000 1.681120 
# 
# From -- ./inp_files/22223.got.cif
#   From: 2010.05.17/outbox.cif.g08.bks.cpg/sg58_12_cif.got.tgz:22223.got - 2010.06.03 14:20:14.
