data_PCOD9443113
_publ_section_title
;
Structure prediction by ZEFSAII (Michael W. Deem and Ramdas Pophale) SiO2 
 PCOD9443113
Probable space group: P N N M
;
_chemical_formula_sum "Si O2"
_cell_formula_units_Z 40
_cell_length_a 11.147082
_cell_length_b 14.966157
_cell_length_c 12.902279
_cell_angle_alpha 90.000000
_cell_angle_beta 90.000000
_cell_angle_gamma 90.000000
_cell_volume 2152.474036
_symmetry_space_group_name_H-M "P N N M"
_symmetry_group_IT_number 58
_symmetry_cell_setting 'orthorhombic'
loop_
_space_group_symop_operation_xyz
x,y,z
-x,-y,z
1/2+x,1/2-y,1/2-z
1/2-x,1/2+y,1/2-z
-x,-y,-z
x,y,-z
1/2-x,1/2+y,1/2+z
1/2+x,1/2-y,1/2+z
loop_
_atom_site_type_symbol
_atom_site_label
_atom_site_fract_x
_atom_site_fract_y
_atom_site_fract_z
Si Si1 0.477189 0.100073 0.381660
Si Si2 0.132246 0.954282 0.000000
Si Si3 0.741007 0.180942 0.620288
Si Si4 0.632408 0.540694 0.730397
Si Si5 0.884868 0.437537 0.500000
Si Si6 0.302661 0.133335 0.207527
O O1 0.433024 0.093237 0.500000
O O2 0.605731 0.145556 0.381163
O O3 0.382488 0.146933 0.308524
O O4 0.500000 0.000000 0.340909
O O5 0.136170 0.912808 0.115586
O O6 0.000000 0.000000 0.000000
O O7 0.252153 0.016115 0.000000
O O8 0.780647 0.189593 0.500000
O O9 0.736174 0.276463 0.676289
O O10 0.822465 0.110620 0.683862
O O11 0.500000 0.500000 0.748557
O O12 0.719672 0.453768 0.725639
O O13 0.886178 0.384765 0.392428
O O14 0.000000 0.500000 0.500000
#
# Coordination Sequence:
#
# PCOD9443113 Si02
#       6
#     8   4   8   8   4   8
#     4  10  21  41  67  90 122 165 211 261 314 382
#     4   8  18  38  58  86 121 161 206 251 311 376
#     4  11  24  42  63  91 126 167 208 261 328 376
#     4  10  22  40  63  89 126 167 207 255 315 386
#     4  10  20  34  64  92 121 159 206 267 315 362
#     4  11  22  40  62  93 127 164 207 260 317 382
#
# _framework density 18.583266999999999
#
# number of rings (size 3 to 8) (size 9 to 14) (size 15 to 20)
#    0.000    1.800    3.000    0.600    5.600    0.400 
#    1.800    0.000    0.000    0.000    0.000    0.000 
#    0.000    0.000    0.000    0.000    0.000    0.000 
#
# Total GULP energy -222865.495628 kJ/mol
# GULP energy per Si atom -5571.637391 kJ/mol
# Density = 1.854097 g / cm^3
# Si number density = 18.583267 Si / 1000 Ang^3
#
#
#
# Elastic Constant Matrix: (Units=GPa)
#
#
# Indices 1 2 3 4 5 6 
#
# 1 54.3709 3.0142 24.8749 0.0000 0.0000 0.0000
# 2 3.0142 69.6442 13.8286 0.0000 0.0000 0.0000
# 3 24.8749 13.8286 93.3685 0.0000 0.0000 0.0000
# 4 0.0000 0.0000 0.0000 145.8500 0.0000 0.0000
# 5 0.0000 0.0000 0.0000 0.0000 19.6791 0.0000
# 6 0.0000 0.0000 0.0000 0.0000 0.0000 24.6594
#
#
#
# Elastic Compliance Matrix: (Units=1/GPa)
#
#
# Indices 1 2 3 4 5 6 
#
# 1 0.020948 0.000208 -0.005612 0.000000 0.000000 0.000000
# 2 0.000208 0.014796 -0.002247 0.000000 0.000000 0.000000
# 3 -0.005612 -0.002247 0.012538 0.000000 0.000000 0.000000
# 4 0.000000 0.000000 0.000000 0.006856 0.000000 0.000000
# 5 0.000000 0.000000 0.000000 0.000000 0.050815 0.000000
# 6 0.000000 0.000000 0.000000 0.000000 0.000000 0.040552
#
#
# Mechanical properties :
#
#
# Convention : Reuss Voigt Hill
#
# Bulk Modulus (GPa) = 30.32101 33.42434 31.87268
# Shear Modulus (GPa) = 28.93504 49.74878 39.34191
#
# Velocity S-wave (km/s) = 3.95023 5.17966 4.60614
# Velocity P-wave (km/s) = 6.09569 7.33465 6.74368
#
# Compressibility (1/GPa) = 0.03298043
#
# Stress axis : x y z
#
# Youngs Moduli (GPa) = 47.73723 67.58672 79.75735
#
# Poissons Ratio (x) = -0.01403 0.44757
# Poissons Ratio (y) = -0.00991 0.17919
# Poissons Ratio (z) = 0.26788 0.15185
#
# Static dielectric constant tensor:
#      x y z
#    x 1.712570 0.000000 0.000000 
#    y 0.000000 1.653540 0.000000 
#    z 0.000000 0.000000 1.667270 
# 
# From -- ./inp_files/14156.got.cif
#   From: 2010.05.17/outbox.cif.g08.bks.cpg/sg58_8_cif.got.tgz:14156.got - 2010.06.03 14:20:14.
