data_PCOD9443576
_publ_section_title
;
Structure prediction by ZEFSAII (Michael W. Deem and Ramdas Pophale) SiO2 
 PCOD9443576
Probable space group: P N N M
;
_chemical_formula_sum "Si O2"
_cell_formula_units_Z 64
_cell_length_a 9.360125
_cell_length_b 18.135107
_cell_length_c 19.186127
_cell_angle_alpha 90.000000
_cell_angle_beta 90.000000
_cell_angle_gamma 90.000000
_cell_volume 3256.784975
_symmetry_space_group_name_H-M "P N N M"
_symmetry_group_IT_number 58
_symmetry_cell_setting 'orthorhombic'
loop_
_space_group_symop_operation_xyz
x,y,z
-x,-y,z
1/2+x,1/2-y,1/2-z
1/2-x,1/2+y,1/2-z
-x,-y,-z
x,y,-z
1/2-x,1/2+y,1/2+z
1/2+x,1/2-y,1/2+z
loop_
_atom_site_type_symbol
_atom_site_label
_atom_site_fract_x
_atom_site_fract_y
_atom_site_fract_z
Si Si1 0.962894 0.158547 0.080575
Si Si2 0.727087 0.245900 0.579983
Si Si3 0.201977 0.243159 0.421355
Si Si4 0.621292 0.449016 0.685418
Si Si5 0.286161 0.324067 0.781481
Si Si6 0.369477 0.680557 0.781908
Si Si7 0.041257 0.640609 0.421889
Si Si8 0.622993 0.049795 0.196022
O O1 0.062940 0.230567 0.085130
O O2 0.031857 0.094774 0.126695
O O3 0.810134 0.191226 0.101699
O O4 0.955741 0.134616 0.000000
O O5 0.760739 0.227359 0.500000
O O6 0.765559 0.184287 0.635466
O O7 0.806207 0.324220 0.596249
O O8 0.242916 0.219817 0.500000
O O9 0.180456 0.182660 0.362120
O O10 0.052238 0.285086 0.425308
O O11 0.500000 0.500000 0.720264
O O12 0.680473 0.391011 0.740811
O O13 0.753549 0.498953 0.661762
O O14 0.457834 0.318316 0.770777
O O15 0.203769 0.252681 0.751049
O O16 0.207908 0.393981 0.746493
O O17 0.044881 0.607580 0.500000
O O18 0.966291 0.591163 0.364310
O O19 0.500000 0.000000 0.232039
#
# Coordination Sequence:
#
# PCOD9443576 Si02
#       8
#     8   8   8   8   8   8   8   8
#     4  10  21  37  58  89 124 163 201 239 300 372
#     4  10  20  36  63  92 119 152 204 260 303 350
#     4  10  20  37  64  92 119 151 205 264 304 351
#     4  12  24  39  56  86 130 167 199 247 304 362
#     4  12  23  40  64  90 118 161 211 255 303 361
#     4  12  24  39  65  89 117 163 208 256 306 360
#     4  10  20  38  60  88 123 162 205 246 296 365
#     4  12  26  39  58  91 129 167 206 247 305 365
#
# _framework density 19.651282999999999
#
# number of rings (size 3 to 8) (size 9 to 14) (size 15 to 20)
#    0.000    1.000    5.000    2.250    1.750    1.000 
#    0.000    0.000    0.000    1.500    0.000    0.000 
#    0.000    0.000    0.000    0.000    0.000    0.000 
#
# Total GULP energy -357187.048769 kJ/mol
# GULP energy per Si atom -5581.047637 kJ/mol
# Density = 1.960656 g / cm^3
# Si number density = 19.651283 Si / 1000 Ang^3
#
#
#
# Elastic Constant Matrix: (Units=GPa)
#
#
# Indices 1 2 3 4 5 6 
#
# 1 66.0023 7.6836 25.9776 0.0000 0.0000 0.0000
# 2 7.6836 59.3092 51.3263 0.0000 0.0000 0.0000
# 3 25.9776 51.3263 120.0755 0.0000 0.0000 0.0000
# 4 0.0000 0.0000 0.0000 13.0186 0.0000 0.0000
# 5 0.0000 0.0000 0.0000 0.0000 26.5253 0.0000
# 6 0.0000 0.0000 0.0000 0.0000 0.0000 25.7695
#
#
#
# Elastic Compliance Matrix: (Units=1/GPa)
#
#
# Indices 1 2 3 4 5 6 
#
# 1 0.016647 0.001524 -0.004253 0.000000 0.000000 0.000000
# 2 0.001524 0.026899 -0.011828 0.000000 0.000000 0.000000
# 3 -0.004253 -0.011828 0.014304 0.000000 0.000000 0.000000
# 4 0.000000 0.000000 0.000000 0.076813 0.000000 0.000000
# 5 0.000000 0.000000 0.000000 0.000000 0.037700 0.000000
# 6 0.000000 0.000000 0.000000 0.000000 0.000000 0.038806
#
#
# Mechanical properties :
#
#
# Convention : Reuss Voigt Hill
#
# Bulk Modulus (GPa) = 34.79851 46.15133 40.47492
# Shear Modulus (GPa) = 20.01109 23.75600 21.88354
#
# Velocity S-wave (km/s) = 3.19456 3.48066 3.34068
# Velocity P-wave (km/s) = 5.59941 6.29996 5.95999
#
# Compressibility (1/GPa) = 0.02873686
#
# Stress axis : x y z
#
# Youngs Moduli (GPa) = 60.06912 37.17598 69.91084
#
# Poissons Ratio (x) = -0.05665 0.29732
# Poissons Ratio (y) = -0.09153 0.82688
# Poissons Ratio (z) = 0.25547 0.43971
#
# Static dielectric constant tensor:
#      x y z
#    x 1.707280 0.000000 0.000000 
#    y 0.000000 1.691800 0.000000 
#    z 0.000000 0.000000 1.752110 
# 
# From -- ./inp_files/25675.got.cif
#   From: 2010.05.17/outbox.cif.g08.bks.cpg/sg58_13_cif.got.tgz:25675.got - 2010.06.03 14:20:14.
