data_PCOD9443811
_publ_section_title
;
Structure prediction by ZEFSAII (Michael W. Deem and Ramdas Pophale) SiO2 
 PCOD9443811
Probable space group: P N N M
;
_chemical_formula_sum "Si O2"
_cell_formula_units_Z 40
_cell_length_a 6.966758
_cell_length_b 18.111741
_cell_length_c 15.274247
_cell_angle_alpha 90.000000
_cell_angle_beta 90.000000
_cell_angle_gamma 90.000000
_cell_volume 1927.306266
_symmetry_space_group_name_H-M "P N N M"
_symmetry_group_IT_number 58
_symmetry_cell_setting 'orthorhombic'
loop_
_space_group_symop_operation_xyz
x,y,z
-x,-y,z
1/2+x,1/2-y,1/2-z
1/2-x,1/2+y,1/2-z
-x,-y,-z
x,y,-z
1/2-x,1/2+y,1/2+z
1/2+x,1/2-y,1/2+z
loop_
_atom_site_type_symbol
_atom_site_label
_atom_site_fract_x
_atom_site_fract_y
_atom_site_fract_z
Si Si1 0.977724 0.662926 0.602650
Si Si2 0.179720 0.057103 0.404610
Si Si3 0.329937 0.389859 0.718971
Si Si4 0.762782 0.439972 0.281546
Si Si5 0.864112 0.174941 0.597221
O O1 0.959246 0.647130 0.500000
O O2 0.093749 0.600267 0.654386
O O3 0.093504 0.739276 0.612290
O O4 0.770881 0.663625 0.649628
O O5 0.260466 0.038655 0.500000
O O6 0.315774 0.059205 0.321458
O O7 0.071005 0.134953 0.408928
O O8 0.000000 0.000000 0.387934
O O9 0.267704 0.473925 0.698562
O O10 0.560178 0.396102 0.713987
O O11 0.272835 0.362433 0.816759
O O12 0.773239 0.164132 0.500000
#
# Coordination Sequence:
#
# PCOD9443811 Si02
#       5
#     8   8   8   8   8
#     4  11  25  40  58  87 122 159 201 249 298 350
#     4   9  15  31  59  86 114 149 189 238 298 355
#     4  10  21  38  62  86 116 157 197 245 296 353
#     4  10  20  38  61  89 116 156 201 241 296 357
#     4   9  19  36  58  86 118 151 190 244 303 353
#
# _framework density 20.754356000000001
#
# number of rings (size 3 to 8) (size 9 to 14) (size 15 to 20)
#    0.000    2.200    4.000    0.600    5.600    2.400 
#    0.000    3.000    0.000    2.400    0.000    0.000 
#    0.000    0.000    0.000    0.000    0.000    0.000 
#
# Total GULP energy -222942.642412 kJ/mol
# GULP energy per Si atom -5573.566060 kJ/mol
# Density = 2.070712 g / cm^3
# Si number density = 20.754356 Si / 1000 Ang^3
#
#
#
# Elastic Constant Matrix: (Units=GPa)
#
#
# Indices 1 2 3 4 5 6 
#
# 1 54.2430 21.1228 41.7397 0.0000 0.0000 0.0000
# 2 21.1228 51.8264 50.5616 0.0000 0.0000 0.0000
# 3 41.7397 50.5616 140.9473 0.0000 0.0000 0.0000
# 4 0.0000 0.0000 0.0000 47.2655 0.0000 0.0000
# 5 0.0000 0.0000 0.0000 0.0000 951.0833 0.0000
# 6 0.0000 0.0000 0.0000 0.0000 0.0000 17.1842
#
#
#
# Elastic Compliance Matrix: (Units=1/GPa)
#
#
# Indices 1 2 3 4 5 6 
#
# 1 0.024534 -0.004479 -0.005659 0.000000 0.000000 0.000000
# 2 -0.004479 0.030501 -0.009615 0.000000 0.000000 0.000000
# 3 -0.005659 -0.009615 0.012220 0.000000 0.000000 0.000000
# 4 0.000000 0.000000 0.000000 0.021157 0.000000 0.000000
# 5 0.000000 0.000000 0.000000 0.000000 0.001051 0.000000
# 6 0.000000 0.000000 0.000000 0.000000 0.000000 0.058193
#
#
# Mechanical properties :
#
#
# Convention : Reuss Voigt Hill
#
# Bulk Modulus (GPa) = 36.03645 52.65163 44.34404
# Shear Modulus (GPa) = 25.45670 212.01279 118.73474
#
# Velocity S-wave (km/s) = 3.50604 10.11806 7.57191
# Velocity P-wave (km/s) = 5.81299 12.72495 9.89230
#
# Compressibility (1/GPa) = 0.02774969
#
# Stress axis : x y z
#
# Youngs Moduli (GPa) = 40.75978 32.78563 81.83354
#
# Poissons Ratio (x) = 0.14683 0.46308
# Poissons Ratio (y) = 0.18254 0.78686
# Poissons Ratio (z) = 0.23065 0.31525
#
# Static dielectric constant tensor:
#      x y z
#    x 1.801670 0.000000 0.000000 
#    y 0.000000 1.758910 0.000000 
#    z 0.000000 0.000000 1.778160 
# 
# From -- ./inp_files/19665.got.cif
#   From: 2010.05.17/outbox.cif.g08.bks.cpg/sg58_10_cif.got.tgz:19665.got - 2010.06.03 14:20:14.
