data_PCOD9443910
_publ_section_title
;
Structure prediction by ZEFSAII (Michael W. Deem and Ramdas Pophale) SiO2 
 PCOD9443910
Probable space group: P N N M
;
_chemical_formula_sum "Si O2"
_cell_formula_units_Z 48
_cell_length_a 15.246743
_cell_length_b 7.438915
_cell_length_c 19.505513
_cell_angle_alpha 90.000000
_cell_angle_beta 90.000000
_cell_angle_gamma 90.000000
_cell_volume 2212.300172
_symmetry_space_group_name_H-M "P N N M"
_symmetry_group_IT_number 58
_symmetry_cell_setting 'orthorhombic'
loop_
_space_group_symop_operation_xyz
x,y,z
-x,-y,z
1/2+x,1/2-y,1/2-z
1/2-x,1/2+y,1/2-z
-x,-y,-z
x,y,-z
1/2-x,1/2+y,1/2+z
1/2+x,1/2-y,1/2+z
loop_
_atom_site_type_symbol
_atom_site_label
_atom_site_fract_x
_atom_site_fract_y
_atom_site_fract_z
Si Si1 0.024704 0.286943 0.201648
Si Si2 0.860826 0.195130 0.287993
Si Si3 0.116581 0.097629 0.079527
Si Si4 0.224794 0.762283 0.078998
Si Si5 0.684652 0.111452 0.208207
Si Si6 0.273212 0.373283 0.078503
O O1 0.049898 0.189056 0.131346
O O2 0.112445 0.283682 0.248131
O O3 0.000000 0.500000 0.191501
O O4 0.948808 0.185897 0.244027
O O5 0.777849 0.119720 0.246420
O O6 0.845949 0.407969 0.295256
O O7 0.849296 0.120791 0.364900
O O8 0.209349 0.203488 0.088254
O O9 0.858009 0.109793 0.092794
O O10 0.090010 0.117946 0.000000
O O11 0.299533 0.813172 0.132710
O O12 0.211820 0.549666 0.087568
O O13 0.249747 0.795905 0.000000
O O14 0.305048 0.373175 0.000000
#
# Coordination Sequence:
#
# PCOD9443910 Si02
#       6
#     8   8   8   8   8   8
#     4  10  23  39  64 102 135 172 222 270 327 395
#     4  11  22  39  65  93 131 173 217 272 328 391
#     4  10  20  41  68  96 134 174 217 270 332 392
#     4  10  21  37  65  97 124 166 221 268 324 390
#     4  11  20  38  62  89 132 173 214 270 329 388
#     4  10  20  38  68  96 123 171 220 271 332 389
#
# _framework density 21.696876
#
# number of rings (size 3 to 8) (size 9 to 14) (size 15 to 20)
#    0.000    1.667    3.333    1.000    2.333    0.333 
#    0.000    9.167    0.000    7.000    0.000    0.000 
#    0.000    0.000    0.000    0.000    0.000    0.000 
#
# Total GULP energy -268483.330262 kJ/mol
# GULP energy per Si atom -5593.402714 kJ/mol
# Density = 2.164749 g / cm^3
# Si number density = 21.696876 Si / 1000 Ang^3
#
#
#
# Elastic Constant Matrix: (Units=GPa)
#
#
# Indices 1 2 3 4 5 6 
#
# 1 109.7530 27.4391 81.1151 0.0000 0.0000 0.0000
# 2 27.4391 77.3184 35.2396 0.0000 0.0000 0.0000
# 3 81.1151 35.2396 165.7641 0.0000 0.0000 0.0000
# 4 0.0000 0.0000 0.0000 30.9506 0.0000 0.0000
# 5 0.0000 0.0000 0.0000 0.0000 35.7357 0.0000
# 6 0.0000 0.0000 0.0000 0.0000 0.0000 28.8825
#
#
#
# Elastic Compliance Matrix: (Units=1/GPa)
#
#
# Indices 1 2 3 4 5 6 
#
# 1 0.014583 -0.002129 -0.006684 0.000000 0.000000 0.000000
# 2 -0.002129 0.014632 -0.002069 0.000000 0.000000 0.000000
# 3 -0.006684 -0.002069 0.009743 0.000000 0.000000 0.000000
# 4 0.000000 0.000000 0.000000 0.032310 0.000000 0.000000
# 5 0.000000 0.000000 0.000000 0.000000 0.027983 0.000000
# 6 0.000000 0.000000 0.000000 0.000000 0.000000 0.034623
#
#
# Mechanical properties :
#
#
# Convention : Reuss Voigt Hill
#
# Bulk Modulus (GPa) = 58.15513 71.15811 64.65662
# Shear Modulus (GPa) = 30.98494 33.04989 32.01741
#
# Velocity S-wave (km/s) = 3.78310 3.90712 3.84561
# Velocity P-wave (km/s) = 6.77821 7.29533 7.04152
#
# Compressibility (1/GPa) = 0.01719539
#
# Stress axis : x y z
#
# Youngs Moduli (GPa) = 68.57168 68.34329 102.63800
#
# Poissons Ratio (x) = 0.14552 0.68599
# Poissons Ratio (y) = 0.14600 0.21233
# Poissons Ratio (z) = 0.45830 0.14138
#
# Static dielectric constant tensor:
#      x y z
#    x 1.776030 0.000000 0.000000 
#    y 0.000000 1.832670 0.000000 
#    z 0.000000 0.000000 1.798650 
# 
# From -- ./inp_files/26793.got.cif
#   From: 2010.05.17/outbox.cif.g08.bks.cpg/sg58_14_cif.got.tgz:26793.got - 2010.06.03 14:20:14.
