data_PCOD9443279
_publ_section_title
;
Structure prediction by ZEFSAII (Michael W. Deem and Ramdas Pophale) SiO2 
 PCOD9443279
Probable space group: P N N M
;
_chemical_formula_sum "Si O2"
_cell_formula_units_Z 52
_cell_length_a 18.589489
_cell_length_b 13.459056
_cell_length_c 8.181354
_cell_angle_alpha 90.000000
_cell_angle_beta 90.000000
_cell_angle_gamma 90.000000
_cell_volume 2046.950010
_symmetry_space_group_name_H-M "P N N M"
_symmetry_group_IT_number 58
_symmetry_cell_setting 'orthorhombic'
loop_
_space_group_symop_operation_xyz
x,y,z
-x,-y,z
1/2+x,1/2-y,1/2-z
1/2-x,1/2+y,1/2-z
-x,-y,-z
x,y,-z
1/2-x,1/2+y,1/2+z
1/2+x,1/2-y,1/2+z
loop_
_atom_site_type_symbol
_atom_site_label
_atom_site_fract_x
_atom_site_fract_y
_atom_site_fract_z
Si Si1 0.349847 0.947849 0.685692
Si Si2 0.607493 0.558425 0.172850
Si Si3 0.775905 0.172016 0.176000
Si Si4 0.009661 0.342656 0.194016
Si Si5 0.269346 0.130783 0.813469
Si Si6 0.601402 0.358670 0.307515
Si Si7 0.555307 0.749812 0.000000
O O1 0.337253 0.913775 0.500000
O O2 0.301129 0.876314 0.795829
O O3 0.434228 0.933855 0.713564
O O4 0.317176 0.056724 0.709221
O O5 0.666200 0.584891 0.307901
O O6 0.571134 0.454686 0.214899
O O7 0.648068 0.542717 0.000000
O O8 0.563126 0.657877 0.138779
O O9 0.795794 0.255551 0.307170
O O10 0.780113 0.220887 0.000000
O O11 0.063093 0.246298 0.217731
O O12 0.957282 0.330432 0.349189
O O13 0.984510 0.341157 0.000000
O O14 0.186059 0.141858 0.761419
O O15 0.272280 0.095655 0.000000
O O16 0.596352 0.378153 0.500000
#
# Coordination Sequence:
#
# PCOD9443279 Si02
#       7
#     8   8   8   8   8   8   4
#     4  11  22  38  61  92 129 163 205 266 324 380
#     4  10  23  39  58  85 123 167 211 264 304 374
#     4  12  23  37  61  92 127 168 207 259 327 385
#     4  10  23  41  63  90 127 170 219 269 315 377
#     4  11  22  36  59  93 131 164 201 253 326 391
#     4  10  20  35  57  91 130 168 206 257 316 386
#     4  10  26  43  66  87 128 180 228 259 320 367
#
# _framework density 25.403649999999999
#
# number of rings (size 3 to 8) (size 9 to 14) (size 15 to 20)
#    0.462    0.923    3.077    2.769    3.231    3.077 
#    0.000    1.538    0.000    1.846    0.000    3.231 
#    0.000    0.000    0.000    0.000    0.000    0.000 
#
# Total GULP energy -289617.324320 kJ/mol
# GULP energy per Si atom -5569.563929 kJ/mol
# Density = 2.534583 g / cm^3
# Si number density = 25.403650 Si / 1000 Ang^3
#
#
#
# Elastic Constant Matrix: (Units=GPa)
#
#
# Indices 1 2 3 4 5 6 
#
# 1 71.2060 17.7011 27.8941 0.0000 0.0000 0.0000
# 2 17.7011 69.2263 10.9787 0.0000 0.0000 0.0000
# 3 27.8941 10.9787 96.2077 0.0000 0.0000 0.0000
# 4 0.0000 0.0000 0.0000 0.0888 0.0000 0.0000
# 5 0.0000 0.0000 0.0000 0.0000 1.2482 0.0000
# 6 0.0000 0.0000 0.0000 0.0000 0.0000 48.5092
#
#
#
# Elastic Compliance Matrix: (Units=1/GPa)
#
#
# Indices 1 2 3 4 5 6 
#
# 1 0.016662 -0.003559 -0.004425 0.000000 0.000000 0.000000
# 2 -0.003559 0.015472 -0.000734 0.000000 0.000000 0.000000
# 3 -0.004425 -0.000734 0.011761 0.000000 0.000000 0.000000
# 4 0.000000 0.000000 0.000000 11.255715 0.000000 0.000000
# 5 0.000000 0.000000 0.000000 0.000000 0.801150 0.000000
# 6 0.000000 0.000000 0.000000 0.000000 0.000000 0.020615
#
#
# Mechanical properties :
#
#
# Convention : Reuss Voigt Hill
#
# Bulk Modulus (GPa) = 37.79303 38.86530 38.32916
# Shear Modulus (GPa) = 0.41160 21.97365 11.19263
#
# Velocity S-wave (km/s) = 0.40296 2.94425 2.10130
# Velocity P-wave (km/s) = 3.88919 5.18560 4.58346
#
# Compressibility (1/GPa) = 0.02645991
#
# Stress axis : x y z
#
# Youngs Moduli (GPa) = 60.01772 64.63422 85.02816
#
# Poissons Ratio (x) = 0.23001 0.37623
# Poissons Ratio (y) = 0.21358 0.06239
# Poissons Ratio (z) = 0.26556 0.04743
#
# Static dielectric constant tensor:
#      x y z
#    x 2.108930 0.000000 0.000000 
#    y 0.000000 2.012390 0.000000 
#    z 0.000000 0.000000 1.977090 
# 
# From -- ./inp_files/8919.got.cif
#   From: 2010.05.17/outbox.cif.g08.bks.cpg/sg58_5_cif.got.tgz:8919.got - 2010.06.03 14:20:14.
