data_PCOD9443605
_publ_section_title
;
Structure prediction by ZEFSAII (Michael W. Deem and Ramdas Pophale) SiO2 
 PCOD9443605
Probable space group: P N N M
;
_chemical_formula_sum "Si O2"
_cell_formula_units_Z 48
_cell_length_a 8.114750
_cell_length_b 28.366032
_cell_length_c 8.789992
_cell_angle_alpha 90.000000
_cell_angle_beta 90.000000
_cell_angle_gamma 90.000000
_cell_volume 2023.308998
_symmetry_space_group_name_H-M "P N N M"
_symmetry_group_IT_number 58
_symmetry_cell_setting 'orthorhombic'
loop_
_space_group_symop_operation_xyz
x,y,z
-x,-y,z
1/2+x,1/2-y,1/2-z
1/2-x,1/2+y,1/2-z
-x,-y,-z
x,y,-z
1/2-x,1/2+y,1/2+z
1/2+x,1/2-y,1/2+z
loop_
_atom_site_type_symbol
_atom_site_label
_atom_site_fract_x
_atom_site_fract_y
_atom_site_fract_z
Si Si1 0.256117 0.844206 0.176336
Si Si2 0.590829 0.905047 0.826821
Si Si3 0.272437 0.678796 0.174893
Si Si4 0.065330 0.932724 0.817938
Si Si5 0.253889 0.514521 0.821989
Si Si6 0.063107 0.260324 0.173791
O O1 0.418687 0.877526 0.180308
O O2 0.112111 0.879529 0.225212
O O3 0.303798 0.799006 0.272662
O O4 0.229347 0.829997 0.000000
O O5 0.725494 0.865967 0.776658
O O6 0.604854 0.951037 0.722281
O O7 0.621770 0.919855 0.000000
O O8 0.417447 0.713086 0.229004
O O9 0.110598 0.712813 0.184879
O O10 0.291669 0.664007 0.000000
O O11 0.912836 0.953697 0.725296
O O12 0.216490 0.967614 0.775888
O O13 0.037753 0.934911 0.000000
O O14 0.254507 0.503680 0.000000
O O15 0.093950 0.247172 0.000000
#
# Coordination Sequence:
#
# PCOD9443605 Si02
#       6
#     8   8   8   8   8   8
#     4   9  20  37  58  81 106 138 178 223 268 316
#     4  10  20  37  58  80 107 140 178 220 267 317
#     4  10  21  37  56  80 109 140 178 221 264 314
#     4  10  20  37  58  80 107 141 180 223 269 316
#     4  11  22  36  54  80 111 143 179 219 265 317
#     4  10  21  36  56  81 109 142 178 218 266 318
#
# _framework density 23.723514999999999
#
# number of rings (size 3 to 8) (size 9 to 14) (size 15 to 20)
#    0.000    2.000    0.000    4.500    0.000    6.000 
#    0.000    5.000    0.000    0.000    0.000    0.000 
#    0.000    0.000    0.000    0.000    0.000    0.000 
#
# Total GULP energy -268682.640608 kJ/mol
# GULP energy per Si atom -5597.555013 kJ/mol
# Density = 2.366952 g / cm^3
# Si number density = 23.723515 Si / 1000 Ang^3
#
#
#
# Elastic Constant Matrix: (Units=GPa)
#
#
# Indices 1 2 3 4 5 6 
#
# 1 50.8194 8.4391 2.2367 0.0000 0.0000 0.0000
# 2 8.4391 90.9757 9.9006 0.0000 0.0000 0.0000
# 3 2.2367 9.9006 55.9188 0.0000 0.0000 0.0000
# 4 0.0000 0.0000 0.0000 30.7972 0.0000 0.0000
# 5 0.0000 0.0000 0.0000 0.0000 64.8696 0.0000
# 6 0.0000 0.0000 0.0000 0.0000 0.0000 47.8567
#
#
#
# Elastic Compliance Matrix: (Units=1/GPa)
#
#
# Indices 1 2 3 4 5 6 
#
# 1 0.019998 -0.001803 -0.000481 0.000000 0.000000 0.000000
# 2 -0.001803 0.011370 -0.001941 0.000000 0.000000 0.000000
# 3 -0.000481 -0.001941 0.018246 0.000000 0.000000 0.000000
# 4 0.000000 0.000000 0.000000 0.032470 0.000000 0.000000
# 5 0.000000 0.000000 0.000000 0.000000 0.015416 0.000000
# 6 0.000000 0.000000 0.000000 0.000000 0.000000 0.020896
#
#
# Mechanical properties :
#
#
# Convention : Reuss Voigt Hill
#
# Bulk Modulus (GPa) = 24.29225 26.54073 25.41649
# Shear Modulus (GPa) = 35.57022 40.51387 38.04205
#
# Velocity S-wave (km/s) = 3.87636 4.13698 4.00879
# Velocity P-wave (km/s) = 5.50426 5.83363 5.67134
#
# Compressibility (1/GPa) = 0.04116540
#
# Stress axis : x y z
#
# Youngs Moduli (GPa) = 50.00484 87.94754 54.80660
#
# Poissons Ratio (x) = 0.15855 0.02635
# Poissons Ratio (y) = 0.09015 0.10638
# Poissons Ratio (z) = 0.02404 0.17071
#
# Static dielectric constant tensor:
#      x y z
#    x 2.024480 0.000000 0.000000 
#    y 0.000000 1.861660 0.000000 
#    z 0.000000 0.000000 1.798430 
# 
# From -- ./inp_files/2920.got.cif
#   From: 2010.05.17/outbox.cif.g08.bks.cpg/sg58_2_cif.got.tgz:2920.got - 2010.06.03 14:20:14.
