data_PCOD9443710
_publ_section_title
;
Structure prediction by ZEFSAII (Michael W. Deem and Ramdas Pophale) SiO2 
 PCOD9443710
Probable space group: P N N M
;
_chemical_formula_sum "Si O2"
_cell_formula_units_Z 40
_cell_length_a 22.198558
_cell_length_b 5.030620
_cell_length_c 17.442132
_cell_angle_alpha 90.000000
_cell_angle_beta 90.000000
_cell_angle_gamma 90.000000
_cell_volume 1947.806658
_symmetry_space_group_name_H-M "P N N M"
_symmetry_group_IT_number 58
_symmetry_cell_setting 'orthorhombic'
loop_
_space_group_symop_operation_xyz
x,y,z
-x,-y,z
1/2+x,1/2-y,1/2-z
1/2-x,1/2+y,1/2-z
-x,-y,-z
x,y,-z
1/2-x,1/2+y,1/2+z
1/2+x,1/2-y,1/2+z
loop_
_atom_site_type_symbol
_atom_site_label
_atom_site_fract_x
_atom_site_fract_y
_atom_site_fract_z
Si Si1 0.840921 0.164323 0.089392
Si Si2 0.738720 0.185652 0.589518
Si Si3 0.541068 0.757865 0.313138
Si Si4 0.067906 0.573619 0.641220
Si Si5 0.361299 0.565144 0.088891
O O1 0.809802 0.451054 0.091756
O O2 0.903256 0.178516 0.133909
O O3 0.793130 0.948604 0.121425
O O4 0.851991 0.094527 0.000000
O O5 0.753422 0.248604 0.500000
O O6 0.800232 0.064260 0.622804
O O7 0.500000 0.500000 0.300745
O O8 0.565288 0.854369 0.230919
O O9 0.500000 0.000000 0.344642
O O10 0.112648 0.327282 0.628192
O O11 0.000000 0.500000 0.617668
O O12 0.090332 0.830646 0.595958
O O13 0.349753 0.635776 0.000000
#
# Coordination Sequence:
#
# PCOD9443710 Si02
#       5
#     8   8   8   8   8
#     4  10  20  37  62  89 118 153 195 238 286 349
#     4   9  19  36  58  87 119 149 184 238 299 341
#     4  11  23  40  60  83 119 161 196 240 298 348
#     4  11  23  39  57  82 118 156 192 238 296 345
#     4  11  22  38  62  88 115 150 195 241 288 350
#
# _framework density 20.535919
#
# number of rings (size 3 to 8) (size 9 to 14) (size 15 to 20)
#    0.000    1.600    0.000    6.000    0.000    6.400 
#    0.000    4.000    0.000    0.000    0.000    0.000 
#    0.000    0.000    0.000    0.000    0.000    0.000 
#
# Total GULP energy -223519.507938 kJ/mol
# GULP energy per Si atom -5587.987698 kJ/mol
# Density = 2.048918 g / cm^3
# Si number density = 20.535919 Si / 1000 Ang^3
#
#
#
# Elastic Constant Matrix: (Units=GPa)
#
#
# Indices 1 2 3 4 5 6 
#
# 1 54.9701 1.8018 20.7139 0.0000 0.0000 0.0000
# 2 1.8018 103.4926 4.3929 0.0000 0.0000 0.0000
# 3 20.7139 4.3929 22.3685 0.0000 0.0000 0.0000
# 4 0.0000 0.0000 0.0000 16.6008 0.0000 0.0000
# 5 0.0000 0.0000 0.0000 0.0000 52.3044 0.0000
# 6 0.0000 0.0000 0.0000 0.0000 0.0000 38.4076
#
#
#
# Elastic Compliance Matrix: (Units=1/GPa)
#
#
# Indices 1 2 3 4 5 6 
#
# 1 0.027981 0.000618 -0.026033 0.000000 0.000000 0.000000
# 2 0.000618 0.009757 -0.002488 0.000000 0.000000 0.000000
# 3 -0.026033 -0.002488 0.069301 0.000000 0.000000 0.000000
# 4 0.000000 0.000000 0.000000 0.060238 0.000000 0.000000
# 5 0.000000 0.000000 0.000000 0.000000 0.019119 0.000000
# 6 0.000000 0.000000 0.000000 0.000000 0.000000 0.026037
#
#
# Mechanical properties :
#
#
# Convention : Reuss Voigt Hill
#
# Bulk Modulus (GPa) = 19.51847 26.07203 22.79525
# Shear Modulus (GPa) = 17.52433 31.72407 24.62420
#
# Velocity S-wave (km/s) = 2.92438 3.93467 3.46653
# Velocity P-wave (km/s) = 4.57470 5.77629 5.21025
#
# Compressibility (1/GPa) = 0.05123352
#
# Stress axis : x y z
#
# Youngs Moduli (GPa) = 35.73838 102.48636 14.42972
#
# Poissons Ratio (x) = -0.06332 0.37564
# Poissons Ratio (y) = -0.02208 0.03591
# Poissons Ratio (z) = 0.93037 0.25502
#
# Static dielectric constant tensor:
#      x y z
#    x 1.737180 0.000000 0.000000 
#    y 0.000000 1.717640 0.000000 
#    z 0.000000 0.000000 1.725430 
# 
# From -- ./inp_files/27157.got.cif
#   From: 2010.05.17/outbox.cif.g08.bks.cpg/sg58_14_cif.got.tgz:27157.got - 2010.06.03 14:20:14.
