data_PCOD9443852
_publ_section_title
;
Structure prediction by ZEFSAII (Michael W. Deem and Ramdas Pophale) SiO2 
 PCOD9443852
Probable space group: P N N M
;
_chemical_formula_sum "Si O2"
_cell_formula_units_Z 48
_cell_length_a 9.451325
_cell_length_b 7.529065
_cell_length_c 33.573470
_cell_angle_alpha 90.000000
_cell_angle_beta 90.000000
_cell_angle_gamma 90.000000
_cell_volume 2389.076048
_symmetry_space_group_name_H-M "P N N M"
_symmetry_group_IT_number 58
_symmetry_cell_setting 'orthorhombic'
loop_
_space_group_symop_operation_xyz
x,y,z
-x,-y,z
1/2+x,1/2-y,1/2-z
1/2-x,1/2+y,1/2-z
-x,-y,-z
x,y,-z
1/2-x,1/2+y,1/2+z
1/2+x,1/2-y,1/2+z
loop_
_atom_site_type_symbol
_atom_site_label
_atom_site_fract_x
_atom_site_fract_y
_atom_site_fract_z
Si Si1 0.138718 0.771218 0.218983
Si Si2 0.887351 0.240378 0.545898
Si Si3 0.842216 0.030133 0.047969
Si Si4 0.310661 0.668904 0.704493
Si Si5 0.316826 0.630680 0.924843
Si Si6 0.664941 0.015365 0.349057
O O1 0.201517 0.735844 0.262372
O O2 0.174956 0.608000 0.190132
O O3 0.969265 0.789171 0.220185
O O4 0.197378 0.956418 0.201168
O O5 0.927868 0.282367 0.500000
O O6 0.773453 0.383363 0.560439
O O7 0.029055 0.221836 0.571862
O O8 0.821217 0.043751 0.547586
O O9 0.792027 0.223304 0.060481
O O10 0.846154 0.018419 0.000000
O O11 0.000000 0.000000 0.063706
O O12 0.299208 0.784517 0.664451
O O13 0.269827 0.559427 0.882059
O O14 0.500000 0.000000 0.362446
#
# Coordination Sequence:
#
# PCOD9443852 Si02
#       6
#     8   8   8   8   8   8
#     4  10  20  38  63  87 115 156 200 255 306 369
#     4  10  22  42  67  91 126 171 214 263 320 385
#     4  10  22  39  65  96 124 161 213 262 314 384
#     4  10  20  38  63  87 115 154 205 250 308 372
#     4  11  22  39  63  89 128 168 211 257 326 378
#     4  10  23  39  58  88 126 164 204 260 321 374
#
# _framework density 20.091446999999999
#
# number of rings (size 3 to 8) (size 9 to 14) (size 15 to 20)
#    0.000    1.833    1.667    2.500    2.333    2.667 
#    9.000    2.500    0.000    0.000    0.000    0.000 
#    0.000    0.000    0.000    0.000    0.000    0.000 
#
# Total GULP energy -268104.632118 kJ/mol
# GULP energy per Si atom -5585.513169 kJ/mol
# Density = 2.004572 g / cm^3
# Si number density = 20.091447 Si / 1000 Ang^3
#
#
#
# Elastic Constant Matrix: (Units=GPa)
#
#
# Indices 1 2 3 4 5 6 
#
# 1 84.3554 33.4991 41.1324 0.0000 0.0000 0.0000
# 2 33.4991 80.3487 -5.9896 0.0000 0.0000 0.0000
# 3 41.1324 -5.9896 39.8776 0.0000 0.0000 0.0000
# 4 0.0000 0.0000 0.0000 0.2469 0.0000 0.0000
# 5 0.0000 0.0000 0.0000 0.0000 32.4348 0.0000
# 6 0.0000 0.0000 0.0000 0.0000 0.0000 22.6853
#
#
#
# Elastic Compliance Matrix: (Units=1/GPa)
#
#
# Indices 1 2 3 4 5 6 
#
# 1 0.045221 -0.022583 -0.050036 0.000000 0.000000 0.000000
# 2 -0.022583 0.023865 0.026879 0.000000 0.000000 0.000000
# 3 -0.050036 0.026879 0.080724 0.000000 0.000000 0.000000
# 4 0.000000 0.000000 0.000000 4.049772 0.000000 0.000000
# 5 0.000000 0.000000 0.000000 0.000000 0.030831 0.000000
# 6 0.000000 0.000000 0.000000 0.000000 0.000000 0.044081
#
#
# Mechanical properties :
#
#
# Convention : Reuss Voigt Hill
#
# Bulk Modulus (GPa) = 17.14423 37.98506 27.56465
# Shear Modulus (GPa) = 1.14014 20.13606 10.63810
#
# Velocity S-wave (km/s) = 0.75413 3.16922 2.30355
# Velocity P-wave (km/s) = 3.05121 5.68675 4.56339
#
# Compressibility (1/GPa) = 0.05832865
#
# Stress axis : x y z
#
# Youngs Moduli (GPa) = 22.11368 41.90241 12.38785
#
# Poissons Ratio (x) = 0.94630 0.61984
# Poissons Ratio (y) = 0.49940 -0.33297
# Poissons Ratio (z) = 1.10648 -1.12628
#
# Static dielectric constant tensor:
#      x y z
#    x 1.714390 0.000000 0.000000 
#    y 0.000000 1.719630 0.000000 
#    z 0.000000 0.000000 1.689960 
# 
# From -- ./inp_files/34540.got.cif
#   From: 2010.05.17/outbox.cif.g08.bks.cpg/sg58_18_cif.got.tgz:34540.got - 2010.06.03 14:20:14.
