data_PCOD9443832
_publ_section_title
;
Structure prediction by ZEFSAII (Michael W. Deem and Ramdas Pophale) SiO2 
 PCOD9443832
Probable space group: P N N M
;
_chemical_formula_sum "Si O2"
_cell_formula_units_Z 48
_cell_length_a 20.444003
_cell_length_b 14.348145
_cell_length_c 9.123828
_cell_angle_alpha 90.000000
_cell_angle_beta 90.000000
_cell_angle_gamma 90.000000
_cell_volume 2676.324578
_symmetry_space_group_name_H-M "P N N M"
_symmetry_group_IT_number 58
_symmetry_cell_setting 'orthorhombic'
loop_
_space_group_symop_operation_xyz
x,y,z
-x,-y,z
1/2+x,1/2-y,1/2-z
1/2-x,1/2+y,1/2-z
-x,-y,-z
x,y,-z
1/2-x,1/2+y,1/2+z
1/2+x,1/2-y,1/2+z
loop_
_atom_site_type_symbol
_atom_site_label
_atom_site_fract_x
_atom_site_fract_y
_atom_site_fract_z
Si Si1 0.438886 0.070011 0.169588
Si Si2 0.067058 0.942071 0.829438
Si Si3 0.691094 0.047701 0.175596
Si Si4 0.493818 0.246186 0.674832
Si Si5 0.315519 0.546711 0.175058
Si Si6 0.136633 0.251507 0.676903
O O1 0.454429 0.155993 0.273361
O O2 0.500000 0.000000 0.178183
O O3 0.373734 0.013023 0.206191
O O4 0.434247 0.101951 0.000000
O O5 0.047759 0.837708 0.785388
O O6 0.121653 0.990041 0.731614
O O7 0.088789 0.942218 0.000000
O O8 0.000000 0.000000 0.821427
O O9 0.675668 0.154676 0.219103
O O10 0.752151 0.000410 0.254050
O O11 0.701660 0.047111 0.000000
O O12 0.503386 0.247203 0.500000
O O13 0.564728 0.247635 0.751595
O O14 0.326680 0.655457 0.216480
O O15 0.311057 0.542448 0.000000
O O16 0.128600 0.253775 0.500000
#
# Coordination Sequence:
#
# PCOD9443832 Si02
#       6
#     8   8   8   8   8   8
#     4  10  20  38  62  87 118 157 199 238 291 358
#     4  10  21  39  60  85 119 157 197 238 293 359
#     4  10  22  41  63  84 118 164 197 235 296 365
#     4  11  22  35  60  93 121 153 196 251 296 341
#     4  11  24  39  61  91 121 153 198 255 297 344
#     4  10  21  40  62  84 115 158 200 241 299 359
#
# _framework density 17.935044000000001
#
# number of rings (size 3 to 8) (size 9 to 14) (size 15 to 20)
#    0.000    1.667    3.333    1.000    0.000    5.333 
#    0.000    5.000    0.000    0.000    0.000    0.000 
#    0.000    0.000    0.000    0.000    0.000    0.000 
#
# Total GULP energy -268077.227308 kJ/mol
# GULP energy per Si atom -5584.942236 kJ/mol
# Density = 1.789422 g / cm^3
# Si number density = 17.935044 Si / 1000 Ang^3
#
#
#
# Elastic Constant Matrix: (Units=GPa)
#
#
# Indices 1 2 3 4 5 6 
#
# 1 126.1424 78.6289 49.7748 0.0000 0.0000 0.0000
# 2 78.6289 168.0861 60.3007 0.0000 0.0000 0.0000
# 3 49.7748 60.3007 36.2579 0.0000 0.0000 0.0000
# 4 0.0000 0.0000 0.0000 22.0759 0.0000 0.0000
# 5 0.0000 0.0000 0.0000 0.0000 36.8436 0.0000
# 6 0.0000 0.0000 0.0000 0.0000 0.0000 22.0753
#
#
#
# Elastic Compliance Matrix: (Units=1/GPa)
#
#
# Indices 1 2 3 4 5 6 
#
# 1 0.017374 0.001064 -0.025620 0.000000 0.000000 0.000000
# 2 0.001064 0.014814 -0.026099 0.000000 0.000000 0.000000
# 3 -0.025620 -0.026099 0.106157 0.000000 0.000000 0.000000
# 4 0.000000 0.000000 0.000000 0.045298 0.000000 0.000000
# 5 0.000000 0.000000 0.000000 0.000000 0.027142 0.000000
# 6 0.000000 0.000000 0.000000 0.000000 0.000000 0.045300
#
#
# Mechanical properties :
#
#
# Convention : Reuss Voigt Hill
#
# Bulk Modulus (GPa) = 27.00157 78.65502 52.82829
# Shear Modulus (GPa) = 13.52303 25.65108 19.58706
#
# Velocity S-wave (km/s) = 2.74889 3.78593 3.30830
# Velocity P-wave (km/s) = 5.01628 7.94114 6.64172
#
# Compressibility (1/GPa) = 0.03703489
#
# Stress axis : x y z
#
# Youngs Moduli (GPa) = 57.55733 67.50162 9.42005
#
# Poissons Ratio (x) = -0.07182 0.24135
# Poissons Ratio (y) = -0.06124 0.24585
# Poissons Ratio (z) = 1.47464 1.76169
#
# Static dielectric constant tensor:
#      x y z
#    x 1.571540 0.000000 0.000000 
#    y 0.000000 1.686980 0.000000 
#    z 0.000000 0.000000 1.604290 
# 
# From -- ./inp_files/7720.got.cif
#   From: 2010.05.17/outbox.cif.g08.bks.cpg/sg58_4_cif.got.tgz:7720.got - 2010.06.03 14:20:14.
