data_PCOD9443943
_publ_section_title
;
Structure prediction by ZEFSAII (Michael W. Deem and Ramdas Pophale) SiO2 
 PCOD9443943
Probable space group: P N N M
;
_chemical_formula_sum "Si O2"
_cell_formula_units_Z 40
_cell_length_a 10.671345
_cell_length_b 7.335868
_cell_length_c 26.652336
_cell_angle_alpha 90.000000
_cell_angle_beta 90.000000
_cell_angle_gamma 90.000000
_cell_volume 2086.440232
_symmetry_space_group_name_H-M "P N N M"
_symmetry_group_IT_number 58
_symmetry_cell_setting 'orthorhombic'
loop_
_space_group_symop_operation_xyz
x,y,z
-x,-y,z
1/2+x,1/2-y,1/2-z
1/2-x,1/2+y,1/2-z
-x,-y,-z
x,y,-z
1/2-x,1/2+y,1/2+z
1/2+x,1/2-y,1/2+z
loop_
_atom_site_type_symbol
_atom_site_label
_atom_site_fract_x
_atom_site_fract_y
_atom_site_fract_z
Si Si1 0.135945 0.946998 0.375501
Si Si2 0.375741 0.871472 0.557695
Si Si3 0.777987 0.274072 0.809914
Si Si4 0.715807 0.848017 0.804967
Si Si5 0.466589 0.703451 0.348275
O O1 0.247639 0.946452 0.416774
O O2 0.131758 0.752557 0.346443
O O3 0.174149 0.092056 0.332259
O O4 0.000000 0.000000 0.396010
O O5 0.353067 0.822359 0.500000
O O6 0.415804 0.710352 0.595307
O O7 0.500000 0.000000 0.558645
O O8 0.815842 0.312675 0.752570
O O9 0.905101 0.309451 0.841368
O O10 0.733084 0.063658 0.814216
O O11 0.850395 0.746852 0.813321
O O12 0.500000 0.500000 0.333191
#
# Coordination Sequence:
#
# PCOD9443943 Si02
#       5
#     8   8   8   8   8
#     4  11  24  39  56  86 122 156 195 237 292 354
#     4  10  20  39  64  86 107 147 200 249 299 343
#     4  11  20  36  55  83 121 157 193 237 281 344
#     4  10  22  34  56  85 115 163 195 229 284 349
#     4   9  20  36  56  85 116 145 197 242 288 346
#
# _framework density 19.171410000000002
#
# number of rings (size 3 to 8) (size 9 to 14) (size 15 to 20)
#    0.000    1.800    4.000    0.000    2.800    1.600 
#    0.000    0.000    0.000    0.000    0.000    5.600 
#    0.000    0.000    0.000    0.000    0.000    0.000 
#
# Total GULP energy -222865.363851 kJ/mol
# GULP energy per Si atom -5571.634096 kJ/mol
# Density = 1.912777 g / cm^3
# Si number density = 19.171410 Si / 1000 Ang^3
#
#
#
# Elastic Constant Matrix: (Units=GPa)
#
#
# Indices 1 2 3 4 5 6 
#
# 1 92.6645 6.9126 33.6094 0.0000 0.0000 0.0000
# 2 6.9126 55.5074 3.7510 0.0000 0.0000 0.0000
# 3 33.6094 3.7510 115.4896 0.0000 0.0000 0.0000
# 4 0.0000 0.0000 0.0000 19.0176 0.0000 0.0000
# 5 0.0000 0.0000 0.0000 0.0000 21.1509 0.0000
# 6 0.0000 0.0000 0.0000 0.0000 0.0000 20.0708
#
#
#
# Elastic Compliance Matrix: (Units=1/GPa)
#
#
# Indices 1 2 3 4 5 6 
#
# 1 0.012155 -0.001277 -0.003496 0.000000 0.000000 0.000000
# 2 -0.001277 0.018189 -0.000219 0.000000 0.000000 0.000000
# 3 -0.003496 -0.000219 0.009683 0.000000 0.000000 0.000000
# 4 0.000000 0.000000 0.000000 0.052583 0.000000 0.000000
# 5 0.000000 0.000000 0.000000 0.000000 0.047279 0.000000
# 6 0.000000 0.000000 0.000000 0.000000 0.000000 0.049824
#
#
# Mechanical properties :
#
#
# Convention : Reuss Voigt Hill
#
# Bulk Modulus (GPa) = 33.28556 39.13416 36.20986
# Shear Modulus (GPa) = 23.84221 26.67378 25.25800
#
# Velocity S-wave (km/s) = 3.53035 3.73410 3.63365
# Velocity P-wave (km/s) = 5.83246 6.24888 6.04425
#
# Compressibility (1/GPa) = 0.03004306
#
# Stress axis : x y z
#
# Youngs Moduli (GPa) = 82.27180 54.97680 103.27140
#
# Poissons Ratio (x) = 0.07023 0.36101
# Poissons Ratio (y) = 0.10510 0.02262
# Poissons Ratio (z) = 0.28760 0.01204
#
# Static dielectric constant tensor:
#      x y z
#    x 1.730210 0.000000 0.000000 
#    y 0.000000 1.694940 0.000000 
#    z 0.000000 0.000000 1.634500 
# 
# From -- ./inp_files/31269.got.cif
#   From: 2010.05.17/outbox.cif.g08.bks.cpg/sg58_16_cif.got.tgz:31269.got - 2010.06.03 14:20:14.
