data_PCOD9443030
_publ_section_title
;
Structure prediction by ZEFSAII (Michael W. Deem and Ramdas Pophale) SiO2 
 PCOD9443030
Probable space group: P N N M
;
_chemical_formula_sum "Si O2"
_cell_formula_units_Z 52
_cell_length_a 8.271428
_cell_length_b 24.143803
_cell_length_c 12.249160
_cell_angle_alpha 90.000000
_cell_angle_beta 90.000000
_cell_angle_gamma 90.000000
_cell_volume 2446.202919
_symmetry_space_group_name_H-M "P N N M"
_symmetry_group_IT_number 58
_symmetry_cell_setting 'orthorhombic'
loop_
_space_group_symop_operation_xyz
x,y,z
-x,-y,z
1/2+x,1/2-y,1/2-z
1/2-x,1/2+y,1/2-z
-x,-y,-z
x,y,-z
1/2-x,1/2+y,1/2+z
1/2+x,1/2-y,1/2+z
loop_
_atom_site_type_symbol
_atom_site_label
_atom_site_fract_x
_atom_site_fract_y
_atom_site_fract_z
Si Si1 0.897368 0.255811 0.824780
Si Si2 0.165463 0.594106 0.500000
Si Si3 0.592290 0.353104 0.675793
Si Si4 0.818676 0.375063 0.123765
Si Si5 0.033427 0.424982 0.296641
Si Si6 0.556629 0.200012 0.126824
Si Si7 0.137664 0.954199 0.869678
O O1 0.027760 0.208325 0.847957
O O2 0.914776 0.316204 0.877590
O O3 0.919931 0.268636 0.695807
O O4 0.723495 0.232703 0.858922
O O5 0.071198 0.560748 0.402514
O O6 0.268696 0.627404 0.594595
O O7 0.446135 0.395458 0.654070
O O8 0.665932 0.361560 0.797206
O O9 0.928673 0.420005 0.186978
O O10 0.776702 0.389968 0.000000
O O11 0.080468 0.360943 0.324649
O O12 0.200970 0.457982 0.298141
O O13 0.516094 0.191812 0.000000
O O14 0.174844 0.957791 0.000000
O O15 0.000000 0.000000 0.847971
#
# Coordination Sequence:
#
# PCOD9443030 Si02
#       7
#     8   4   8   8   8   8   8
#     4  11  22  33  55  86 116 159 198 234 288 342
#     4  10  20  34  55  86 112 162 186 228 293 369
#     4  11  22  37  60  87 122 158 198 240 307 350
#     4  10  23  41  58  85 122 166 205 242 281 353
#     4  10  20  38  60  83 122 156 194 239 302 354
#     4  11  21  35  54  79 117 156 192 235 285 346
#     4  11  22  39  65  95 120 147 191 254 316 365
#
# _framework density 21.257434
#
# number of rings (size 3 to 8) (size 9 to 14) (size 15 to 20)
#    0.000    1.385    5.385    0.462    2.154    0.000 
#    0.000    8.462    0.000    2.769    0.000    0.000 
#    0.000    0.000    0.000    0.000    0.000    0.000 
#
# Total GULP energy -289498.290287 kJ/mol
# GULP energy per Si atom -5567.274813 kJ/mol
# Density = 2.120905 g / cm^3
# Si number density = 21.257434 Si / 1000 Ang^3
#
#
#
# Elastic Constant Matrix: (Units=GPa)
#
#
# Indices 1 2 3 4 5 6 
#
# 1 37.5619 0.3581 -3.7048 0.0000 0.0000 0.0000
# 2 0.3581 61.0172 -18.7362 0.0000 0.0000 0.0000
# 3 -3.7048 -18.7362 98.8974 0.0000 0.0000 0.0000
# 4 0.0000 0.0000 0.0000 13.4389 0.0000 0.0000
# 5 0.0000 0.0000 0.0000 0.0000 9.2077 0.0000
# 6 0.0000 0.0000 0.0000 0.0000 0.0000 104.3529
#
#
#
# Elastic Compliance Matrix: (Units=1/GPa)
#
#
# Indices 1 2 3 4 5 6 
#
# 1 0.026723 0.000160 0.001031 0.000000 0.000000 0.000000
# 2 0.000160 0.017402 0.003303 0.000000 0.000000 0.000000
# 3 0.001031 0.003303 0.010776 0.000000 0.000000 0.000000
# 4 0.000000 0.000000 0.000000 0.074411 0.000000 0.000000
# 5 0.000000 0.000000 0.000000 0.000000 0.108604 0.000000
# 6 0.000000 0.000000 0.000000 0.000000 0.000000 0.009583
#
#
# Mechanical properties :
#
#
# Convention : Reuss Voigt Hill
#
# Bulk Modulus (GPa) = 15.65217 17.03452 16.34335
# Shear Modulus (GPa) = 19.24505 40.03719 29.64112
#
# Velocity S-wave (km/s) = 3.01214 4.34457 3.73820
# Velocity P-wave (km/s) = 4.41321 5.76177 5.13198
#
# Compressibility (1/GPa) = 0.06388890
#
# Stress axis : x y z
#
# Youngs Moduli (GPa) = 37.42108 57.46441 92.80008
#
# Poissons Ratio (x) = -0.00919 -0.09571
# Poissons Ratio (y) = -0.00598 -0.30650
# Poissons Ratio (z) = -0.03859 -0.18980
#
# Static dielectric constant tensor:
#      x y z
#    x 1.834970 0.000000 0.000000 
#    y 0.000000 1.833130 0.000000 
#    z 0.000000 0.000000 1.754440 
# 
# From -- ./inp_files/13208.got.cif
#   From: 2010.05.17/outbox.cif.g08.bks.cpg/sg58_7_cif.got.tgz:13208.got - 2010.06.03 14:20:14.
