data_PCOD9443170
_publ_section_title
;
Structure prediction by ZEFSAII (Michael W. Deem and Ramdas Pophale) SiO2 
 PCOD9443170
Probable space group: P N N M
;
_chemical_formula_sum "Si O2"
_cell_formula_units_Z 64
_cell_length_a 18.573206
_cell_length_b 20.588655
_cell_length_c 7.534499
_cell_angle_alpha 90.000000
_cell_angle_beta 90.000000
_cell_angle_gamma 90.000000
_cell_volume 2881.172305
_symmetry_space_group_name_H-M "P N N M"
_symmetry_group_IT_number 58
_symmetry_cell_setting 'orthorhombic'
loop_
_space_group_symop_operation_xyz
x,y,z
-x,-y,z
1/2+x,1/2-y,1/2-z
1/2-x,1/2+y,1/2-z
-x,-y,-z
x,y,-z
1/2-x,1/2+y,1/2+z
1/2+x,1/2-y,1/2+z
loop_
_atom_site_type_symbol
_atom_site_label
_atom_site_fract_x
_atom_site_fract_y
_atom_site_fract_z
Si Si1 0.359765 0.733473 0.714324
Si Si2 0.303087 0.473904 0.292589
Si Si3 0.460863 0.437686 0.202977
Si Si4 0.175625 0.375719 0.785128
Si Si5 0.479664 0.928006 0.714457
Si Si6 0.257900 0.616914 0.282668
Si Si7 0.023345 0.794563 0.709959
Si Si8 0.893662 0.327195 0.710179
O O1 0.358999 0.733335 0.500000
O O2 0.322489 0.800559 0.772545
O O3 0.317858 0.669127 0.773300
O O4 0.442761 0.732395 0.770329
O O5 0.320693 0.481655 0.500000
O O6 0.376154 0.451303 0.201479
O O7 0.241034 0.420405 0.274555
O O8 0.275701 0.543841 0.224983
O O9 0.500000 0.500000 0.286085
O O10 0.473877 0.367125 0.286332
O O11 0.489011 0.433472 0.000000
O O12 0.099222 0.405591 0.725371
O O13 0.176244 0.376183 0.000000
O O14 0.477859 0.929021 0.500000
O O15 0.541010 0.877375 0.767350
O O16 0.500000 0.000000 0.776945
O O17 0.256721 0.615699 0.500000
O O18 0.180162 0.642288 0.219956
O O19 0.039348 0.800330 0.500000
O O20 0.079503 0.741939 0.784176
O O21 0.882022 0.317959 0.500000
#
# Coordination Sequence:
#
# PCOD9443170 Si02
#       8
#     8   8   8   8   8   8   8   8
#     4  10  20  37  62  83 110 152 194 235 284 345
#     4  11  23  38  58  86 117 148 192 245 289 340
#     4  10  22  40  62  87 117 155 195 236 291 353
#     4  10  21  36  56  82 113 154 190 226 284 346
#     4  10  20  35  55  81 113 145 182 226 276 334
#     4   9  20  37  57  82 110 147 191 233 288 345
#     4  10  21  36  58  86 115 148 189 237 283 337
#     4  10  20  35  56  81 110 147 189 232 277 334
#
# _framework density 22.213180999999999
#
# number of rings (size 3 to 8) (size 9 to 14) (size 15 to 20)
#    0.000    2.000    1.250    1.875    1.750    2.000 
#    0.000    1.875    0.000    0.000    0.000    0.000 
#    0.000    0.000    0.000    0.000    0.000    0.000 
#
# Total GULP energy -357744.698047 kJ/mol
# GULP energy per Si atom -5589.760907 kJ/mol
# Density = 2.216262 g / cm^3
# Si number density = 22.213181 Si / 1000 Ang^3
#
#
#
# Elastic Constant Matrix: (Units=GPa)
#
#
# Indices 1 2 3 4 5 6 
#
# 1 65.8978 22.4652 -12.9883 0.0000 0.0000 0.0000
# 2 22.4652 172.5496 1.0603 0.0000 0.0000 0.0000
# 3 -12.9883 1.0603 56.6434 0.0000 0.0000 0.0000
# 4 0.0000 0.0000 0.0000 -4.7880 0.0000 0.0000
# 5 0.0000 0.0000 0.0000 0.0000-1494.2357 0.0000
# 6 0.0000 0.0000 0.0000 0.0000 0.0000 43.3870
#
#
#
# Elastic Compliance Matrix: (Units=1/GPa)
#
#
# Indices 1 2 3 4 5 6 
#
# 1 0.016686 -0.002196 0.003867 0.000000 0.000000 0.000000
# 2 -0.002196 0.006085 -0.000617 0.000000 0.000000 0.000000
# 3 0.003867 -0.000617 0.018553 0.000000 0.000000 0.000000
# 4 0.000000 0.000000 0.000000 -0.208853 0.000000 0.000000
# 5 0.000000 0.000000 0.000000 0.000000 -0.000669 0.000000
# 6 0.000000 0.000000 0.000000 0.000000 0.000000 0.023048
#
#
# Mechanical properties :
#
#
# Convention : Reuss Voigt Hill
#
# Bulk Modulus (GPa) = 23.02520 35.12947 29.07734
# Shear Modulus (GPa) = -37.65611 -272.15711 -154.90661
#
# Velocity S-wave (km/s) = -4.12176 -11.08091 -8.35989
# Velocity P-wave (km/s) = 3.50198 12.16003 8.94791
#
# Compressibility (1/GPa) = 0.04343067
#
# Stress axis : x y z
#
# Youngs Moduli (GPa) = 59.93076 164.33409 53.90079
#
# Poissons Ratio (x) = 0.36091 -0.20844
# Poissons Ratio (y) = 0.13162 0.03328
# Poissons Ratio (z) = -0.23176 0.10147
#
# Static dielectric constant tensor:
#      x y z
#    x 1.748020 0.000000 0.000000 
#    y 0.000000 1.800270 0.000000 
#    z 0.000000 0.000000 1.892290 
# 
# From -- ./inp_files/8254.got.cif
#   From: 2010.05.17/outbox.cif.g08.bks.cpg/sg58_5_cif.got.tgz:8254.got - 2010.06.03 14:20:14.
