data_PCOD9443799
_publ_section_title
;
Structure prediction by ZEFSAII (Michael W. Deem and Ramdas Pophale) SiO2 
 PCOD9443799
Probable space group: P N N M
;
_chemical_formula_sum "Si O2"
_cell_formula_units_Z 64
_cell_length_a 14.256109
_cell_length_b 25.108594
_cell_length_c 7.637612
_cell_angle_alpha 90.000000
_cell_angle_beta 90.000000
_cell_angle_gamma 90.000000
_cell_volume 2733.889730
_symmetry_space_group_name_H-M "P N N M"
_symmetry_group_IT_number 58
_symmetry_cell_setting 'orthorhombic'
loop_
_space_group_symop_operation_xyz
x,y,z
-x,-y,z
1/2+x,1/2-y,1/2-z
1/2-x,1/2+y,1/2-z
-x,-y,-z
x,y,-z
1/2-x,1/2+y,1/2+z
1/2+x,1/2-y,1/2+z
loop_
_atom_site_type_symbol
_atom_site_label
_atom_site_fract_x
_atom_site_fract_y
_atom_site_fract_z
Si Si1 0.107666 0.505704 0.285383
Si Si2 0.068585 0.044957 0.297823
Si Si3 0.075933 0.867191 0.211766
Si Si4 0.201641 0.204547 0.802302
Si Si5 0.755011 0.408154 0.299138
Si Si6 0.081196 0.303742 0.701118
Si Si7 0.104396 0.746941 0.200992
Si Si8 0.284767 0.899003 0.213765
O O1 0.109439 0.506930 0.500000
O O2 0.157262 0.560003 0.223492
O O3 0.168866 0.454560 0.231875
O O4 0.000000 0.500000 0.231607
O O5 0.088611 0.031732 0.500000
O O6 0.167017 0.051922 0.203273
O O7 0.008924 0.098911 0.286470
O O8 0.000000 0.000000 0.222897
O O9 0.071408 0.805231 0.260457
O O10 0.177239 0.890149 0.268410
O O11 0.070148 0.870789 0.000000
O O12 0.217295 0.146598 0.717751
O O13 0.137256 0.248137 0.711205
O O14 0.305940 0.228397 0.806757
O O15 0.162595 0.197960 0.000000
O O16 0.778809 0.394090 0.500000
O O17 0.060933 0.317190 0.500000
O O18 0.149023 0.349988 0.772068
O O19 0.981566 0.293802 0.789993
O O20 0.136336 0.752728 0.000000
O O21 0.283548 0.897607 0.000000
#
# Coordination Sequence:
#
# PCOD9443799 Si02
#       8
#     8   8   8   8   8   8   8   8
#     4   9  18  33  58  88 115 145 193 250 292 335
#     4  11  24  39  58  88 122 157 194 241 305 366
#     4  10  20  38  61  85 115 153 200 247 290 353
#     4  11  23  39  60  90 124 159 200 248 303 366
#     4  10  22  39  61  89 117 155 204 250 298 353
#     4  11  22  38  60  88 122 160 198 246 304 361
#     4  11  23  39  59  87 119 157 204 250 299 361
#     4   9  18  34  57  84 115 151 191 240 295 346
#
# _framework density 23.409867999999999
#
# number of rings (size 3 to 8) (size 9 to 14) (size 15 to 20)
#    0.000    1.750    1.250    3.000    1.750    7.000 
#    0.000    0.000    0.000    1.125    0.000    0.000 
#    0.000    0.000    0.000    0.000    0.000    0.000 
#
# Total GULP energy -357972.182482 kJ/mol
# GULP energy per Si atom -5593.315351 kJ/mol
# Density = 2.335659 g / cm^3
# Si number density = 23.409868 Si / 1000 Ang^3
#
#
#
# Elastic Constant Matrix: (Units=GPa)
#
#
# Indices 1 2 3 4 5 6 
#
# 1 73.7659 -8.3494 -7.1052 0.0000 0.0000 0.0000
# 2 -8.3494 69.6529 -4.1518 0.0000 0.0000 0.0000
# 3 -7.1052 -4.1518 50.9970 0.0000 0.0000 0.0000
# 4 0.0000 0.0000 0.0000 16.9801 0.0000 0.0000
# 5 0.0000 0.0000 0.0000 0.0000 29.8003 0.0000
# 6 0.0000 0.0000 0.0000 0.0000 0.0000 37.9700
#
#
#
# Elastic Compliance Matrix: (Units=1/GPa)
#
#
# Indices 1 2 3 4 5 6 
#
# 1 0.013961 0.001798 0.002092 0.000000 0.000000 0.000000
# 2 0.001798 0.014659 0.001444 0.000000 0.000000 0.000000
# 3 0.002092 0.001444 0.020018 0.000000 0.000000 0.000000
# 4 0.000000 0.000000 0.000000 0.058892 0.000000 0.000000
# 5 0.000000 0.000000 0.000000 0.000000 0.033557 0.000000
# 6 0.000000 0.000000 0.000000 0.000000 0.000000 0.026337
#
#
# Mechanical properties :
#
#
# Convention : Reuss Voigt Hill
#
# Bulk Modulus (GPa) = 16.86186 17.24477 17.05332
# Shear Modulus (GPa) = 28.32465 31.21822 29.77143
#
# Velocity S-wave (km/s) = 3.48220 3.65574 3.57003
# Velocity P-wave (km/s) = 4.83592 5.02013 4.92889
#
# Compressibility (1/GPa) = 0.05930544
#
# Stress axis : x y z
#
# Youngs Moduli (GPa) = 71.62605 68.21963 49.95514
#
# Poissons Ratio (x) = -0.12268 -0.10449
# Poissons Ratio (y) = -0.12880 -0.07213
# Poissons Ratio (z) = -0.14981 -0.09850
#
# Static dielectric constant tensor:
#      x y z
#    x 1.826310 0.000000 0.000000 
#    y 0.000000 1.924300 0.000000 
#    z 0.000000 0.000000 1.873770 
# 
# From -- ./inp_files/6802.got.cif
#   From: 2010.05.17/outbox.cif.g08.bks.cpg/sg58_4_cif.got.tgz:6802.got - 2010.06.03 14:20:14.
