data_PCOD9443474
_publ_section_title
;
Structure prediction by ZEFSAII (Michael W. Deem and Ramdas Pophale) SiO2 
 PCOD9443474
Probable space group: P N N M
;
_chemical_formula_sum "Si O2"
_cell_formula_units_Z 58
_cell_length_a 10.327436
_cell_length_b 35.372932
_cell_length_c 7.789090
_cell_angle_alpha 90.000000
_cell_angle_beta 90.000000
_cell_angle_gamma 90.000000
_cell_volume 2845.445642
_symmetry_space_group_name_H-M "P N N M"
_symmetry_group_IT_number 58
_symmetry_cell_setting 'orthorhombic'
loop_
_space_group_symop_operation_xyz
x,y,z
-x,-y,z
1/2+x,1/2-y,1/2-z
1/2-x,1/2+y,1/2-z
-x,-y,-z
x,y,-z
1/2-x,1/2+y,1/2+z
1/2+x,1/2-y,1/2+z
loop_
_atom_site_type_symbol
_atom_site_label
_atom_site_fract_x
_atom_site_fract_y
_atom_site_fract_z
Si Si1 0.938801 0.942254 0.793187
Si Si2 0.208240 0.984882 0.792035
Si Si3 0.671240 0.279743 0.706669
Si Si4 0.837171 0.863846 0.209180
Si Si5 0.472984 0.216397 0.705021
Si Si6 0.970033 0.551172 0.814698
Si Si7 0.536257 0.868989 0.202793
Si Si8 0.000000 0.500000 0.500000
O O1 0.917413 0.899939 0.728557
O O2 0.080185 0.959639 0.765464
O O3 0.833779 0.973253 0.735288
O O4 0.923528 0.941485 0.000000
O O5 0.326018 0.965587 0.697707
O O6 0.242979 0.984761 0.000000
O O7 0.660236 0.280125 0.500000
O O8 0.629909 0.321602 0.769568
O O9 0.576463 0.246960 0.772241
O O10 0.824090 0.274968 0.744165
O O11 0.687316 0.870723 0.254209
O O12 0.844973 0.863088 0.000000
O O13 0.477094 0.217160 0.500000
O O14 0.506882 0.173751 0.760656
O O15 0.036405 0.531213 0.652459
O O16 0.965779 0.596192 0.791054
O O17 0.028939 0.542600 0.000000
O O18 0.027733 0.624922 0.500000
#
# Coordination Sequence:
#
# PCOD9443474 Si02
#       8
#     8   8   8   8   8   8   8   2
#     4   8  15  28  54  81 108 155 200 242 297 355
#     4   9  17  33  54  80 116 154 197 245 298 350
#     4   9  19  36  56  83 116 154 197 254 312 371
#     4   8  15  29  54  81 110 147 197 241 294 360
#     4  10  20  36  59  86 120 157 204 256 309 376
#     4  12  25  40  61  89 120 157 203 249 301 361
#     4  10  20  37  60  85 118 160 193 245 306 360
#     4  12  26  44  60  84 124 156 198 252 294 350
#
# _framework density 20.383448999999999
#
# number of rings (size 3 to 8) (size 9 to 14) (size 15 to 20)
#    0.000    2.483    1.379    2.690    1.931    1.103 
#    2.483    1.379    0.000    4.138    0.000    0.000 
#    0.000    0.000    0.000    0.000    0.000    0.000 
#
# Total GULP energy -323216.137273 kJ/mol
# GULP energy per Si atom -5572.692022 kJ/mol
# Density = 2.033706 g / cm^3
# Si number density = 20.383449 Si / 1000 Ang^3
#
#
#
# Elastic Constant Matrix: (Units=GPa)
#
#
# Indices 1 2 3 4 5 6 
#
# 1 56.7356 72.7447 21.8162 0.0000 0.0000 0.0000
# 2 72.7447 193.1295 30.7658 0.0000 0.0000 0.0000
# 3 21.8162 30.7658 76.4217 0.0000 0.0000 0.0000
# 4 0.0000 0.0000 0.0000 17.7661 0.0000 0.0000
# 5 0.0000 0.0000 0.0000 0.0000 14.4530 0.0000
# 6 0.0000 0.0000 0.0000 0.0000 0.0000 33.7034
#
#
#
# Elastic Compliance Matrix: (Units=1/GPa)
#
#
# Indices 1 2 3 4 5 6 
#
# 1 0.035877 -0.012696 -0.005131 0.000000 0.000000 0.000000
# 2 -0.012696 0.010026 -0.000412 0.000000 0.000000 0.000000
# 3 -0.005131 -0.000412 0.014716 0.000000 0.000000 0.000000
# 4 0.000000 0.000000 0.000000 0.056287 0.000000 0.000000
# 5 0.000000 0.000000 0.000000 0.000000 0.069190 0.000000
# 6 0.000000 0.000000 0.000000 0.000000 0.000000 0.029671
#
#
# Mechanical properties :
#
#
# Convention : Reuss Voigt Hill
#
# Bulk Modulus (GPa) = 41.42276 64.10448 52.76362
# Shear Modulus (GPa) = 19.20929 26.58183 22.89556
#
# Velocity S-wave (km/s) = 3.07318 3.61514 3.35512
# Velocity P-wave (km/s) = 5.74094 6.99594 6.39928
#
# Compressibility (1/GPa) = 0.02414132
#
# Stress axis : x y z
#
# Youngs Moduli (GPa) = 27.87275 99.74377 67.95471
#
# Poissons Ratio (x) = 1.26638 0.34865
# Poissons Ratio (y) = 0.35388 0.02798
# Poissons Ratio (z) = 0.14301 0.04106
#
# Static dielectric constant tensor:
#      x y z
#    x 1.626100 0.000000 0.000000 
#    y 0.000000 1.765220 0.000000 
#    z 0.000000 0.000000 1.758340 
# 
# From -- ./inp_files/4618.got.cif
#   From: 2010.05.17/outbox.cif.g08.bks.cpg/sg58_3_cif.got.tgz:4618.got - 2010.06.03 14:20:14.
