data_PCOD9443242
_publ_section_title
;
Structure prediction by ZEFSAII (Michael W. Deem and Ramdas Pophale) SiO2 
 PCOD9443242
Probable space group: P N N M
;
_chemical_formula_sum "Si O2"
_cell_formula_units_Z 48
_cell_length_a 31.622219
_cell_length_b 9.515270
_cell_length_c 8.801393
_cell_angle_alpha 90.000000
_cell_angle_beta 90.000000
_cell_angle_gamma 90.000000
_cell_volume 2648.285921
_symmetry_space_group_name_H-M "P N N M"
_symmetry_group_IT_number 58
_symmetry_cell_setting 'orthorhombic'
loop_
_space_group_symop_operation_xyz
x,y,z
-x,-y,z
1/2+x,1/2-y,1/2-z
1/2-x,1/2+y,1/2-z
-x,-y,-z
x,y,-z
1/2-x,1/2+y,1/2+z
1/2+x,1/2-y,1/2+z
loop_
_atom_site_type_symbol
_atom_site_label
_atom_site_fract_x
_atom_site_fract_y
_atom_site_fract_z
Si Si1 0.542175 0.585877 0.816232
Si Si2 0.208029 0.077134 0.678466
Si Si3 0.881547 0.908429 0.819487
Si Si4 0.040590 0.589579 0.685086
Si Si5 0.879952 0.597245 0.683895
Si Si6 0.784664 0.590162 0.320092
O O1 0.500000 0.500000 0.774362
O O2 0.582797 0.509891 0.747274
O O3 0.538947 0.748319 0.767098
O O4 0.545550 0.582906 0.000000
O O5 0.199783 0.057254 0.500000
O O6 0.165189 0.043112 0.768412
O O7 0.217596 0.242154 0.703013
O O8 0.247954 0.987773 0.731189
O O9 0.887548 0.751611 0.751853
O O10 0.884178 0.903094 0.000000
O O11 0.039811 0.589860 0.500000
O O12 0.083569 0.510475 0.730556
O O13 0.000000 0.500000 0.736087
O O14 0.880653 0.611082 0.500000
O O15 0.832531 0.549061 0.725798
O O16 0.779835 0.561810 0.500000
#
# Coordination Sequence:
#
# PCOD9443242 Si02
#       6
#     8   8   8   8   8   8
#     4  10  20  35  57  83 111 144 181 221 268 323
#     4  10  21  37  57  80 108 143 182 222 269 325
#     4  11  22  36  55  79 109 143 181 224 270 320
#     4   9  17  31  55  84 108 136 178 223 264 312
#     4   9  18  35  56  78 107 141 180 224 270 321
#     4   9  19  34  52  78 109 140 178 225 273 320
#
# _framework density 18.124931
#
# number of rings (size 3 to 8) (size 9 to 14) (size 15 to 20)
#    0.000    2.333    0.000    4.000    0.000    7.667 
#    0.000    2.500    0.000    2.000    0.000    0.000 
#    0.000    0.000    0.000    0.000    0.000    0.000 
#
# Total GULP energy -267944.123490 kJ/mol
# GULP energy per Si atom -5582.169239 kJ/mol
# Density = 1.808368 g / cm^3
# Si number density = 18.124931 Si / 1000 Ang^3
#
#
#
# Elastic Constant Matrix: (Units=GPa)
#
#
# Indices 1 2 3 4 5 6 
#
# 1 161.3156 98.6150 45.5748 0.0000 0.0000 0.0000
# 2 98.6150 110.3627 36.6836 0.0000 0.0000 0.0000
# 3 45.5748 36.6836 32.6706 0.0000 0.0000 0.0000
# 4 0.0000 0.0000 0.0000 19.5577 0.0000 0.0000
# 5 0.0000 0.0000 0.0000 0.0000 27.4403 0.0000
# 6 0.0000 0.0000 0.0000 0.0000 0.0000 37.0327
#
#
#
# Elastic Compliance Matrix: (Units=1/GPa)
#
#
# Indices 1 2 3 4 5 6 
#
# 1 0.015337 -0.010519 -0.009584 0.000000 0.000000 0.000000
# 2 -0.010519 0.021671 -0.009659 0.000000 0.000000 0.000000
# 3 -0.009584 -0.009659 0.054824 0.000000 0.000000 0.000000
# 4 0.000000 0.000000 0.000000 0.051131 0.000000 0.000000
# 5 0.000000 0.000000 0.000000 0.000000 0.036443 0.000000
# 6 0.000000 0.000000 0.000000 0.000000 0.000000 0.027003
#
#
# Mechanical properties :
#
#
# Convention : Reuss Voigt Hill
#
# Bulk Modulus (GPa) = 30.95250 74.01065 52.48158
# Shear Modulus (GPa) = 18.07004 25.03783 21.55393
#
# Velocity S-wave (km/s) = 3.16091 3.72075 3.45220
# Velocity P-wave (km/s) = 5.51690 7.70590 6.70139
#
# Compressibility (1/GPa) = 0.03230757
#
# Stress axis : x y z
#
# Youngs Moduli (GPa) = 65.20172 46.14499 18.24034
#
# Poissons Ratio (x) = 0.48539 0.17481
# Poissons Ratio (y) = 0.68585 0.17619
# Poissons Ratio (z) = 0.62489 0.44572
#
# Static dielectric constant tensor:
#      x y z
#    x 1.607500 0.000000 0.000000 
#    y 0.000000 1.596750 0.000000 
#    z 0.000000 0.000000 1.611030 
# 
# From -- ./inp_files/2951.got.cif
#   From: 2010.05.17/outbox.cif.g08.bks.cpg/sg58_2_cif.got.tgz:2951.got - 2010.06.03 14:20:14.
