data_PCOD9443122
_publ_section_title
;
Structure prediction by ZEFSAII (Michael W. Deem and Ramdas Pophale) SiO2 
 PCOD9443122
Probable space group: P N N M
;
_chemical_formula_sum "Si O2"
_cell_formula_units_Z 64
_cell_length_a 23.788465
_cell_length_b 19.424242
_cell_length_c 8.891531
_cell_angle_alpha 90.000000
_cell_angle_beta 90.000000
_cell_angle_gamma 90.000000
_cell_volume 4108.535523
_symmetry_space_group_name_H-M "P N N M"
_symmetry_group_IT_number 58
_symmetry_cell_setting 'orthorhombic'
loop_
_space_group_symop_operation_xyz
x,y,z
-x,-y,z
1/2+x,1/2-y,1/2-z
1/2-x,1/2+y,1/2-z
-x,-y,-z
x,y,-z
1/2-x,1/2+y,1/2+z
1/2+x,1/2-y,1/2+z
loop_
_atom_site_type_symbol
_atom_site_label
_atom_site_fract_x
_atom_site_fract_y
_atom_site_fract_z
Si Si1 0.334480 0.268021 0.320384
Si Si2 0.773760 0.637668 0.321135
Si Si3 0.231626 0.648087 0.321143
Si Si4 0.616759 0.496433 0.820196
Si Si5 0.661879 0.273497 0.819881
Si Si6 0.749920 0.495338 0.178761
Si Si7 0.934547 0.858198 0.820010
Si Si8 0.565257 0.633980 0.319334
O O1 0.332443 0.254717 0.500000
O O2 0.285545 0.324148 0.288321
O O3 0.317445 0.199178 0.233894
O O4 0.393523 0.302863 0.280961
O O5 0.775133 0.623975 0.500000
O O6 0.820814 0.694900 0.285438
O O7 0.776632 0.566850 0.232426
O O8 0.236569 0.649238 0.500000
O O9 0.288770 0.678820 0.248258
O O10 0.224951 0.570923 0.261285
O O11 0.683196 0.498446 0.784093
O O12 0.588868 0.430349 0.742929
O O13 0.587427 0.565527 0.761309
O O14 0.610935 0.490894 0.000000
O O15 0.603471 0.298821 0.752467
O O16 0.662547 0.281985 0.000000
O O17 0.755139 0.487067 0.000000
O O18 0.000390 0.852405 0.782862
O O19 0.928359 0.857084 0.000000
O O20 0.569732 0.623247 0.500000
#
# Coordination Sequence:
#
# PCOD9443122 Si02
#       8
#     8   8   8   8   8   8   8   8
#     4   9  18  34  52  70  98 131 163 205 251 294
#     4   9  18  32  52  72  95 128 165 203 250 300
#     4  11  21  32  51  74  99 129 165 206 248 298
#     4  11  22  33  47  70 102 138 175 210 244 289
#     4  10  20  35  51  71  99 131 165 206 253 297
#     4  11  21  32  49  74 103 133 166 203 248 299
#     4  11  22  34  51  73  98 135 177 211 244 291
#     4  10  21  36  52  71  99 136 175 210 248 292
#
# _framework density 15.577327
#
# number of rings (size 3 to 8) (size 9 to 14) (size 15 to 20)
#    0.000    1.750    2.500    3.750    0.000    6.500 
#    0.000    0.000    0.000    0.000    0.000    0.875 
#    0.000    7.000    0.000    0.000    0.000    0.000 
#
# Total GULP energy -357348.785910 kJ/mol
# GULP energy per Si atom -5583.574780 kJ/mol
# Density = 1.554187 g / cm^3
# Si number density = 15.577327 Si / 1000 Ang^3
#
#
#
# Elastic Constant Matrix: (Units=GPa)
#
#
# Indices 1 2 3 4 5 6 
#
# 1 86.9060 64.2928 44.6710 0.0000 0.0000 0.0000
# 2 64.2928 127.4679 62.9478 0.0000 0.0000 0.0000
# 3 44.6710 62.9478 60.5041 0.0000 0.0000 0.0000
# 4 0.0000 0.0000 0.0000 28.4899 0.0000 0.0000
# 5 0.0000 0.0000 0.0000 0.0000 28.4128 0.0000
# 6 0.0000 0.0000 0.0000 0.0000 0.0000 18.3009
#
#
#
# Elastic Compliance Matrix: (Units=1/GPa)
#
#
# Indices 1 2 3 4 5 6 
#
# 1 0.020491 -0.005891 -0.009000 0.000000 0.000000 0.000000
# 2 -0.005891 0.017828 -0.014199 0.000000 0.000000 0.000000
# 3 -0.009000 -0.014199 0.037945 0.000000 0.000000 0.000000
# 4 0.000000 0.000000 0.000000 0.035100 0.000000 0.000000
# 5 0.000000 0.000000 0.000000 0.000000 0.035195 0.000000
# 6 0.000000 0.000000 0.000000 0.000000 0.000000 0.054642
#
#
# Mechanical properties :
#
#
# Convention : Reuss Voigt Hill
#
# Bulk Modulus (GPa) = 55.29563 68.74458 62.02010
# Shear Modulus (GPa) = 18.83876 21.90513 20.37194
#
# Velocity S-wave (km/s) = 3.48137 3.75403 3.62027
# Velocity P-wave (km/s) = 7.19267 7.93834 7.57469
#
# Compressibility (1/GPa) = 0.01808461
#
# Stress axis : x y z
#
# Youngs Moduli (GPa) = 48.80250 56.09051 26.35369
#
# Poissons Ratio (x) = 0.33041 0.23718
# Poissons Ratio (y) = 0.28748 0.37420
# Poissons Ratio (z) = 0.43922 0.79644
#
# Static dielectric constant tensor:
#      x y z
#    x 1.507360 0.000000 0.000000 
#    y 0.000000 1.505740 0.000000 
#    z 0.000000 0.000000 1.519030 
# 
# From -- ./inp_files/6917.got.cif
#   From: 2010.05.17/outbox.cif.g08.bks.cpg/sg58_4_cif.got.tgz:6917.got - 2010.06.03 14:20:14.
