data_PCOD9443572
_publ_section_title
;
Structure prediction by ZEFSAII (Michael W. Deem and Ramdas Pophale) SiO2 
 PCOD9443572
Probable space group: P N N M
;
_chemical_formula_sum "Si O2"
_cell_formula_units_Z 58
_cell_length_a 20.644527
_cell_length_b 17.604368
_cell_length_c 7.733689
_cell_angle_alpha 90.000000
_cell_angle_beta 90.000000
_cell_angle_gamma 90.000000
_cell_volume 2810.684372
_symmetry_space_group_name_H-M "P N N M"
_symmetry_group_IT_number 58
_symmetry_cell_setting 'orthorhombic'
loop_
_space_group_symop_operation_xyz
x,y,z
-x,-y,z
1/2+x,1/2-y,1/2-z
1/2-x,1/2+y,1/2-z
-x,-y,-z
x,y,-z
1/2-x,1/2+y,1/2+z
1/2+x,1/2-y,1/2+z
loop_
_atom_site_type_symbol
_atom_site_label
_atom_site_fract_x
_atom_site_fract_y
_atom_site_fract_z
Si Si1 0.280118 0.372971 0.300762
Si Si2 0.335268 0.971549 0.706719
Si Si3 0.548191 0.757792 0.204644
Si Si4 0.588822 0.177588 0.290152
Si Si5 0.000000 0.000000 0.500000
Si Si6 0.928898 0.093499 0.802681
Si Si7 0.829982 0.355737 0.292979
Si Si8 0.792406 0.772937 0.195608
O O1 0.276445 0.347934 0.500000
O O2 0.234487 0.445474 0.275663
O O3 0.353488 0.391897 0.261117
O O4 0.249925 0.304571 0.191682
O O5 0.333989 0.968640 0.500000
O O6 0.384319 0.904946 0.765994
O O7 0.348667 0.057429 0.759480
O O8 0.483724 0.806847 0.231892
O O9 0.539296 0.677007 0.294848
O O10 0.612661 0.800644 0.270654
O O11 0.556351 0.744118 0.000000
O O12 0.590960 0.179158 0.500000
O O13 0.639586 0.242941 0.227151
O O14 0.041469 0.956940 0.653458
O O15 0.933646 0.063624 0.000000
O O16 0.826374 0.345149 0.500000
O O17 0.758378 0.332825 0.224030
O O18 0.807164 0.798742 0.000000
#
# Coordination Sequence:
#
# PCOD9443572 Si02
#       8
#     8   8   8   8   2   8   8   8
#     4  10  20  36  63  89 117 157 206 255 314 384
#     4  10  22  38  59  87 125 165 208 263 332 381
#     4  11  22  39  65  92 124 171 215 265 323 387
#     4   9  20  38  58  84 121 168 210 266 326 388
#     4  12  26  44  68  90 136 162 218 266 320 372
#     4  11  24  43  67  96 128 175 218 263 323 390
#     4  10  21  37  60  89 122 159 213 272 318 382
#     4   9  18  36  61  85 116 158 205 258 317 377
#
# _framework density 20.635543999999999
#
# number of rings (size 3 to 8) (size 9 to 14) (size 15 to 20)
#    0.000    1.931    2.069    2.276    1.931    4.966 
#    2.483    2.759    0.000    0.000    0.000    0.000 
#    0.000    0.000    0.000    0.000    0.000    0.000 
#
# Total GULP energy -323155.539550 kJ/mol
# GULP energy per Si atom -5571.647234 kJ/mol
# Density = 2.058858 g / cm^3
# Si number density = 20.635544 Si / 1000 Ang^3
#
#
#
# Elastic Constant Matrix: (Units=GPa)
#
#
# Indices 1 2 3 4 5 6 
#
# 1 31.6292 60.9326 -3.2535 0.0000 0.0000 0.0000
# 2 60.9326 -177.3959 20.5259 0.0000 0.0000 0.0000
# 3 -3.2535 20.5259 52.7168 0.0000 0.0000 0.0000
# 4 0.0000 0.0000 0.0000 21.9131 0.0000 0.0000
# 5 0.0000 0.0000 0.0000 0.0000 17.2329 0.0000
# 6 0.0000 0.0000 0.0000 0.0000 0.0000 14.4506
#
#
#
# Elastic Compliance Matrix: (Units=1/GPa)
#
#
# Indices 1 2 3 4 5 6 
#
# 1 0.019122 0.006415 -0.001318 0.000000 0.000000 0.000000
# 2 0.006415 -0.003242 0.001658 0.000000 0.000000 0.000000
# 3 -0.001318 0.001658 0.018242 0.000000 0.000000 0.000000
# 4 0.000000 0.000000 0.000000 0.045635 0.000000 0.000000
# 5 0.000000 0.000000 0.000000 0.000000 0.058029 0.000000
# 6 0.000000 0.000000 0.000000 0.000000 0.000000 0.069202
#
#
# Mechanical properties :
#
#
# Convention : Reuss Voigt Hill
#
# Bulk Modulus (GPa) = 20.99347 7.04000 14.01674
# Shear Modulus (GPa) = 23.88304 -0.69769 11.59268
#
# Velocity S-wave (km/s) = 3.40571 -0.58209 2.37277
# Velocity P-wave (km/s) = 5.06564 1.72256 3.78338
#
# Compressibility (1/GPa) = 0.04763386
#
# Stress axis : x y z
#
# Youngs Moduli (GPa) = 52.29687 -308.48546 54.81749
#
# Poissons Ratio (x) = 1.97908 0.07224
# Poissons Ratio (y) = -0.33551 -0.09089
# Poissons Ratio (z) = 0.06892 0.51151
#
# Static dielectric constant tensor:
#      x y z
#    x 1.744450 0.000000 0.000000 
#    y 0.000000 1.737710 0.000000 
#    z 0.000000 0.000000 1.767130 
# 
# From -- ./inp_files/8029.got.cif
#   From: 2010.05.17/outbox.cif.g08.bks.cpg/sg58_5_cif.got.tgz:8029.got - 2010.06.03 14:20:14.
