data_PCOD9443741
_publ_section_title
;
Structure prediction by ZEFSAII (Michael W. Deem and Ramdas Pophale) SiO2 
 PCOD9443741
Probable space group: P N N M
;
_chemical_formula_sum "Si O2"
_cell_formula_units_Z 64
_cell_length_a 12.278623
_cell_length_b 19.982086
_cell_length_c 13.612245
_cell_angle_alpha 90.000000
_cell_angle_beta 90.000000
_cell_angle_gamma 90.000000
_cell_volume 3339.798352
_symmetry_space_group_name_H-M "P N N M"
_symmetry_group_IT_number 58
_symmetry_cell_setting 'orthorhombic'
loop_
_space_group_symop_operation_xyz
x,y,z
-x,-y,z
1/2+x,1/2-y,1/2-z
1/2-x,1/2+y,1/2-z
-x,-y,-z
x,y,-z
1/2-x,1/2+y,1/2+z
1/2+x,1/2-y,1/2+z
loop_
_atom_site_type_symbol
_atom_site_label
_atom_site_fract_x
_atom_site_fract_y
_atom_site_fract_z
Si Si1 0.316446 0.826420 0.891137
Si Si2 0.476193 0.077875 0.109067
Si Si3 0.865930 0.362447 0.200122
Si Si4 0.746587 0.622476 0.191568
Si Si5 0.930913 0.720494 0.885696
Si Si6 0.631861 0.306856 0.210109
Si Si7 0.369365 0.999256 0.387831
Si Si8 0.988662 0.078383 0.382810
O O1 0.410768 0.881981 0.891648
O O2 0.238754 0.848398 0.801841
O O3 0.375630 0.756895 0.862675
O O4 0.267262 0.821454 0.000000
O O5 0.406192 0.107242 0.197108
O O6 0.500000 0.000000 0.125100
O O7 0.426259 0.085621 0.000000
O O8 0.760619 0.318325 0.218455
O O9 0.833501 0.425297 0.132264
O O10 0.964925 0.322558 0.149920
O O11 0.823336 0.675032 0.133721
O O12 0.814062 0.553106 0.184905
O O13 0.630361 0.606806 0.144987
O O14 0.918503 0.783214 0.813199
O O15 0.940406 0.736415 0.000000
O O16 0.574510 0.372719 0.169113
O O17 0.343566 0.978933 0.500000
O O18 0.500000 0.000000 0.376768
O O19 0.003800 0.081601 0.500000
O O20 0.000000 0.000000 0.353841
#
# Coordination Sequence:
#
# PCOD9443741 Si02
#       8
#     8   8   8   8   8   8   8   8
#     4  10  21  38  61  90 126 165 210 260 317 378
#     4  10  20  37  63  94 128 165 204 257 321 378
#     4  12  22  39  62  91 127 161 208 267 313 377
#     4  11  21  39  63  93 128 162 208 259 318 379
#     4  11  24  41  63  94 126 163 209 264 324 369
#     4  11  26  41  61  92 127 169 215 262 316 383
#     4  11  20  33  59  93 126 157 197 261 325 371
#     4  11  25  45  67  92 127 170 214 259 317 390
#
# _framework density 19.162832999999999
#
# number of rings (size 3 to 8) (size 9 to 14) (size 15 to 20)
#    0.000    1.125    3.750    3.750    3.500    3.500 
#    0.000    0.000    0.000    3.000    0.000    0.000 
#    0.000    0.000    0.000    0.000    0.000    0.000 
#
# Total GULP energy -357624.848051 kJ/mol
# GULP energy per Si atom -5587.888251 kJ/mol
# Density = 1.911922 g / cm^3
# Si number density = 19.162833 Si / 1000 Ang^3
#
#
#
# Elastic Constant Matrix: (Units=GPa)
#
#
# Indices 1 2 3 4 5 6 
#
# 1 70.8752 33.3601 32.9340 0.0000 0.0000 0.0000
# 2 33.3601 113.2149 53.1533 0.0000 0.0000 0.0000
# 3 32.9340 53.1533 147.7507 0.0000 0.0000 0.0000
# 4 0.0000 0.0000 0.0000 54.9153 0.0000 0.0000
# 5 0.0000 0.0000 0.0000 0.0000 8.4895 0.0000
# 6 0.0000 0.0000 0.0000 0.0000 0.0000 21.7066
#
#
#
# Elastic Compliance Matrix: (Units=1/GPa)
#
#
# Indices 1 2 3 4 5 6 
#
# 1 0.017060 -0.003900 -0.002400 0.000000 0.000000 0.000000
# 2 -0.003900 0.011520 -0.003275 0.000000 0.000000 0.000000
# 3 -0.002400 -0.003275 0.008481 0.000000 0.000000 0.000000
# 4 0.000000 0.000000 0.000000 0.018210 0.000000 0.000000
# 5 0.000000 0.000000 0.000000 0.000000 0.117793 0.000000
# 6 0.000000 0.000000 0.000000 0.000000 0.000000 0.046069
#
#
# Mechanical properties :
#
#
# Convention : Reuss Voigt Hill
#
# Bulk Modulus (GPa) = 55.83043 63.41507 59.62275
# Shear Modulus (GPa) = 20.47065 31.18184 25.82625
#
# Velocity S-wave (km/s) = 3.27195 4.03824 3.67512
# Velocity P-wave (km/s) = 6.59335 7.40998 7.01356
#
# Compressibility (1/GPa) = 0.01791138
#
# Stress axis : x y z
#
# Youngs Moduli (GPa) = 58.61593 86.80926 117.90901
#
# Poissons Ratio (x) = 0.33859 0.28293
# Poissons Ratio (y) = 0.22863 0.38612
# Poissons Ratio (z) = 0.14065 0.28428
#
# Static dielectric constant tensor:
#      x y z
#    x 1.722230 0.000000 0.000000 
#    y 0.000000 1.686930 0.000000 
#    z 0.000000 0.000000 1.688230 
# 
# From -- ./inp_files/21491.got.cif
#   From: 2010.05.17/outbox.cif.g08.bks.cpg/sg58_11_cif.got.tgz:21491.got - 2010.06.03 14:20:14.
