data_PCOD9443506
_publ_section_title
;
Structure prediction by ZEFSAII (Michael W. Deem and Ramdas Pophale) SiO2 
 PCOD9443506
Probable space group: P N N M
;
_chemical_formula_sum "Si O2"
_cell_formula_units_Z 64
_cell_length_a 24.325452
_cell_length_b 14.257067
_cell_length_c 9.439833
_cell_angle_alpha 90.000000
_cell_angle_beta 90.000000
_cell_angle_gamma 90.000000
_cell_volume 3273.824697
_symmetry_space_group_name_H-M "P N N M"
_symmetry_group_IT_number 58
_symmetry_cell_setting 'orthorhombic'
loop_
_space_group_symop_operation_xyz
x,y,z
-x,-y,z
1/2+x,1/2-y,1/2-z
1/2-x,1/2+y,1/2-z
-x,-y,-z
x,y,-z
1/2-x,1/2+y,1/2+z
1/2+x,1/2-y,1/2+z
loop_
_atom_site_type_symbol
_atom_site_label
_atom_site_fract_x
_atom_site_fract_y
_atom_site_fract_z
Si Si1 0.214616 0.555860 0.338730
Si Si2 0.891450 0.453959 0.167824
Si Si3 0.668165 0.245874 0.164033
Si Si4 0.054646 0.712162 0.666137
Si Si5 0.659701 0.438884 0.668204
Si Si6 0.271798 0.281488 0.839189
Si Si7 0.615199 0.605096 0.166007
Si Si8 0.061418 0.384316 0.660713
O O1 0.199908 0.527745 0.500000
O O2 0.168812 0.522986 0.229852
O O3 0.277169 0.526648 0.308295
O O4 0.216382 0.669718 0.333613
O O5 0.909512 0.355426 0.235837
O O6 0.932841 0.531645 0.229369
O O7 0.891432 0.451078 0.000000
O O8 0.655876 0.339300 0.253897
O O9 0.722903 0.200022 0.229897
O O10 0.616032 0.178086 0.171377
O O11 0.678095 0.270506 0.000000
O O12 0.070526 0.698098 0.500000
O O13 0.067164 0.820529 0.697967
O O14 0.991883 0.680023 0.682299
O O15 0.652563 0.428147 0.500000
O O16 0.619221 0.514470 0.736322
O O17 0.328118 0.336485 0.814376
O O18 0.252992 0.302223 0.000000
O O19 0.611916 0.578311 0.000000
O O20 0.058211 0.423375 0.500000
#
# Coordination Sequence:
#
# PCOD9443506 Si02
#       8
#     8   8   8   8   8   8   8   8
#     4   9  18  36  56  78 113 154 192 225 271 339
#     4  12  24  35  55  88 121 151 187 235 290 342
#     4  10  21  38  59  85 114 148 194 242 285 337
#     4  10  21  42  64  82 112 154 196 238 282 336
#     4  10  22  38  58  84 118 156 190 234 290 344
#     4   9  18  34  56  83 114 149 184 230 289 340
#     4  10  20  36  60  87 114 148 193 240 286 339
#     4  10  23  41  62  83 109 153 201 238 281 339
#
# _framework density 19.549001000000001
#
# number of rings (size 3 to 8) (size 9 to 14) (size 15 to 20)
#    0.000    2.000    1.250    3.000    1.750    6.500 
#    0.000    0.625    0.000    3.750    0.000    0.000 
#    0.000    0.000    0.000    0.000    0.000    0.000 
#
# Total GULP energy -357629.957797 kJ/mol
# GULP energy per Si atom -5587.968091 kJ/mol
# Density = 1.950451 g / cm^3
# Si number density = 19.549001 Si / 1000 Ang^3
#
#
#
# Elastic Constant Matrix: (Units=GPa)
#
#
# Indices 1 2 3 4 5 6 
#
# 1 43.6511 -5.2608 32.1129 0.0000 0.0000 0.0000
# 2 -5.2608 30.6909 17.7102 0.0000 0.0000 0.0000
# 3 32.1129 17.7102 85.4097 0.0000 0.0000 0.0000
# 4 0.0000 0.0000 0.0000 -14.6173 0.0000 0.0000
# 5 0.0000 0.0000 0.0000 0.0000 4.3032 0.0000
# 6 0.0000 0.0000 0.0000 0.0000 0.0000 28.2476
#
#
#
# Elastic Compliance Matrix: (Units=1/GPa)
#
#
# Indices 1 2 3 4 5 6 
#
# 1 0.037996 0.016762 -0.017762 0.000000 0.000000 0.000000
# 2 0.016762 0.044407 -0.015510 0.000000 0.000000 0.000000
# 3 -0.017762 -0.015510 0.021603 0.000000 0.000000 0.000000
# 4 0.000000 0.000000 0.000000 -0.068412 0.000000 0.000000
# 5 0.000000 0.000000 0.000000 0.000000 0.232387 0.000000
# 6 0.000000 0.000000 0.000000 0.000000 0.000000 0.035401
#
#
# Mechanical properties :
#
#
# Convention : Reuss Voigt Hill
#
# Bulk Modulus (GPa) = 14.08737 27.65294 20.87015
# Shear Modulus (GPa) = 13.88649 11.26600 12.57624
#
# Velocity S-wave (km/s) = 2.66812 2.40322 2.53912
# Velocity P-wave (km/s) = 4.08823 4.67726 4.39263
#
# Compressibility (1/GPa) = 0.07098559
#
# Stress axis : x y z
#
# Youngs Moduli (GPa) = 26.31857 22.51921 46.29061
#
# Poissons Ratio (x) = -0.37748 0.82220
# Poissons Ratio (y) = -0.44116 0.71799
# Poissons Ratio (z) = 0.46746 0.34928
#
# Static dielectric constant tensor:
#      x y z
#    x 1.695150 0.000000 0.000000 
#    y 0.000000 1.693740 0.000000 
#    z 0.000000 0.000000 1.659490 
# 
# From -- ./inp_files/10016.got.cif
#   From: 2010.05.17/outbox.cif.g08.bks.cpg/sg58_6_cif.got.tgz:10016.got - 2010.06.03 14:20:14.
