data_PCOD9443056
_publ_section_title
;
Structure prediction by ZEFSAII (Michael W. Deem and Ramdas Pophale) SiO2 
 PCOD9443056
Probable space group: P N N M
;
_chemical_formula_sum "Si O2"
_cell_formula_units_Z 58
_cell_length_a 24.111291
_cell_length_b 12.511461
_cell_length_c 10.186630
_cell_angle_alpha 90.000000
_cell_angle_beta 90.000000
_cell_angle_gamma 90.000000
_cell_volume 3072.974971
_symmetry_space_group_name_H-M "P N N M"
_symmetry_group_IT_number 58
_symmetry_cell_setting 'orthorhombic'
loop_
_space_group_symop_operation_xyz
x,y,z
-x,-y,z
1/2+x,1/2-y,1/2-z
1/2-x,1/2+y,1/2-z
-x,-y,-z
x,y,-z
1/2-x,1/2+y,1/2+z
1/2+x,1/2-y,1/2+z
loop_
_atom_site_type_symbol
_atom_site_label
_atom_site_fract_x
_atom_site_fract_y
_atom_site_fract_z
Si Si1 0.370647 0.414616 0.156942
Si Si2 0.211993 0.727110 0.653796
Si Si3 0.337942 0.807094 0.349677
Si Si4 0.609155 0.352624 0.849165
Si Si5 0.660526 0.939389 0.347070
Si Si6 0.491114 0.341562 0.251312
Si Si7 0.000000 0.000000 0.000000
Si Si8 0.530332 0.892513 0.344354
O O1 0.325058 0.328517 0.199527
O O2 0.363686 0.536818 0.203099
O O3 0.431290 0.374625 0.196657
O O4 0.367504 0.420407 0.000000
O O5 0.198319 0.704911 0.500000
O O6 0.275966 0.760357 0.659321
O O7 0.197386 0.628425 0.747143
O O8 0.358328 0.791987 0.500000
O O9 0.374578 0.743540 0.245884
O O10 0.335980 0.933703 0.324925
O O11 0.543002 0.368689 0.840802
O O12 0.625733 0.333631 0.000000
O O13 0.675897 0.919313 0.500000
O O14 0.596446 0.905204 0.329207
O O15 0.499673 0.406984 0.385008
O O16 0.489742 0.214787 0.275759
O O17 0.518607 0.882887 0.500000
O O18 0.500000 0.000000 0.296983
#
# Coordination Sequence:
#
# PCOD9443056 Si02
#       8
#     8   8   8   8   8   8   2   8
#     4  10  21  39  62  86 119 160 201 250 304 365
#     4  10  22  41  63  89 117 156 200 252 306 361
#     4  10  24  42  64  89 122 158 202 255 310 359
#     4  11  24  39  62  91 123 163 206 249 305 369
#     4  10  21  40  63  90 119 158 203 250 301 364
#     4  12  21  37  58  89 129 160 204 248 310 361
#     4  12  24  32  56  96 132 168 198 270 300 378
#     4  10  20  34  56  85 118 160 202 242 294 358
#
# _framework density 18.874217000000002
#
# number of rings (size 3 to 8) (size 9 to 14) (size 15 to 20)
#    0.000    1.517    3.448    1.241    2.897    3.310 
#    0.000    0.000    0.000    2.069    0.000    0.000 
#    0.000    0.000    0.000    0.000    0.000    0.000 
#
# Total GULP energy -323382.188197 kJ/mol
# GULP energy per Si atom -5575.554969 kJ/mol
# Density = 1.883126 g / cm^3
# Si number density = 18.874217 Si / 1000 Ang^3
#
#
#
# Elastic Constant Matrix: (Units=GPa)
#
#
# Indices 1 2 3 4 5 6 
#
# 1 40.7789 9.0654 17.3661 0.0000 0.0000 0.0000
# 2 9.0654 122.6461 42.3149 0.0000 0.0000 0.0000
# 3 17.3661 42.3149 43.3042 0.0000 0.0000 0.0000
# 4 0.0000 0.0000 0.0000 32.8806 0.0000 0.0000
# 5 0.0000 0.0000 0.0000 0.0000 1.8259 0.0000
# 6 0.0000 0.0000 0.0000 0.0000 0.0000 22.4860
#
#
#
# Elastic Compliance Matrix: (Units=1/GPa)
#
#
# Indices 1 2 3 4 5 6 
#
# 1 0.030261 0.002942 -0.015010 0.000000 0.000000 0.000000
# 2 0.002942 0.012586 -0.013479 0.000000 0.000000 0.000000
# 3 -0.015010 -0.013479 0.042283 0.000000 0.000000 0.000000
# 4 0.000000 0.000000 0.000000 0.030413 0.000000 0.000000
# 5 0.000000 0.000000 0.000000 0.000000 0.547675 0.000000
# 6 0.000000 0.000000 0.000000 0.000000 0.000000 0.044472
#
#
# Mechanical properties :
#
#
# Convention : Reuss Voigt Hill
#
# Bulk Modulus (GPa) = 29.38056 38.24692 33.81374
# Shear Modulus (GPa) = 6.49242 20.63737 13.56489
#
# Velocity S-wave (km/s) = 1.85669 3.31027 2.68377
# Velocity P-wave (km/s) = 4.49407 5.90920 5.24954
#
# Compressibility (1/GPa) = 0.03403611
#
# Stress axis : x y z
#
# Youngs Moduli (GPa) = 33.04624 79.45050 23.65037
#
# Poissons Ratio (x) = -0.23374 0.35499
# Poissons Ratio (y) = -0.09722 0.31878
# Poissons Ratio (z) = 0.49603 1.07089
#
# Static dielectric constant tensor:
#      x y z
#    x 1.658580 0.000000 0.000000 
#    y 0.000000 1.656120 0.000000 
#    z 0.000000 0.000000 1.627160 
# 
# From -- ./inp_files/4420.got.cif
#   From: 2010.05.17/outbox.cif.g08.bks.cpg/sg58_3_cif.got.tgz:4420.got - 2010.06.03 14:20:14.
