data_PCOD9443967
_publ_section_title
;
Structure prediction by ZEFSAII (Michael W. Deem and Ramdas Pophale) SiO2 
 PCOD9443967
Probable space group: P N N M
;
_chemical_formula_sum "Si O2"
_cell_formula_units_Z 48
_cell_length_a 13.884446
_cell_length_b 5.648693
_cell_length_c 29.282358
_cell_angle_alpha 90.000000
_cell_angle_beta 90.000000
_cell_angle_gamma 90.000000
_cell_volume 2296.585263
_symmetry_space_group_name_H-M "P N N M"
_symmetry_group_IT_number 58
_symmetry_cell_setting 'orthorhombic'
loop_
_space_group_symop_operation_xyz
x,y,z
-x,-y,z
1/2+x,1/2-y,1/2-z
1/2-x,1/2+y,1/2-z
-x,-y,-z
x,y,-z
1/2-x,1/2+y,1/2+z
1/2+x,1/2-y,1/2+z
loop_
_atom_site_type_symbol
_atom_site_label
_atom_site_fract_x
_atom_site_fract_y
_atom_site_fract_z
Si Si1 0.500000 0.000000 0.418825
Si Si2 0.500000 0.500000 0.124321
Si Si3 0.082139 0.246060 0.000000
Si Si4 0.178055 0.270055 0.591431
Si Si5 0.356294 0.147647 0.844770
Si Si6 0.699085 0.749593 0.500000
Si Si7 0.822482 0.497636 0.150559
Si Si8 0.807320 0.538688 0.250662
O O1 0.518263 0.216381 0.454236
O O2 0.592337 0.003900 0.386056
O O3 0.412056 0.595716 0.094230
O O4 0.552095 0.684801 0.157081
O O5 0.148126 0.488336 0.000000
O O6 0.138062 0.997859 0.000000
O O7 0.135410 0.517977 0.606846
O O8 0.235457 0.259666 0.544994
O O9 0.254059 0.212940 0.632341
O O10 0.254799 0.287899 0.848435
O O11 0.358454 0.992447 0.799095
O O12 0.860495 0.491819 0.202395
O O13 0.765386 0.807797 0.249713
#
# Coordination Sequence:
#
# PCOD9443967 Si02
#       8
#     4   4   4   8   8   4   8   8
#     4  11  22  44  66 102 140 168 230 273 330 396
#     4  10  24  41  68  96 128 170 220 279 340 388
#     4  11  26  46  68  99 135 181 217 276 334 404
#     4  11  22  43  68  94 132 173 222 279 332 403
#     4  10  21  42  66  91 137 177 223 271 338 395
#     4  12  26  46  75  96 130 182 223 268 348 401
#     4  10  21  40  63  97 133 181 218 279 325 394
#     4  10  20  39  67  95 131 182 224 268 329 391
#
# _framework density 20.900597000000001
#
# number of rings (size 3 to 8) (size 9 to 14) (size 15 to 20)
#    0.000    1.500    3.333    1.500    2.333    1.667 
#    6.000    1.667    0.000    0.000    0.000    0.000 
#    0.000    0.000    0.000    0.000    0.000    0.000 
#
# Total GULP energy -267307.254145 kJ/mol
# GULP energy per Si atom -5568.901128 kJ/mol
# Density = 2.085303 g / cm^3
# Si number density = 20.900597 Si / 1000 Ang^3
#
#
#
# Elastic Constant Matrix: (Units=GPa)
#
#
# Indices 1 2 3 4 5 6 
#
# 1 86.7782 23.5758 41.1295 0.0000 0.0000 0.0000
# 2 23.5758 67.5184 8.3729 0.0000 0.0000 0.0000
# 3 41.1295 8.3729 134.8251 0.0000 0.0000 0.0000
# 4 0.0000 0.0000 0.0000 13.4778 0.0000 0.0000
# 5 0.0000 0.0000 0.0000 0.0000 28.7004 0.0000
# 6 0.0000 0.0000 0.0000 0.0000 0.0000 23.4997
#
#
#
# Elastic Compliance Matrix: (Units=1/GPa)
#
#
# Indices 1 2 3 4 5 6 
#
# 1 0.014785 -0.004639 -0.004222 0.000000 0.000000 0.000000
# 2 -0.004639 0.016381 0.000398 0.000000 0.000000 0.000000
# 3 -0.004222 0.000398 0.008680 0.000000 0.000000 0.000000
# 4 0.000000 0.000000 0.000000 0.074196 0.000000 0.000000
# 5 0.000000 0.000000 0.000000 0.000000 0.034843 0.000000
# 6 0.000000 0.000000 0.000000 0.000000 0.000000 0.042554
#
#
# Mechanical properties :
#
#
# Convention : Reuss Voigt Hill
#
# Bulk Modulus (GPa) = 43.63010 48.36424 45.99717
# Shear Modulus (GPa) = 23.14748 27.53849 25.34299
#
# Velocity S-wave (km/s) = 3.33153 3.63380 3.48594
# Velocity P-wave (km/s) = 5.97655 6.38721 6.18529
#
# Compressibility (1/GPa) = 0.02291996
#
# Stress axis : x y z
#
# Youngs Moduli (GPa) = 67.63549 61.04535 115.20291
#
# Poissons Ratio (x) = 0.28319 0.48641
# Poissons Ratio (y) = 0.31376 -0.04583
# Poissons Ratio (z) = 0.28557 -0.02429
#
# Static dielectric constant tensor:
#      x y z
#    x 1.803410 0.000000 0.000000 
#    y 0.000000 1.860260 0.000000 
#    z 0.000000 0.000000 1.727700 
# 
# From -- ./inp_files/33723.got.cif
#   From: 2010.05.17/outbox.cif.g08.bks.cpg/sg58_17_cif.got.tgz:33723.got - 2010.06.03 14:20:14.
