data_PCOD9443935
_publ_section_title
;
Structure prediction by ZEFSAII (Michael W. Deem and Ramdas Pophale) SiO2 
 PCOD9443935
Probable space group: P N N M
;
_chemical_formula_sum "Si O2"
_cell_formula_units_Z 32
_cell_length_a 9.516373
_cell_length_b 7.919386
_cell_length_c 18.666805
_cell_angle_alpha 90.000000
_cell_angle_beta 90.000000
_cell_angle_gamma 90.000000
_cell_volume 1406.801939
_symmetry_space_group_name_H-M "P N N M"
_symmetry_group_IT_number 58
_symmetry_cell_setting 'orthorhombic'
loop_
_space_group_symop_operation_xyz
x,y,z
-x,-y,z
1/2+x,1/2-y,1/2-z
1/2-x,1/2+y,1/2-z
-x,-y,-z
x,y,-z
1/2-x,1/2+y,1/2+z
1/2+x,1/2-y,1/2+z
loop_
_atom_site_type_symbol
_atom_site_label
_atom_site_fract_x
_atom_site_fract_y
_atom_site_fract_z
Si Si1 0.316428 0.332090 0.360084
Si Si2 0.343666 0.020469 0.248533
Si Si3 0.360437 0.735760 0.000000
Si Si4 0.589818 0.171401 0.613737
Si Si5 0.676733 0.670847 0.000000
O O1 0.268922 0.489771 0.312806
O O2 0.213912 0.301154 0.427438
O O3 0.473956 0.315767 0.388554
O O4 0.315030 0.180348 0.299990
O O5 0.354251 0.872599 0.307766
O O6 0.500000 0.000000 0.214877
O O7 0.528040 0.763761 0.000000
O O8 0.344554 0.531880 0.000000
O O9 0.723784 0.208321 0.566588
O O10 0.500000 0.000000 0.590856
#
# Coordination Sequence:
#
# PCOD9443935 Si02
#       5
#     8   8   4   8   4
#     4  10  20  39  62  88 121 165 203 252 313 371
#     4   9  20  37  58  90 123 158 202 255 311 366
#     4  11  21  32  60  91 121 155 209 260 299 364
#     4   9  17  33  54  79 118 152 195 252 303 354
#     4  11  18  31  54  92 122 147 212 266 289 351
#
# _framework density 22.746628000000001
#
# number of rings (size 3 to 8) (size 9 to 14) (size 15 to 20)
#    0.000    2.750    5.000    1.125    0.000    4.000 
#    0.000    0.625    0.000    3.000    0.000   10.500 
#    0.000    0.000    0.000    0.000    0.000    0.000 
#
# Total GULP energy -178556.524329 kJ/mol
# GULP energy per Si atom -5579.891385 kJ/mol
# Density = 2.269486 g / cm^3
# Si number density = 22.746628 Si / 1000 Ang^3
#
#
#
# Elastic Constant Matrix: (Units=GPa)
#
#
# Indices 1 2 3 4 5 6 
#
# 1 163.6865 20.3197 66.3303 0.0000 0.0000 0.0000
# 2 20.3197 76.5388 22.1827 0.0000 0.0000 0.0000
# 3 66.3303 22.1827 67.8083 0.0000 0.0000 0.0000
# 4 0.0000 0.0000 0.0000 37.6165 0.0000 0.0000
# 5 0.0000 0.0000 0.0000 0.0000 48.2645 0.0000
# 6 0.0000 0.0000 0.0000 0.0000 0.0000 14.9273
#
#
#
# Elastic Compliance Matrix: (Units=1/GPa)
#
#
# Indices 1 2 3 4 5 6 
#
# 1 0.010124 0.000202 -0.009969 0.000000 0.000000 0.000000
# 2 0.000202 0.014438 -0.004920 0.000000 0.000000 0.000000
# 3 -0.009969 -0.004920 0.026109 0.000000 0.000000 0.000000
# 4 0.000000 0.000000 0.000000 0.026584 0.000000 0.000000
# 5 0.000000 0.000000 0.000000 0.000000 0.020719 0.000000
# 6 0.000000 0.000000 0.000000 0.000000 0.000000 0.066991
#
#
# Mechanical properties :
#
#
# Convention : Reuss Voigt Hill
#
# Bulk Modulus (GPa) = 46.95987 58.41100 52.68544
# Shear Modulus (GPa) = 24.82127 33.44172 29.13150
#
# Velocity S-wave (km/s) = 3.30693 3.83846 3.58256
# Velocity P-wave (km/s) = 5.93890 6.73645 6.35021
#
# Compressibility (1/GPa) = 0.02129478
#
# Stress axis : x y z
#
# Youngs Moduli (GPa) = 98.77449 69.26267 38.30077
#
# Poissons Ratio (x) = -0.01396 0.38183
# Poissons Ratio (y) = -0.01991 0.18845
# Poissons Ratio (z) = 0.98472 0.34080
#
# Static dielectric constant tensor:
#      x y z
#    x 1.882600 0.000000 0.000000 
#    y 0.000000 1.948600 0.000000 
#    z 0.000000 0.000000 1.841160 
# 
# From -- ./inp_files/28493.got.cif
#   From: 2010.05.17/outbox.cif.g08.bks.cpg/sg58_15_cif.got.tgz:28493.got - 2010.06.03 14:20:14.
