data_PCOD9443998
_publ_section_title
;
Structure prediction by ZEFSAII (Michael W. Deem and Ramdas Pophale) SiO2 
 PCOD9443998
Probable space group: P N N M
;
_chemical_formula_sum "Si O2"
_cell_formula_units_Z 58
_cell_length_a 16.425567
_cell_length_b 19.861434
_cell_length_c 7.573498
_cell_angle_alpha 90.000000
_cell_angle_beta 90.000000
_cell_angle_gamma 90.000000
_cell_volume 2470.742505
_symmetry_space_group_name_H-M "P N N M"
_symmetry_group_IT_number 58
_symmetry_cell_setting 'orthorhombic'
loop_
_space_group_symop_operation_xyz
x,y,z
-x,-y,z
1/2+x,1/2-y,1/2-z
1/2-x,1/2+y,1/2-z
-x,-y,-z
x,y,-z
1/2-x,1/2+y,1/2+z
1/2+x,1/2-y,1/2+z
loop_
_atom_site_type_symbol
_atom_site_label
_atom_site_fract_x
_atom_site_fract_y
_atom_site_fract_z
Si Si1 0.148019 0.420329 0.794818
Si Si2 0.785272 0.725365 0.711647
Si Si3 0.977967 0.372070 0.794738
Si Si4 0.896757 0.239903 0.786393
Si Si5 0.500000 0.500000 0.000000
Si Si6 0.690272 0.937013 0.202943
Si Si7 0.149160 0.134748 0.791327
Si Si8 0.970712 0.094323 0.212115
O O1 0.190611 0.348050 0.778082
O O2 0.194812 0.482371 0.708262
O O3 0.056721 0.409453 0.718698
O O4 0.142490 0.439397 0.000000
O O5 0.783685 0.721912 0.500000
O O6 0.695738 0.747103 0.776280
O O7 0.845185 0.785200 0.765789
O O8 0.955300 0.298873 0.717858
O O9 0.895028 0.414480 0.787066
O O10 0.000047 0.361326 0.000000
O O11 0.925452 0.164435 0.753885
O O12 0.895388 0.248008 0.000000
O O13 0.556012 0.535843 0.841930
O O14 0.769801 0.900825 0.282135
O O15 0.684397 0.914817 0.000000
O O16 0.063601 0.107898 0.723522
O O17 0.147134 0.120761 0.000000
O O18 0.966424 0.080299 0.000000
#
# Coordination Sequence:
#
# PCOD9443998 Si02
#       8
#     8   8   8   8   2   8   8   8
#     4  11  24  40  60  89 127 171 210 251 316 389
#     4  11  22  38  65  96 127 159 211 272 324 385
#     4  10  20  40  65  89 122 168 213 252 313 392
#     4   9  19  39  66  92 122 168 210 265 334 383
#     4  12  26  44  64 106 124 172 238 276 336 410
#     4  11  23  39  61  94 130 165 211 262 321 380
#     4  10  22  42  66  91 124 173 213 258 333 398
#     4  10  23  46  69  93 137 177 221 284 332 394
#
# _framework density 23.474726
#
# number of rings (size 3 to 8) (size 9 to 14) (size 15 to 20)
#    0.000    1.655    1.379    2.690    0.966    6.621 
#    6.207    4.138    0.000    0.000    0.000    0.000 
#    0.000    0.000    0.000    0.000    0.000    0.000 
#
# Total GULP energy -323741.713137 kJ/mol
# GULP energy per Si atom -5581.753675 kJ/mol
# Density = 2.342130 g / cm^3
# Si number density = 23.474726 Si / 1000 Ang^3
#
#
#
# Elastic Constant Matrix: (Units=GPa)
#
#
# Indices 1 2 3 4 5 6 
#
# 1 48.1556 -4.0893 -3.1164 0.0000 0.0000 0.0000
# 2 -4.0893 84.5853 -21.8289 0.0000 0.0000 0.0000
# 3 -3.1164 -21.8289 67.0707 0.0000 0.0000 0.0000
# 4 0.0000 0.0000 0.0000 25.7360 0.0000 0.0000
# 5 0.0000 0.0000 0.0000 0.0000 11.9571 0.0000
# 6 0.0000 0.0000 0.0000 0.0000 0.0000 17.0799
#
#
#
# Elastic Compliance Matrix: (Units=1/GPa)
#
#
# Indices 1 2 3 4 5 6 
#
# 1 0.020976 0.001382 0.001424 0.000000 0.000000 0.000000
# 2 0.001382 0.012997 0.004294 0.000000 0.000000 0.000000
# 3 0.001424 0.004294 0.016373 0.000000 0.000000 0.000000
# 4 0.000000 0.000000 0.000000 0.038856 0.000000 0.000000
# 5 0.000000 0.000000 0.000000 0.000000 0.083632 0.000000
# 6 0.000000 0.000000 0.000000 0.000000 0.000000 0.058548
#
#
# Mechanical properties :
#
#
# Convention : Reuss Voigt Hill
#
# Bulk Modulus (GPa) = 15.49260 15.74915 15.62087
# Shear Modulus (GPa) = 20.94695 26.21101 23.57898
#
# Velocity S-wave (km/s) = 2.99041 3.34513 3.17273
# Velocity P-wave (km/s) = 4.30551 4.65224 4.48223
#
# Compressibility (1/GPa) = 0.06454696
#
# Stress axis : x y z
#
# Youngs Moduli (GPa) = 47.67460 76.93827 61.07437
#
# Poissons Ratio (x) = -0.10630 -0.08699
# Poissons Ratio (y) = -0.06587 -0.26228
# Poissons Ratio (z) = -0.06790 -0.33040
#
# Static dielectric constant tensor:
#      x y z
#    x 1.909240 0.000000 0.000000 
#    y 0.000000 1.920100 0.000000 
#    z 0.000000 0.000000 1.897470 
# 
# From -- ./inp_files/8028.got.cif
#   From: 2010.05.17/outbox.cif.g08.bks.cpg/sg58_5_cif.got.tgz:8028.got - 2010.06.03 14:20:14.
