data_PCOD9443333
_publ_section_title
;
Structure prediction by ZEFSAII (Michael W. Deem and Ramdas Pophale) SiO2 
 PCOD9443333
Probable space group: P N N M
;
_chemical_formula_sum "Si O2"
_cell_formula_units_Z 52
_cell_length_a 5.283372
_cell_length_b 26.850365
_cell_length_c 18.764742
_cell_angle_alpha 90.000000
_cell_angle_beta 90.000000
_cell_angle_gamma 90.000000
_cell_volume 2661.975056
_symmetry_space_group_name_H-M "P N N M"
_symmetry_group_IT_number 58
_symmetry_cell_setting 'orthorhombic'
loop_
_space_group_symop_operation_xyz
x,y,z
-x,-y,z
1/2+x,1/2-y,1/2-z
1/2-x,1/2+y,1/2-z
-x,-y,-z
x,y,-z
1/2-x,1/2+y,1/2+z
1/2+x,1/2-y,1/2+z
loop_
_atom_site_type_symbol
_atom_site_label
_atom_site_fract_x
_atom_site_fract_y
_atom_site_fract_z
Si Si1 0.575464 0.316531 0.370612
Si Si2 0.948558 0.556164 0.297302
Si Si3 0.594368 0.131693 0.920201
Si Si4 0.381487 0.443803 0.153116
Si Si5 0.806291 0.868936 0.269513
Si Si6 0.753731 0.533942 0.000000
Si Si7 0.032225 0.730465 0.212420
O O1 0.846343 0.337148 0.395807
O O2 0.534602 0.339228 0.290331
O O3 0.563674 0.257377 0.359026
O O4 0.343896 0.334610 0.417394
O O5 0.786958 0.557209 0.224640
O O6 0.000000 0.500000 0.318049
O O7 0.852624 0.587765 0.363998
O O8 0.202121 0.584149 0.274106
O O9 0.549915 0.113072 0.000000
O O10 0.500000 0.500000 0.153243
O O11 0.561686 0.395857 0.164486
O O12 0.249461 0.438406 0.076216
O O13 0.591817 0.828318 0.289694
O O14 0.500000 0.500000 0.000000
O O15 0.000000 0.500000 0.000000
O O16 0.304283 0.755688 0.233109
#
# Coordination Sequence:
#
# PCOD9443333 Si02
#       7
#     8   8   8   8   8   4   8
#     4  10  20  39  59  87 120 154 205 259 308 366
#     4  11  21  36  59  88 128 161 213 258 305 359
#     4  11  23  39  61  87 122 170 214 258 312 365
#     4  11  21  38  61  89 123 161 200 252 304 376
#     4  10  21  34  61  91 118 157 200 256 312 364
#     4  10  24  40  60  86 120 164 202 236 298 376
#     4  10  20  35  59  92 120 149 202 260 311 368
#
# _framework density 19.534368000000001
#
# number of rings (size 3 to 8) (size 9 to 14) (size 15 to 20)
#    0.000    1.538    3.077    3.692    4.308    0.308 
#    0.000    0.000    3.385    3.231    0.000    0.000 
#    0.000    0.000    0.000    0.000    0.000    0.000 
#
# Total GULP energy -289628.270767 kJ/mol
# GULP energy per Si atom -5569.774438 kJ/mol
# Density = 1.948991 g / cm^3
# Si number density = 19.534368 Si / 1000 Ang^3
#
#
#
# Elastic Constant Matrix: (Units=GPa)
#
#
# Indices 1 2 3 4 5 6 
#
# 1 82.2813 25.5645 18.0563 0.0000 0.0000 0.0000
# 2 25.5645 81.7046 23.2392 0.0000 0.0000 0.0000
# 3 18.0563 23.2392 127.3557 0.0000 0.0000 0.0000
# 4 0.0000 0.0000 0.0000 -77.4233 0.0000 0.0000
# 5 0.0000 0.0000 0.0000 0.0000 -1.5483 0.0000
# 6 0.0000 0.0000 0.0000 0.0000 0.0000 36.9374
#
#
#
# Elastic Compliance Matrix: (Units=1/GPa)
#
#
# Indices 1 2 3 4 5 6 
#
# 1 0.013639 -0.003921 -0.001218 0.000000 0.000000 0.000000
# 2 -0.003921 0.014036 -0.002005 0.000000 0.000000 0.000000
# 3 -0.001218 -0.002005 0.008391 0.000000 0.000000 0.000000
# 4 0.000000 0.000000 0.000000 -0.012916 0.000000 0.000000
# 5 0.000000 0.000000 0.000000 0.000000 -0.645850 0.000000
# 6 0.000000 0.000000 0.000000 0.000000 0.000000 0.027073
#
#
# Mechanical properties :
#
#
# Convention : Reuss Voigt Hill
#
# Bulk Modulus (GPa) = 45.92023 47.22906 46.57465
# Shear Modulus (GPa) = -8.70960 6.55859 -1.07550
#
# Velocity S-wave (km/s) = -2.11383 1.83433 -0.74281
# Velocity P-wave (km/s) = 4.19532 5.35875 4.81233
#
# Compressibility (1/GPa) = 0.02177689
#
# Stress axis : x y z
#
# Youngs Moduli (GPa) = 73.31912 71.24318 119.17994
#
# Poissons Ratio (x) = 0.27934 0.14519
# Poissons Ratio (y) = 0.28748 0.23900
# Poissons Ratio (z) = 0.08932 0.14287
#
# Static dielectric constant tensor:
#      x y z
#    x 1.768800 0.000000 0.000000 
#    y 0.000000 1.747670 0.000000 
#    z 0.000000 0.000000 1.714620 
# 
# From -- ./inp_files/24389.got.cif
#   From: 2010.05.17/outbox.cif.g08.bks.cpg/sg58_13_cif.got.tgz:24389.got - 2010.06.03 14:20:14.
