data_PCOD9443349
_publ_section_title
;
Structure prediction by ZEFSAII (Michael W. Deem and Ramdas Pophale) SiO2 
 PCOD9443349
Probable space group: P N N M
;
_chemical_formula_sum "Si O2"
_cell_formula_units_Z 64
_cell_length_a 12.398409
_cell_length_b 28.895783
_cell_length_c 8.760380
_cell_angle_alpha 90.000000
_cell_angle_beta 90.000000
_cell_angle_gamma 90.000000
_cell_volume 3138.508947
_symmetry_space_group_name_H-M "P N N M"
_symmetry_group_IT_number 58
_symmetry_cell_setting 'orthorhombic'
loop_
_space_group_symop_operation_xyz
x,y,z
-x,-y,z
1/2+x,1/2-y,1/2-z
1/2-x,1/2+y,1/2-z
-x,-y,-z
x,y,-z
1/2-x,1/2+y,1/2+z
1/2+x,1/2-y,1/2+z
loop_
_atom_site_type_symbol
_atom_site_label
_atom_site_fract_x
_atom_site_fract_y
_atom_site_fract_z
Si Si1 0.917223 0.588925 0.319087
Si Si2 0.369064 0.340765 0.173550
Si Si3 0.467795 0.427785 0.678010
Si Si4 0.878874 0.684921 0.821632
Si Si5 0.639747 0.936657 0.683139
Si Si6 0.580989 0.284160 0.821976
Si Si7 0.818867 0.876378 0.183906
Si Si8 0.270055 0.471562 0.182003
O O1 0.910392 0.584130 0.500000
O O2 0.929747 0.642441 0.270944
O O3 0.808666 0.568749 0.243521
O O4 0.020988 0.562343 0.253637
O O5 0.401771 0.380159 0.292410
O O6 0.249718 0.322144 0.192638
O O7 0.456915 0.300517 0.185839
O O8 0.378776 0.360549 0.000000
O O9 0.475192 0.438602 0.500000
O O10 0.586860 0.412919 0.734385
O O11 0.391526 0.465603 0.756795
O O12 0.906271 0.735209 0.758700
O O13 0.907898 0.680691 0.000000
O O14 0.631828 0.935172 0.500000
O O15 0.706765 0.893214 0.746490
O O16 0.710179 0.981349 0.728719
O O17 0.647200 0.325839 0.743328
O O18 0.611839 0.280932 0.000000
O O19 0.815916 0.876511 0.000000
O O20 0.272581 0.469460 0.000000
#
# Coordination Sequence:
#
# PCOD9443349 Si02
#       8
#     8   8   8   8   8   8   8   8
#     4  12  25  41  63  91 123 159 204 257 312 371
#     4   9  19  36  58  81 113 155 197 246 300 355
#     4  10  20  35  61  91 120 155 200 252 303 357
#     4  11  22  38  61  89 120 158 204 253 306 364
#     4  11  25  43  63  88 123 168 209 251 309 373
#     4  10  21  38  60  88 120 159 206 252 305 366
#     4  10  22  41  62  89 125 163 204 255 312 369
#     4  11  23  40  63  91 123 161 207 255 307 369
#
# _framework density 20.391850000000002
#
# number of rings (size 3 to 8) (size 9 to 14) (size 15 to 20)
#    0.000    1.500    1.250    3.750    0.000    7.500 
#    0.000    6.250    0.000    0.000    0.000    0.000 
#    0.000    0.000    0.000    0.000    0.000    0.000 
#
# Total GULP energy -357782.332521 kJ/mol
# GULP energy per Si atom -5590.348946 kJ/mol
# Density = 2.034544 g / cm^3
# Si number density = 20.391850 Si / 1000 Ang^3
#
#
#
# Elastic Constant Matrix: (Units=GPa)
#
#
# Indices 1 2 3 4 5 6 
#
# 1 60.2485 1.3475 5.6974 0.0000 0.0000 0.0000
# 2 1.3475 68.6650 -2.5596 0.0000 0.0000 0.0000
# 3 5.6974 -2.5596 40.1392 0.0000 0.0000 0.0000
# 4 0.0000 0.0000 0.0000 23.2738 0.0000 0.0000
# 5 0.0000 0.0000 0.0000 0.0000 53.4954 0.0000
# 6 0.0000 0.0000 0.0000 0.0000 0.0000 21.7056
#
#
#
# Elastic Compliance Matrix: (Units=1/GPa)
#
#
# Indices 1 2 3 4 5 6 
#
# 1 0.016836 -0.000420 -0.002416 0.000000 0.000000 0.000000
# 2 -0.000420 0.014609 0.000991 0.000000 0.000000 0.000000
# 3 -0.002416 0.000991 0.025320 0.000000 0.000000 0.000000
# 4 0.000000 0.000000 0.000000 0.042967 0.000000 0.000000
# 5 0.000000 0.000000 0.000000 0.000000 0.018693 0.000000
# 6 0.000000 0.000000 0.000000 0.000000 0.000000 0.046071
#
#
# Mechanical properties :
#
#
# Convention : Reuss Voigt Hill
#
# Bulk Modulus (GPa) = 18.84212 19.78037 19.31125
# Shear Modulus (GPa) = 26.89944 30.66611 28.78277
#
# Velocity S-wave (km/s) = 3.63592 3.88215 3.76105
# Velocity P-wave (km/s) = 5.18523 5.46040 5.32459
#
# Compressibility (1/GPa) = 0.05307258
#
# Stress axis : x y z
#
# Youngs Moduli (GPa) = 59.39713 68.45253 39.49520
#
# Poissons Ratio (x) = 0.02878 0.09544
# Poissons Ratio (y) = 0.02498 -0.03915
# Poissons Ratio (z) = 0.14353 -0.06785
#
# Static dielectric constant tensor:
#      x y z
#    x 1.709270 0.000000 0.000000 
#    y 0.000000 1.729010 0.000000 
#    z 0.000000 0.000000 1.696550 
# 
# From -- ./inp_files/4734.got.cif
#   From: 2010.05.17/outbox.cif.g08.bks.cpg/sg58_3_cif.got.tgz:4734.got - 2010.06.03 14:20:14.
