data_PCOD9443538
_publ_section_title
;
Structure prediction by ZEFSAII (Michael W. Deem and Ramdas Pophale) SiO2 
 PCOD9443538
Probable space group: P N N M
;
_chemical_formula_sum "Si O2"
_cell_formula_units_Z 56
_cell_length_a 19.623671
_cell_length_b 7.425048
_cell_length_c 14.837950
_cell_angle_alpha 90.000000
_cell_angle_beta 90.000000
_cell_angle_gamma 90.000000
_cell_volume 2161.988716
_symmetry_space_group_name_H-M "P N N M"
_symmetry_group_IT_number 58
_symmetry_cell_setting 'orthorhombic'
loop_
_space_group_symop_operation_xyz
x,y,z
-x,-y,z
1/2+x,1/2-y,1/2-z
1/2-x,1/2+y,1/2-z
-x,-y,-z
x,y,-z
1/2-x,1/2+y,1/2+z
1/2+x,1/2-y,1/2+z
loop_
_atom_site_type_symbol
_atom_site_label
_atom_site_fract_x
_atom_site_fract_y
_atom_site_fract_z
Si Si1 0.115269 0.027353 0.300400
Si Si2 0.581560 0.032730 0.000000
Si Si3 0.572199 0.600523 0.398460
Si Si4 0.419624 0.532730 0.000000
Si Si5 0.676561 0.927239 0.160228
Si Si6 0.625949 0.986228 0.400839
Si Si7 0.438806 0.868392 0.258220
Si Si8 0.756750 0.260269 0.190397
O O1 0.107757 0.955825 0.403451
O O2 0.056980 0.186003 0.296193
O O3 0.185210 0.138806 0.298224
O O4 0.105389 0.935894 0.201771
O O5 0.622561 0.941701 0.918624
O O6 0.500000 0.000000 0.000000
O O7 0.594277 0.249528 0.000000
O O8 0.500000 0.500000 0.395314
O O9 0.602286 0.558746 0.500000
O O10 0.572081 0.819214 0.398071
O O11 0.500000 0.500000 0.000000
O O12 0.709146 0.754253 0.208870
O O13 0.628617 0.014669 0.236645
O O14 0.737917 0.068940 0.147326
O O15 0.643222 0.045955 0.500000
O O16 0.695276 0.883535 0.369905
O O17 0.584195 0.156634 0.360278
O O18 0.500000 0.000000 0.239452
#
# Coordination Sequence:
#
# PCOD9443538 Si02
#       8
#     8   4   8   4   8   8   8   8
#     4  11  23  41  64  94 133 179 223 289 345 422
#     4  12  24  48  72 104 142 186 247 303 378 445
#     4  10  21  40  63  94 130 165 215 278 341 411
#     4  12  26  44  68 102 142 186 238 299 370 426
#     4  10  22  40  67  91 130 175 224 289 341 426
#     4  10  22  36  61  92 119 168 219 270 338 413
#     4  10  20  36  61  88 123 166 212 273 341 403
#     4  10  21  40  63  90 129 178 228 269 346 414
#
# _framework density 25.902079000000001
#
# number of rings (size 3 to 8) (size 9 to 14) (size 15 to 20)
#    0.000    1.571    2.857    2.571    2.000    0.857 
#    6.429    0.000    6.286    0.000    0.000    0.000 
#    0.000    0.000    0.000    0.000    0.000    0.000 
#
# Total GULP energy -312012.434915 kJ/mol
# GULP energy per Si atom -5571.650623 kJ/mol
# Density = 2.584312 g / cm^3
# Si number density = 25.902079 Si / 1000 Ang^3
#
#
#
# Elastic Constant Matrix: (Units=GPa)
#
#
# Indices 1 2 3 4 5 6 
#
# 1 105.0312 9.4015 56.1615 0.0000 0.0000 0.0000
# 2 9.4015 88.7495 27.2004 0.0000 0.0000 0.0000
# 3 56.1615 27.2004 134.0779 0.0000 0.0000 0.0000
# 4 0.0000 0.0000 0.0000 25.2333 0.0000 0.0000
# 5 0.0000 0.0000 0.0000 0.0000 38.8987 0.0000
# 6 0.0000 0.0000 0.0000 0.0000 0.0000 28.1023
#
#
#
# Elastic Compliance Matrix: (Units=1/GPa)
#
#
# Indices 1 2 3 4 5 6 
#
# 1 0.012276 0.000294 -0.005202 0.000000 0.000000 0.000000
# 2 0.000294 0.012022 -0.002562 0.000000 0.000000 0.000000
# 3 -0.005202 -0.002562 0.010157 0.000000 0.000000 0.000000
# 4 0.000000 0.000000 0.000000 0.039630 0.000000 0.000000
# 5 0.000000 0.000000 0.000000 0.000000 0.025708 0.000000
# 6 0.000000 0.000000 0.000000 0.000000 0.000000 0.035584
#
#
# Mechanical properties :
#
#
# Convention : Reuss Voigt Hill
#
# Bulk Modulus (GPa) = 51.24230 57.04279 54.14255
# Shear Modulus (GPa) = 31.88331 34.11986 33.00158
#
# Velocity S-wave (km/s) = 3.51225 3.63335 3.57331
# Velocity P-wave (km/s) = 6.02278 6.29857 6.16222
#
# Compressibility (1/GPa) = 0.01951513
#
# Stress axis : x y z
#
# Youngs Moduli (GPa) = 81.45905 83.18267 98.45484
#
# Poissons Ratio (x) = -0.02444 0.51213
# Poissons Ratio (y) = -0.02393 0.25223
# Poissons Ratio (z) = 0.42373 0.21311
#
# Static dielectric constant tensor:
#      x y z
#    x 2.223900 0.000000 0.000000 
#    y 0.000000 2.146260 0.000000 
#    z 0.000000 0.000000 1.472570 
# 
# From -- ./inp_files/23287.got.cif
#   From: 2010.05.17/outbox.cif.g08.bks.cpg/sg58_12_cif.got.tgz:23287.got - 2010.06.03 14:20:14.
