data_PCOD9443115
_publ_section_title
;
Structure prediction by ZEFSAII (Michael W. Deem and Ramdas Pophale) SiO2 
 PCOD9443115
Probable space group: P N N M
;
_chemical_formula_sum "Si O2"
_cell_formula_units_Z 64
_cell_length_a 18.585001
_cell_length_b 7.963418
_cell_length_c 22.951893
_cell_angle_alpha 90.000000
_cell_angle_beta 90.000000
_cell_angle_gamma 90.000000
_cell_volume 3396.883182
_symmetry_space_group_name_H-M "P N N M"
_symmetry_group_IT_number 58
_symmetry_cell_setting 'orthorhombic'
loop_
_space_group_symop_operation_xyz
x,y,z
-x,-y,z
1/2+x,1/2-y,1/2-z
1/2-x,1/2+y,1/2-z
-x,-y,-z
x,y,-z
1/2-x,1/2+y,1/2+z
1/2+x,1/2-y,1/2+z
loop_
_atom_site_type_symbol
_atom_site_label
_atom_site_fract_x
_atom_site_fract_y
_atom_site_fract_z
Si Si1 0.654724 0.652937 0.848301
Si Si2 0.419461 0.023255 0.140810
Si Si3 0.471223 0.312241 0.564526
Si Si4 0.452083 0.835637 0.673193
Si Si5 0.934672 0.249684 0.251991
Si Si6 0.684431 0.288714 0.845752
Si Si7 0.804922 0.785008 0.795155
Si Si8 0.838040 0.148281 0.852021
O O1 0.623948 0.813905 0.883573
O O2 0.592539 0.618606 0.800007
O O3 0.669685 0.470632 0.873496
O O4 0.727071 0.719632 0.816090
O O5 0.428684 0.083002 0.208518
O O6 0.500000 0.000000 0.117267
O O7 0.374863 0.852311 0.140136
O O8 0.500000 0.500000 0.559765
O O9 0.467532 0.236204 0.500000
O O10 0.526106 0.223078 0.608870
O O11 0.393984 0.330276 0.595486
O O12 0.489024 0.715787 0.721937
O O13 0.368014 0.840976 0.684425
O O14 0.500000 0.000000 0.681864
O O15 0.876644 0.246242 0.200772
O O16 0.692212 0.303700 0.774859
O O17 0.761203 0.222573 0.866730
O O18 0.824683 0.959798 0.827569
#
# Coordination Sequence:
#
# PCOD9443115 Si02
#       8
#     8   8   8   8   8   8   8   8
#     4  10  23  31  45  72 104 141 183 220 266 324
#     4  10  20  35  46  67 106 146 176 211 259 319
#     4  10  22  41  57  75 104 142 203 260 287 318
#     4  11  23  32  54  78 105 145 194 237 288 332
#     4   9  18  34  41  73  98 134 181 221 257 327
#     4  12  20  32  51  71 108 140 176 224 272 339
#     4  12  19  33  47  75 107 140 181 230 270 347
#     4  11  20  34  53  75  99 143 183 227 296 332
#
# _framework density 18.840800999999999
#
# number of rings (size 3 to 8) (size 9 to 14) (size 15 to 20)
#    0.750    0.625    5.000    1.875    5.250    0.750 
#    2.250    0.000    0.000    0.000    0.000    0.000 
#    0.000    0.500    0.000    1.250    0.000    0.125 
#
# Total GULP energy -356558.990855 kJ/mol
# GULP energy per Si atom -5571.234232 kJ/mol
# Density = 1.879792 g / cm^3
# Si number density = 18.840801 Si / 1000 Ang^3
#
#
#
# Elastic Constant Matrix: (Units=GPa)
#
#
# Indices 1 2 3 4 5 6 
#
# 1 93.5776 18.4116 1.5218 0.0000 0.0000 0.0000
# 2 18.4116 86.3409 -11.7147 0.0000 0.0000 0.0000
# 3 1.5218 -11.7147 33.5048 0.0000 0.0000 0.0000
# 4 0.0000 0.0000 0.0000 8.8236 0.0000 0.0000
# 5 0.0000 0.0000 0.0000 0.0000 57.4728 0.0000
# 6 0.0000 0.0000 0.0000 0.0000 0.0000 26.1853
#
#
#
# Elastic Compliance Matrix: (Units=1/GPa)
#
#
# Indices 1 2 3 4 5 6 
#
# 1 0.011218 -0.002584 -0.001413 0.000000 0.000000 0.000000
# 2 -0.002584 0.012754 0.004577 0.000000 0.000000 0.000000
# 3 -0.001413 0.004577 0.031511 0.000000 0.000000 0.000000
# 4 0.000000 0.000000 0.000000 0.113332 0.000000 0.000000
# 5 0.000000 0.000000 0.000000 0.000000 0.017400 0.000000
# 6 0.000000 0.000000 0.000000 0.000000 0.000000 0.038189
#
#
# Mechanical properties :
#
#
# Convention : Reuss Voigt Hill
#
# Bulk Modulus (GPa) = 17.65463 25.54008 21.59736
# Shear Modulus (GPa) = 20.65058 32.17667 26.41363
#
# Velocity S-wave (km/s) = 3.31427 4.13706 3.74831
# Velocity P-wave (km/s) = 4.90271 6.03370 5.49737
#
# Compressibility (1/GPa) = 0.05664236
#
# Stress axis : x y z
#
# Youngs Moduli (GPa) = 89.14507 78.40716 31.73512
#
# Poissons Ratio (x) = 0.20259 0.04484
# Poissons Ratio (y) = 0.23033 -0.14524
# Poissons Ratio (z) = 0.12595 -0.35884
#
# Static dielectric constant tensor:
#      x y z
#    x 1.688450 0.000000 0.000000 
#    y 0.000000 1.791050 0.000000 
#    z 0.000000 0.000000 1.646500 
# 
# From -- ./inp_files/32347.got.cif
#   From: 2010.05.17/outbox.cif.g08.bks.cpg/sg58_17_cif.got.tgz:32347.got - 2010.06.03 14:20:14.
