data_PCOD9443600
_publ_section_title
;
Structure prediction by ZEFSAII (Michael W. Deem and Ramdas Pophale) SiO2 
 PCOD9443600
Probable space group: P N N M
;
_chemical_formula_sum "Si O2"
_cell_formula_units_Z 58
_cell_length_a 9.668924
_cell_length_b 27.044994
_cell_length_c 12.636935
_cell_angle_alpha 90.000000
_cell_angle_beta 90.000000
_cell_angle_gamma 90.000000
_cell_volume 3304.507848
_symmetry_space_group_name_H-M "P N N M"
_symmetry_group_IT_number 58
_symmetry_cell_setting 'orthorhombic'
loop_
_space_group_symop_operation_xyz
x,y,z
-x,-y,z
1/2+x,1/2-y,1/2-z
1/2-x,1/2+y,1/2-z
-x,-y,-z
x,y,-z
1/2-x,1/2+y,1/2+z
1/2+x,1/2-y,1/2+z
loop_
_atom_site_type_symbol
_atom_site_label
_atom_site_fract_x
_atom_site_fract_y
_atom_site_fract_z
Si Si1 0.020256 0.347694 0.762144
Si Si2 0.746779 0.331820 0.374861
Si Si3 0.716733 0.676930 0.379446
Si Si4 0.415029 0.950873 0.625991
Si Si5 0.478862 0.746659 0.374430
Si Si6 0.002528 0.092888 0.839746
Si Si7 0.085733 0.949054 0.379726
Si Si8 0.500000 0.500000 0.500000
O O1 0.150867 0.335959 0.688385
O O2 0.035771 0.401989 0.812445
O O3 0.023110 0.303974 0.848114
O O4 0.882347 0.340907 0.693508
O O5 0.779249 0.326509 0.500000
O O6 0.655603 0.284360 0.338376
O O7 0.644961 0.378392 0.359945
O O8 0.756932 0.689134 0.500000
O O9 0.618543 0.720242 0.333576
O O10 0.617861 0.629245 0.379103
O O11 0.438083 0.943961 0.500000
O O12 0.249514 0.957523 0.641104
O O13 0.500000 0.000000 0.658354
O O14 0.482347 0.738884 0.500000
O O15 0.975175 0.083331 0.715435
O O16 0.999484 0.043180 0.907222
O O17 0.073927 0.928374 0.500000
O O18 0.000000 0.000000 0.378526
#
# Coordination Sequence:
#
# PCOD9443600 Si02
#       8
#     8   8   8   8   8   8   8   2
#     4  12  21  35  61  88 113 153 192 241 291 355
#     4  10  22  39  57  86 121 152 187 245 304 345
#     4  10  20  37  57  82 115 149 190 237 300 344
#     4  10  23  40  56  83 122 158 191 238 299 351
#     4   9  20  39  61  82 112 151 197 237 292 361
#     4  11  20  37  58  84 113 157 198 247 283 351
#     4  10  21  37  59  83 112 153 201 245 293 340
#     4  12  20  32  66  82 112 152 232 220 282 352
#
# _framework density 17.551781999999999
#
# number of rings (size 3 to 8) (size 9 to 14) (size 15 to 20)
#    0.000    1.655    3.448    2.483    1.931    0.000 
#    0.000    0.690    0.000    4.966    0.000    0.000 
#    0.000    0.000    0.000    0.000    0.000    0.000 
#
# Total GULP energy -322971.296946 kJ/mol
# GULP energy per Si atom -5568.470637 kJ/mol
# Density = 1.751183 g / cm^3
# Si number density = 17.551782 Si / 1000 Ang^3
#
#
#
# Elastic Constant Matrix: (Units=GPa)
#
#
# Indices 1 2 3 4 5 6 
#
# 1 110.9176 45.6484 28.9438 0.0000 0.0000 0.0000
# 2 45.6484 115.7819 24.6702 0.0000 0.0000 0.0000
# 3 28.9438 24.6702 65.7421 0.0000 0.0000 0.0000
# 4 0.0000 0.0000 0.0000 31.2679 0.0000 0.0000
# 5 0.0000 0.0000 0.0000 0.0000 34.9253 0.0000
# 6 0.0000 0.0000 0.0000 0.0000 0.0000 11.5261
#
#
#
# Elastic Compliance Matrix: (Units=1/GPa)
#
#
# Indices 1 2 3 4 5 6 
#
# 1 0.011519 -0.003762 -0.003660 0.000000 0.000000 0.000000
# 2 -0.003762 0.010616 -0.002328 0.000000 0.000000 0.000000
# 3 -0.003660 -0.002328 0.017696 0.000000 0.000000 0.000000
# 4 0.000000 0.000000 0.000000 0.031982 0.000000 0.000000
# 5 0.000000 0.000000 0.000000 0.000000 0.028633 0.000000
# 6 0.000000 0.000000 0.000000 0.000000 0.000000 0.086760
#
#
# Mechanical properties :
#
#
# Convention : Reuss Voigt Hill
#
# Bulk Modulus (GPa) = 49.18239 54.55182 51.86710
# Shear Modulus (GPa) = 23.42140 28.42248 25.92194
#
# Velocity S-wave (km/s) = 3.65693 4.02848 3.84719
# Velocity P-wave (km/s) = 6.77591 7.26541 7.02493
#
# Compressibility (1/GPa) = 0.02033248
#
# Stress axis : x y z
#
# Youngs Moduli (GPa) = 86.81452 94.19794 56.51107
#
# Poissons Ratio (x) = 0.35434 0.20682
# Poissons Ratio (y) = 0.32656 0.13154
# Poissons Ratio (z) = 0.31772 0.21926
#
# Static dielectric constant tensor:
#      x y z
#    x 1.598250 0.000000 0.000000 
#    y 0.000000 1.579920 0.000000 
#    z 0.000000 0.000000 1.606150 
# 
# From -- ./inp_files/13285.got.cif
#   From: 2010.05.17/outbox.cif.g08.bks.cpg/sg58_7_cif.got.tgz:13285.got - 2010.06.03 14:20:14.
