data_PCOD9443534
_publ_section_title
;
Structure prediction by ZEFSAII (Michael W. Deem and Ramdas Pophale) SiO2 
 PCOD9443534
Probable space group: P N N M
;
_chemical_formula_sum "Si O2"
_cell_formula_units_Z 52
_cell_length_a 15.753868
_cell_length_b 21.189756
_cell_length_c 7.973825
_cell_angle_alpha 90.000000
_cell_angle_beta 90.000000
_cell_angle_gamma 90.000000
_cell_volume 2661.827197
_symmetry_space_group_name_H-M "P N N M"
_symmetry_group_IT_number 58
_symmetry_cell_setting 'orthorhombic'
loop_
_space_group_symop_operation_xyz
x,y,z
-x,-y,z
1/2+x,1/2-y,1/2-z
1/2-x,1/2+y,1/2-z
-x,-y,-z
x,y,-z
1/2-x,1/2+y,1/2+z
1/2+x,1/2-y,1/2+z
loop_
_atom_site_type_symbol
_atom_site_label
_atom_site_fract_x
_atom_site_fract_y
_atom_site_fract_z
Si Si1 0.871577 0.669792 0.300098
Si Si2 0.482064 0.344100 0.500000
Si Si3 0.827407 0.079505 0.000000
Si Si4 0.217623 0.733482 0.202270
Si Si5 0.741605 0.412387 0.803076
Si Si6 0.208541 0.450667 0.811113
Si Si7 0.474020 0.259252 0.809251
Si Si8 0.381601 0.554584 0.500000
O O1 0.859303 0.660637 0.500000
O O2 0.796576 0.720049 0.247037
O O3 0.864132 0.601935 0.210887
O O4 0.965044 0.699197 0.278962
O O5 0.382207 0.358236 0.500000
O O6 0.503615 0.307407 0.668178
O O7 0.534000 0.407114 0.500000
O O8 0.772724 0.072172 0.832640
O O9 0.888373 0.019721 0.000000
O O10 0.230400 0.658852 0.238735
O O11 0.126594 0.750075 0.282334
O O12 0.212371 0.737241 0.000000
O O13 0.804908 0.473705 0.786038
O O14 0.669949 0.427773 0.667825
O O15 0.715616 0.411922 0.000000
O O16 0.242861 0.444212 0.000000
O O17 0.489943 0.280250 0.000000
#
# Coordination Sequence:
#
# PCOD9443534 Si02
#       8
#     8   4   4   8   8   8   8   4
#     4  10  21  38  60  85 118 157 194 245 301 346
#     4  12  23  38  56  82 119 160 192 244 302 350
#     4  10  21  38  56  85 120 148 196 249 292 355
#     4  10  20  39  62  84 116 157 197 245 298 348
#     4   9  20  38  59  86 116 149 197 247 292 349
#     4  10  20  36  61  86 113 153 197 240 295 356
#     4  11  25  40  56  87 123 153 199 247 293 356
#     4  10  21  36  60  85 112 156 200 237 296 365
#
# _framework density 19.535454000000001
#
# number of rings (size 3 to 8) (size 9 to 14) (size 15 to 20)
#    0.000    1.846    1.538    2.077    2.154    4.308 
#    0.000    0.769    0.000    9.231    0.000    0.000 
#    0.000    0.000    0.000    0.000    0.000    0.000 
#
# Total GULP energy -289626.246193 kJ/mol
# GULP energy per Si atom -5569.735504 kJ/mol
# Density = 1.949099 g / cm^3
# Si number density = 19.535454 Si / 1000 Ang^3
#
#
#
# Elastic Constant Matrix: (Units=GPa)
#
#
# Indices 1 2 3 4 5 6 
#
# 1 34.7814 0.1594 1.0455 0.0000 0.0000 0.0000
# 2 0.1594 65.1490 3.9679 0.0000 0.0000 0.0000
# 3 1.0455 3.9679 68.8594 0.0000 0.0000 0.0000
# 4 0.0000 0.0000 0.0000 30.9810 0.0000 0.0000
# 5 0.0000 0.0000 0.0000 0.0000 14.6347 0.0000
# 6 0.0000 0.0000 0.0000 0.0000 0.0000 31.9969
#
#
#
# Elastic Compliance Matrix: (Units=1/GPa)
#
#
# Indices 1 2 3 4 5 6 
#
# 1 0.028764 -0.000044 -0.000434 0.000000 0.000000 0.000000
# 2 -0.000044 0.015404 -0.000887 0.000000 0.000000 0.000000
# 3 -0.000434 -0.000887 0.014580 0.000000 0.000000 0.000000
# 4 0.000000 0.000000 0.000000 0.032278 0.000000 0.000000
# 5 0.000000 0.000000 0.000000 0.000000 0.068331 0.000000
# 6 0.000000 0.000000 0.000000 0.000000 0.000000 0.031253
#
#
# Mechanical properties :
#
#
# Convention : Reuss Voigt Hill
#
# Bulk Modulus (GPa) = 17.85148 19.90393 18.87770
# Shear Modulus (GPa) = 23.58357 26.43032 25.00695
#
# Velocity S-wave (km/s) = 3.47828 3.68223 3.58170
# Velocity P-wave (km/s) = 5.02882 5.31875 5.17582
#
# Compressibility (1/GPa) = 0.05601777
#
# Stress axis : x y z
#
# Youngs Moduli (GPa) = 34.76536 64.92011 68.58684
#
# Poissons Ratio (x) = 0.00285 0.02978
# Poissons Ratio (y) = 0.00153 0.06083
# Poissons Ratio (z) = 0.01509 0.05758
#
# Static dielectric constant tensor:
#      x y z
#    x 1.694940 0.000000 0.000000 
#    y 0.000000 1.728080 0.000000 
#    z 0.000000 0.000000 1.600490 
# 
# From -- ./inp_files/6215.got.cif
#   From: 2010.05.17/outbox.cif.g08.bks.cpg/sg58_4_cif.got.tgz:6215.got - 2010.06.03 14:20:14.
