data_PCOD9443229
_publ_section_title
;
Structure prediction by ZEFSAII (Michael W. Deem and Ramdas Pophale) SiO2 
 PCOD9443229
Probable space group: P N N M
;
_chemical_formula_sum "Si O2"
_cell_formula_units_Z 64
_cell_length_a 10.763199
_cell_length_b 15.896268
_cell_length_c 17.675713
_cell_angle_alpha 90.000000
_cell_angle_beta 90.000000
_cell_angle_gamma 90.000000
_cell_volume 3024.220740
_symmetry_space_group_name_H-M "P N N M"
_symmetry_group_IT_number 58
_symmetry_cell_setting 'orthorhombic'
loop_
_space_group_symop_operation_xyz
x,y,z
-x,-y,z
1/2+x,1/2-y,1/2-z
1/2-x,1/2+y,1/2-z
-x,-y,-z
x,y,-z
1/2-x,1/2+y,1/2+z
1/2+x,1/2-y,1/2+z
loop_
_atom_site_type_symbol
_atom_site_label
_atom_site_fract_x
_atom_site_fract_y
_atom_site_fract_z
Si Si1 0.193310 0.285108 0.814476
Si Si2 0.296572 0.139748 0.909723
Si Si3 0.379133 0.406751 0.742602
Si Si4 0.899295 0.571190 0.087619
Si Si5 0.678381 0.532906 0.588759
Si Si6 0.400070 0.687462 0.823256
Si Si7 0.929091 0.639069 0.589287
Si Si8 0.858417 0.981003 0.375122
O O1 0.272765 0.231334 0.874408
O O2 0.258546 0.350799 0.757942
O O3 0.099192 0.344644 0.861249
O O4 0.153054 0.212201 0.757814
O O5 0.434179 0.107915 0.886864
O O6 0.198819 0.065462 0.893189
O O7 0.293737 0.148380 0.000000
O O8 0.402282 0.422527 0.654388
O O9 0.473718 0.357487 0.797052
O O10 0.360329 0.494444 0.785915
O O11 0.757629 0.533623 0.092498
O O12 0.000000 0.500000 0.111307
O O13 0.924785 0.591543 0.000000
O O14 0.640922 0.542982 0.500000
O O15 0.814029 0.576229 0.598153
O O16 0.411676 0.773116 0.868596
O O17 0.332999 0.618151 0.875220
O O18 0.935611 0.655806 0.500000
O O19 0.000000 0.000000 0.404733
#
# Coordination Sequence:
#
# PCOD9443229 Si02
#       8
#     8   8   8   8   8   8   8   8
#     4  11  21  37  59  87 117 161 206 252 309 372
#     4  10  20  36  60  86 116 156 199 250 311 376
#     4  10  20  38  56  85 120 153 200 256 305 363
#     4  10  23  44  63  88 129 169 213 262 313 379
#     4  10  20  37  58  86 122 158 196 245 313 383
#     4  11  21  37  59  87 122 155 202 258 308 362
#     4  10  20  35  56  89 124 152 193 252 312 370
#     4   9  21  39  63  91 121 161 208 263 317 367
#
# _framework density 21.162478
#
# number of rings (size 3 to 8) (size 9 to 14) (size 15 to 20)
#    0.000    1.875    2.500    1.500    0.000    3.250 
#    4.500    1.250    0.000    4.875    0.000    0.000 
#    0.000    0.000    0.000    0.000    0.000    0.000 
#
# Total GULP energy -356396.702309 kJ/mol
# GULP energy per Si atom -5568.698474 kJ/mol
# Density = 2.111431 g / cm^3
# Si number density = 21.162478 Si / 1000 Ang^3
#
#
#
# Elastic Constant Matrix: (Units=GPa)
#
#
# Indices 1 2 3 4 5 6 
#
# 1 46.4281 11.0512 -2.5553 0.0000 0.0000 0.0000
# 2 11.0512 86.5223 20.7046 0.0000 0.0000 0.0000
# 3 -2.5553 20.7046 46.9407 0.0000 0.0000 0.0000
# 4 0.0000 0.0000 0.0000 22.8422 0.0000 0.0000
# 5 0.0000 0.0000 0.0000 0.0000 15.9759 0.0000
# 6 0.0000 0.0000 0.0000 0.0000 0.0000 26.6799
#
#
#
# Elastic Compliance Matrix: (Units=1/GPa)
#
#
# Indices 1 2 3 4 5 6 
#
# 1 0.022536 -0.003546 0.002791 0.000000 0.000000 0.000000
# 2 -0.003546 0.013480 -0.006139 0.000000 0.000000 0.000000
# 3 0.002791 -0.006139 0.024163 0.000000 0.000000 0.000000
# 4 0.000000 0.000000 0.000000 0.043779 0.000000 0.000000
# 5 0.000000 0.000000 0.000000 0.000000 0.062594 0.000000
# 6 0.000000 0.000000 0.000000 0.000000 0.000000 0.037481
#
#
# Mechanical properties :
#
#
# Convention : Reuss Voigt Hill
#
# Bulk Modulus (GPa) = 21.55583 26.47688 24.01635
# Shear Modulus (GPa) = 21.43297 23.14562 22.28930
#
# Velocity S-wave (km/s) = 3.18588 3.31072 3.24890
# Velocity P-wave (km/s) = 4.87248 5.21084 5.04450
#
# Compressibility (1/GPa) = 0.04639117
#
# Stress axis : x y z
#
# Youngs Moduli (GPa) = 44.37260 74.18593 41.38553
#
# Poissons Ratio (x) = 0.26309 -0.11551
# Poissons Ratio (y) = 0.15736 0.25405
# Poissons Ratio (z) = -0.12385 0.45540
#
# Static dielectric constant tensor:
#      x y z
#    x 1.934800 0.000000 0.000000 
#    y 0.000000 1.876040 0.000000 
#    z 0.000000 0.000000 1.755060 
# 
# From -- ./inp_files/26410.got.cif
#   From: 2010.05.17/outbox.cif.g08.bks.cpg/sg58_14_cif.got.tgz:26410.got - 2010.06.03 14:20:14.
