data_PCOD9443636
_publ_section_title
;
Structure prediction by ZEFSAII (Michael W. Deem and Ramdas Pophale) SiO2 
 PCOD9443636
Probable space group: P N N M
;
_chemical_formula_sum "Si O2"
_cell_formula_units_Z 48
_cell_length_a 9.742473
_cell_length_b 28.806852
_cell_length_c 8.502669
_cell_angle_alpha 90.000000
_cell_angle_beta 90.000000
_cell_angle_gamma 90.000000
_cell_volume 2386.273866
_symmetry_space_group_name_H-M "P N N M"
_symmetry_group_IT_number 58
_symmetry_cell_setting 'orthorhombic'
loop_
_space_group_symop_operation_xyz
x,y,z
-x,-y,z
1/2+x,1/2-y,1/2-z
1/2-x,1/2+y,1/2-z
-x,-y,-z
x,y,-z
1/2-x,1/2+y,1/2+z
1/2+x,1/2-y,1/2+z
loop_
_atom_site_type_symbol
_atom_site_label
_atom_site_fract_x
_atom_site_fract_y
_atom_site_fract_z
Si Si1 0.499313 0.198985 0.310044
Si Si2 0.808085 0.381919 0.189823
Si Si3 0.994403 0.860015 0.685186
Si Si4 0.849121 0.485473 0.309980
Si Si5 0.097834 0.955243 0.184461
Si Si6 0.195318 0.782729 0.813499
O O1 0.500210 0.199511 0.500000
O O2 0.437590 0.149209 0.259094
O O3 0.652889 0.210099 0.255270
O O4 0.389552 0.237760 0.255865
O O5 0.664506 0.357738 0.237865
O O6 0.812451 0.434239 0.251630
O O7 0.806975 0.383661 0.000000
O O8 0.000468 0.849264 0.500000
O O9 0.041903 0.912595 0.716855
O O10 0.097328 0.826016 0.773833
O O11 0.842992 0.484343 0.500000
O O12 0.743077 0.525077 0.258985
O O13 0.000000 0.500000 0.258951
O O14 0.105567 0.941146 0.000000
O O15 0.000000 0.000000 0.192433
O O16 0.211346 0.778109 0.000000
#
# Coordination Sequence:
#
# PCOD9443636 Si02
#       6
#     8   8   8   8   8   8
#     4  10  23  43  64  90 123 156 197 247 299 357
#     4  10  22  40  61  87 120 159 201 248 300 357
#     4  11  23  39  62  90 124 161 204 251 301 359
#     4  10  22  38  57  84 120 159 201 249 298 355
#     4  10  20  37  59  85 120 159 204 252 297 355
#     4  11  24  42  66  93 123 159 199 245 301 361
#
# _framework density 20.115041999999999
#
# number of rings (size 3 to 8) (size 9 to 14) (size 15 to 20)
#    0.000    1.667    1.667    2.000    2.333    5.333 
#    0.000    0.000    0.000    0.000    0.000    0.000 
#    0.000    0.000    0.000    0.000    0.000    0.000 
#
# Total GULP energy -268176.259264 kJ/mol
# GULP energy per Si atom -5587.005401 kJ/mol
# Density = 2.006926 g / cm^3
# Si number density = 20.115042 Si / 1000 Ang^3
#
#
#
# Elastic Constant Matrix: (Units=GPa)
#
#
# Indices 1 2 3 4 5 6 
#
# 1 130.3663 10.1112 11.7980 0.0000 0.0000 0.0000
# 2 10.1112 51.4094 -1.1931 0.0000 0.0000 0.0000
# 3 11.7980 -1.1931 8.8053 0.0000 0.0000 0.0000
# 4 0.0000 0.0000 0.0000 24.4046 0.0000 0.0000
# 5 0.0000 0.0000 0.0000 0.0000 5.4192 0.0000
# 6 0.0000 0.0000 0.0000 0.0000 0.0000 36.5668
#
#
#
# Elastic Compliance Matrix: (Units=1/GPa)
#
#
# Indices 1 2 3 4 5 6 
#
# 1 0.008938 -0.002042 -0.012252 0.000000 0.000000 0.000000
# 2 -0.002042 0.019980 0.005444 0.000000 0.000000 0.000000
# 3 -0.012252 0.005444 0.130723 0.000000 0.000000 0.000000
# 4 0.000000 0.000000 0.000000 0.040976 0.000000 0.000000
# 5 0.000000 0.000000 0.000000 0.000000 0.184527 0.000000
# 6 0.000000 0.000000 0.000000 0.000000 0.000000 0.027347
#
#
# Mechanical properties :
#
#
# Convention : Reuss Voigt Hill
#
# Bulk Modulus (GPa) = 7.04533 25.77923 16.41228
# Shear Modulus (GPa) = 10.47108 24.60246 17.53677
#
# Velocity S-wave (km/s) = 2.28405 3.50106 2.95587
# Velocity P-wave (km/s) = 3.23512 5.40250 4.45269
#
# Compressibility (1/GPa) = 0.14193805
#
# Stress axis : x y z
#
# Youngs Moduli (GPa) = 111.88293 50.05084 7.64979
#
# Poissons Ratio (x) = 0.10222 0.09373
# Poissons Ratio (y) = 0.22849 -0.04164
# Poissons Ratio (z) = 1.37084 -0.27246
#
# Static dielectric constant tensor:
#      x y z
#    x 1.734180 0.000000 0.000000 
#    y 0.000000 1.690160 0.000000 
#    z 0.000000 0.000000 1.694110 
# 
# From -- ./inp_files/2851.got.cif
#   From: 2010.05.17/outbox.cif.g08.bks.cpg/sg58_2_cif.got.tgz:2851.got - 2010.06.03 14:20:14.
