data_PCOD9443819
_publ_section_title
;
Structure prediction by ZEFSAII (Michael W. Deem and Ramdas Pophale) SiO2 
 PCOD9443819
Probable space group: P N N M
;
_chemical_formula_sum "Si O2"
_cell_formula_units_Z 48
_cell_length_a 9.174535
_cell_length_b 15.786093
_cell_length_c 17.516844
_cell_angle_alpha 90.000000
_cell_angle_beta 90.000000
_cell_angle_gamma 90.000000
_cell_volume 2536.965616
_symmetry_space_group_name_H-M "P N N M"
_symmetry_group_IT_number 58
_symmetry_cell_setting 'orthorhombic'
loop_
_space_group_symop_operation_xyz
x,y,z
-x,-y,z
1/2+x,1/2-y,1/2-z
1/2-x,1/2+y,1/2-z
-x,-y,-z
x,y,-z
1/2-x,1/2+y,1/2+z
1/2+x,1/2-y,1/2+z
loop_
_atom_site_type_symbol
_atom_site_label
_atom_site_fract_x
_atom_site_fract_y
_atom_site_fract_z
Si Si1 0.677284 0.997880 0.912549
Si Si2 0.646164 0.183911 0.908822
Si Si3 0.831485 0.327650 0.669599
Si Si4 0.663873 0.176979 0.409295
Si Si5 0.830208 0.002775 0.591630
Si Si6 0.837271 0.339551 0.149239
O O1 0.719237 0.093080 0.888788
O O2 0.500000 0.000000 0.912711
O O3 0.719975 0.920271 0.859200
O O4 0.724181 0.982096 0.000000
O O5 0.490495 0.188830 0.867358
O O6 0.745120 0.262759 0.886722
O O7 0.620796 0.182340 0.000000
O O8 0.724712 0.256055 0.637794
O O9 0.844737 0.326501 0.760205
O O10 0.675885 0.193719 0.500000
O O11 0.759418 0.093695 0.391557
O O12 0.497523 0.159575 0.386950
O O13 0.820607 0.989772 0.500000
O O14 0.742561 0.927546 0.631090
O O15 0.000000 0.000000 0.612991
#
# Coordination Sequence:
#
# PCOD9443819 Si02
#       6
#     8   8   8   8   8   8
#     4   8  16  33  58  82 103 140 195 242 279 335
#     4  10  20  38  62  83 112 158 207 244 284 356
#     4  11  22  37  59  88 119 154 193 243 301 358
#     4  11  23  39  60  86 120 159 200 246 295 350
#     4  10  22  41  64  86 112 156 207 244 285 355
#     4  12  24  37  57  90 126 154 190 251 310 345
#
# _framework density 18.920241000000001
#
# number of rings (size 3 to 8) (size 9 to 14) (size 15 to 20)
#    0.000    1.667    0.000    6.500    0.000    8.000 
#    0.000    0.833    0.000    3.000    0.000    0.000 
#    0.000    0.000    0.000    0.000    0.000    0.000 
#
# Total GULP energy -268250.196224 kJ/mol
# GULP energy per Si atom -5588.545755 kJ/mol
# Density = 1.887718 g / cm^3
# Si number density = 18.920241 Si / 1000 Ang^3
#
#
#
# Elastic Constant Matrix: (Units=GPa)
#
#
# Indices 1 2 3 4 5 6 
#
# 1 61.9376 10.9729 10.1736 0.0000 0.0000 0.0000
# 2 10.9729 76.2828 27.9530 0.0000 0.0000 0.0000
# 3 10.1736 27.9530 52.3264 0.0000 0.0000 0.0000
# 4 0.0000 0.0000 0.0000 -44.1571 0.0000 0.0000
# 5 0.0000 0.0000 0.0000 0.0000 30.7443 0.0000
# 6 0.0000 0.0000 0.0000 0.0000 0.0000 26.3087
#
#
#
# Elastic Compliance Matrix: (Units=1/GPa)
#
#
# Indices 1 2 3 4 5 6 
#
# 1 0.016818 -0.001518 -0.002459 0.000000 0.000000 0.000000
# 2 -0.001518 0.016437 -0.008485 0.000000 0.000000 0.000000
# 3 -0.002459 -0.008485 0.024122 0.000000 0.000000 0.000000
# 4 0.000000 0.000000 0.000000 -0.022646 0.000000 0.000000
# 5 0.000000 0.000000 0.000000 0.000000 0.032526 0.000000
# 6 0.000000 0.000000 0.000000 0.000000 0.000000 0.038010
#
#
# Mechanical properties :
#
#
# Convention : Reuss Voigt Hill
#
# Bulk Modulus (GPa) = 30.81492 32.08288 31.44890
# Shear Modulus (GPa) = 35.45863 12.00901 23.73382
#
# Velocity S-wave (km/s) = 4.33380 2.52209 3.54561
# Velocity P-wave (km/s) = 6.43152 5.04728 5.78098
#
# Compressibility (1/GPa) = 0.03245181
#
# Stress axis : x y z
#
# Youngs Moduli (GPa) = 59.45970 60.83869 41.45618
#
# Poissons Ratio (x) = 0.09236 0.10194
# Poissons Ratio (y) = 0.09027 0.35178
# Poissons Ratio (z) = 0.14620 0.51625
#
# Static dielectric constant tensor:
#      x y z
#    x 1.627580 0.000000 0.000000 
#    y 0.000000 1.657540 0.000000 
#    z 0.000000 0.000000 1.616850 
# 
# From -- ./inp_files/25274.got.cif
#   From: 2010.05.17/outbox.cif.g08.bks.cpg/sg58_13_cif.got.tgz:25274.got - 2010.06.03 14:20:14.
