data_PCOD9443445
_publ_section_title
;
Structure prediction by ZEFSAII (Michael W. Deem and Ramdas Pophale) SiO2 
 PCOD9443445
Probable space group: P N N M
;
_chemical_formula_sum "Si O2"
_cell_formula_units_Z 58
_cell_length_a 11.822111
_cell_length_b 16.552645
_cell_length_c 15.202879
_cell_angle_alpha 90.000000
_cell_angle_beta 90.000000
_cell_angle_gamma 90.000000
_cell_volume 2975.008923
_symmetry_space_group_name_H-M "P N N M"
_symmetry_group_IT_number 58
_symmetry_cell_setting 'orthorhombic'
loop_
_space_group_symop_operation_xyz
x,y,z
-x,-y,z
1/2+x,1/2-y,1/2-z
1/2-x,1/2+y,1/2-z
-x,-y,-z
x,y,-z
1/2-x,1/2+y,1/2+z
1/2+x,1/2-y,1/2+z
loop_
_atom_site_type_symbol
_atom_site_label
_atom_site_fract_x
_atom_site_fract_y
_atom_site_fract_z
Si Si1 0.054282 0.192420 0.399044
Si Si2 0.128228 0.298500 0.103191
Si Si3 0.995236 0.373560 0.638492
Si Si4 0.192847 0.066042 0.709492
Si Si5 0.827878 0.090384 0.602546
Si Si6 0.500000 0.000000 0.000000
Si Si7 0.725609 0.376135 0.603374
Si Si8 0.545509 0.915363 0.335934
O O1 0.095651 0.183102 0.500000
O O2 0.124897 0.141221 0.329811
O O3 0.048332 0.285904 0.373741
O O4 0.928233 0.155202 0.397141
O O5 0.216519 0.364743 0.138764
O O6 0.162826 0.207962 0.128903
O O7 0.004261 0.335529 0.117729
O O8 0.151651 0.298182 0.000000
O O9 0.049250 0.439640 0.575987
O O10 0.862422 0.367041 0.608812
O O11 0.000421 0.404080 0.737237
O O12 0.193789 0.064852 0.815855
O O13 0.320708 0.077738 0.674314
O O14 0.146280 0.985443 0.663831
O O15 0.812775 0.063896 0.500000
O O16 0.700606 0.396326 0.500000
O O17 0.500000 0.000000 0.374802
#
# Coordination Sequence:
#
# PCOD9443445 Si02
#       8
#     8   8   8   8   8   2   8   8
#     4  11  21  38  61  86 122 156 193 244 299 358
#     4  10  20  36  59  81 110 159 202 233 277 352
#     4  11  21  36  60  88 118 148 192 244 298 346
#     4  11  23  35  56  90 120 154 193 250 303 344
#     4  10  20  36  60  87 115 154 198 240 289 355
#     4  12  20  32  60  96 112 146 184 240 304 344
#     4  10  20  39  60  81 111 158 205 240 284 351
#     4  11  22  36  53  84 122 153 189 242 291 347
#
# _framework density 19.495739
#
# number of rings (size 3 to 8) (size 9 to 14) (size 15 to 20)
#    0.000    1.379    4.828    1.655    0.000    2.483 
#    0.000    0.000    0.000    1.655    0.000    0.000 
#    0.000    0.000    0.000    0.000    0.000    0.000 
#
# Total GULP energy -322988.451766 kJ/mol
# GULP energy per Si atom -5568.766410 kJ/mol
# Density = 1.945137 g / cm^3
# Si number density = 19.495739 Si / 1000 Ang^3
#
#
#
# Elastic Constant Matrix: (Units=GPa)
#
#
# Indices 1 2 3 4 5 6 
#
# 1 33.2354 -3.4510 -1.5881 0.0000 0.0000 0.0000
# 2 -3.4510 68.0039 23.1349 0.0000 0.0000 0.0000
# 3 -1.5881 23.1349 48.2001 0.0000 0.0000 0.0000
# 4 0.0000 0.0000 0.0000 18.7767 0.0000 0.0000
# 5 0.0000 0.0000 0.0000 0.0000 21.5082 0.0000
# 6 0.0000 0.0000 0.0000 0.0000 0.0000 10.8672
#
#
#
# Elastic Compliance Matrix: (Units=1/GPa)
#
#
# Indices 1 2 3 4 5 6 
#
# 1 0.030252 0.001430 0.000311 0.000000 0.000000 0.000000
# 2 0.001430 0.017642 -0.008421 0.000000 0.000000 0.000000
# 3 0.000311 -0.008421 0.024799 0.000000 0.000000 0.000000
# 4 0.000000 0.000000 0.000000 0.053257 0.000000 0.000000
# 5 0.000000 0.000000 0.000000 0.000000 0.046494 0.000000
# 6 0.000000 0.000000 0.000000 0.000000 0.000000 0.092020
#
#
# Mechanical properties :
#
#
# Convention : Reuss Voigt Hill
#
# Bulk Modulus (GPa) = 16.85443 20.62565 18.74004
# Shear Modulus (GPa) = 16.80092 18.98667 17.89380
#
# Velocity S-wave (km/s) = 2.93878 3.12410 3.03286
# Velocity P-wave (km/s) = 4.49213 4.85962 4.67948
#
# Compressibility (1/GPa) = 0.05933157
#
# Stress axis : x y z
#
# Youngs Moduli (GPa) = 33.05602 56.68180 40.32442
#
# Poissons Ratio (x) = -0.08103 -0.01253
# Poissons Ratio (y) = -0.04725 0.33956
# Poissons Ratio (z) = -0.01027 0.47731
#
# Static dielectric constant tensor:
#      x y z
#    x 1.705750 0.000000 0.000000 
#    y 0.000000 1.715330 0.000000 
#    z 0.000000 0.000000 1.690890 
# 
# From -- ./inp_files/21473.got.cif
#   From: 2010.05.17/outbox.cif.g08.bks.cpg/sg58_11_cif.got.tgz:21473.got - 2010.06.03 14:20:14.
