data_PCOD9443221
_publ_section_title
;
Structure prediction by ZEFSAII (Michael W. Deem and Ramdas Pophale) SiO2 
 PCOD9443221
Probable space group: P N N M
;
_chemical_formula_sum "Si O2"
_cell_formula_units_Z 64
_cell_length_a 14.210031
_cell_length_b 24.530123
_cell_length_c 9.133808
_cell_angle_alpha 90.000000
_cell_angle_beta 90.000000
_cell_angle_gamma 90.000000
_cell_volume 3183.806239
_symmetry_space_group_name_H-M "P N N M"
_symmetry_group_IT_number 58
_symmetry_cell_setting 'orthorhombic'
loop_
_space_group_symop_operation_xyz
x,y,z
-x,-y,z
1/2+x,1/2-y,1/2-z
1/2-x,1/2+y,1/2-z
-x,-y,-z
x,y,-z
1/2-x,1/2+y,1/2+z
1/2+x,1/2-y,1/2+z
loop_
_atom_site_type_symbol
_atom_site_label
_atom_site_fract_x
_atom_site_fract_y
_atom_site_fract_z
Si Si1 0.718336 0.957059 0.671084
Si Si2 0.057218 0.055141 0.336669
Si Si3 0.586087 0.166025 0.822508
Si Si4 0.588047 0.039548 0.823498
Si Si5 0.774967 0.232304 0.175755
Si Si6 0.216990 0.651024 0.664979
Si Si7 0.040461 0.763393 0.672595
Si Si8 0.438735 0.653395 0.660021
O O1 0.693126 0.955987 0.500000
O O2 0.831804 0.956597 0.681140
O O3 0.680718 0.902215 0.750932
O O4 0.676148 0.009816 0.749327
O O5 0.046229 0.079593 0.500000
O O6 0.019580 0.097072 0.217025
O O7 0.000000 0.000000 0.330302
O O8 0.579367 0.102905 0.776356
O O9 0.683197 0.197160 0.777395
O O10 0.496009 0.203242 0.780465
O O11 0.587298 0.166518 0.000000
O O12 0.500000 0.000000 0.787326
O O13 0.597807 0.039364 0.000000
O O14 0.783664 0.292552 0.246661
O O15 0.873230 0.209898 0.239220
O O16 0.774573 0.235420 0.000000
O O17 0.176455 0.655681 0.500000
O O18 0.328390 0.642085 0.648812
O O19 0.058888 0.763971 0.500000
O O20 0.953710 0.801644 0.716388
O O21 0.472437 0.671307 0.500000
#
# Coordination Sequence:
#
# PCOD9443221 Si02
#       8
#     8   8   8   8   8   8   8   8
#     4  10  21  37  58  86 118 153 196 251 308 358
#     4   9  19  36  58  84 117 158 200 241 296 367
#     4   9  21  41  62  87 124 164 201 251 312 368
#     4  10  22  41  64  87 116 162 213 257 304 363
#     4  11  22  38  60  89 122 157 199 250 310 367
#     4  10  20  36  59  85 114 150 197 247 301 366
#     4  11  22  38  60  87 121 162 205 247 307 375
#     4  10  20  35  56  84 117 151 196 248 300 356
#
# _framework density 20.101724999999998
#
# number of rings (size 3 to 8) (size 9 to 14) (size 15 to 20)
#    0.000    2.000    1.250    1.875    1.750    3.000 
#    0.000    5.000    0.000    0.000    0.000    0.000 
#    0.000    0.000    0.000    0.000    0.000    0.000 
#
# Total GULP energy -356756.656189 kJ/mol
# GULP energy per Si atom -5574.322753 kJ/mol
# Density = 2.005597 g / cm^3
# Si number density = 20.101725 Si / 1000 Ang^3
#
#
#
# Elastic Constant Matrix: (Units=GPa)
#
#
# Indices 1 2 3 4 5 6 
#
# 1 50.4026 27.8223 23.4180 0.0000 0.0000 0.0000
# 2 27.8223 111.5458 29.7043 0.0000 0.0000 0.0000
# 3 23.4180 29.7043 59.5821 0.0000 0.0000 0.0000
# 4 0.0000 0.0000 0.0000 28.5700 0.0000 0.0000
# 5 0.0000 0.0000 0.0000 0.0000 24.4640 0.0000
# 6 0.0000 0.0000 0.0000 0.0000 0.0000 26.4127
#
#
#
# Elastic Compliance Matrix: (Units=1/GPa)
#
#
# Indices 1 2 3 4 5 6 
#
# 1 0.025972 -0.004335 -0.008047 0.000000 0.000000 0.000000
# 2 -0.004335 0.011061 -0.003810 0.000000 0.000000 0.000000
# 3 -0.008047 -0.003810 0.021846 0.000000 0.000000 0.000000
# 4 0.000000 0.000000 0.000000 0.035002 0.000000 0.000000
# 5 0.000000 0.000000 0.000000 0.000000 0.040876 0.000000
# 6 0.000000 0.000000 0.000000 0.000000 0.000000 0.037861
#
#
# Mechanical properties :
#
#
# Convention : Reuss Voigt Hill
#
# Bulk Modulus (GPa) = 37.74428 42.60218 40.17323
# Shear Modulus (GPa) = 23.38267 25.26173 24.32220
#
# Velocity S-wave (km/s) = 3.41430 3.54883 3.48222
# Velocity P-wave (km/s) = 5.86179 6.16698 6.01632
#
# Compressibility (1/GPa) = 0.02649408
#
# Stress axis : x y z
#
# Youngs Moduli (GPa) = 38.50314 90.40811 45.77519
#
# Poissons Ratio (x) = 0.39194 0.36834
# Poissons Ratio (y) = 0.16692 0.17442
# Poissons Ratio (z) = 0.30982 0.34450
#
# Static dielectric constant tensor:
#      x y z
#    x 1.793990 0.000000 0.000000 
#    y 0.000000 1.723610 0.000000 
#    z 0.000000 0.000000 1.720720 
# 
# From -- ./inp_files/6884.got.cif
#   From: 2010.05.17/outbox.cif.g08.bks.cpg/sg58_4_cif.got.tgz:6884.got - 2010.06.03 14:20:14.
