data_PCOD9443960
_publ_section_title
;
Structure prediction by ZEFSAII (Michael W. Deem and Ramdas Pophale) SiO2 
 PCOD9443960
Probable space group: P N N M
;
_chemical_formula_sum "Si O2"
_cell_formula_units_Z 58
_cell_length_a 11.984055
_cell_length_b 27.552357
_cell_length_c 7.751762
_cell_angle_alpha 90.000000
_cell_angle_beta 90.000000
_cell_angle_gamma 90.000000
_cell_volume 2559.546246
_symmetry_space_group_name_H-M "P N N M"
_symmetry_group_IT_number 58
_symmetry_cell_setting 'orthorhombic'
loop_
_space_group_symop_operation_xyz
x,y,z
-x,-y,z
1/2+x,1/2-y,1/2-z
1/2-x,1/2+y,1/2-z
-x,-y,-z
x,y,-z
1/2-x,1/2+y,1/2+z
1/2+x,1/2-y,1/2+z
loop_
_atom_site_type_symbol
_atom_site_label
_atom_site_fract_x
_atom_site_fract_y
_atom_site_fract_z
Si Si1 0.676808 0.601997 0.697937
Si Si2 0.344244 0.501993 0.186297
Si Si3 0.775932 0.849389 0.794572
Si Si4 0.500000 0.500000 0.500000
Si Si5 0.428409 0.888915 0.294924
Si Si6 0.935661 0.293759 0.207730
Si Si7 0.513111 0.685972 0.710717
Si Si8 0.641395 0.944369 0.206802
O O1 0.640865 0.589778 0.500000
O O2 0.641493 0.555814 0.806738
O O3 0.809446 0.606616 0.706104
O O4 0.616251 0.651120 0.753180
O O5 0.415179 0.520922 0.347200
O O6 0.212631 0.511679 0.217879
O O7 0.376715 0.521644 0.000000
O O8 0.691062 0.805616 0.757894
O O9 0.714519 0.897792 0.730726
O O10 0.898311 0.837943 0.726847
O O11 0.784732 0.855193 0.000000
O O12 0.409906 0.885635 0.500000
O O13 0.489564 0.839359 0.232916
O O14 0.515389 0.932527 0.260622
O O15 0.972987 0.241135 0.271434
O O16 0.942058 0.293778 0.000000
O O17 0.509042 0.687900 0.500000
O O18 0.642517 0.947656 0.000000
#
# Coordination Sequence:
#
# PCOD9443960 Si02
#       8
#     8   8   8   2   8   8   8   8
#     4  11  23  41  63  91 130 172 219 272 334 400
#     4  12  26  44  70 101 134 176 226 272 337 395
#     4   9  19  35  60  86 116 156 206 259 316 388
#     4  12  26  48  68  96 140 180 214 272 322 398
#     4  10  21  38  62  91 129 166 218 277 333 398
#     4   9  19  37  57  85 120 162 209 264 324 386
#     4   9  20  36  59  84 120 167 208 260 330 392
#     4  10  20  39  66  94 125 169 221 270 328 393
#
# _framework density 22.660267999999999
#
# number of rings (size 3 to 8) (size 9 to 14) (size 15 to 20)
#    0.000    1.931    1.379    1.448    3.862    1.655 
#    0.000    5.517    0.000    0.000    0.000    0.000 
#    0.000    0.000    0.000    0.000    0.000    0.000 
#
# Total GULP energy -323772.066920 kJ/mol
# GULP energy per Si atom -5582.277016 kJ/mol
# Density = 2.260869 g / cm^3
# Si number density = 22.660268 Si / 1000 Ang^3
#
#
#
# Elastic Constant Matrix: (Units=GPa)
#
#
# Indices 1 2 3 4 5 6 
#
# 1 119.2458 4.4586 18.3886 0.0000 0.0000 0.0000
# 2 4.4586 44.8052 9.9773 0.0000 0.0000 0.0000
# 3 18.3886 9.9773 96.7609 0.0000 0.0000 0.0000
# 4 0.0000 0.0000 0.0000 13.8277 0.0000 0.0000
# 5 0.0000 0.0000 0.0000 0.0000 -480.8586 0.0000
# 6 0.0000 0.0000 0.0000 0.0000 0.0000 20.7481
#
#
#
# Elastic Compliance Matrix: (Units=1/GPa)
#
#
# Indices 1 2 3 4 5 6 
#
# 1 0.008650 -0.000506 -0.001592 0.000000 0.000000 0.000000
# 2 -0.000506 0.022873 -0.002262 0.000000 0.000000 0.000000
# 3 -0.001592 -0.002262 0.010871 0.000000 0.000000 0.000000
# 4 0.000000 0.000000 0.000000 0.072318 0.000000 0.000000
# 5 0.000000 0.000000 0.000000 0.000000 -0.002080 0.000000
# 6 0.000000 0.000000 0.000000 0.000000 0.000000 0.048197
#
#
# Mechanical properties :
#
#
# Convention : Reuss Voigt Hill
#
# Bulk Modulus (GPa) = 29.69717 36.27343 32.98530
# Shear Modulus (GPa) = 27.65869 -74.05740 -23.19935
#
# Velocity S-wave (km/s) = 3.49747 -5.72298 -3.20314
# Velocity P-wave (km/s) = 5.42619 5.25622 0.95283
#
# Compressibility (1/GPa) = 0.03367324
#
# Stress axis : x y z
#
# Youngs Moduli (GPa) = 115.60120 43.71965 91.99196
#
# Poissons Ratio (x) = 0.02214 0.14643
# Poissons Ratio (y) = 0.05853 0.20811
# Poissons Ratio (z) = 0.18401 0.09891
#
# Static dielectric constant tensor:
#      x y z
#    x 1.861060 0.000000 0.000000 
#    y 0.000000 1.874060 0.000000 
#    z 0.000000 0.000000 1.824180 
# 
# From -- ./inp_files/4455.got.cif
#   From: 2010.05.17/outbox.cif.g08.bks.cpg/sg58_3_cif.got.tgz:4455.got - 2010.06.03 14:20:14.
