data_PCOD9443631
_publ_section_title
;
Structure prediction by ZEFSAII (Michael W. Deem and Ramdas Pophale) SiO2 
 PCOD9443631
Probable space group: P N N M
;
_chemical_formula_sum "Si O2"
_cell_formula_units_Z 64
_cell_length_a 31.679952
_cell_length_b 12.234095
_cell_length_c 8.406664
_cell_angle_alpha 90.000000
_cell_angle_beta 90.000000
_cell_angle_gamma 90.000000
_cell_volume 3258.217359
_symmetry_space_group_name_H-M "P N N M"
_symmetry_group_IT_number 58
_symmetry_cell_setting 'orthorhombic'
loop_
_space_group_symop_operation_xyz
x,y,z
-x,-y,z
1/2+x,1/2-y,1/2-z
1/2-x,1/2+y,1/2-z
-x,-y,-z
x,y,-z
1/2-x,1/2+y,1/2+z
1/2+x,1/2-y,1/2+z
loop_
_atom_site_type_symbol
_atom_site_label
_atom_site_fract_x
_atom_site_fract_y
_atom_site_fract_z
Si Si1 0.125243 0.101320 0.309851
Si Si2 0.293196 0.212978 0.191211
Si Si3 0.166567 0.495336 0.191862
Si Si4 0.874381 0.150216 0.694504
Si Si5 0.698427 0.242822 0.692503
Si Si6 0.959137 0.275377 0.689825
Si Si7 0.930853 0.503190 0.808002
Si Si8 0.951201 0.750228 0.189933
O O1 0.126253 0.099968 0.500000
O O2 0.166867 0.163382 0.249576
O O3 0.084262 0.169247 0.256297
O O4 0.123896 0.975717 0.253919
O O5 0.304717 0.090027 0.238168
O O6 0.331434 0.290300 0.248893
O O7 0.246471 0.242949 0.248997
O O8 0.292603 0.221854 0.000000
O O9 0.180548 0.374844 0.243492
O O10 0.117993 0.515018 0.237238
O O11 0.168883 0.499139 0.000000
O O12 0.874210 0.152067 0.500000
O O13 0.916104 0.216368 0.745662
O O14 0.698266 0.244292 0.500000
O O15 0.960803 0.268288 0.500000
O O16 0.957018 0.402348 0.740187
O O17 0.001277 0.221997 0.759960
O O18 0.942872 0.625163 0.754741
O O19 0.934588 0.500222 0.000000
O O20 0.947466 0.750336 0.000000
#
# Coordination Sequence:
#
# PCOD9443631 Si02
#       8
#     8   8   8   8   8   8   8   8
#     4  11  23  40  63  86 114 154 202 243 286 345
#     4  10  21  39  62  87 118 157 198 239 290 346
#     4  10  20  37  61  87 118 155 192 236 294 348
#     4   9  21  40  59  83 117 156 192 239 294 344
#     4  10  22  40  61  87 122 159 193 239 298 349
#     4  11  22  38  61  88 118 150 196 245 290 345
#     4  10  20  37  59  84 118 157 189 231 295 355
#     4  11  23  41  61  85 121 155 191 237 298 355
#
# _framework density 19.642641999999999
#
# number of rings (size 3 to 8) (size 9 to 14) (size 15 to 20)
#    0.000    1.750    2.500    1.500    1.750    4.000 
#    0.000    6.250    0.000    0.000    0.000    0.000 
#    0.000    0.000    0.000    0.000    0.000    0.000 
#
# Total GULP energy -357584.835260 kJ/mol
# GULP energy per Si atom -5587.263051 kJ/mol
# Density = 1.959793 g / cm^3
# Si number density = 19.642642 Si / 1000 Ang^3
#
#
#
# Elastic Constant Matrix: (Units=GPa)
#
#
# Indices 1 2 3 4 5 6 
#
# 1 120.6955 41.8775 7.8475 0.0000 0.0000 0.0000
# 2 41.8775 122.5258 8.3427 0.0000 0.0000 0.0000
# 3 7.8475 8.3427 9.4284 0.0000 0.0000 0.0000
# 4 0.0000 0.0000 0.0000 3.4192 0.0000 0.0000
# 5 0.0000 0.0000 0.0000 0.0000 29.1838 0.0000
# 6 0.0000 0.0000 0.0000 0.0000 0.0000 18.3181
#
#
#
# Elastic Compliance Matrix: (Units=1/GPa)
#
#
# Indices 1 2 3 4 5 6 
#
# 1 0.009656 -0.002929 -0.005445 0.000000 0.000000 0.000000
# 2 -0.002929 0.009574 -0.006033 0.000000 0.000000 0.000000
# 3 -0.005445 -0.006033 0.115933 0.000000 0.000000 0.000000
# 4 0.000000 0.000000 0.000000 0.292468 0.000000 0.000000
# 5 0.000000 0.000000 0.000000 0.000000 0.034266 0.000000
# 6 0.000000 0.000000 0.000000 0.000000 0.000000 0.054591
#
#
# Mechanical properties :
#
#
# Convention : Reuss Voigt Hill
#
# Bulk Modulus (GPa) = 9.40306 40.97613 25.18960
# Shear Modulus (GPa) = 8.60955 23.15634 15.88294
#
# Velocity S-wave (km/s) = 2.09585 3.43721 2.84667
# Velocity P-wave (km/s) = 3.26409 6.05464 4.86379
#
# Compressibility (1/GPa) = 0.10634832
#
# Stress axis : x y z
#
# Youngs Moduli (GPa) = 103.56522 104.45417 8.62567
#
# Poissons Ratio (x) = 0.30600 0.04696
# Poissons Ratio (y) = 0.30339 0.05204
# Poissons Ratio (z) = 0.56387 0.63017
#
# Static dielectric constant tensor:
#      x y z
#    x 1.685150 0.000000 0.000000 
#    y 0.000000 1.660610 0.000000 
#    z 0.000000 0.000000 1.680180 
# 
# From -- ./inp_files/4648.got.cif
#   From: 2010.05.17/outbox.cif.g08.bks.cpg/sg58_3_cif.got.tgz:4648.got - 2010.06.03 14:20:14.
