data_PCOD9443005
_publ_section_title
;
Structure prediction by ZEFSAII (Michael W. Deem and Ramdas Pophale) SiO2 
 PCOD9443005
Probable space group: P N N M
;
_chemical_formula_sum "Si O2"
_cell_formula_units_Z 64
_cell_length_a 25.649264
_cell_length_b 14.625779
_cell_length_c 7.449902
_cell_angle_alpha 90.000000
_cell_angle_beta 90.000000
_cell_angle_gamma 90.000000
_cell_volume 2794.759714
_symmetry_space_group_name_H-M "P N N M"
_symmetry_group_IT_number 58
_symmetry_cell_setting 'orthorhombic'
loop_
_space_group_symop_operation_xyz
x,y,z
-x,-y,z
1/2+x,1/2-y,1/2-z
1/2-x,1/2+y,1/2-z
-x,-y,-z
x,y,-z
1/2-x,1/2+y,1/2+z
1/2+x,1/2-y,1/2+z
loop_
_atom_site_type_symbol
_atom_site_label
_atom_site_fract_x
_atom_site_fract_y
_atom_site_fract_z
Si Si1 0.245378 0.385818 0.706193
Si Si2 0.369200 0.910174 0.795927
Si Si3 0.445834 0.455227 0.719885
Si Si4 0.018356 0.399370 0.717033
Si Si5 0.069424 0.750103 0.211730
Si Si6 0.650959 0.890592 0.284166
Si Si7 0.166257 0.026041 0.219720
Si Si8 0.260421 0.681017 0.291132
O O1 0.239900 0.417587 0.500000
O O2 0.187562 0.395470 0.790141
O O3 0.293341 0.445776 0.778669
O O4 0.254688 0.277338 0.705302
O O5 0.423385 0.875703 0.715752
O O6 0.375189 0.019768 0.796430
O O7 0.365893 0.874218 0.000000
O O8 0.500000 0.500000 0.778523
O O9 0.446390 0.456313 0.500000
O O10 0.442070 0.350354 0.782661
O O11 0.392693 0.506002 0.775905
O O12 0.021345 0.404107 0.500000
O O13 0.000000 0.500000 0.780285
O O14 0.977454 0.321275 0.765210
O O15 0.120750 0.699069 0.281782
O O16 0.078533 0.762624 0.000000
O O17 0.647133 0.896468 0.500000
O O18 0.710935 0.885033 0.230834
O O19 0.190261 0.123429 0.277674
O O20 0.166219 0.025821 0.000000
O O21 0.268900 0.700034 0.500000
#
# Coordination Sequence:
#
# PCOD9443005 Si02
#       8
#     8   8   8   8   8   8   8   8
#     4  10  20  37  57  79 113 152 186 228 283 342
#     4  10  20  36  56  79 111 153 190 227 283 342
#     4   9  18  34  56  81 108 142 186 232 279 333
#     4  10  20  34  55  81 112 150 189 225 277 346
#     4  10  21  35  56  84 111 146 191 237 286 336
#     4  11  21  34  55  82 113 147 188 235 285 340
#     4   9  18  35  57  78 109 149 185 225 281 339
#     4  11  22  36  57  85 113 148 192 235 283 342
#
# _framework density 22.900002000000001
#
# number of rings (size 3 to 8) (size 9 to 14) (size 15 to 20)
#    0.000    2.000    2.500    1.500    0.000    4.750 
#    0.000    1.250    0.000    1.875    0.000    0.000 
#    0.000    0.000    0.000    0.000    0.000    0.000 
#
# Total GULP energy -357462.976316 kJ/mol
# GULP energy per Si atom -5585.359005 kJ/mol
# Density = 2.284788 g / cm^3
# Si number density = 22.900002 Si / 1000 Ang^3
#
#
#
# Elastic Constant Matrix: (Units=GPa)
#
#
# Indices 1 2 3 4 5 6 
#
# 1 150.9112 19.1627 -3.5115 0.0000 0.0000 0.0000
# 2 19.1627 55.1778 -1.6993 0.0000 0.0000 0.0000
# 3 -3.5115 -1.6993 73.1486 0.0000 0.0000 0.0000
# 4 0.0000 0.0000 0.0000 17.7158 0.0000 0.0000
# 5 0.0000 0.0000 0.0000 0.0000 -1.7405 0.0000
# 6 0.0000 0.0000 0.0000 0.0000 0.0000 32.0428
#
#
#
# Elastic Compliance Matrix: (Units=1/GPa)
#
#
# Indices 1 2 3 4 5 6 
#
# 1 0.006938 -0.002401 0.000277 0.000000 0.000000 0.000000
# 2 -0.002401 0.018967 0.000325 0.000000 0.000000 0.000000
# 3 0.000277 0.000325 0.013692 0.000000 0.000000 0.000000
# 4 0.000000 0.000000 0.000000 0.056447 0.000000 0.000000
# 5 0.000000 0.000000 0.000000 0.000000 -0.574547 0.000000
# 6 0.000000 0.000000 0.000000 0.000000 0.000000 0.031208
#
#
# Mechanical properties :
#
#
# Convention : Reuss Voigt Hill
#
# Bulk Modulus (GPa) = 27.77779 34.12683 30.95231
# Shear Modulus (GPa) = -11.58214 27.28933 7.85360
#
# Velocity S-wave (km/s) = -2.25137 3.45581 1.85390
# Velocity P-wave (km/s) = 2.32339 5.55503 4.25773
#
# Compressibility (1/GPa) = 0.03599999
#
# Stress axis : x y z
#
# Youngs Moduli (GPa) = 144.13938 52.72300 73.03711
#
# Poissons Ratio (x) = 0.12658 -0.02025
# Poissons Ratio (y) = 0.34606 -0.02376
# Poissons Ratio (z) = -0.03997 -0.01715
#
# Static dielectric constant tensor:
#      x y z
#    x 1.861190 0.000000 0.000000 
#    y 0.000000 1.854490 0.000000 
#    z 0.000000 0.000000 1.864130 
# 
# From -- ./inp_files/6799.got.cif
#   From: 2010.05.17/outbox.cif.g08.bks.cpg/sg58_4_cif.got.tgz:6799.got - 2010.06.03 14:20:14.
