data_PCOD9443551
_publ_section_title
;
Structure prediction by ZEFSAII (Michael W. Deem and Ramdas Pophale) SiO2 
 PCOD9443551
Probable space group: P N N M
;
_chemical_formula_sum "Si O2"
_cell_formula_units_Z 64
_cell_length_a 23.008418
_cell_length_b 8.176528
_cell_length_c 14.986686
_cell_angle_alpha 90.000000
_cell_angle_beta 90.000000
_cell_angle_gamma 90.000000
_cell_volume 2819.429861
_symmetry_space_group_name_H-M "P N N M"
_symmetry_group_IT_number 58
_symmetry_cell_setting 'orthorhombic'
loop_
_space_group_symop_operation_xyz
x,y,z
-x,-y,z
1/2+x,1/2-y,1/2-z
1/2-x,1/2+y,1/2-z
-x,-y,-z
x,y,-z
1/2-x,1/2+y,1/2+z
1/2+x,1/2-y,1/2+z
loop_
_atom_site_type_symbol
_atom_site_label
_atom_site_fract_x
_atom_site_fract_y
_atom_site_fract_z
Si Si1 0.360349 0.546960 0.268073
Si Si2 0.349099 0.203008 0.815258
Si Si3 0.310689 0.720321 0.900238
Si Si4 0.040415 0.297098 0.787133
Si Si5 0.917277 0.549114 0.602168
Si Si6 0.273873 0.728770 0.400803
Si Si7 0.436826 0.125719 0.398251
Si Si8 0.310834 0.096195 0.360217
O O1 0.361925 0.356061 0.248709
O O2 0.343357 0.610124 0.170187
O O3 0.419439 0.638446 0.295476
O O4 0.310315 0.616346 0.333024
O O5 0.294007 0.236355 0.876897
O O6 0.326366 0.070455 0.743430
O O7 0.404814 0.136639 0.867791
O O8 0.351022 0.880219 0.900908
O O9 0.243529 0.718165 0.871574
O O10 0.311818 0.652160 0.000000
O O11 0.048337 0.363205 0.684396
O O12 0.061925 0.443497 0.853421
O O13 0.976206 0.273762 0.828036
O O14 0.939380 0.568226 0.500000
O O15 0.282121 0.663850 0.500000
O O16 0.295241 0.916738 0.395874
O O17 0.459353 0.134717 0.500000
O O18 0.369057 0.164562 0.403354
#
# Coordination Sequence:
#
# PCOD9443551 Si02
#       8
#     8   8   8   8   8   8   8   8
#     4  11  23  38  63  94 135 175 217 272 327 390
#     4  12  23  39  59  91 135 177 211 261 330 396
#     4  10  20  36  61  96 133 169 211 262 324 388
#     4  10  21  41  65  96 124 168 223 283 330 375
#     4  10  22  41  66  96 133 172 219 275 330 399
#     4  12  23  38  61  91 132 176 216 262 323 396
#     4  11  22  40  72  98 125 171 227 275 326 397
#     4  12  22  38  64  95 134 170 220 263 325 394
#
# _framework density 22.699625000000001
#
# number of rings (size 3 to 8) (size 9 to 14) (size 15 to 20)
#    0.000    1.000    5.000    3.000    1.750    1.000 
#    0.000    3.125    0.000    0.750    0.000    3.500 
#    0.000    0.000    0.000    0.000    0.000    0.000 
#
# Total GULP energy -357220.078120 kJ/mol
# GULP energy per Si atom -5581.563721 kJ/mol
# Density = 2.264796 g / cm^3
# Si number density = 22.699625 Si / 1000 Ang^3
#
#
#
# Elastic Constant Matrix: (Units=GPa)
#
#
# Indices 1 2 3 4 5 6 
#
# 1 124.4678 16.0177 17.5417 0.0000 0.0000 0.0000
# 2 16.0177 55.3065 18.5636 0.0000 0.0000 0.0000
# 3 17.5417 18.5636 171.1067 0.0000 0.0000 0.0000
# 4 0.0000 0.0000 0.0000 -16.2943 0.0000 0.0000
# 5 0.0000 0.0000 0.0000 0.0000 22.0098 0.0000
# 6 0.0000 0.0000 0.0000 0.0000 0.0000 28.9419
#
#
#
# Elastic Compliance Matrix: (Units=1/GPa)
#
#
# Indices 1 2 3 4 5 6 
#
# 1 0.008408 -0.002227 -0.000620 0.000000 0.000000 0.000000
# 2 -0.002227 0.019354 -0.001871 0.000000 0.000000 0.000000
# 3 -0.000620 -0.001871 0.006111 0.000000 0.000000 0.000000
# 4 0.000000 0.000000 0.000000 -0.061371 0.000000 0.000000
# 5 0.000000 0.000000 0.000000 0.000000 0.045434 0.000000
# 6 0.000000 0.000000 0.000000 0.000000 0.000000 0.034552
#
#
# Mechanical properties :
#
#
# Convention : Reuss Voigt Hill
#
# Bulk Modulus (GPa) = 40.92364 50.56967 45.74666
# Shear Modulus (GPa) = 71.35579 26.84866 49.10222
#
# Velocity S-wave (km/s) = 5.61276 3.44289 4.65599
# Velocity P-wave (km/s) = 7.75058 6.17501 7.00722
#
# Compressibility (1/GPa) = 0.02443575
#
# Stress axis : x y z
#
# Youngs Moduli (GPa) = 118.93114 51.66849 163.64076
#
# Poissons Ratio (x) = 0.11506 0.10152
# Poissons Ratio (y) = 0.26485 0.30625
# Poissons Ratio (z) = 0.07378 0.09670
#
# Static dielectric constant tensor:
#      x y z
#    x 1.932390 0.000000 0.000000 
#    y 0.000000 1.933130 0.000000 
#    z 0.000000 0.000000 1.859060 
# 
# From -- ./inp_files/23520.got.cif
#   From: 2010.05.17/outbox.cif.g08.bks.cpg/sg58_12_cif.got.tgz:23520.got - 2010.06.03 14:20:14.
