data_PCOD9443882
_publ_section_title
;
Structure prediction by ZEFSAII (Michael W. Deem and Ramdas Pophale) SiO2 
 PCOD9443882
Probable space group: P N N M
;
_chemical_formula_sum "Si O2"
_cell_formula_units_Z 40
_cell_length_a 10.183715
_cell_length_b 12.179567
_cell_length_c 13.426346
_cell_angle_alpha 90.000000
_cell_angle_beta 90.000000
_cell_angle_gamma 90.000000
_cell_volume 1665.313184
_symmetry_space_group_name_H-M "P N N M"
_symmetry_group_IT_number 58
_symmetry_cell_setting 'orthorhombic'
loop_
_space_group_symop_operation_xyz
x,y,z
-x,-y,z
1/2+x,1/2-y,1/2-z
1/2-x,1/2+y,1/2-z
-x,-y,-z
x,y,-z
1/2-x,1/2+y,1/2+z
1/2+x,1/2-y,1/2+z
loop_
_atom_site_type_symbol
_atom_site_label
_atom_site_fract_x
_atom_site_fract_y
_atom_site_fract_z
Si Si1 0.779054 0.727536 0.382324
Si Si2 0.878682 0.585652 0.115024
Si Si3 0.046572 0.624629 0.388964
Si Si4 0.486007 0.664678 0.617332
Si Si5 0.276836 0.566833 0.242132
O O1 0.787047 0.711037 0.500000
O O2 0.919474 0.684477 0.345630
O O3 0.640067 0.672843 0.355847
O O4 0.776914 0.853647 0.352787
O O5 0.928145 0.710874 0.124035
O O6 0.769909 0.548117 0.195137
O O7 0.000000 0.500000 0.129974
O O8 0.834187 0.572290 0.000000
O O9 0.082761 0.666572 0.500000
O O10 0.000000 0.500000 0.399959
O O11 0.166674 0.618487 0.314889
O O12 0.473178 0.632242 0.500000
O O13 0.405459 0.586816 0.691552
#
# Coordination Sequence:
#
# PCOD9443882 Si02
#       5
#     8   8   8   8   8
#     4  10  21  38  61  90 124 163 207 259 316 383
#     4  10  20  38  64  94 128 167 213 266 327 391
#     4  10  23  41  62  89 127 169 209 256 319 385
#     4  10  22  40  63  94 130 167 212 269 329 384
#     4  12  21  34  65  96 125 165 217 269 316 383
#
# _framework density 24.019506
#
# number of rings (size 3 to 8) (size 9 to 14) (size 15 to 20)
#    0.000    1.600    2.000    3.000    2.800    0.000 
#    0.000    1.000    4.400    4.800    0.000    8.400 
#    0.000    0.000    0.000    0.000    0.000    0.000 
#
# Total GULP energy -223747.630641 kJ/mol
# GULP energy per Si atom -5593.690766 kJ/mol
# Density = 2.396484 g / cm^3
# Si number density = 24.019506 Si / 1000 Ang^3
#
#
#
# Elastic Constant Matrix: (Units=GPa)
#
#
# Indices 1 2 3 4 5 6 
#
# 1 130.3583 32.2387 52.3365 0.0000 0.0000 0.0000
# 2 32.2387 80.0946 22.0427 0.0000 0.0000 0.0000
# 3 52.3365 22.0427 103.7950 0.0000 0.0000 0.0000
# 4 0.0000 0.0000 0.0000 29.4294 0.0000 0.0000
# 5 0.0000 0.0000 0.0000 0.0000 68.0640 0.0000
# 6 0.0000 0.0000 0.0000 0.0000 0.0000 33.5490
#
#
#
# Elastic Compliance Matrix: (Units=1/GPa)
#
#
# Indices 1 2 3 4 5 6 
#
# 1 0.010199 -0.002857 -0.004536 0.000000 0.000000 0.000000
# 2 -0.002857 0.014060 -0.001546 0.000000 0.000000 0.000000
# 3 -0.004536 -0.001546 0.012250 0.000000 0.000000 0.000000
# 4 0.000000 0.000000 0.000000 0.033980 0.000000 0.000000
# 5 0.000000 0.000000 0.000000 0.000000 0.014692 0.000000
# 6 0.000000 0.000000 0.000000 0.000000 0.000000 0.029807
#
#
# Mechanical properties :
#
#
# Convention : Reuss Voigt Hill
#
# Bulk Modulus (GPa) = 53.66923 58.60930 56.13926
# Shear Modulus (GPa) = 35.95189 40.05047 38.00118
#
# Velocity S-wave (km/s) = 3.87302 4.08783 3.98187
# Velocity P-wave (km/s) = 6.51098 6.83624 6.67559
#
# Compressibility (1/GPa) = 0.01863265
#
# Stress axis : x y z
#
# Youngs Moduli (GPa) = 98.05168 71.12152 81.63478
#
# Poissons Ratio (x) = 0.20318 0.37028
# Poissons Ratio (y) = 0.28011 0.12617
# Poissons Ratio (z) = 0.44474 0.10992
#
# Static dielectric constant tensor:
#      x y z
#    x 1.705640 0.000000 0.000000 
#    y 0.000000 1.801320 0.000000 
#    z 0.000000 0.000000 1.980080 
# 
# From -- ./inp_files/19490.got.cif
#   From: 2010.05.17/outbox.cif.g08.bks.cpg/sg58_10_cif.got.tgz:19490.got - 2010.06.03 14:20:14.
