data_PCOD9443397
_publ_section_title
;
Structure prediction by ZEFSAII (Michael W. Deem and Ramdas Pophale) SiO2 
 PCOD9443397
Probable space group: P N N M
;
_chemical_formula_sum "Si O2"
_cell_formula_units_Z 64
_cell_length_a 16.851069
_cell_length_b 20.625015
_cell_length_c 7.901454
_cell_angle_alpha 90.000000
_cell_angle_beta 90.000000
_cell_angle_gamma 90.000000
_cell_volume 2746.178395
_symmetry_space_group_name_H-M "P N N M"
_symmetry_group_IT_number 58
_symmetry_cell_setting 'orthorhombic'
loop_
_space_group_symop_operation_xyz
x,y,z
-x,-y,z
1/2+x,1/2-y,1/2-z
1/2-x,1/2+y,1/2-z
-x,-y,-z
x,y,-z
1/2-x,1/2+y,1/2+z
1/2+x,1/2-y,1/2+z
loop_
_atom_site_type_symbol
_atom_site_label
_atom_site_fract_x
_atom_site_fract_y
_atom_site_fract_z
Si Si1 0.474545 0.626828 0.695804
Si Si2 0.162780 0.220731 0.300759
Si Si3 0.945883 0.361085 0.197522
Si Si4 0.121654 0.366323 0.799158
Si Si5 0.224549 0.616538 0.699116
Si Si6 0.861351 0.979270 0.203846
Si Si7 0.606336 0.720797 0.193795
Si Si8 0.711394 0.610720 0.795975
O O1 0.501335 0.620916 0.500000
O O2 0.397210 0.672812 0.704282
O O3 0.440086 0.558666 0.760825
O O4 0.538820 0.665464 0.801908
O O5 0.144238 0.222188 0.500000
O O6 0.146829 0.291482 0.227055
O O7 0.247445 0.185288 0.276835
O O8 0.868029 0.395247 0.270591
O O9 0.928769 0.284080 0.217889
O O10 0.033098 0.376178 0.271870
O O11 0.947662 0.376462 0.000000
O O12 0.199371 0.403782 0.732654
O O13 0.116203 0.378853 0.000000
O O14 0.237301 0.621493 0.500000
O O15 0.284088 0.561204 0.765935
O O16 0.847857 0.052970 0.252530
O O17 0.863558 0.975950 0.000000
O O18 0.679482 0.679927 0.269689
O O19 0.624004 0.740085 0.000000
O O20 0.713912 0.616528 0.000000
#
# Coordination Sequence:
#
# PCOD9443397 Si02
#       8
#     8   8   8   8   8   8   8   8
#     4  10  20  36  57  83 117 155 189 234 289 338
#     4  11  20  32  56  87 114 146 190 232 285 349
#     4  11  22  36  59  89 118 150 192 238 290 350
#     4  10  21  38  57  81 117 154 188 234 296 348
#     4  10  21  38  59  82 114 151 189 238 293 340
#     4   9  21  40  60  81 109 151 199 241 284 341
#     4  11  22  36  57  88 122 153 191 236 293 352
#     4  10  23  40  58  81 113 154 191 238 292 343
#
# _framework density 23.305112999999999
#
# number of rings (size 3 to 8) (size 9 to 14) (size 15 to 20)
#    0.000    1.750    1.250    4.125    0.000    6.500 
#    0.000    3.125    0.000    3.750    0.000    0.000 
#    0.000    0.000    0.000    0.000    0.000    0.000 
#
# Total GULP energy -357544.071808 kJ/mol
# GULP energy per Si atom -5586.626122 kJ/mol
# Density = 2.325207 g / cm^3
# Si number density = 23.305113 Si / 1000 Ang^3
#
#
#
# Elastic Constant Matrix: (Units=GPa)
#
#
# Indices 1 2 3 4 5 6 
#
# 1 68.1309 -32.2563 -1.3726 0.0000 0.0000 0.0000
# 2 -32.2563 29.7077 -11.0959 0.0000 0.0000 0.0000
# 3 -1.3726 -11.0959 38.5209 0.0000 0.0000 0.0000
# 4 0.0000 0.0000 0.0000 3.2536 0.0000 0.0000
# 5 0.0000 0.0000 0.0000 0.0000 24.3133 0.0000
# 6 0.0000 0.0000 0.0000 0.0000 0.0000 32.3197
#
#
#
# Elastic Compliance Matrix: (Units=1/GPa)
#
#
# Indices 1 2 3 4 5 6 
#
# 1 0.035884 0.044194 0.014009 0.000000 0.000000 0.000000
# 2 0.044194 0.092149 0.028118 0.000000 0.000000 0.000000
# 3 0.014009 0.028118 0.034559 0.000000 0.000000 0.000000
# 4 0.000000 0.000000 0.000000 0.307347 0.000000 0.000000
# 5 0.000000 0.000000 0.000000 0.000000 0.041130 0.000000
# 6 0.000000 0.000000 0.000000 0.000000 0.000000 0.030941
#
#
# Mechanical properties :
#
#
# Convention : Reuss Voigt Hill
#
# Bulk Modulus (GPa) = 2.98299 5.21220 4.09759
# Shear Modulus (GPa) = 10.39261 24.04962 17.22111
#
# Velocity S-wave (km/s) = 2.11401 3.21588 2.72130
# Velocity P-wave (km/s) = 2.69100 4.00381 3.41116
#
# Compressibility (1/GPa) = 0.33523401
#
# Stress axis : x y z
#
# Youngs Moduli (GPa) = 27.86795 10.85195 28.93643
#
# Poissons Ratio (x) = -0.47959 -0.40536
# Poissons Ratio (y) = -1.23160 -0.81364
# Poissons Ratio (z) = -0.39039 -0.30514
#
# Static dielectric constant tensor:
#      x y z
#    x 1.971940 0.000000 0.000000 
#    y 0.000000 1.860030 0.000000 
#    z 0.000000 0.000000 1.815730 
# 
# From -- ./inp_files/8423.got.cif
#   From: 2010.05.17/outbox.cif.g08.bks.cpg/sg58_5_cif.got.tgz:8423.got - 2010.06.03 14:20:14.
