data_PCOD9443929
_publ_section_title
;
Structure prediction by ZEFSAII (Michael W. Deem and Ramdas Pophale) SiO2 
 PCOD9443929
Probable space group: P N N M
;
_chemical_formula_sum "Si O2"
_cell_formula_units_Z 28
_cell_length_a 11.485574
_cell_length_b 7.324056
_cell_length_c 14.524395
_cell_angle_alpha 90.000000
_cell_angle_beta 90.000000
_cell_angle_gamma 90.000000
_cell_volume 1221.806445
_symmetry_space_group_name_H-M "P N N M"
_symmetry_group_IT_number 58
_symmetry_cell_setting 'orthorhombic'
loop_
_space_group_symop_operation_xyz
x,y,z
-x,-y,z
1/2+x,1/2-y,1/2-z
1/2-x,1/2+y,1/2-z
-x,-y,-z
x,y,-z
1/2-x,1/2+y,1/2+z
1/2+x,1/2-y,1/2+z
loop_
_atom_site_type_symbol
_atom_site_label
_atom_site_fract_x
_atom_site_fract_y
_atom_site_fract_z
Si Si1 0.579950 0.213566 0.000000
Si Si2 0.254741 0.504908 0.000000
Si Si3 0.500000 0.000000 0.162382
Si Si4 0.297909 0.579901 0.500000
Si Si5 0.897794 0.382833 0.831566
Si Si6 0.000000 0.000000 0.145520
O O1 0.512681 0.165879 0.907115
O O2 0.692217 0.068000 0.000000
O O3 0.617446 0.419469 0.000000
O O4 0.201492 0.596655 0.093367
O O5 0.243490 0.288766 0.000000
O O6 0.390334 0.020433 0.231849
O O7 0.387491 0.555018 0.415273
O O8 0.000000 0.500000 0.879774
O O9 0.950690 0.184149 0.808965
#
# Coordination Sequence:
#
# PCOD9443929 Si02
#       6
#     4   4   4   4   8   4
#     4  11  23  46  60  86 132 179 201 262 314 387
#     4  12  20  39  69  95 124 156 221 263 319 359
#     4   9  24  47  60  84 136 171 210 253 324 378
#     4  11  20  33  63  98 116 167 204 255 318 390
#     4  10  20  39  61  92 124 159 202 270 308 382
#     4  11  18  34  64  93 130 150 200 271 334 339
#
# _framework density 22.916888
#
# number of rings (size 3 to 8) (size 9 to 14) (size 15 to 20)
#    0.857    0.571    5.714    1.286    0.000    0.000 
#   15.429    1.429    0.000    0.000    0.000    0.000 
#    0.000    0.000    0.000    0.000    0.000    0.000 
#
# Total GULP energy -155886.279029 kJ/mol
# GULP energy per Si atom -5567.367108 kJ/mol
# Density = 2.286473 g / cm^3
# Si number density = 22.916888 Si / 1000 Ang^3
#
#
#
# Elastic Constant Matrix: (Units=GPa)
#
#
# Indices 1 2 3 4 5 6 
#
# 1 64.3381 10.7152 22.8489 0.0000 0.0000 0.0000
# 2 10.7152 117.0478 13.3023 0.0000 0.0000 0.0000
# 3 22.8489 13.3023 137.2622 0.0000 0.0000 0.0000
# 4 0.0000 0.0000 0.0000 4.8077 0.0000 0.0000
# 5 0.0000 0.0000 0.0000 0.0000 9.1113 0.0000
# 6 0.0000 0.0000 0.0000 0.0000 0.0000 44.4182
#
#
#
# Elastic Compliance Matrix: (Units=1/GPa)
#
#
# Indices 1 2 3 4 5 6 
#
# 1 0.016692 -0.001226 -0.002660 0.000000 0.000000 0.000000
# 2 -0.001226 0.008729 -0.000642 0.000000 0.000000 0.000000
# 3 -0.002660 -0.000642 0.007790 0.000000 0.000000 0.000000
# 4 0.000000 0.000000 0.000000 0.208000 0.000000 0.000000
# 5 0.000000 0.000000 0.000000 0.000000 0.109754 0.000000
# 6 0.000000 0.000000 0.000000 0.000000 0.000000 0.022513
#
#
# Mechanical properties :
#
#
# Convention : Reuss Voigt Hill
#
# Bulk Modulus (GPa) = 41.39785 45.82010 43.60897
# Shear Modulus (GPa) = 12.80134 29.78623 21.29378
#
# Velocity S-wave (km/s) = 2.36603 3.60912 3.05154
# Velocity P-wave (km/s) = 5.05645 6.11597 5.61127
#
# Compressibility (1/GPa) = 0.02415584
#
# Stress axis : x y z
#
# Youngs Moduli (GPa) = 59.91038 114.56492 128.36523
#
# Poissons Ratio (x) = 0.14043 0.34142
# Poissons Ratio (y) = 0.07344 0.08239
# Poissons Ratio (z) = 0.15935 0.07354
#
# Static dielectric constant tensor:
#      x y z
#    x 1.914330 0.000000 0.000000 
#    y 0.000000 1.869410 0.000000 
#    z 0.000000 0.000000 1.826760 
# 
# From -- ./inp_files/25868.got.cif
#   From: 2010.05.17/outbox.cif.g08.bks.cpg/sg58_13_cif.got.tgz:25868.got - 2010.06.03 14:20:14.
