data_PCOD9443523
_publ_section_title
;
Structure prediction by ZEFSAII (Michael W. Deem and Ramdas Pophale) SiO2 
 PCOD9443523
Probable space group: P N N M
;
_chemical_formula_sum "Si O2"
_cell_formula_units_Z 44
_cell_length_a 16.512738
_cell_length_b 7.029127
_cell_length_c 17.498664
_cell_angle_alpha 90.000000
_cell_angle_beta 90.000000
_cell_angle_gamma 90.000000
_cell_volume 2031.072249
_symmetry_space_group_name_H-M "P N N M"
_symmetry_group_IT_number 58
_symmetry_cell_setting 'orthorhombic'
loop_
_space_group_symop_operation_xyz
x,y,z
-x,-y,z
1/2+x,1/2-y,1/2-z
1/2-x,1/2+y,1/2-z
-x,-y,-z
x,y,-z
1/2-x,1/2+y,1/2+z
1/2+x,1/2-y,1/2+z
loop_
_atom_site_type_symbol
_atom_site_label
_atom_site_fract_x
_atom_site_fract_y
_atom_site_fract_z
Si Si1 0.284985 0.211837 0.000000
Si Si2 0.864335 0.164125 0.126115
Si Si3 0.975945 0.778934 0.413730
Si Si4 0.347413 0.015241 0.500000
Si Si5 0.064703 0.635168 0.739097
Si Si6 0.822361 0.550409 0.632364
Si Si7 0.605382 0.393879 0.500000
O O1 0.244216 0.421221 0.000000
O O2 0.327919 0.134163 0.924282
O O3 0.203270 0.086951 0.000000
O O4 0.907605 0.199142 0.206005
O O5 0.770479 0.110185 0.139381
O O6 0.861275 0.353907 0.073657
O O7 0.912404 0.007644 0.076552
O O8 0.997288 0.712547 0.500000
O O9 0.021905 0.695978 0.340025
O O10 0.882286 0.714039 0.400478
O O11 0.000000 0.000000 0.413158
O O12 0.406417 0.831040 0.500000
O O13 0.142252 0.513543 0.713492
O O14 0.000000 0.500000 0.780316
#
# Coordination Sequence:
#
# PCOD9443523 Si02
#       7
#     4   8   8   4   8   8   4
#     4   8  16  32  56  89 115 149 195 265 311 366
#     4  10  20  40  64  94 128 162 218 270 318 389
#     4  10  22  40  59  90 128 173 217 253 321 401
#     4   9  19  36  65  95 120 157 209 268 338 371
#     4  10  24  41  59  91 135 178 209 269 332 387
#     4  10  20  36  60  89 123 165 212 263 320 376
#     4   7  17  38  59  92 118 154 207 269 329 359
#
# _framework density 21.663436000000001
#
# number of rings (size 3 to 8) (size 9 to 14) (size 15 to 20)
#    0.545    2.000    0.909    0.545    1.273    5.455 
#    6.545    1.818    0.000    1.091    0.000    0.000 
#    0.000    0.000    0.000    0.000    0.000    0.000 
#
# Total GULP energy -245111.353703 kJ/mol
# GULP energy per Si atom -5570.712584 kJ/mol
# Density = 2.161413 g / cm^3
# Si number density = 21.663436 Si / 1000 Ang^3
#
#
#
# Elastic Constant Matrix: (Units=GPa)
#
#
# Indices 1 2 3 4 5 6 
#
# 1 91.6075 -2.1000 24.0289 0.0000 0.0000 0.0000
# 2 -2.1000 61.0065 -6.7258 0.0000 0.0000 0.0000
# 3 24.0289 -6.7258 76.1020 0.0000 0.0000 0.0000
# 4 0.0000 0.0000 0.0000 53.2358 0.0000 0.0000
# 5 0.0000 0.0000 0.0000 0.0000 5.0871 0.0000
# 6 0.0000 0.0000 0.0000 0.0000 0.0000 20.5285
#
#
#
# Elastic Compliance Matrix: (Units=1/GPa)
#
#
# Indices 1 2 3 4 5 6 
#
# 1 0.011902 -0.000005 -0.003758 0.000000 0.000000 0.000000
# 2 -0.000005 0.016553 0.001464 0.000000 0.000000 0.000000
# 3 -0.003758 0.001464 0.014456 0.000000 0.000000 0.000000
# 4 0.000000 0.000000 0.000000 0.018784 0.000000 0.000000
# 5 0.000000 0.000000 0.000000 0.000000 0.196576 0.000000
# 6 0.000000 0.000000 0.000000 0.000000 0.000000 0.048713
#
#
# Mechanical properties :
#
#
# Convention : Reuss Voigt Hill
#
# Bulk Modulus (GPa) = 26.10014 28.79136 27.44575
# Shear Modulus (GPa) = 15.41529 30.00446 22.70988
#
# Velocity S-wave (km/s) = 2.67044 3.72563 3.24127
# Velocity P-wave (km/s) = 4.64570 5.64148 5.16763
#
# Compressibility (1/GPa) = 0.03831397
#
# Stress axis : x y z
#
# Youngs Moduli (GPa) = 84.02047 60.41204 69.17358
#
# Poissons Ratio (x) = 0.00028 0.25998
# Poissons Ratio (y) = 0.00039 -0.10130
# Poissons Ratio (z) = 0.31578 -0.08847
#
# Static dielectric constant tensor:
#      x y z
#    x 1.816360 0.000000 0.000000 
#    y 0.000000 1.918720 0.000000 
#    z 0.000000 0.000000 1.782820 
# 
# From -- ./inp_files/26773.got.cif
#   From: 2010.05.17/outbox.cif.g08.bks.cpg/sg58_14_cif.got.tgz:26773.got - 2010.06.03 14:20:14.
