data_PCOD9443075
_publ_section_title
;
Structure prediction by ZEFSAII (Michael W. Deem and Ramdas Pophale) SiO2 
 PCOD9443075
Probable space group: P N N M
;
_chemical_formula_sum "Si O2"
_cell_formula_units_Z 64
_cell_length_a 14.897554
_cell_length_b 25.553323
_cell_length_c 8.807284
_cell_angle_alpha 90.000000
_cell_angle_beta 90.000000
_cell_angle_gamma 90.000000
_cell_volume 3352.774569
_symmetry_space_group_name_H-M "P N N M"
_symmetry_group_IT_number 58
_symmetry_cell_setting 'orthorhombic'
loop_
_space_group_symop_operation_xyz
x,y,z
-x,-y,z
1/2+x,1/2-y,1/2-z
1/2-x,1/2+y,1/2-z
-x,-y,-z
x,y,-z
1/2-x,1/2+y,1/2+z
1/2+x,1/2-y,1/2+z
loop_
_atom_site_type_symbol
_atom_site_label
_atom_site_fract_x
_atom_site_fract_y
_atom_site_fract_z
Si Si1 0.158298 0.436539 0.683335
Si Si2 0.970492 0.395330 0.681899
Si Si3 0.464307 0.331342 0.317273
Si Si4 0.233980 0.839779 0.680377
Si Si5 0.636946 0.374118 0.182047
Si Si6 0.715184 0.947123 0.183841
Si Si7 0.043952 0.714698 0.178186
Si Si8 0.241893 0.231057 0.678773
O O1 0.163090 0.431869 0.500000
O O2 0.209685 0.388209 0.757061
O O3 0.200177 0.492357 0.724603
O O4 0.053536 0.431946 0.727330
O O5 0.966407 0.396009 0.500000
O O6 0.873904 0.415699 0.736611
O O7 0.988491 0.336335 0.735247
O O8 0.461173 0.332478 0.500000
O O9 0.365414 0.341761 0.253136
O O10 0.538316 0.370407 0.252792
O O11 0.489952 0.271614 0.270121
O O12 0.227507 0.841590 0.500000
O O13 0.276196 0.784190 0.730804
O O14 0.697457 0.421005 0.244602
O O15 0.687149 0.319963 0.226908
O O16 0.632630 0.376140 0.000000
O O17 0.720391 0.943454 0.000000
O O18 0.152184 0.718183 0.195316
O O19 0.023609 0.708590 0.000000
O O20 0.225517 0.240795 0.500000
#
# Coordination Sequence:
#
# PCOD9443075 Si02
#       8
#     8   8   8   8   8   8   8   8
#     4  10  22  40  60  83 117 160 200 243 297 353
#     4  10  20  34  57  87 117 153 197 240 283 343
#     4  10  22  40  60  84 120 158 194 240 298 359
#     4  11  23  39  60  87 117 152 200 250 295 346
#     4  11  22  37  60  89 120 154 197 245 295 348
#     4  10  21  39  61  86 118 157 201 243 292 353
#     4   9  18  34  54  81 117 153 186 228 286 346
#     4   9  19  36  56  81 117 158 190 231 293 352
#
# _framework density 19.088667000000001
#
# number of rings (size 3 to 8) (size 9 to 14) (size 15 to 20)
#    0.000    2.000    1.250    3.000    1.750    6.000 
#    0.000    0.625    0.000    6.000    0.000    0.000 
#    0.000    0.000    0.000    0.000    0.000    0.000 
#
# Total GULP energy -357503.772740 kJ/mol
# GULP energy per Si atom -5585.996449 kJ/mol
# Density = 1.904522 g / cm^3
# Si number density = 19.088667 Si / 1000 Ang^3
#
#
#
# Elastic Constant Matrix: (Units=GPa)
#
#
# Indices 1 2 3 4 5 6 
#
# 1 19.9207 3.8611 7.6015 0.0000 0.0000 0.0000
# 2 3.8611 70.1793 20.3886 0.0000 0.0000 0.0000
# 3 7.6015 20.3886 27.4661 0.0000 0.0000 0.0000
# 4 0.0000 0.0000 0.0000 25.8147 0.0000 0.0000
# 5 0.0000 0.0000 0.0000 0.0000 -58.4954 0.0000
# 6 0.0000 0.0000 0.0000 0.0000 0.0000 29.9264
#
#
#
# Elastic Compliance Matrix: (Units=1/GPa)
#
#
# Indices 1 2 3 4 5 6 
#
# 1 0.056309 0.001823 -0.016937 0.000000 0.000000 0.000000
# 2 0.001823 0.018226 -0.014034 0.000000 0.000000 0.000000
# 3 -0.016937 -0.014034 0.051514 0.000000 0.000000 0.000000
# 4 0.000000 0.000000 0.000000 0.038738 0.000000 0.000000
# 5 0.000000 0.000000 0.000000 0.000000 -0.017095 0.000000
# 6 0.000000 0.000000 0.000000 0.000000 0.000000 0.033415
#
#
# Mechanical properties :
#
#
# Convention : Reuss Voigt Hill
#
# Bulk Modulus (GPa) = 14.75974 20.14094 17.45034
# Shear Modulus (GPa) = 19.08491 5.16345 12.12418
#
# Velocity S-wave (km/s) = 3.16540 1.64647 2.52295
# Velocity P-wave (km/s) = 4.59441 3.76678 4.20103
#
# Compressibility (1/GPa) = 0.06775185
#
# Stress axis : x y z
#
# Youngs Moduli (GPa) = 17.75920 54.86629 19.41229
#
# Poissons Ratio (x) = -0.10000 0.32879
# Poissons Ratio (y) = -0.03237 0.27243
# Poissons Ratio (z) = 0.30079 0.76999
#
# Static dielectric constant tensor:
#      x y z
#    x 1.668150 0.000000 0.000000 
#    y 0.000000 1.648170 0.000000 
#    z 0.000000 0.000000 1.635580 
# 
# From -- ./inp_files/6766.got.cif
#   From: 2010.05.17/outbox.cif.g08.bks.cpg/sg58_4_cif.got.tgz:6766.got - 2010.06.03 14:20:14.
