data_PCOD9443624
_publ_section_title
;
Structure prediction by ZEFSAII (Michael W. Deem and Ramdas Pophale) SiO2 
 PCOD9443624
Probable space group: P N N M
;
_chemical_formula_sum "Si O2"
_cell_formula_units_Z 64
_cell_length_a 23.434951
_cell_length_b 15.343472
_cell_length_c 7.608423
_cell_angle_alpha 90.000000
_cell_angle_beta 90.000000
_cell_angle_gamma 90.000000
_cell_volume 2735.787398
_symmetry_space_group_name_H-M "P N N M"
_symmetry_group_IT_number 58
_symmetry_cell_setting 'orthorhombic'
loop_
_space_group_symop_operation_xyz
x,y,z
-x,-y,z
1/2+x,1/2-y,1/2-z
1/2-x,1/2+y,1/2-z
-x,-y,-z
x,y,-z
1/2-x,1/2+y,1/2+z
1/2+x,1/2-y,1/2+z
loop_
_atom_site_type_symbol
_atom_site_label
_atom_site_fract_x
_atom_site_fract_y
_atom_site_fract_z
Si Si1 0.090358 0.036415 0.287284
Si Si2 0.282756 0.532947 0.296484
Si Si3 0.247184 0.839528 0.704462
Si Si4 0.626549 0.133208 0.284372
Si Si5 0.506095 0.183372 0.289773
Si Si6 0.186828 0.670039 0.713746
Si Si7 0.082326 0.553005 0.796705
Si Si8 0.974951 0.129035 0.710022
O O1 0.092441 0.038836 0.500000
O O2 0.036785 0.094488 0.227278
O O3 0.152138 0.063073 0.221943
O O4 0.073618 0.937936 0.229211
O O5 0.269609 0.519131 0.500000
O O6 0.275064 0.438266 0.211225
O O7 0.238412 0.605294 0.232883
O O8 0.253455 0.815239 0.500000
O O9 0.311333 0.838553 0.780586
O O10 0.203979 0.766811 0.774904
O O11 0.629884 0.133049 0.500000
O O12 0.571657 0.189579 0.229644
O O13 0.610520 0.035010 0.224925
O O14 0.507988 0.174802 0.500000
O O15 0.474221 0.097541 0.219204
O O16 0.470900 0.270038 0.250641
O O17 0.180706 0.668870 0.500000
O O18 0.129736 0.628292 0.788383
O O19 0.069461 0.531974 0.000000
O O20 0.975550 0.120078 0.500000
#
# Coordination Sequence:
#
# PCOD9443624 Si02
#       8
#     8   8   8   8   8   8   8   8
#     4   9  20  39  60  79 110 154 192 222 272 343
#     4  11  23  38  59  89 119 145 187 246 293 329
#     4  10  21  39  61  82 111 158 197 225 281 353
#     4   9  18  36  60  81 108 147 191 231 276 340
#     4  10  21  34  57  88 114 140 183 240 289 330
#     4  10  23  39  57  84 116 151 191 236 287 340
#     4  10  20  37  59  83 111 147 190 232 279 337
#     4   9  20  39  58  81 112 149 190 229 271 337
#
# _framework density 23.393630999999999
#
# number of rings (size 3 to 8) (size 9 to 14) (size 15 to 20)
#    0.000    2.250    1.250    1.500    3.500    4.000 
#    0.000    2.500    0.000    1.500    0.000    0.000 
#    0.000    0.000    0.000    0.000    0.000    0.000 
#
# Total GULP energy -357528.621261 kJ/mol
# GULP energy per Si atom -5586.384707 kJ/mol
# Density = 2.334039 g / cm^3
# Si number density = 23.393631 Si / 1000 Ang^3
#
#
#
# Elastic Constant Matrix: (Units=GPa)
#
#
# Indices 1 2 3 4 5 6 
#
# 1 52.3950 -31.9827 -2.8156 0.0000 0.0000 0.0000
# 2 -31.9827 60.2430 -0.7831 0.0000 0.0000 0.0000
# 3 -2.8156 -0.7831 45.0152 0.0000 0.0000 0.0000
# 4 0.0000 0.0000 0.0000 4.5656 0.0000 0.0000
# 5 0.0000 0.0000 0.0000 0.0000 -20.8246 0.0000
# 6 0.0000 0.0000 0.0000 0.0000 0.0000 23.0213
#
#
#
# Elastic Compliance Matrix: (Units=1/GPa)
#
#
# Indices 1 2 3 4 5 6 
#
# 1 0.028422 0.015116 0.002041 0.000000 0.000000 0.000000
# 2 0.015116 0.024642 0.001374 0.000000 0.000000 0.000000
# 3 0.002041 0.001374 0.022366 0.000000 0.000000 0.000000
# 4 0.000000 0.000000 0.000000 0.219028 0.000000 0.000000
# 5 0.000000 0.000000 0.000000 0.000000 -0.048020 0.000000
# 6 0.000000 0.000000 0.000000 0.000000 0.000000 0.043438
#
#
# Mechanical properties :
#
#
# Convention : Reuss Voigt Hill
#
# Bulk Modulus (GPa) = 8.88950 9.61004 9.24977
# Shear Modulus (GPa) = 17.22277 14.23477 15.72877
#
# Velocity S-wave (km/s) = 2.71627 2.46943 2.59579
# Velocity P-wave (km/s) = 3.69401 3.49967 3.59815
#
# Compressibility (1/GPa) = 0.11249224
#
# Stress axis : x y z
#
# Youngs Moduli (GPa) = 35.18355 40.58072 44.71019
#
# Poissons Ratio (x) = -0.61341 -0.09124
# Poissons Ratio (y) = -0.53183 -0.06144
# Poissons Ratio (z) = -0.07180 -0.05576
#
# Static dielectric constant tensor:
#      x y z
#    x 1.868180 0.000000 0.000000 
#    y 0.000000 1.883460 0.000000 
#    z 0.000000 0.000000 1.882730 
# 
# From -- ./inp_files/10010.got.cif
#   From: 2010.05.17/outbox.cif.g08.bks.cpg/sg58_6_cif.got.tgz:10010.got - 2010.06.03 14:20:14.
