data_PCOD9443286
_publ_section_title
;
Structure prediction by ZEFSAII (Michael W. Deem and Ramdas Pophale) SiO2 
 PCOD9443286
Probable space group: P N N M
;
_chemical_formula_sum "Si O2"
_cell_formula_units_Z 48
_cell_length_a 29.914773
_cell_length_b 10.333188
_cell_length_c 9.135913
_cell_angle_alpha 90.000000
_cell_angle_beta 90.000000
_cell_angle_gamma 90.000000
_cell_volume 2824.047504
_symmetry_space_group_name_H-M "P N N M"
_symmetry_group_IT_number 58
_symmetry_cell_setting 'orthorhombic'
loop_
_space_group_symop_operation_xyz
x,y,z
-x,-y,z
1/2+x,1/2-y,1/2-z
1/2-x,1/2+y,1/2-z
-x,-y,-z
x,y,-z
1/2-x,1/2+y,1/2+z
1/2+x,1/2-y,1/2+z
loop_
_atom_site_type_symbol
_atom_site_label
_atom_site_fract_x
_atom_site_fract_y
_atom_site_fract_z
Si Si1 0.881345 0.277313 0.672829
Si Si2 0.217269 0.005691 0.323916
Si Si3 0.522006 0.862721 0.175614
Si Si4 0.471027 0.627391 0.325514
Si Si5 0.212211 0.729563 0.175320
Si Si6 0.884904 0.970099 0.671984
O O1 0.872255 0.298258 0.500000
O O2 0.925679 0.354574 0.716666
O O3 0.836903 0.305058 0.763869
O O4 0.892061 0.124508 0.690615
O O5 0.218009 0.984703 0.500000
O O6 0.252965 0.115981 0.286474
O O7 0.166852 0.051871 0.287284
O O8 0.224875 0.868000 0.246106
O O9 0.494858 0.749643 0.253567
O O10 0.500000 0.000000 0.209495
O O11 0.520085 0.842371 0.000000
O O12 0.500000 0.500000 0.287076
O O13 0.470391 0.639902 0.500000
O O14 0.421321 0.605860 0.264420
O O15 0.211143 0.742373 0.000000
O O16 0.890694 0.940040 0.500000
#
# Coordination Sequence:
#
# PCOD9443286 Si02
#       6
#     8   8   8   8   8   8
#     4   9  18  34  56  80 107 141 181 221 265 317
#     4   9  20  38  56  80 111 142 180 223 266 319
#     4  10  21  38  58  79 106 145 186 221 262 320
#     4  11  22  34  53  82 112 139 174 223 271 317
#     4  10  20  35  58  83 108 141 178 220 272 321
#     4   9  17  33  57  78 102 140 184 225 261 310
#
# _framework density 16.996880999999998
#
# number of rings (size 3 to 8) (size 9 to 14) (size 15 to 20)
#    0.000    2.333    1.667    2.000    0.000    5.667 
#    3.000    0.000    0.000    0.000    0.000    0.000 
#    0.000    0.000    0.000    0.000    0.000    0.000 
#
# Total GULP energy -267794.128861 kJ/mol
# GULP energy per Si atom -5579.044351 kJ/mol
# Density = 1.695820 g / cm^3
# Si number density = 16.996881 Si / 1000 Ang^3
#
#
#
# Elastic Constant Matrix: (Units=GPa)
#
#
# Indices 1 2 3 4 5 6 
#
# 1 157.3798 101.0812 62.8798 0.0000 0.0000 0.0000
# 2 101.0812 117.6329 62.6965 0.0000 0.0000 0.0000
# 3 62.8798 62.6965 43.1304 0.0000 0.0000 0.0000
# 4 0.0000 0.0000 0.0000 13.8318 0.0000 0.0000
# 5 0.0000 0.0000 0.0000 0.0000 28.1371 0.0000
# 6 0.0000 0.0000 0.0000 0.0000 0.0000 34.3864
#
#
#
# Elastic Compliance Matrix: (Units=1/GPa)
#
#
# Indices 1 2 3 4 5 6 
#
# 1 0.016084 -0.005874 -0.014910 0.000000 0.000000 0.000000
# 2 -0.005874 0.039889 -0.049421 0.000000 0.000000 0.000000
# 3 -0.014910 -0.049421 0.116764 0.000000 0.000000 0.000000
# 4 0.000000 0.000000 0.000000 0.072297 0.000000 0.000000
# 5 0.000000 0.000000 0.000000 0.000000 0.035540 0.000000
# 6 0.000000 0.000000 0.000000 0.000000 0.000000 0.029081
#
#
# Mechanical properties :
#
#
# Convention : Reuss Voigt Hill
#
# Bulk Modulus (GPa) = 30.93429 85.71757 58.32593
# Shear Modulus (GPa) = 10.84968 21.37009 16.10989
#
# Velocity S-wave (km/s) = 2.52927 3.54968 3.08200
# Velocity P-wave (km/s) = 5.17389 8.20617 6.85967
#
# Compressibility (1/GPa) = 0.03232658
#
# Stress axis : x y z
#
# Youngs Moduli (GPa) = 62.17359 25.06930 8.56428
#
# Poissons Ratio (x) = 0.14726 0.12769
# Poissons Ratio (y) = 0.36521 0.42326
# Poissons Ratio (z) = 0.92701 1.23896
#
# Static dielectric constant tensor:
#      x y z
#    x 1.572400 0.000000 0.000000 
#    y 0.000000 1.546390 0.000000 
#    z 0.000000 0.000000 1.566530 
# 
# From -- ./inp_files/2941.got.cif
#   From: 2010.05.17/outbox.cif.g08.bks.cpg/sg58_2_cif.got.tgz:2941.got - 2010.06.03 14:20:14.
