data_PCOD9443861
_publ_section_title
;
Structure prediction by ZEFSAII (Michael W. Deem and Ramdas Pophale) SiO2 
 PCOD9443861
Probable space group: P N N M
;
_chemical_formula_sum "Si O2"
_cell_formula_units_Z 64
_cell_length_a 22.474153
_cell_length_b 9.308008
_cell_length_c 14.347955
_cell_angle_alpha 90.000000
_cell_angle_beta 90.000000
_cell_angle_gamma 90.000000
_cell_volume 3001.442909
_symmetry_space_group_name_H-M "P N N M"
_symmetry_group_IT_number 58
_symmetry_cell_setting 'orthorhombic'
loop_
_space_group_symop_operation_xyz
x,y,z
-x,-y,z
1/2+x,1/2-y,1/2-z
1/2-x,1/2+y,1/2-z
-x,-y,-z
x,y,-z
1/2-x,1/2+y,1/2+z
1/2+x,1/2-y,1/2+z
loop_
_atom_site_type_symbol
_atom_site_label
_atom_site_fract_x
_atom_site_fract_y
_atom_site_fract_z
Si Si1 0.091077 0.727831 0.391698
Si Si2 0.863197 0.561911 0.695936
Si Si3 0.482095 0.835664 0.602499
Si Si4 0.150563 0.793408 0.894045
Si Si5 0.867169 0.012372 0.713246
Si Si6 0.357810 0.972853 0.397786
Si Si7 0.529391 0.285808 0.788371
Si Si8 0.711816 0.293072 0.106219
O O1 0.092584 0.694889 0.500000
O O2 0.116827 0.594660 0.334344
O O3 0.023805 0.765514 0.360314
O O4 0.130361 0.864023 0.363848
O O5 0.830360 0.558326 0.796739
O O6 0.923959 0.654408 0.702052
O O7 0.821958 0.643037 0.623004
O O8 0.502956 0.792923 0.500000
O O9 0.497903 0.729820 0.685129
O O10 0.500000 0.000000 0.622701
O O11 0.410561 0.856194 0.597805
O O12 0.117732 0.637534 0.889098
O O13 0.218688 0.738704 0.883069
O O14 0.138128 0.908611 0.813271
O O15 0.143156 0.849587 0.000000
O O16 0.929383 0.925433 0.706163
O O17 0.815633 0.901438 0.682742
O O18 0.327076 0.967582 0.500000
O O19 0.700238 0.342788 0.000000
#
# Coordination Sequence:
#
# PCOD9443861 Si02
#       8
#     8   8   8   8   8   8   8   8
#     4  12  24  39  61  87 121 165 211 252 295 362
#     4  10  20  38  63  91 121 163 212 254 296 360
#     4   9  17  31  56  84 113 149 195 244 288 348
#     4  10  22  40  64  88 118 160 201 250 316 372
#     4  11  24  40  61  89 122 159 199 252 309 369
#     4   9  17  33  57  86 116 152 198 249 302 355
#     4  10  22  37  55  87 124 157 196 243 304 361
#     4  10  23  42  63  89 124 162 204 257 313 360
#
# _framework density 21.323076
#
# number of rings (size 3 to 8) (size 9 to 14) (size 15 to 20)
#    0.000    1.875    1.250    3.000    1.750    4.500 
#    0.000    1.875    0.000    2.250    0.000    0.000 
#    0.000    0.000    0.000    0.000    0.000    0.000 
#
# Total GULP energy -357118.757855 kJ/mol
# GULP energy per Si atom -5579.980591 kJ/mol
# Density = 2.127454 g / cm^3
# Si number density = 21.323076 Si / 1000 Ang^3
#
#
#
# Elastic Constant Matrix: (Units=GPa)
#
#
# Indices 1 2 3 4 5 6 
#
# 1 61.2263 11.4689 18.5815 0.0000 0.0000 0.0000
# 2 11.4689 68.9340 17.2666 0.0000 0.0000 0.0000
# 3 18.5815 17.2666 123.0460 0.0000 0.0000 0.0000
# 4 0.0000 0.0000 0.0000 27.2669 0.0000 0.0000
# 5 0.0000 0.0000 0.0000 0.0000 20.1905 0.0000
# 6 0.0000 0.0000 0.0000 0.0000 0.0000 21.5621
#
#
#
# Elastic Compliance Matrix: (Units=1/GPa)
#
#
# Indices 1 2 3 4 5 6 
#
# 1 0.017470 -0.002328 -0.002312 0.000000 0.000000 0.000000
# 2 -0.002328 0.015345 -0.001802 0.000000 0.000000 0.000000
# 3 -0.002312 -0.001802 0.008729 0.000000 0.000000 0.000000
# 4 0.000000 0.000000 0.000000 0.036675 0.000000 0.000000
# 5 0.000000 0.000000 0.000000 0.000000 0.049528 0.000000
# 6 0.000000 0.000000 0.000000 0.000000 0.000000 0.046378
#
#
# Mechanical properties :
#
#
# Convention : Reuss Voigt Hill
#
# Bulk Modulus (GPa) = 34.88889 38.64893 36.76891
# Shear Modulus (GPa) = 25.43735 27.52985 26.48360
#
# Velocity S-wave (km/s) = 3.45766 3.59706 3.52805
# Velocity P-wave (km/s) = 5.68666 5.95118 5.82042
#
# Compressibility (1/GPa) = 0.02866242
#
# Stress axis : x y z
#
# Youngs Moduli (GPa) = 57.23967 65.16691 114.56098
#
# Poissons Ratio (x) = 0.15168 0.26482
# Poissons Ratio (y) = 0.13323 0.20642
# Poissons Ratio (z) = 0.13232 0.11742
#
# Static dielectric constant tensor:
#      x y z
#    x 1.840770 0.000000 0.000000 
#    y 0.000000 1.760760 0.000000 
#    z 0.000000 0.000000 1.794460 
# 
# From -- ./inp_files/23547.got.cif
#   From: 2010.05.17/outbox.cif.g08.bks.cpg/sg58_12_cif.got.tgz:23547.got - 2010.06.03 14:20:14.
