data_PCOD9443545
_publ_section_title
;
Structure prediction by ZEFSAII (Michael W. Deem and Ramdas Pophale) SiO2 
 PCOD9443545
Probable space group: P N N M
;
_chemical_formula_sum "Si O2"
_cell_formula_units_Z 48
_cell_length_a 10.447046
_cell_length_b 28.623011
_cell_length_c 8.565884
_cell_angle_alpha 90.000000
_cell_angle_beta 90.000000
_cell_angle_gamma 90.000000
_cell_volume 2561.421280
_symmetry_space_group_name_H-M "P N N M"
_symmetry_group_IT_number 58
_symmetry_cell_setting 'orthorhombic'
loop_
_space_group_symop_operation_xyz
x,y,z
-x,-y,z
1/2+x,1/2-y,1/2-z
1/2-x,1/2+y,1/2-z
-x,-y,-z
x,y,-z
1/2-x,1/2+y,1/2+z
1/2+x,1/2-y,1/2+z
loop_
_atom_site_type_symbol
_atom_site_label
_atom_site_fract_x
_atom_site_fract_y
_atom_site_fract_z
Si Si1 0.149262 0.551288 0.686339
Si Si2 0.757359 0.147809 0.686751
Si Si3 0.494374 0.697960 0.684460
Si Si4 0.639146 0.049296 0.312907
Si Si5 0.254031 0.146292 0.314084
Si Si6 0.995166 0.698230 0.314370
O O1 0.154588 0.553554 0.500000
O O2 0.187234 0.499837 0.745544
O O3 0.231063 0.592736 0.760753
O O4 0.001795 0.557785 0.741222
O O5 0.770882 0.152655 0.500000
O O6 0.882801 0.167362 0.769433
O O7 0.727616 0.093610 0.722551
O O8 0.634105 0.176859 0.742915
O O9 0.493388 0.707193 0.500000
O O10 0.366448 0.670987 0.734409
O O11 0.501323 0.747136 0.774067
O O12 0.625112 0.045659 0.500000
O O13 0.241823 0.149118 0.500000
O O14 0.383017 0.172489 0.260218
O O15 0.996271 0.691010 0.500000
#
# Coordination Sequence:
#
# PCOD9443545 Si02
#       6
#     8   8   8   8   8   8
#     4  11  21  35  60  92 124 156 201 252 303 359
#     4  11  23  41  64  92 125 162 204 250 304 362
#     4  12  26  43  62  88 125 164 204 252 308 365
#     4  10  20  36  61  90 123 159 200 249 303 359
#     4  12  24  42  64  90 124 162 206 254 307 363
#     4  12  24  41  65  92 122 160 208 254 302 359
#
# _framework density 18.739595000000001
#
# number of rings (size 3 to 8) (size 9 to 14) (size 15 to 20)
#    0.000    0.667    1.667    9.000    0.000    2.000 
#    0.000    0.833    0.000    5.000    0.000    0.000 
#    0.000    0.000    0.000    0.000    0.000    0.000 
#
# Total GULP energy -268648.033433 kJ/mol
# GULP energy per Si atom -5596.834030 kJ/mol
# Density = 1.869694 g / cm^3
# Si number density = 18.739595 Si / 1000 Ang^3
#
#
#
# Elastic Constant Matrix: (Units=GPa)
#
#
# Indices 1 2 3 4 5 6 
#
# 1 78.2848 14.5552 -3.8902 0.0000 0.0000 0.0000
# 2 14.5552 87.7775 -14.1273 0.0000 0.0000 0.0000
# 3 -3.8902 -14.1273 58.9061 0.0000 0.0000 0.0000
# 4 0.0000 0.0000 0.0000 40.6187 0.0000 0.0000
# 5 0.0000 0.0000 0.0000 0.0000 35.4760 0.0000
# 6 0.0000 0.0000 0.0000 0.0000 0.0000 19.0095
#
#
#
# Elastic Compliance Matrix: (Units=1/GPa)
#
#
# Indices 1 2 3 4 5 6 
#
# 1 0.013188 -0.002129 0.000360 0.000000 0.000000 0.000000
# 2 -0.002129 0.012193 0.002784 0.000000 0.000000 0.000000
# 3 0.000360 0.002784 0.017668 0.000000 0.000000 0.000000
# 4 0.000000 0.000000 0.000000 0.024619 0.000000 0.000000
# 5 0.000000 0.000000 0.000000 0.000000 0.028188 0.000000
# 6 0.000000 0.000000 0.000000 0.000000 0.000000 0.052605
#
#
# Mechanical properties :
#
#
# Convention : Reuss Voigt Hill
#
# Bulk Modulus (GPa) = 22.18308 24.22707 23.20507
# Shear Modulus (GPa) = 30.96804 34.24958 32.60881
#
# Velocity S-wave (km/s) = 4.06956 4.27975 4.17598
# Velocity P-wave (km/s) = 5.82624 6.11376 5.97173
#
# Compressibility (1/GPa) = 0.04507941
#
# Stress axis : x y z
#
# Youngs Moduli (GPa) = 75.82900 82.01124 56.60077
#
# Poissons Ratio (x) = 0.17458 -0.02040
# Poissons Ratio (y) = 0.16142 -0.15756
# Poissons Ratio (z) = -0.02733 -0.22830
#
# Static dielectric constant tensor:
#      x y z
#    x 1.604860 0.000000 0.000000 
#    y 0.000000 1.641970 0.000000 
#    z 0.000000 0.000000 1.623670 
# 
# From -- ./inp_files/2961.got.cif
#   From: 2010.05.17/outbox.cif.g08.bks.cpg/sg58_2_cif.got.tgz:2961.got - 2010.06.03 14:20:14.
