data_PCOD9443596
_publ_section_title
;
Structure prediction by ZEFSAII (Michael W. Deem and Ramdas Pophale) SiO2 
 PCOD9443596
Probable space group: P N N M
;
_chemical_formula_sum "Si O2"
_cell_formula_units_Z 56
_cell_length_a 21.452178
_cell_length_b 6.782294
_cell_length_c 17.500666
_cell_angle_alpha 90.000000
_cell_angle_beta 90.000000
_cell_angle_gamma 90.000000
_cell_volume 2546.259017
_symmetry_space_group_name_H-M "P N N M"
_symmetry_group_IT_number 58
_symmetry_cell_setting 'orthorhombic'
loop_
_space_group_symop_operation_xyz
x,y,z
-x,-y,z
1/2+x,1/2-y,1/2-z
1/2-x,1/2+y,1/2-z
-x,-y,-z
x,y,-z
1/2-x,1/2+y,1/2+z
1/2+x,1/2-y,1/2+z
loop_
_atom_site_type_symbol
_atom_site_label
_atom_site_fract_x
_atom_site_fract_y
_atom_site_fract_z
Si Si1 0.409778 0.953548 0.910650
Si Si2 0.702001 0.349819 0.348309
Si Si3 0.730189 0.185765 0.083368
Si Si4 0.195608 0.751060 0.771649
Si Si5 0.478482 0.292588 0.151490
Si Si6 0.894936 0.529148 0.162676
Si Si7 0.482277 0.289687 0.671059
O O1 0.341063 0.869247 0.899726
O O2 0.421945 0.182171 0.890316
O O3 0.459771 0.839639 0.859233
O O4 0.425706 0.925385 0.000000
O O5 0.732181 0.479137 0.414750
O O6 0.758784 0.257645 0.299831
O O7 0.673721 0.525192 0.292514
O O8 0.653174 0.184630 0.372732
O O9 0.762142 0.298044 0.153225
O O10 0.735111 0.279699 0.000000
O O11 0.144987 0.576355 0.770168
O O12 0.071544 0.666079 0.872544
O O13 0.500000 0.500000 0.118032
O O14 0.544890 0.161132 0.320749
O O15 0.462341 0.319830 0.240576
O O16 0.500000 0.500000 0.636755
#
# Coordination Sequence:
#
# PCOD9443596 Si02
#       7
#     8   8   8   8   8   8   8
#     4  10  20  37  56  74 110 160 204 242 285 339
#     4  10  21  34  60  89 119 158 202 247 295 356
#     4   9  22  42  58  86 129 164 196 250 308 360
#     4  10  21  34  60  89 119 158 202 247 295 356
#     4  10  21  34  52  79 110 155 202 246 288 340
#     4  11  19  38  56  87 120 152 194 245 311 355
#     4  10  23  35  59  87 121 152 190 251 309 369
#
# _framework density 21.993051000000001
#
# number of rings (size 3 to 8) (size 9 to 14) (size 15 to 20)
#    0.857    1.143    1.429    3.429    8.000    1.143 
#    2.571    0.714    0.000    0.000    0.000   12.000 
#    0.000    0.000    0.000    0.000    0.000    0.000 
#
# Total GULP energy -311750.218512 kJ/mol
# GULP energy per Si atom -5566.968188 kJ/mol
# Density = 2.194299 g / cm^3
# Si number density = 21.993051 Si / 1000 Ang^3
#
#
#
# Elastic Constant Matrix: (Units=GPa)
#
#
# Indices 1 2 3 4 5 6 
#
# 1 83.7947 19.9586 -4.4325 0.0000 0.0000 0.0000
# 2 19.9586 103.6603 -13.0552 0.0000 0.0000 0.0000
# 3 -4.4325 -13.0552 31.6153 0.0000 0.0000 0.0000
# 4 0.0000 0.0000 0.0000 14.1216 0.0000 0.0000
# 5 0.0000 0.0000 0.0000 0.0000 19.5506 0.0000
# 6 0.0000 0.0000 0.0000 0.0000 0.0000 34.1641
#
#
#
# Elastic Compliance Matrix: (Units=1/GPa)
#
#
# Indices 1 2 3 4 5 6 
#
# 1 0.012527 -0.002311 0.000802 0.000000 0.000000 0.000000
# 2 -0.002311 0.010602 0.004054 0.000000 0.000000 0.000000
# 3 0.000802 0.004054 0.033417 0.000000 0.000000 0.000000
# 4 0.000000 0.000000 0.000000 0.070813 0.000000 0.000000
# 5 0.000000 0.000000 0.000000 0.000000 0.051149 0.000000
# 6 0.000000 0.000000 0.000000 0.000000 0.000000 0.029270
#
#
# Mechanical properties :
#
#
# Convention : Reuss Voigt Hill
#
# Bulk Modulus (GPa) = 16.22413 24.89023 20.55718
# Shear Modulus (GPa) = 22.39801 28.00723 25.20262
#
# Velocity S-wave (km/s) = 3.19472 3.57243 3.38884
# Velocity P-wave (km/s) = 4.58271 5.32524 4.96787
#
# Compressibility (1/GPa) = 0.06163660
#
# Stress axis : x y z
#
# Youngs Moduli (GPa) = 79.82909 94.31807 29.92508
#
# Poissons Ratio (x) = 0.21796 -0.02400
# Poissons Ratio (y) = 0.18448 -0.12132
# Poissons Ratio (z) = -0.06402 -0.38238
#
# Static dielectric constant tensor:
#      x y z
#    x 1.847750 0.000000 0.000000 
#    y 0.000000 1.910200 0.000000 
#    z 0.000000 0.000000 1.755120 
# 
# From -- ./inp_files/27491.got.cif
#   From: 2010.05.17/outbox.cif.g08.bks.cpg/sg58_14_cif.got.tgz:27491.got - 2010.06.03 14:20:14.
