data_PCOD9443375
_publ_section_title
;
Structure prediction by ZEFSAII (Michael W. Deem and Ramdas Pophale) SiO2 
 PCOD9443375
Probable space group: P N N M
;
_chemical_formula_sum "Si O2"
_cell_formula_units_Z 48
_cell_length_a 29.045888
_cell_length_b 9.366094
_cell_length_c 9.667686
_cell_angle_alpha 90.000000
_cell_angle_beta 90.000000
_cell_angle_gamma 90.000000
_cell_volume 2630.060307
_symmetry_space_group_name_H-M "P N N M"
_symmetry_group_IT_number 58
_symmetry_cell_setting 'orthorhombic'
loop_
_space_group_symop_operation_xyz
x,y,z
-x,-y,z
1/2+x,1/2-y,1/2-z
1/2-x,1/2+y,1/2-z
-x,-y,-z
x,y,-z
1/2-x,1/2+y,1/2+z
1/2+x,1/2-y,1/2+z
loop_
_atom_site_type_symbol
_atom_site_label
_atom_site_fract_x
_atom_site_fract_y
_atom_site_fract_z
Si Si1 0.217989 0.299590 0.836112
Si Si2 0.486425 0.335217 0.159384
Si Si3 0.300804 0.513837 0.164943
Si Si4 0.620391 0.696922 0.166121
Si Si5 0.136372 0.525259 0.835106
Si Si6 0.459943 0.881723 0.658696
O O1 0.264308 0.387747 0.803963
O O2 0.176540 0.411130 0.810928
O O3 0.210974 0.156328 0.748639
O O4 0.218459 0.264874 0.000000
O O5 0.500000 0.500000 0.165189
O O6 0.433389 0.315875 0.204708
O O7 0.522005 0.245732 0.248597
O O8 0.488976 0.286997 0.000000
O O9 0.350818 0.446549 0.196484
O O10 0.297915 0.542715 0.000000
O O11 0.641400 0.830829 0.247618
O O12 0.623566 0.719384 0.000000
O O13 0.087763 0.452834 0.796162
O O14 0.135215 0.557720 0.000000
O O15 0.453976 0.834614 0.500000
O O16 0.500000 0.000000 0.662641
#
# Coordination Sequence:
#
# PCOD9443375 Si02
#       6
#     8   8   8   8   8   8
#     4  10  22  39  59  85 113 143 181 226 274 329
#     4  10  22  37  54  79 112 148 186 229 274 324
#     4  10  22  39  59  84 114 144 181 228 275 327
#     4  10  21  37  56  81 111 145 186 228 273 327
#     4  10  21  37  57  82 112 144 184 229 274 326
#     4  10  20  36  56  80 110 146 186 228 271 322
#
# _framework density 18.250532
#
# number of rings (size 3 to 8) (size 9 to 14) (size 15 to 20)
#    0.000    2.000    1.667    1.000    2.333    3.333 
#    0.000    0.000    0.000    0.000    0.000    0.000 
#    0.000    0.000    0.000    0.000    0.000    0.000 
#
# Total GULP energy -267970.808071 kJ/mol
# GULP energy per Si atom -5582.725168 kJ/mol
# Density = 1.820899 g / cm^3
# Si number density = 18.250532 Si / 1000 Ang^3
#
#
#
# Elastic Constant Matrix: (Units=GPa)
#
#
# Indices 1 2 3 4 5 6 
#
# 1 55.5335 12.4584 11.5785 0.0000 0.0000 0.0000
# 2 12.4584 90.9277 48.2677 0.0000 0.0000 0.0000
# 3 11.5785 48.2677 36.2463 0.0000 0.0000 0.0000
# 4 0.0000 0.0000 0.0000 40.8744 0.0000 0.0000
# 5 0.0000 0.0000 0.0000 0.0000 13.8763 0.0000
# 6 0.0000 0.0000 0.0000 0.0000 0.0000 26.4960
#
#
#
# Elastic Compliance Matrix: (Units=1/GPa)
#
#
# Indices 1 2 3 4 5 6 
#
# 1 0.019415 0.002157 -0.009074 0.000000 0.000000 0.000000
# 2 0.002157 0.037761 -0.050973 0.000000 0.000000 0.000000
# 3 -0.009074 -0.050973 0.098366 0.000000 0.000000 0.000000
# 4 0.000000 0.000000 0.000000 0.024465 0.000000 0.000000
# 5 0.000000 0.000000 0.000000 0.000000 0.072065 0.000000
# 6 0.000000 0.000000 0.000000 0.000000 0.000000 0.037742
#
#
# Mechanical properties :
#
#
# Convention : Reuss Voigt Hill
#
# Bulk Modulus (GPa) = 25.15000 36.36853 30.75927
# Shear Modulus (GPa) = 11.93748 23.60954 17.77351
#
# Velocity S-wave (km/s) = 2.56029 3.60062 3.12406
# Velocity P-wave (km/s) = 4.74873 6.10382 5.46841
#
# Compressibility (1/GPa) = 0.03976143
#
# Stress axis : x y z
#
# Youngs Moduli (GPa) = 51.50605 26.48261 10.16608
#
# Poissons Ratio (x) = -0.05711 0.09224
# Poissons Ratio (y) = -0.11107 0.51820
# Poissons Ratio (z) = 0.46735 1.34990
#
# Static dielectric constant tensor:
#      x y z
#    x 1.645620 0.000000 0.000000 
#    y 0.000000 1.590670 0.000000 
#    z 0.000000 0.000000 1.616410 
# 
# From -- ./inp_files/2850.got.cif
#   From: 2010.05.17/outbox.cif.g08.bks.cpg/sg58_2_cif.got.tgz:2850.got - 2010.06.03 14:20:14.
