data_PCOD9443383
_publ_section_title
;
Structure prediction by ZEFSAII (Michael W. Deem and Ramdas Pophale) SiO2 
 PCOD9443383
Probable space group: P N N M
;
_chemical_formula_sum "Si O2"
_cell_formula_units_Z 48
_cell_length_a 31.773819
_cell_length_b 9.380842
_cell_length_c 8.938341
_cell_angle_alpha 90.000000
_cell_angle_beta 90.000000
_cell_angle_gamma 90.000000
_cell_volume 2664.208181
_symmetry_space_group_name_H-M "P N N M"
_symmetry_group_IT_number 58
_symmetry_cell_setting 'orthorhombic'
loop_
_space_group_symop_operation_xyz
x,y,z
-x,-y,z
1/2+x,1/2-y,1/2-z
1/2-x,1/2+y,1/2-z
-x,-y,-z
x,y,-z
1/2-x,1/2+y,1/2+z
1/2+x,1/2-y,1/2+z
loop_
_atom_site_type_symbol
_atom_site_label
_atom_site_fract_x
_atom_site_fract_y
_atom_site_fract_z
Si Si1 0.041584 0.919316 0.677925
Si Si2 0.542198 0.918845 0.178042
Si Si3 0.207429 0.408803 0.320752
Si Si4 0.869325 0.420107 0.820882
Si Si5 0.629876 0.587186 0.679777
Si Si6 0.289226 0.596936 0.680460
O O1 0.045276 0.944823 0.500000
O O2 0.036321 0.750146 0.701388
O O3 0.085336 0.962058 0.754146
O O4 0.000000 0.000000 0.732903
O O5 0.584289 0.962826 0.264468
O O6 0.500000 0.000000 0.224910
O O7 0.548330 0.942989 0.000000
O O8 0.204361 0.402742 0.500000
O O9 0.166398 0.484338 0.253287
O O10 0.248265 0.503559 0.281496
O O11 0.212241 0.250730 0.255769
O O12 0.863312 0.253189 0.776971
O O13 0.866842 0.430084 0.000000
O O14 0.627411 0.584031 0.500000
O O15 0.668932 0.489645 0.726521
O O16 0.290304 0.613425 0.500000
#
# Coordination Sequence:
#
# PCOD9443383 Si02
#       6
#     8   8   8   8   8   8
#     4   9  18  32  50  74 104 138 176 218 264 313
#     4   9  18  33  52  75 106 142 181 225 269 317
#     4  11  23  38  58  83 110 142 180 220 267 323
#     4  10  20  36  57  80 110 145 182 225 271 320
#     4   9  19  36  56  78 106 141 179 220 267 317
#     4  10  22  39  57  80 110 141 176 220 268 319
#
# _framework density 18.01661
#
# number of rings (size 3 to 8) (size 9 to 14) (size 15 to 20)
#    0.000    2.333    0.000    2.000    0.000    6.000 
#    0.000    1.667    0.000    0.000    0.000    0.000 
#    0.000    0.000    0.000    0.000    0.000    0.000 
#
# Total GULP energy -267963.270267 kJ/mol
# GULP energy per Si atom -5582.568131 kJ/mol
# Density = 1.797560 g / cm^3
# Si number density = 18.016610 Si / 1000 Ang^3
#
#
#
# Elastic Constant Matrix: (Units=GPa)
#
#
# Indices 1 2 3 4 5 6 
#
# 1 200.7560 109.0654 64.4231 0.0000 0.0000 0.0000
# 2 109.0654 111.0851 49.9246 0.0000 0.0000 0.0000
# 3 64.4231 49.9246 33.1406 0.0000 0.0000 0.0000
# 4 0.0000 0.0000 0.0000 27.3018 0.0000 0.0000
# 5 0.0000 0.0000 0.0000 0.0000 -38.8560 0.0000
# 6 0.0000 0.0000 0.0000 0.0000 0.0000 41.0091
#
#
#
# Elastic Compliance Matrix: (Units=1/GPa)
#
#
# Indices 1 2 3 4 5 6 
#
# 1 0.013986 -0.004684 -0.020132 0.000000 0.000000 0.000000
# 2 -0.004684 0.029442 -0.035248 0.000000 0.000000 0.000000
# 3 -0.020132 -0.035248 0.122409 0.000000 0.000000 0.000000
# 4 0.000000 0.000000 0.000000 0.036628 0.000000 0.000000
# 5 0.000000 0.000000 0.000000 0.000000 -0.025736 0.000000
# 6 0.000000 0.000000 0.000000 0.000000 0.000000 0.024385
#
#
# Mechanical properties :
#
#
# Convention : Reuss Voigt Hill
#
# Bulk Modulus (GPa) = 21.87726 87.97867 54.92797
# Shear Modulus (GPa) = 14.85978 13.99554 14.42766
#
# Velocity S-wave (km/s) = 2.87502 2.79016 2.83291
# Velocity P-wave (km/s) = 4.81562 7.70182 6.42293
#
# Compressibility (1/GPa) = 0.04570955
#
# Stress axis : x y z
#
# Youngs Moduli (GPa) = 71.49771 33.96466 8.16935
#
# Poissons Ratio (x) = 0.15910 0.16447
# Poissons Ratio (y) = 0.33491 0.28795
# Poissons Ratio (z) = 1.43941 1.19717
#
# Static dielectric constant tensor:
#      x y z
#    x 1.595080 0.000000 0.000000 
#    y 0.000000 1.597710 0.000000 
#    z 0.000000 0.000000 1.605130 
# 
# From -- ./inp_files/2938.got.cif
#   From: 2010.05.17/outbox.cif.g08.bks.cpg/sg58_2_cif.got.tgz:2938.got - 2010.06.03 14:20:14.
