data_PCOD9443370
_publ_section_title
;
Structure prediction by ZEFSAII (Michael W. Deem and Ramdas Pophale) SiO2 
 PCOD9443370
Probable space group: P N N M
;
_chemical_formula_sum "Si O2"
_cell_formula_units_Z 48
_cell_length_a 8.476465
_cell_length_b 9.069859
_cell_length_c 33.611818
_cell_angle_alpha 90.000000
_cell_angle_beta 90.000000
_cell_angle_gamma 90.000000
_cell_volume 2584.088075
_symmetry_space_group_name_H-M "P N N M"
_symmetry_group_IT_number 58
_symmetry_cell_setting 'orthorhombic'
loop_
_space_group_symop_operation_xyz
x,y,z
-x,-y,z
1/2+x,1/2-y,1/2-z
1/2-x,1/2+y,1/2-z
-x,-y,-z
x,y,-z
1/2-x,1/2+y,1/2+z
1/2+x,1/2-y,1/2+z
loop_
_atom_site_type_symbol
_atom_site_label
_atom_site_fract_x
_atom_site_fract_y
_atom_site_fract_z
Si Si1 0.569782 0.837691 0.276562
Si Si2 0.439957 0.662614 0.794320
Si Si3 0.152120 0.189515 0.618953
Si Si4 0.479032 0.326779 0.644314
Si Si5 0.446498 0.329088 0.956175
Si Si6 0.343526 0.906927 0.590857
O O1 0.526813 0.780888 0.232963
O O2 0.756051 0.836413 0.283265
O O3 0.504709 0.726839 0.310141
O O4 0.500000 0.000000 0.283687
O O5 0.500000 0.500000 0.785052
O O6 0.453173 0.690192 0.841441
O O7 0.303820 0.288900 0.628251
O O8 0.052658 0.232505 0.579962
O O9 0.228396 0.026120 0.612364
O O10 0.500000 0.500000 0.640669
O O11 0.596692 0.222852 0.619348
O O12 0.500000 0.500000 0.958564
O O13 0.263359 0.336830 0.943643
O O14 0.470107 0.262707 0.000000
O O15 0.500000 0.000000 0.578408
#
# Coordination Sequence:
#
# PCOD9443370 Si02
#       6
#     8   8   8   8   8   8
#     4  11  23  37  55  81 110 143 181 226 273 317
#     4  11  21  36  55  78 110 145 183 223 268 323
#     4   9  19  36  56  81 107 141 179 222 273 318
#     4  10  20  36  56  78 107 144 184 221 264 321
#     4   9  17  31  55  85 111 137 177 227 273 320
#     4   9  17  32  56  81 110 143 176 219 270 320
#
# _framework density 18.575219000000001
#
# number of rings (size 3 to 8) (size 9 to 14) (size 15 to 20)
#    0.000    2.167    0.000    5.500    0.000    3.000 
#    0.000    3.333    0.000    3.000    0.000    0.000 
#    0.000    0.000    0.000    0.000    0.000    0.000 
#
# Total GULP energy -267794.026184 kJ/mol
# GULP energy per Si atom -5579.042212 kJ/mol
# Density = 1.853294 g / cm^3
# Si number density = 18.575219 Si / 1000 Ang^3
#
#
#
# Elastic Constant Matrix: (Units=GPa)
#
#
# Indices 1 2 3 4 5 6 
#
# 1 62.7265 19.3258 59.0096 0.0000 0.0000 0.0000
# 2 19.3258 91.2229 34.9667 0.0000 0.0000 0.0000
# 3 59.0096 34.9667 135.9666 0.0000 0.0000 0.0000
# 4 0.0000 0.0000 0.0000 9.4773 0.0000 0.0000
# 5 0.0000 0.0000 0.0000 0.0000 23.1326 0.0000
# 6 0.0000 0.0000 0.0000 0.0000 0.0000 17.2403
#
#
#
# Elastic Compliance Matrix: (Units=1/GPa)
#
#
# Indices 1 2 3 4 5 6 
#
# 1 0.027095 -0.001368 -0.011408 0.000000 0.000000 0.000000
# 2 -0.001368 0.012230 -0.002552 0.000000 0.000000 0.000000
# 3 -0.011408 -0.002552 0.012962 0.000000 0.000000 0.000000
# 4 0.000000 0.000000 0.000000 0.105515 0.000000 0.000000
# 5 0.000000 0.000000 0.000000 0.000000 0.043229 0.000000
# 6 0.000000 0.000000 0.000000 0.000000 0.000000 0.058004
#
#
# Mechanical properties :
#
#
# Convention : Reuss Voigt Hill
#
# Bulk Modulus (GPa) = 46.22491 57.39113 51.80802
# Shear Modulus (GPa) = 16.84072 21.74431 19.29252
#
# Velocity S-wave (km/s) = 3.01428 3.42513 3.22625
# Velocity P-wave (km/s) = 6.08719 6.82684 6.46759
#
# Compressibility (1/GPa) = 0.02163336
#
# Stress axis : x y z
#
# Youngs Moduli (GPa) = 36.90684 81.76643 77.14919
#
# Poissons Ratio (x) = 0.11182 0.88009
# Poissons Ratio (y) = 0.05047 0.19686
# Poissons Ratio (z) = 0.42102 0.20864
#
# Static dielectric constant tensor:
#      x y z
#    x 1.663820 0.000000 0.000000 
#    y 0.000000 1.618960 0.000000 
#    z 0.000000 0.000000 1.671530 
# 
# From -- ./inp_files/34557.got.cif
#   From: 2010.05.17/outbox.cif.g08.bks.cpg/sg58_18_cif.got.tgz:34557.got - 2010.06.03 14:20:14.
