data_PCOD9443941
_publ_section_title
;
Structure prediction by ZEFSAII (Michael W. Deem and Ramdas Pophale) SiO2 
 PCOD9443941
Probable space group: P N N M
;
_chemical_formula_sum "Si O2"
_cell_formula_units_Z 56
_cell_length_a 14.591854
_cell_length_b 15.311791
_cell_length_c 12.633839
_cell_angle_alpha 90.000000
_cell_angle_beta 90.000000
_cell_angle_gamma 90.000000
_cell_volume 2822.746037
_symmetry_space_group_name_H-M "P N N M"
_symmetry_group_IT_number 58
_symmetry_cell_setting 'orthorhombic'
loop_
_space_group_symop_operation_xyz
x,y,z
-x,-y,z
1/2+x,1/2-y,1/2-z
1/2-x,1/2+y,1/2-z
-x,-y,-z
x,y,-z
1/2-x,1/2+y,1/2+z
1/2+x,1/2-y,1/2+z
loop_
_atom_site_type_symbol
_atom_site_label
_atom_site_fract_x
_atom_site_fract_y
_atom_site_fract_z
Si Si1 0.236645 0.914800 0.876850
Si Si2 0.543871 0.767983 0.123114
Si Si3 0.390280 0.007415 0.619632
Si Si4 0.626626 0.169782 0.259672
Si Si5 0.879985 0.844753 0.877609
Si Si6 0.808739 0.404784 0.311006
Si Si7 0.547830 0.587314 0.251732
O O1 0.289941 0.833451 0.823802
O O2 0.145319 0.929965 0.807359
O O3 0.303577 0.000159 0.867979
O O4 0.214710 0.901294 0.000000
O O5 0.464763 0.818235 0.189325
O O6 0.634270 0.828546 0.132373
O O7 0.555448 0.671350 0.174280
O O8 0.518744 0.760155 0.000000
O O9 0.357831 0.017288 0.500000
O O10 0.354153 0.082266 0.696682
O O11 0.500000 0.000000 0.619430
O O12 0.359888 0.918201 0.674286
O O13 0.620050 0.243644 0.348137
O O14 0.797212 0.879912 0.806696
O O15 0.976029 0.884906 0.843043
O O16 0.860111 0.862433 0.000000
O O17 0.500000 0.500000 0.203826
#
# Coordination Sequence:
#
# PCOD9443941 Si02
#       7
#     8   8   8   8   8   8   8
#     4  11  22  38  63  91 127 163 203 257 312 363
#     4  11  23  41  63  90 125 163 205 256 319 376
#     4  10  20  39  63  91 128 161 195 244 308 366
#     4  10  22  39  62  93 124 158 207 253 305 376
#     4  11  22  39  64  87 121 163 208 260 309 358
#     4  11  22  38  61  95 121 158 203 252 303 376
#     4  11  24  42  62  90 122 163 215 266 304 371
#
# _framework density 19.838837999999999
#
# number of rings (size 3 to 8) (size 9 to 14) (size 15 to 20)
#    0.000    1.286    2.857    3.429    0.000    0.857 
#    0.000   10.714    0.000    0.000    0.000    0.000 
#    0.000    0.000    0.000    0.000    0.000    0.000 
#
# Total GULP energy -312330.317699 kJ/mol
# GULP energy per Si atom -5577.327102 kJ/mol
# Density = 1.979368 g / cm^3
# Si number density = 19.838838 Si / 1000 Ang^3
#
#
#
# Elastic Constant Matrix: (Units=GPa)
#
#
# Indices 1 2 3 4 5 6 
#
# 1 89.2843 19.3823 23.7286 0.0000 0.0000 0.0000
# 2 19.3823 61.7356 18.9433 0.0000 0.0000 0.0000
# 3 23.7286 18.9433 122.2607 0.0000 0.0000 0.0000
# 4 0.0000 0.0000 0.0000 14.5336 0.0000 0.0000
# 5 0.0000 0.0000 0.0000 0.0000 21.5890 0.0000
# 6 0.0000 0.0000 0.0000 0.0000 0.0000 26.4030
#
#
#
# Elastic Compliance Matrix: (Units=1/GPa)
#
#
# Indices 1 2 3 4 5 6 
#
# 1 0.012425 -0.003319 -0.001897 0.000000 0.000000 0.000000
# 2 -0.003319 0.017893 -0.002128 0.000000 0.000000 0.000000
# 3 -0.001897 -0.002128 0.008877 0.000000 0.000000 0.000000
# 4 0.000000 0.000000 0.000000 0.068806 0.000000 0.000000
# 5 0.000000 0.000000 0.000000 0.000000 0.046320 0.000000
# 6 0.000000 0.000000 0.000000 0.000000 0.000000 0.037875
#
#
# Mechanical properties :
#
#
# Convention : Reuss Voigt Hill
#
# Bulk Modulus (GPa) = 40.80515 44.15432 42.47973
# Shear Modulus (GPa) = 23.25006 26.58686 24.91846
#
# Velocity S-wave (km/s) = 3.42708 3.66477 3.54792
# Velocity P-wave (km/s) = 6.02269 6.34131 6.18405
#
# Compressibility (1/GPa) = 0.02450671
#
# Stress axis : x y z
#
# Youngs Moduli (GPa) = 80.48397 55.88752 112.64781
#
# Poissons Ratio (x) = 0.18547 0.21372
# Poissons Ratio (y) = 0.26710 0.23975
# Poissons Ratio (z) = 0.15270 0.11895
#
# Static dielectric constant tensor:
#      x y z
#    x 1.720900 0.000000 0.000000 
#    y 0.000000 1.783250 0.000000 
#    z 0.000000 0.000000 1.668220 
# 
# From -- ./inp_files/15672.got.cif
#   From: 2010.05.17/outbox.cif.g08.bks.cpg/sg58_8_cif.got.tgz:15672.got - 2010.06.03 14:20:14.
