data_PCOD9443656
_publ_section_title
;
Structure prediction by ZEFSAII (Michael W. Deem and Ramdas Pophale) SiO2 
 PCOD9443656
Probable space group: P N N M
;
_chemical_formula_sum "Si O2"
_cell_formula_units_Z 64
_cell_length_a 24.492061
_cell_length_b 14.068374
_cell_length_c 9.125258
_cell_angle_alpha 90.000000
_cell_angle_beta 90.000000
_cell_angle_gamma 90.000000
_cell_volume 3144.230599
_symmetry_space_group_name_H-M "P N N M"
_symmetry_group_IT_number 58
_symmetry_cell_setting 'orthorhombic'
loop_
_space_group_symop_operation_xyz
x,y,z
-x,-y,z
1/2+x,1/2-y,1/2-z
1/2-x,1/2+y,1/2-z
-x,-y,-z
x,y,-z
1/2-x,1/2+y,1/2+z
1/2+x,1/2-y,1/2+z
loop_
_atom_site_type_symbol
_atom_site_label
_atom_site_fract_x
_atom_site_fract_y
_atom_site_fract_z
Si Si1 0.057289 0.292842 0.325961
Si Si2 0.773766 0.118930 0.169624
Si Si3 0.227575 0.112790 0.166175
Si Si4 0.946001 0.283400 0.823774
Si Si5 0.663701 0.890558 0.669728
Si Si6 0.611740 0.615186 0.175986
Si Si7 0.837451 0.619574 0.828568
Si Si8 0.116503 0.105287 0.327401
O O1 0.053602 0.309739 0.500000
O O2 0.110151 0.343345 0.258282
O O3 0.068762 0.180444 0.301537
O O4 0.002105 0.320991 0.244016
O O5 0.829228 0.141946 0.256085
O O6 0.719140 0.151156 0.252743
O O7 0.771436 0.003138 0.167696
O O8 0.775354 0.150286 0.000000
O O9 0.282885 0.143812 0.245153
O O10 0.170899 0.137355 0.243574
O O11 0.227493 0.145682 0.000000
O O12 0.893797 0.347531 0.780884
O O13 0.932427 0.181276 0.753679
O O14 0.949414 0.279138 0.000000
O O15 0.670661 0.864791 0.500000
O O16 0.661581 0.004693 0.678893
O O17 0.602796 0.503550 0.209611
O O18 0.611445 0.627642 0.000000
O O19 0.839342 0.646431 0.000000
O O20 0.129649 0.106959 0.500000
#
# Coordination Sequence:
#
# PCOD9443656 Si02
#       8
#     8   8   8   8   8   8   8   8
#     4  11  24  41  58  80 110 147 190 235 278 329
#     4   9  17  32  55  86 118 146 178 222 275 331
#     4   9  17  30  55  88 116 140 178 228 273 321
#     4  11  24  41  58  80 110 147 190 235 278 329
#     4   9  20  38  59  81 112 150 183 219 275 337
#     4  10  20  37  60  85 112 146 185 227 274 329
#     4  10  20  37  60  85 112 146 185 227 274 329
#     4   9  20  38  59  81 112 150 183 219 275 337
#
# _framework density 20.354741000000001
#
# number of rings (size 3 to 8) (size 9 to 14) (size 15 to 20)
#    0.000    2.250    0.000    2.250    0.000    8.000 
#    0.000    6.250    0.000    0.000    0.000    0.000 
#    0.000    0.000    0.000    0.000    0.000    0.000 
#
# Total GULP energy -357712.855471 kJ/mol
# GULP energy per Si atom -5589.263367 kJ/mol
# Density = 2.030841 g / cm^3
# Si number density = 20.354741 Si / 1000 Ang^3
#
#
#
# Elastic Constant Matrix: (Units=GPa)
#
#
# Indices 1 2 3 4 5 6 
#
# 1 99.8903 9.1540 37.0434 0.0000 0.0000 0.0000
# 2 9.1540 40.8015 14.6100 0.0000 0.0000 0.0000
# 3 37.0434 14.6100 67.3146 0.0000 0.0000 0.0000
# 4 0.0000 0.0000 0.0000 -18.0088 0.0000 0.0000
# 5 0.0000 0.0000 0.0000 0.0000 36.9141 0.0000
# 6 0.0000 0.0000 0.0000 0.0000 0.0000 25.0286
#
#
#
# Elastic Compliance Matrix: (Units=1/GPa)
#
#
# Indices 1 2 3 4 5 6 
#
# 1 0.012583 -0.000373 -0.006844 0.000000 0.000000 0.000000
# 2 -0.000373 0.026585 -0.005565 0.000000 0.000000 0.000000
# 3 -0.006844 -0.005565 0.019830 0.000000 0.000000 0.000000
# 4 0.000000 0.000000 0.000000 -0.055528 0.000000 0.000000
# 5 0.000000 0.000000 0.000000 0.000000 0.027090 0.000000
# 6 0.000000 0.000000 0.000000 0.000000 0.000000 0.039954
#
#
# Mechanical properties :
#
#
# Convention : Reuss Voigt Hill
#
# Bulk Modulus (GPa) = 29.90848 36.62457 33.26653
# Shear Modulus (GPa) = 46.63261 18.60003 32.61632
#
# Velocity S-wave (km/s) = 4.79163 3.02618 4.00733
# Velocity P-wave (km/s) = 6.73338 5.49932 6.14740
#
# Compressibility (1/GPa) = 0.03343533
#
# Stress axis : x y z
#
# Youngs Moduli (GPa) = 79.47222 37.61489 50.42985
#
# Poissons Ratio (x) = 0.01401 0.34512
# Poissons Ratio (y) = 0.02961 0.28064
# Poissons Ratio (z) = 0.54388 0.20933
#
# Static dielectric constant tensor:
#      x y z
#    x 1.679540 0.000000 0.000000 
#    y 0.000000 1.778460 0.000000 
#    z 0.000000 0.000000 1.683000 
# 
# From -- ./inp_files/9972.got.cif
#   From: 2010.05.17/outbox.cif.g08.bks.cpg/sg58_5_cif.got.tgz:9972.got - 2010.06.03 14:20:14.
