data_PCOD9443028
_publ_section_title
;
Structure prediction by ZEFSAII (Michael W. Deem and Ramdas Pophale) SiO2 
 PCOD9443028
Probable space group: P N N M
;
_chemical_formula_sum "Si O2"
_cell_formula_units_Z 64
_cell_length_a 24.751091
_cell_length_b 15.042390
_cell_length_c 7.505183
_cell_angle_alpha 90.000000
_cell_angle_beta 90.000000
_cell_angle_gamma 90.000000
_cell_volume 2794.296440
_symmetry_space_group_name_H-M "P N N M"
_symmetry_group_IT_number 58
_symmetry_cell_setting 'orthorhombic'
loop_
_space_group_symop_operation_xyz
x,y,z
-x,-y,z
1/2+x,1/2-y,1/2-z
1/2-x,1/2+y,1/2-z
-x,-y,-z
x,y,-z
1/2-x,1/2+y,1/2+z
1/2+x,1/2-y,1/2+z
loop_
_atom_site_type_symbol
_atom_site_label
_atom_site_fract_x
_atom_site_fract_y
_atom_site_fract_z
Si Si1 0.468281 0.589259 0.784892
Si Si2 0.254609 0.568014 0.215014
Si Si3 0.751315 0.728123 0.281813
Si Si4 0.047196 0.439615 0.703121
Si Si5 0.629275 0.707554 0.292465
Si Si6 0.832403 0.573700 0.290514
Si Si7 0.365868 0.491052 0.215216
Si Si8 0.980837 0.275364 0.205065
O O1 0.500000 0.500000 0.733713
O O2 0.406459 0.569663 0.734430
O O3 0.493315 0.677789 0.708469
O O4 0.471776 0.596764 0.000000
O O5 0.263116 0.670062 0.268981
O O6 0.200332 0.518358 0.272751
O O7 0.305543 0.510280 0.278440
O O8 0.254520 0.567390 0.000000
O O9 0.751050 0.723122 0.500000
O O10 0.689774 0.712397 0.217976
O O11 0.793884 0.653410 0.219142
O O12 0.054588 0.473628 0.500000
O O13 0.107072 0.435148 0.784843
O O14 0.000000 0.500000 0.786452
O O15 0.020965 0.342335 0.699991
O O16 0.633356 0.732709 0.500000
O O17 0.613802 0.604030 0.280108
O O18 0.579866 0.765364 0.217681
O O19 0.839141 0.594136 0.500000
O O20 0.365881 0.486790 0.000000
O O21 0.976567 0.304673 0.000000
#
# Coordination Sequence:
#
# PCOD9443028 Si02
#       8
#     8   8   8   8   8   8   8   8
#     4  10  20  35  56  82 117 159 194 230 285 352
#     4  10  21  36  59  86 114 148 189 238 291 349
#     4   9  19  36  58  83 112 151 189 228 289 356
#     4  10  24  44  64  86 115 157 207 253 295 347
#     4  10  20  36  57  81 115 153 191 235 292 356
#     4  10  21  40  64  86 115 154 196 241 292 349
#     4  10  20  34  55  85 116 150 192 235 286 343
#     4  11  24  38  58  88 117 154 198 245 299 349
#
# _framework density 22.903797999999998
#
# number of rings (size 3 to 8) (size 9 to 14) (size 15 to 20)
#    0.000    2.000    2.500    0.375    3.500    2.000 
#    0.000    1.250    0.000    0.000    0.000    0.000 
#    0.000    0.000    0.000    0.000    0.000    0.000 
#
# Total GULP energy -357453.760179 kJ/mol
# GULP energy per Si atom -5585.215003 kJ/mol
# Density = 2.285167 g / cm^3
# Si number density = 22.903798 Si / 1000 Ang^3
#
#
#
# Elastic Constant Matrix: (Units=GPa)
#
#
# Indices 1 2 3 4 5 6 
#
# 1 175.0871 32.0021 10.9364 0.0000 0.0000 0.0000
# 2 32.0021 75.6110 -5.3640 0.0000 0.0000 0.0000
# 3 10.9364 -5.3640 60.2203 0.0000 0.0000 0.0000
# 4 0.0000 0.0000 0.0000 17.9559 0.0000 0.0000
# 5 0.0000 0.0000 0.0000 0.0000 -12.5370 0.0000
# 6 0.0000 0.0000 0.0000 0.0000 0.0000 32.4488
#
#
#
# Elastic Compliance Matrix: (Units=1/GPa)
#
#
# Indices 1 2 3 4 5 6 
#
# 1 0.006304 -0.002767 -0.001391 0.000000 0.000000 0.000000
# 2 -0.002767 0.014524 0.001796 0.000000 0.000000 0.000000
# 3 -0.001391 0.001796 0.017018 0.000000 0.000000 0.000000
# 4 0.000000 0.000000 0.000000 0.055692 0.000000 0.000000
# 5 0.000000 0.000000 0.000000 0.000000 -0.079764 0.000000
# 6 0.000000 0.000000 0.000000 0.000000 0.000000 0.030818
#
#
# Mechanical properties :
#
#
# Convention : Reuss Voigt Hill
#
# Bulk Modulus (GPa) = 30.19095 42.89637 36.54366
# Shear Modulus (GPa) = 82.83988 25.79645 54.31817
#
# Velocity S-wave (km/s) = 6.02056 3.35967 4.87517
# Velocity P-wave (km/s) = 7.84473 5.81545 6.90504
#
# Compressibility (1/GPa) = 0.03312250
#
# Stress axis : x y z
#
# Youngs Moduli (GPa) = 158.62759 68.85112 58.76004
#
# Poissons Ratio (x) = 0.19050 0.08175
# Poissons Ratio (y) = 0.43890 -0.10554
# Poissons Ratio (z) = 0.22070 -0.12367
#
# Static dielectric constant tensor:
#      x y z
#    x 1.883430 0.000000 0.000000 
#    y 0.000000 1.819920 0.000000 
#    z 0.000000 0.000000 1.881300 
# 
# From -- ./inp_files/6785.got.cif
#   From: 2010.05.17/outbox.cif.g08.bks.cpg/sg58_4_cif.got.tgz:6785.got - 2010.06.03 14:20:14.
