data_PCOD9443136
_publ_section_title
;
Structure prediction by ZEFSAII (Michael W. Deem and Ramdas Pophale) SiO2 
 PCOD9443136
Probable space group: P N N M
;
_chemical_formula_sum "Si O2"
_cell_formula_units_Z 52
_cell_length_a 10.795051
_cell_length_b 22.034595
_cell_length_c 12.847197
_cell_angle_alpha 90.000000
_cell_angle_beta 90.000000
_cell_angle_gamma 90.000000
_cell_volume 3055.893077
_symmetry_space_group_name_H-M "P N N M"
_symmetry_group_IT_number 58
_symmetry_cell_setting 'orthorhombic'
loop_
_space_group_symop_operation_xyz
x,y,z
-x,-y,z
1/2+x,1/2-y,1/2-z
1/2-x,1/2+y,1/2-z
-x,-y,-z
x,y,-z
1/2-x,1/2+y,1/2+z
1/2+x,1/2-y,1/2+z
loop_
_atom_site_type_symbol
_atom_site_label
_atom_site_fract_x
_atom_site_fract_y
_atom_site_fract_z
Si Si1 0.695885 0.376135 0.000000
Si Si2 0.643001 0.833868 0.317877
Si Si3 0.943895 0.560453 0.800597
Si Si4 0.728996 0.652152 0.206087
Si Si5 0.799689 0.507915 0.000000
Si Si6 0.556684 0.701906 0.617884
Si Si7 0.225812 0.215036 0.121559
Si Si8 0.903451 0.101055 0.500000
O O1 0.740035 0.341875 0.895429
O O2 0.777780 0.436998 0.000000
O O3 0.550639 0.391075 0.000000
O O4 0.554124 0.892189 0.323695
O O5 0.574466 0.773301 0.357128
O O6 0.685928 0.821715 0.199608
O O7 0.834009 0.604202 0.758924
O O8 0.000000 0.500000 0.745147
O O9 0.877128 0.532119 0.902166
O O10 0.636126 0.665059 0.299783
O O11 0.782734 0.717040 0.168955
O O12 0.654060 0.629989 0.104526
O O13 0.660595 0.535161 0.000000
O O14 0.598591 0.691124 0.500000
O O15 0.411611 0.687731 0.625307
O O16 0.265165 0.217563 0.000000
#
# Coordination Sequence:
#
# PCOD9443136 Si02
#       8
#     4   8   8   8   4   8   8   4
#     4  12  20  34  50  85 118 141 184 226 278 333
#     4  11  21  32  54  86 110 142 183 229 278 332
#     4  11  20  35  57  82 115 146 184 231 282 341
#     4  10  20  35  53  84 111 148 184 228 285 328
#     4  10  21  32  55  82 110 151 180 217 285 339
#     4  10  20  35  55  79 109 147 186 227 273 329
#     4  10  20  36  56  76 112 152 187 223 273 337
#     4  10  21  33  52  76 119 146 177 224 276 330
#
# _framework density 17.016302
#
# number of rings (size 3 to 8) (size 9 to 14) (size 15 to 20)
#    0.000    1.538    4.615    1.846    0.000    0.000 
#    0.000    0.769    0.000    1.846    0.000    2.154 
#    0.000    0.000    0.000    0.000    0.000    0.000 
#
# Total GULP energy -289692.460604 kJ/mol
# GULP energy per Si atom -5571.008858 kJ/mol
# Density = 1.697757 g / cm^3
# Si number density = 17.016302 Si / 1000 Ang^3
#
#
#
# Elastic Constant Matrix: (Units=GPa)
#
#
# Indices 1 2 3 4 5 6 
#
# 1 80.4865 19.2373 26.8609 0.0000 0.0000 0.0000
# 2 19.2373 58.6845 7.5162 0.0000 0.0000 0.0000
# 3 26.8609 7.5162 91.7874 0.0000 0.0000 0.0000
# 4 0.0000 0.0000 0.0000 15.7019 0.0000 0.0000
# 5 0.0000 0.0000 0.0000 0.0000 42.0331 0.0000
# 6 0.0000 0.0000 0.0000 0.0000 0.0000 25.4901
#
#
#
# Elastic Compliance Matrix: (Units=1/GPa)
#
#
# Indices 1 2 3 4 5 6 
#
# 1 0.014787 -0.004339 -0.003972 0.000000 0.000000 0.000000
# 2 -0.004339 0.018494 -0.000245 0.000000 0.000000 0.000000
# 3 -0.003972 -0.000245 0.012077 0.000000 0.000000 0.000000
# 4 0.000000 0.000000 0.000000 0.063687 0.000000 0.000000
# 5 0.000000 0.000000 0.000000 0.000000 0.023791 0.000000
# 6 0.000000 0.000000 0.000000 0.000000 0.000000 0.039231
#
#
# Mechanical properties :
#
#
# Convention : Reuss Voigt Hill
#
# Bulk Modulus (GPa) = 35.40162 37.57635 36.48899
# Shear Modulus (GPa) = 25.17713 28.46796 26.82254
#
# Velocity S-wave (km/s) = 3.85072 4.09465 3.97455
# Velocity P-wave (km/s) = 6.37341 6.66973 6.52326
#
# Compressibility (1/GPa) = 0.02824729
#
# Stress axis : x y z
#
# Youngs Moduli (GPa) = 67.62688 54.07208 82.80085
#
# Poissons Ratio (x) = 0.23460 0.32889
# Poissons Ratio (y) = 0.29340 0.02026
# Poissons Ratio (z) = 0.26862 0.01323
#
# Static dielectric constant tensor:
#      x y z
#    x 1.582610 0.000000 0.000000 
#    y 0.000000 1.586870 0.000000 
#    z 0.000000 0.000000 1.564650 
# 
# From -- ./inp_files/20084.got.cif
#   From: 2010.05.17/outbox.cif.g08.bks.cpg/sg58_11_cif.got.tgz:20084.got - 2010.06.03 14:20:14.
