data_PCOD9443640
_publ_section_title
;
Structure prediction by ZEFSAII (Michael W. Deem and Ramdas Pophale) SiO2 
 PCOD9443640
Probable space group: P N N M
;
_chemical_formula_sum "Si O2"
_cell_formula_units_Z 56
_cell_length_a 21.735541
_cell_length_b 9.418725
_cell_length_c 13.415316
_cell_angle_alpha 90.000000
_cell_angle_beta 90.000000
_cell_angle_gamma 90.000000
_cell_volume 2746.398026
_symmetry_space_group_name_H-M "P N N M"
_symmetry_group_IT_number 58
_symmetry_cell_setting 'orthorhombic'
loop_
_space_group_symop_operation_xyz
x,y,z
-x,-y,z
1/2+x,1/2-y,1/2-z
1/2-x,1/2+y,1/2-z
-x,-y,-z
x,y,-z
1/2-x,1/2+y,1/2+z
1/2+x,1/2-y,1/2+z
loop_
_atom_site_type_symbol
_atom_site_label
_atom_site_fract_x
_atom_site_fract_y
_atom_site_fract_z
Si Si1 0.961087 0.858859 0.393455
Si Si2 0.688350 0.302803 0.380223
Si Si3 0.911947 0.582694 0.120049
Si Si4 0.551220 0.903362 0.114909
Si Si5 0.541951 0.771218 0.619950
Si Si6 0.670448 0.753277 0.879765
Si Si7 0.612081 0.522957 0.262525
O O1 0.928191 0.830974 0.500000
O O2 0.014033 0.742809 0.383136
O O3 0.919222 0.894986 0.299830
O O4 0.000000 0.000000 0.402720
O O5 0.684785 0.305381 0.500000
O O6 0.648731 0.165606 0.345171
O O7 0.759900 0.290708 0.353446
O O8 0.657224 0.444859 0.338706
O O9 0.921310 0.416979 0.147173
O O10 0.971629 0.681456 0.141361
O O11 0.909989 0.577304 0.000000
O O12 0.620731 0.875529 0.146142
O O13 0.500000 0.000000 0.166896
O O14 0.557449 0.954000 0.000000
O O15 0.547211 0.746764 0.500000
O O16 0.566462 0.632987 0.679337
O O17 0.648223 0.616871 0.818618
O O18 0.665758 0.729619 0.000000
#
# Coordination Sequence:
#
# PCOD9443640 Si02
#       7
#     8   8   8   8   8   8   8
#     4  10  20  37  59  89 122 149 187 246 305 356
#     4  10  23  41  61  83 121 163 202 247 298 356
#     4   8  17  37  59  83 116 161 196 235 300 363
#     4   9  18  37  64  87 111 150 196 242 299 359
#     4   9  19  36  60  88 122 153 196 251 301 347
#     4  10  22  42  61  81 119 164 194 237 303 361
#     4  12  23  36  61  93 118 152 204 250 295 352
#
# _framework density 20.390343999999999
#
# number of rings (size 3 to 8) (size 9 to 14) (size 15 to 20)
#    0.000    2.286    1.429    1.714    2.000    1.143 
#    7.714    2.143    0.000    1.714    0.000    0.000 
#    0.000    0.000    0.000    0.000    0.000    0.000 
#
# Total GULP energy -312171.592321 kJ/mol
# GULP energy per Si atom -5574.492720 kJ/mol
# Density = 2.034393 g / cm^3
# Si number density = 20.390344 Si / 1000 Ang^3
#
#
#
# Elastic Constant Matrix: (Units=GPa)
#
#
# Indices 1 2 3 4 5 6 
#
# 1 146.1959 45.9872 40.2821 0.0000 0.0000 0.0000
# 2 45.9872 63.3805 14.8611 0.0000 0.0000 0.0000
# 3 40.2821 14.8611 88.4308 0.0000 0.0000 0.0000
# 4 0.0000 0.0000 0.0000 19.8208 0.0000 0.0000
# 5 0.0000 0.0000 0.0000 0.0000 20.5843 0.0000
# 6 0.0000 0.0000 0.0000 0.0000 0.0000 27.1008
#
#
#
# Elastic Compliance Matrix: (Units=1/GPa)
#
#
# Indices 1 2 3 4 5 6 
#
# 1 0.009748 -0.006279 -0.003385 0.000000 0.000000 0.000000
# 2 -0.006279 0.020470 -0.000580 0.000000 0.000000 0.000000
# 3 -0.003385 -0.000580 0.012948 0.000000 0.000000 0.000000
# 4 0.000000 0.000000 0.000000 0.050452 0.000000 0.000000
# 5 0.000000 0.000000 0.000000 0.000000 0.048581 0.000000
# 6 0.000000 0.000000 0.000000 0.000000 0.000000 0.036899
#
#
# Mechanical properties :
#
#
# Convention : Reuss Voigt Hill
#
# Bulk Modulus (GPa) = 44.09701 55.58535 49.84118
# Shear Modulus (GPa) = 24.13771 26.62630 25.38201
#
# Velocity S-wave (km/s) = 3.44435 3.61755 3.53201
# Velocity P-wave (km/s) = 6.12302 6.69094 6.41327
#
# Compressibility (1/GPa) = 0.02267727
#
# Stress axis : x y z
#
# Youngs Moduli (GPa) = 102.58452 48.85276 77.23363
#
# Poissons Ratio (x) = 0.30676 0.26145
# Poissons Ratio (y) = 0.64415 0.04477
# Poissons Ratio (z) = 0.34727 0.02832
#
# Static dielectric constant tensor:
#      x y z
#    x 1.718620 0.000000 0.000000 
#    y 0.000000 1.707840 0.000000 
#    z 0.000000 0.000000 1.851760 
# 
# From -- ./inp_files/23254.got.cif
#   From: 2010.05.17/outbox.cif.g08.bks.cpg/sg58_12_cif.got.tgz:23254.got - 2010.06.03 14:20:14.
