data_PCOD9443603
_publ_section_title
;
Structure prediction by ZEFSAII (Michael W. Deem and Ramdas Pophale) SiO2 
 PCOD9443603
Probable space group: P N N M
;
_chemical_formula_sum "Si O2"
_cell_formula_units_Z 32
_cell_length_a 13.442198
_cell_length_b 8.313450
_cell_length_c 13.930681
_cell_angle_alpha 90.000000
_cell_angle_beta 90.000000
_cell_angle_gamma 90.000000
_cell_volume 1556.768103
_symmetry_space_group_name_H-M "P N N M"
_symmetry_group_IT_number 58
_symmetry_cell_setting 'orthorhombic'
loop_
_space_group_symop_operation_xyz
x,y,z
-x,-y,z
1/2+x,1/2-y,1/2-z
1/2-x,1/2+y,1/2-z
-x,-y,-z
x,y,-z
1/2-x,1/2+y,1/2+z
1/2+x,1/2-y,1/2+z
loop_
_atom_site_type_symbol
_atom_site_label
_atom_site_fract_x
_atom_site_fract_y
_atom_site_fract_z
Si Si1 0.160327 0.295646 0.839456
Si Si2 0.005068 0.196744 0.000000
Si Si3 0.691619 0.565429 0.000000
Si Si4 0.221190 0.769100 0.000000
Si Si5 0.290030 0.002005 0.166793
Si Si6 0.579914 0.857697 0.000000
O O1 0.150196 0.416060 0.751031
O O2 0.206756 0.128764 0.799900
O O3 0.241967 0.376950 0.909458
O O4 0.066680 0.253564 0.906372
O O5 0.895391 0.274217 0.000000
O O6 0.000000 0.000000 0.000000
O O7 0.698900 0.373968 0.000000
O O8 0.586914 0.662251 0.000000
O O9 0.238899 0.874192 0.095306
O O10 0.361329 0.099506 0.096624
O O11 0.500000 0.000000 0.000000
#
# Coordination Sequence:
#
# PCOD9443603 Si02
#       6
#     8   4   4   4   8   4
#     4  10  20  37  57  87 120 160 211 258 324 394
#     4  11  20  40  62  92 130 162 209 280 329 384
#     4   9  20  37  58  84 118 158 202 251 322 390
#     4  11  20  38  65  87 123 167 203 269 334 393
#     4  10  20  37  60  83 120 164 206 258 333 391
#     4   9  20  42  59  80 124 167 207 264 313 377
#
# _framework density 20.555406999999999
#
# number of rings (size 3 to 8) (size 9 to 14) (size 15 to 20)
#    0.000    2.000    2.500    3.000    0.000    2.000 
#   13.500    2.500    0.000    0.000    0.000    0.000 
#    0.000    0.000    0.000    0.000    0.000    0.000 
#
# Total GULP energy -178266.933968 kJ/mol
# GULP energy per Si atom -5570.841686 kJ/mol
# Density = 2.050862 g / cm^3
# Si number density = 20.555407 Si / 1000 Ang^3
#
#
#
# Elastic Constant Matrix: (Units=GPa)
#
#
# Indices 1 2 3 4 5 6 
#
# 1 22.5384 -6.8232 -3.0868 0.0000 0.0000 0.0000
# 2 -6.8232 87.5971 22.9992 0.0000 0.0000 0.0000
# 3 -3.0868 22.9992 107.3588 0.0000 0.0000 0.0000
# 4 0.0000 0.0000 0.0000 68.2612 0.0000 0.0000
# 5 0.0000 0.0000 0.0000 0.0000 11.0570 0.0000
# 6 0.0000 0.0000 0.0000 0.0000 0.0000 25.9002
#
#
#
# Elastic Compliance Matrix: (Units=1/GPa)
#
#
# Indices 1 2 3 4 5 6 
#
# 1 0.045474 0.003389 0.000581 0.000000 0.000000 0.000000
# 2 0.003389 0.012349 -0.002548 0.000000 0.000000 0.000000
# 3 0.000581 -0.002548 0.009877 0.000000 0.000000 0.000000
# 4 0.000000 0.000000 0.000000 0.014650 0.000000 0.000000
# 5 0.000000 0.000000 0.000000 0.000000 0.090440 0.000000
# 6 0.000000 0.000000 0.000000 0.000000 0.000000 0.038610
#
#
# Mechanical properties :
#
#
# Convention : Reuss Voigt Hill
#
# Bulk Modulus (GPa) = 14.17511 27.07476 20.62493
# Shear Modulus (GPa) = 21.54523 34.67068 28.10795
#
# Velocity S-wave (km/s) = 3.24103 4.11139 3.70188
# Velocity P-wave (km/s) = 4.57348 5.97815 5.32236
#
# Compressibility (1/GPa) = 0.07054618
#
# Stress axis : x y z
#
# Youngs Moduli (GPa) = 21.99036 80.97875 101.24391
#
# Poissons Ratio (x) = -0.27448 -0.05886
# Poissons Ratio (y) = -0.07454 0.25797
# Poissons Ratio (z) = -0.01278 0.20634
#
# Static dielectric constant tensor:
#      x y z
#    x 1.803040 0.000000 0.000000 
#    y 0.000000 1.830100 0.000000 
#    z 0.000000 0.000000 1.706460 
# 
# From -- ./inp_files/15145.got.cif
#   From: 2010.05.17/outbox.cif.g08.bks.cpg/sg58_8_cif.got.tgz:15145.got - 2010.06.03 14:20:14.
