data_PCOD9443004
_publ_section_title
;
Structure prediction by ZEFSAII (Michael W. Deem and Ramdas Pophale) SiO2 
 PCOD9443004
Probable space group: P N N M
;
_chemical_formula_sum "Si O2"
_cell_formula_units_Z 32
_cell_length_a 7.136713
_cell_length_b 12.978525
_cell_length_c 12.913079
_cell_angle_alpha 90.000000
_cell_angle_beta 90.000000
_cell_angle_gamma 90.000000
_cell_volume 1196.061134
_symmetry_space_group_name_H-M "P N N M"
_symmetry_group_IT_number 58
_symmetry_cell_setting 'orthorhombic'
loop_
_space_group_symop_operation_xyz
x,y,z
-x,-y,z
1/2+x,1/2-y,1/2-z
1/2-x,1/2+y,1/2-z
-x,-y,-z
x,y,-z
1/2-x,1/2+y,1/2+z
1/2+x,1/2-y,1/2+z
loop_
_atom_site_type_symbol
_atom_site_label
_atom_site_fract_x
_atom_site_fract_y
_atom_site_fract_z
Si Si1 0.813915 0.798511 0.887324
Si Si2 0.622439 0.239954 0.158612
Si Si3 0.217328 0.031631 0.388656
Si Si4 0.790354 0.521359 0.658861
O O1 0.589830 0.772732 0.881617
O O2 0.894496 0.749032 0.783331
O O3 0.829136 0.923260 0.876106
O O4 0.881659 0.765182 0.000000
O O5 0.715184 0.345052 0.121134
O O6 0.743691 0.139425 0.130375
O O7 0.293337 0.998043 0.500000
O O8 0.296412 0.984431 0.283894
O O9 0.000000 0.000000 0.386806
O O10 0.000000 0.500000 0.620397
#
# Coordination Sequence:
#
# PCOD9443004 Si02
#       4
#     8   8   8   8
#     4  10  21  38  59  82 112 149 186 230 281 329
#     4  10  20  36  58  84 113 147 188 230 275 332
#     4  10  20  34  55  81 109 144 183 226 278 329
#     4   9  20  35  53  79 109 141 184 229 270 328
#
# _framework density 26.754484000000001
#
# number of rings (size 3 to 8) (size 9 to 14) (size 15 to 20)
#    0.000    2.250    0.000    2.250    0.000    9.000 
#    0.000   11.250    0.000   25.500    0.000    0.000 
#    0.000    0.000    0.000    0.000    0.000    0.000 
#
# Total GULP energy -179284.987752 kJ/mol
# GULP energy per Si atom -5602.655867 kJ/mol
# Density = 2.669359 g / cm^3
# Si number density = 26.754484 Si / 1000 Ang^3
#
#
#
# Elastic Constant Matrix: (Units=GPa)
#
#
# Indices 1 2 3 4 5 6 
#
# 1 81.9619 5.4287 8.6983 0.0000 0.0000 0.0000
# 2 5.4287 170.5583 1.6282 0.0000 0.0000 0.0000
# 3 8.6983 1.6282 212.8705 0.0000 0.0000 0.0000
# 4 0.0000 0.0000 0.0000 51.2715 0.0000 0.0000
# 5 0.0000 0.0000 0.0000 0.0000 40.9133 0.0000
# 6 0.0000 0.0000 0.0000 0.0000 0.0000 30.3017
#
#
#
# Elastic Compliance Matrix: (Units=1/GPa)
#
#
# Indices 1 2 3 4 5 6 
#
# 1 0.012279 -0.000386 -0.000499 0.000000 0.000000 0.000000
# 2 -0.000386 0.005876 -0.000029 0.000000 0.000000 0.000000
# 3 -0.000499 -0.000029 0.004718 0.000000 0.000000 0.000000
# 4 0.000000 0.000000 0.000000 0.019504 0.000000 0.000000
# 5 0.000000 0.000000 0.000000 0.000000 0.024442 0.000000
# 6 0.000000 0.000000 0.000000 0.000000 0.000000 0.033001
#
#
# Mechanical properties :
#
#
# Convention : Reuss Voigt Hill
#
# Bulk Modulus (GPa) = 47.51684 55.21124 51.36404
# Shear Modulus (GPa) = 46.01350 54.47301 50.24325
#
# Velocity S-wave (km/s) = 4.15160 4.51714 4.33822
# Velocity P-wave (km/s) = 6.38591 6.92005 6.65834
#
# Compressibility (1/GPa) = 0.02104517
#
# Stress axis : x y z
#
# Youngs Moduli (GPa) = 81.43788 170.19346 211.94089
#
# Poissons Ratio (x) = 0.06571 0.10572
# Poissons Ratio (y) = 0.03144 0.00618
# Poissons Ratio (z) = 0.04062 0.00496
#
# Static dielectric constant tensor:
#      x y z
#    x 2.088880 0.000000 0.000000 
#    y 0.000000 2.058740 0.000000 
#    z 0.000000 0.000000 2.044410 
# 
# From -- ./inp_files/12349.got.cif
#   From: 2010.05.17/outbox.cif.g08.bks.cpg/sg58_7_cif.got.tgz:12349.got - 2010.06.03 14:20:14.
