data_PCOD9443423
_publ_section_title
;
Structure prediction by ZEFSAII (Michael W. Deem and Ramdas Pophale) SiO2 
 PCOD9443423
Probable space group: P N N M
;
_chemical_formula_sum "Si O2"
_cell_formula_units_Z 32
_cell_length_a 13.117228
_cell_length_b 4.823736
_cell_length_c 24.469442
_cell_angle_alpha 90.000000
_cell_angle_beta 90.000000
_cell_angle_gamma 90.000000
_cell_volume 1548.280572
_symmetry_space_group_name_H-M "P N N M"
_symmetry_group_IT_number 58
_symmetry_cell_setting 'orthorhombic'
loop_
_space_group_symop_operation_xyz
x,y,z
-x,-y,z
1/2+x,1/2-y,1/2-z
1/2-x,1/2+y,1/2-z
-x,-y,-z
x,y,-z
1/2-x,1/2+y,1/2+z
1/2+x,1/2-y,1/2+z
loop_
_atom_site_type_symbol
_atom_site_label
_atom_site_fract_x
_atom_site_fract_y
_atom_site_fract_z
Si Si1 0.789027 0.304839 0.108064
Si Si2 0.599691 0.330502 0.562541
Si Si3 0.232801 0.462005 0.715523
Si Si4 0.431641 0.759736 0.861352
O O1 0.859609 0.568298 0.096333
O O2 0.804461 0.160290 0.167566
O O3 0.667544 0.357104 0.106671
O O4 0.814168 0.064668 0.065386
O O5 0.500000 0.500000 0.582394
O O6 0.580851 0.243089 0.500000
O O7 0.250067 0.779134 0.730479
O O8 0.121366 0.406480 0.690854
O O9 0.500000 0.500000 0.846370
O O10 0.500000 0.000000 0.888631
#
# Coordination Sequence:
#
# PCOD9443423 Si02
#       4
#     8   8   8   8
#     4  10  22  37  63  85 122 159 198 254 296 371
#     4  11  22  40  63  90 120 160 205 250 318 375
#     4  10  20  36  58  83 122 153 199 251 295 357
#     4  10  20  36  61  84 112 162 198 230 300 370
#
# _framework density 20.668089999999999
#
# number of rings (size 3 to 8) (size 9 to 14) (size 15 to 20)
#    1.500    0.250    0.000    6.000    0.000    2.000 
#    0.000   12.500    0.000   15.000    0.000    0.000 
#    0.000    0.000    0.000    0.000    0.000    0.000 
#
# Total GULP energy -178224.487852 kJ/mol
# GULP energy per Si atom -5569.515245 kJ/mol
# Density = 2.062105 g / cm^3
# Si number density = 20.668090 Si / 1000 Ang^3
#
#
#
# Elastic Constant Matrix: (Units=GPa)
#
#
# Indices 1 2 3 4 5 6 
#
# 1 76.5876 7.8442 14.9505 0.0000 0.0000 0.0000
# 2 7.8442 73.7242 9.2355 0.0000 0.0000 0.0000
# 3 14.9505 9.2355 49.5332 0.0000 0.0000 0.0000
# 4 0.0000 0.0000 0.0000 -124.6826 0.0000 0.0000
# 5 0.0000 0.0000 0.0000 0.0000 18.3745 0.0000
# 6 0.0000 0.0000 0.0000 0.0000 0.0000 33.7887
#
#
#
# Elastic Compliance Matrix: (Units=1/GPa)
#
#
# Indices 1 2 3 4 5 6 
#
# 1 0.013943 -0.000979 -0.004026 0.000000 0.000000 0.000000
# 2 -0.000979 0.013957 -0.002307 0.000000 0.000000 0.000000
# 3 -0.004026 -0.002307 0.021834 0.000000 0.000000 0.000000
# 4 0.000000 0.000000 0.000000 -0.008020 0.000000 0.000000
# 5 0.000000 0.000000 0.000000 0.000000 0.054423 0.000000
# 6 0.000000 0.000000 0.000000 0.000000 0.000000 0.029596
#
#
# Mechanical properties :
#
#
# Convention : Reuss Voigt Hill
#
# Bulk Modulus (GPa) = 28.48163 29.32282 28.90222
# Shear Modulus (GPa) = 32.88180 -3.31623 14.78279
#
# Velocity S-wave (km/s) = 3.99299 -1.26807 2.67731
# Velocity P-wave (km/s) = 5.92191 3.47481 4.85507
#
# Compressibility (1/GPa) = 0.03511036
#
# Stress axis : x y z
#
# Youngs Moduli (GPa) = 71.72006 71.64752 45.80080
#
# Poissons Ratio (x) = 0.07016 0.18439
# Poissons Ratio (y) = 0.07023 0.10565
# Poissons Ratio (z) = 0.28873 0.16527
#
# Static dielectric constant tensor:
#      x y z
#    x 1.782920 0.000000 0.000000 
#    y 0.000000 1.723150 0.000000 
#    z 0.000000 0.000000 1.783250 
# 
# From -- ./inp_files/29293.got.cif
#   From: 2010.05.17/outbox.cif.g08.bks.cpg/sg58_15_cif.got.tgz:29293.got - 2010.06.03 14:20:14.
