data_PCOD9443516
_publ_section_title
;
Structure prediction by ZEFSAII (Michael W. Deem and Ramdas Pophale) SiO2 
 PCOD9443516
Probable space group: P N N M
;
_chemical_formula_sum "Si O2"
_cell_formula_units_Z 48
_cell_length_a 14.452274
_cell_length_b 13.180119
_cell_length_c 13.915920
_cell_angle_alpha 90.000000
_cell_angle_beta 90.000000
_cell_angle_gamma 90.000000
_cell_volume 2650.741891
_symmetry_space_group_name_H-M "P N N M"
_symmetry_group_IT_number 58
_symmetry_cell_setting 'orthorhombic'
loop_
_space_group_symop_operation_xyz
x,y,z
-x,-y,z
1/2+x,1/2-y,1/2-z
1/2-x,1/2+y,1/2-z
-x,-y,-z
x,y,-z
1/2-x,1/2+y,1/2+z
1/2+x,1/2-y,1/2+z
loop_
_atom_site_type_symbol
_atom_site_label
_atom_site_fract_x
_atom_site_fract_y
_atom_site_fract_z
Si Si1 0.188310 0.625520 0.722049
Si Si2 0.250604 0.482560 0.112273
Si Si3 0.600560 0.053735 0.891579
Si Si4 0.015083 0.277848 0.261523
Si Si5 0.163768 0.267767 0.887407
Si Si6 0.054495 0.896078 0.606960
O O1 0.228074 0.575950 0.819192
O O2 0.169662 0.530382 0.650673
O O3 0.257254 0.705889 0.671579
O O4 0.086875 0.672078 0.744864
O O5 0.178537 0.389751 0.117725
O O6 0.345207 0.427860 0.143642
O O7 0.260766 0.512393 0.000000
O O8 0.583727 0.146753 0.819511
O O9 0.500000 0.000000 0.896263
O O10 0.625596 0.085082 0.000000
O O11 0.065099 0.249566 0.162660
O O12 0.999206 0.179599 0.325817
O O13 0.168787 0.239895 0.000000
O O14 0.066286 0.849841 0.500000
O O15 0.000000 0.000000 0.598807
#
# Coordination Sequence:
#
# PCOD9443516 Si02
#       6
#     8   8   8   8   8   8
#     4  11  21  38  62  85 121 163 201 252 303 360
#     4  10  21  38  60  88 120 157 202 250 302 360
#     4   9  18  31  52  84 114 143 189 245 299 350
#     4  11  21  36  60  90 117 155 203 252 303 358
#     4  11  23  39  61  89 123 163 202 244 307 372
#     4  10  20  36  60  88 118 155 199 252 306 359
#
# _framework density 18.108138
#
# number of rings (size 3 to 8) (size 9 to 14) (size 15 to 20)
#    0.000    1.667    3.333    2.000    0.000    2.000 
#    0.000    2.500    0.000    5.500    0.000    0.000 
#    0.000    0.000    0.000    0.000    0.000    0.000 
#
# Total GULP energy -267682.872425 kJ/mol
# GULP energy per Si atom -5576.726509 kJ/mol
# Density = 1.806692 g / cm^3
# Si number density = 18.108138 Si / 1000 Ang^3
#
#
#
# Elastic Constant Matrix: (Units=GPa)
#
#
# Indices 1 2 3 4 5 6 
#
# 1 66.0055 20.5148 40.2122 0.0000 0.0000 0.0000
# 2 20.5148 72.8724 47.7601 0.0000 0.0000 0.0000
# 3 40.2122 47.7601 102.9168 0.0000 0.0000 0.0000
# 4 0.0000 0.0000 0.0000 35.7019 0.0000 0.0000
# 5 0.0000 0.0000 0.0000 0.0000 27.8300 0.0000
# 6 0.0000 0.0000 0.0000 0.0000 0.0000 24.1630
#
#
#
# Elastic Compliance Matrix: (Units=1/GPa)
#
#
# Indices 1 2 3 4 5 6 
#
# 1 0.019910 -0.000728 -0.007442 0.000000 0.000000 0.000000
# 2 -0.000728 0.019747 -0.008880 0.000000 0.000000 0.000000
# 3 -0.007442 -0.008880 0.016745 0.000000 0.000000 0.000000
# 4 0.000000 0.000000 0.000000 0.028010 0.000000 0.000000
# 5 0.000000 0.000000 0.000000 0.000000 0.035932 0.000000
# 6 0.000000 0.000000 0.000000 0.000000 0.000000 0.041386
#
#
# Mechanical properties :
#
#
# Convention : Reuss Voigt Hill
#
# Bulk Modulus (GPa) = 44.83481 50.97430 47.90455
# Shear Modulus (GPa) = 24.59872 26.42615 25.51243
#
# Velocity S-wave (km/s) = 3.68969 3.82429 3.75759
# Velocity P-wave (km/s) = 6.55477 6.90734 6.73336
#
# Compressibility (1/GPa) = 0.02230410
#
# Stress axis : x y z
#
# Youngs Moduli (GPa) = 50.22582 50.64026 59.71965
#
# Poissons Ratio (x) = 0.03686 0.44441
# Poissons Ratio (y) = 0.03656 0.53028
# Poissons Ratio (z) = 0.37376 0.44966
#
# Static dielectric constant tensor:
#      x y z
#    x 1.684850 0.000000 0.000000 
#    y 0.000000 1.625750 0.000000 
#    z 0.000000 0.000000 1.636290 
# 
# From -- ./inp_files/15594.got.cif
#   From: 2010.05.17/outbox.cif.g08.bks.cpg/sg58_8_cif.got.tgz:15594.got - 2010.06.03 14:20:14.
