data_PCOD9443509
_publ_section_title
;
Structure prediction by ZEFSAII (Michael W. Deem and Ramdas Pophale) SiO2 
 PCOD9443509
Probable space group: P N N M
;
_chemical_formula_sum "Si O2"
_cell_formula_units_Z 60
_cell_length_a 13.199973
_cell_length_b 11.000662
_cell_length_c 20.279151
_cell_angle_alpha 90.000000
_cell_angle_beta 90.000000
_cell_angle_gamma 90.000000
_cell_volume 2944.703909
_symmetry_space_group_name_H-M "P N N M"
_symmetry_group_IT_number 58
_symmetry_cell_setting 'orthorhombic'
loop_
_space_group_symop_operation_xyz
x,y,z
-x,-y,z
1/2+x,1/2-y,1/2-z
1/2-x,1/2+y,1/2-z
-x,-y,-z
x,y,-z
1/2-x,1/2+y,1/2+z
1/2+x,1/2-y,1/2+z
loop_
_atom_site_type_symbol
_atom_site_label
_atom_site_fract_x
_atom_site_fract_y
_atom_site_fract_z
Si Si1 0.841917 0.674991 0.878606
Si Si2 0.252083 0.873050 0.075735
Si Si3 0.050823 0.756554 0.115052
Si Si4 0.291665 0.571574 0.688329
Si Si5 0.870956 0.091028 0.422987
Si Si6 0.895904 0.453021 0.782878
Si Si7 0.582660 0.319892 0.080474
Si Si8 0.000000 0.000000 0.192640
O O1 0.816700 0.792992 0.835002
O O2 0.739268 0.647303 0.916753
O O3 0.863321 0.559252 0.832899
O O4 0.947820 0.702263 0.916284
O O5 0.152611 0.785951 0.075515
O O6 0.346404 0.791797 0.101802
O O7 0.228426 0.984079 0.125122
O O8 0.270300 0.913245 0.000000
O O9 0.080475 0.665690 0.173947
O O10 0.017258 0.884021 0.146411
O O11 0.193316 0.569883 0.732657
O O12 0.391914 0.521839 0.726580
O O13 0.894471 0.078885 0.500000
O O14 0.964960 0.172619 0.396967
O O15 0.874026 0.951741 0.398131
O O16 0.000000 0.500000 0.750365
O O17 0.587406 0.312021 0.000000
#
# Coordination Sequence:
#
# PCOD9443509 Si02
#       8
#     8   8   8   8   8   8   8   4
#     4  10  21  36  54  84 112 145 194 240 290 352
#     4  10  20  36  60  87 117 155 198 243 298 358
#     4   9  19  37  58  82 117 150 184 241 294 345
#     4  10  22  37  58  81 115 151 195 238 293 354
#     4   9  17  32  54  79 112 148 186 237 290 342
#     4  10  22  39  59  81 116 156 192 247 303 349
#     4   8  16  32  53  78 111 147 187 237 285 340
#     4   8  18  38  57  82 114 146 185 244 282 328
#
# _framework density 20.375563
#
# number of rings (size 3 to 8) (size 9 to 14) (size 15 to 20)
#    0.000    2.667    0.000    1.600    3.733    2.133 
#    0.000   14.000    0.000    7.600    0.000    0.000 
#    0.000    0.000    0.000    0.000    0.000    0.000 
#
# Total GULP energy -334271.433380 kJ/mol
# GULP energy per Si atom -5571.190556 kJ/mol
# Density = 2.032919 g / cm^3
# Si number density = 20.375563 Si / 1000 Ang^3
#
#
#
# Elastic Constant Matrix: (Units=GPa)
#
#
# Indices 1 2 3 4 5 6 
#
# 1 131.7416 33.0343 24.6015 0.0000 0.0000 0.0000
# 2 33.0343 98.4371 22.3893 0.0000 0.0000 0.0000
# 3 24.6015 22.3893 32.2415 0.0000 0.0000 0.0000
# 4 0.0000 0.0000 0.0000 35.5150 0.0000 0.0000
# 5 0.0000 0.0000 0.0000 0.0000 35.1093 0.0000
# 6 0.0000 0.0000 0.0000 0.0000 0.0000 33.1296
#
#
#
# Elastic Compliance Matrix: (Units=1/GPa)
#
#
# Indices 1 2 3 4 5 6 
#
# 1 0.009099 -0.001751 -0.005727 0.000000 0.000000 0.000000
# 2 -0.001751 0.012401 -0.007276 0.000000 0.000000 0.000000
# 3 -0.005727 -0.007276 0.040438 0.000000 0.000000 0.000000
# 4 0.000000 0.000000 0.000000 0.028157 0.000000 0.000000
# 5 0.000000 0.000000 0.000000 0.000000 0.028482 0.000000
# 6 0.000000 0.000000 0.000000 0.000000 0.000000 0.030184
#
#
# Mechanical properties :
#
#
# Convention : Reuss Voigt Hill
#
# Bulk Modulus (GPa) = 30.83446 46.94113 38.88780
# Shear Modulus (GPa) = 26.44376 32.91046 29.67711
#
# Velocity S-wave (km/s) = 3.60643 4.02331 3.82056
# Velocity P-wave (km/s) = 5.70155 6.68361 6.21202
#
# Compressibility (1/GPa) = 0.03243125
#
# Stress axis : x y z
#
# Youngs Moduli (GPa) = 109.90038 80.63744 24.72905
#
# Poissons Ratio (x) = 0.14119 0.14163
# Poissons Ratio (y) = 0.19243 0.17992
# Poissons Ratio (z) = 0.62941 0.58669
#
# Static dielectric constant tensor:
#      x y z
#    x 1.794530 0.000000 0.000000 
#    y 0.000000 1.709680 0.000000 
#    z 0.000000 0.000000 1.713420 
# 
# From -- ./inp_files/29662.got.cif
#   From: 2010.05.17/outbox.cif.g08.bks.cpg/sg58_15_cif.got.tgz:29662.got - 2010.06.03 14:20:14.
