data_PCOD9443369
_publ_section_title
;
Structure prediction by ZEFSAII (Michael W. Deem and Ramdas Pophale) SiO2 
 PCOD9443369
Probable space group: P N N M
;
_chemical_formula_sum "Si O2"
_cell_formula_units_Z 56
_cell_length_a 16.649312
_cell_length_b 20.271115
_cell_length_c 7.566736
_cell_angle_alpha 90.000000
_cell_angle_beta 90.000000
_cell_angle_gamma 90.000000
_cell_volume 2553.774295
_symmetry_space_group_name_H-M "P N N M"
_symmetry_group_IT_number 58
_symmetry_cell_setting 'orthorhombic'
loop_
_space_group_symop_operation_xyz
x,y,z
-x,-y,z
1/2+x,1/2-y,1/2-z
1/2-x,1/2+y,1/2-z
-x,-y,-z
x,y,-z
1/2-x,1/2+y,1/2+z
1/2+x,1/2-y,1/2+z
loop_
_atom_site_type_symbol
_atom_site_label
_atom_site_fract_x
_atom_site_fract_y
_atom_site_fract_z
Si Si1 0.379577 0.601496 0.285481
Si Si2 0.128465 0.958265 0.206592
Si Si3 0.025054 0.828712 0.795114
Si Si4 0.783869 0.621124 0.204439
Si Si5 0.588158 0.017815 0.707210
Si Si6 0.182038 0.755946 0.703051
Si Si7 0.692491 0.890082 0.786801
O O1 0.388767 0.604485 0.500000
O O2 0.401775 0.528008 0.224858
O O3 0.436002 0.660749 0.220801
O O4 0.286345 0.604981 0.244379
O O5 0.061299 0.902548 0.211478
O O6 0.208770 0.929668 0.293096
O O7 0.150364 0.967766 0.000000
O O8 0.093121 0.786484 0.703091
O O9 0.022778 0.806845 0.000000
O O10 0.859600 0.579992 0.281034
O O11 0.744131 0.689054 0.280656
O O12 0.803206 0.635601 0.000000
O O13 0.575994 0.033398 0.500000
O O14 0.642070 0.951824 0.718266
O O15 0.500000 0.000000 0.782596
O O16 0.208634 0.746377 0.500000
O O17 0.172185 0.683173 0.780713
O O18 0.682851 0.892697 0.000000
#
# Coordination Sequence:
#
# PCOD9443369 Si02
#       7
#     8   8   8   8   8   8   8
#     4   9  16  28  48  76 102 127 164 207 255 306
#     4   9  15  26  48  74 101 127 158 202 246 296
#     4   9  17  29  48  75 102 131 167 207 253 305
#     4   9  17  32  52  73 101 136 171 210 260 313
#     4  10  21  37  56  81 107 135 177 227 271 313
#     4   9  19  35  52  72 103 140 175 213 262 318
#     4  10  20  36  56  76 103 140 178 217 263 314
#
# _framework density 21.928328
#
# number of rings (size 3 to 8) (size 9 to 14) (size 15 to 20)
#    0.000    2.714    1.429    0.429    0.000    2.571 
#    2.571    1.429    0.000    3.429    0.000    0.000 
#    0.000    0.000    0.000    0.000    0.000    0.000 
#
# Total GULP energy -311916.836526 kJ/mol
# GULP energy per Si atom -5569.943509 kJ/mol
# Density = 2.187842 g / cm^3
# Si number density = 21.928328 Si / 1000 Ang^3
#
#
#
# Elastic Constant Matrix: (Units=GPa)
#
#
# Indices 1 2 3 4 5 6 
#
# 1 79.6603 -1.8804 -0.4873 0.0000 0.0000 0.0000
# 2 -1.8804 64.2417 -4.8101 0.0000 0.0000 0.0000
# 3 -0.4873 -4.8101 46.0029 0.0000 0.0000 0.0000
# 4 0.0000 0.0000 0.0000 11.7860 0.0000 0.0000
# 5 0.0000 0.0000 0.0000 0.0000 1.7724 0.0000
# 6 0.0000 0.0000 0.0000 0.0000 0.0000 -2.6015
#
#
#
# Elastic Compliance Matrix: (Units=1/GPa)
#
#
# Indices 1 2 3 4 5 6 
#
# 1 0.012563 0.000381 0.000173 0.000000 0.000000 0.000000
# 2 0.000381 0.015701 0.001646 0.000000 0.000000 0.000000
# 3 0.000173 0.001646 0.021912 0.000000 0.000000 0.000000
# 4 0.000000 0.000000 0.000000 0.084847 0.000000 0.000000
# 5 0.000000 0.000000 0.000000 0.000000 0.564193 0.000000
# 6 0.000000 0.000000 0.000000 0.000000 0.000000 -0.384387
#
#
# Mechanical properties :
#
#
# Convention : Reuss Voigt Hill
#
# Bulk Modulus (GPa) = 18.32369 19.50548 18.91458
# Shear Modulus (GPa) = 15.21507 15.33021 15.27264
#
# Velocity S-wave (km/s) = 2.63697 2.64693 2.64195
# Velocity P-wave (km/s) = 4.20069 4.27271 4.23685
#
# Compressibility (1/GPa) = 0.05457415
#
# Stress axis : x y z
#
# Youngs Moduli (GPa) = 79.59659 63.69192 45.63774
#
# Poissons Ratio (x) = -0.02425 -0.00789
# Poissons Ratio (y) = -0.03030 -0.07511
# Poissons Ratio (z) = -0.01376 -0.10482
#
# Static dielectric constant tensor:
#      x y z
#    x 1.830340 0.000000 0.000000 
#    y 0.000000 1.824310 0.000000 
#    z 0.000000 0.000000 1.873110 
# 
# From -- ./inp_files/6469.got.cif
#   From: 2010.05.17/outbox.cif.g08.bks.cpg/sg58_4_cif.got.tgz:6469.got - 2010.06.03 14:20:14.
