data_PCOD9443082
_publ_section_title
;
Structure prediction by ZEFSAII (Michael W. Deem and Ramdas Pophale) SiO2 
 PCOD9443082
Probable space group: P N N M
;
_chemical_formula_sum "Si O2"
_cell_formula_units_Z 40
_cell_length_a 22.894688
_cell_length_b 7.862968
_cell_length_c 10.165277
_cell_angle_alpha 90.000000
_cell_angle_beta 90.000000
_cell_angle_gamma 90.000000
_cell_volume 1829.955190
_symmetry_space_group_name_H-M "P N N M"
_symmetry_group_IT_number 58
_symmetry_cell_setting 'orthorhombic'
loop_
_space_group_symop_operation_xyz
x,y,z
-x,-y,z
1/2+x,1/2-y,1/2-z
1/2-x,1/2+y,1/2-z
-x,-y,-z
x,y,-z
1/2-x,1/2+y,1/2+z
1/2+x,1/2-y,1/2+z
loop_
_atom_site_type_symbol
_atom_site_label
_atom_site_fract_x
_atom_site_fract_y
_atom_site_fract_z
Si Si1 0.558571 0.582661 0.343747
Si Si2 0.434513 0.039509 0.239026
Si Si3 0.742598 0.181076 0.850548
Si Si4 0.183509 0.671729 0.361239
Si Si5 0.362773 0.726400 0.655810
O O1 0.500000 0.500000 0.285264
O O2 0.556771 0.564564 0.500000
O O3 0.560852 0.781669 0.315215
O O4 0.609557 0.453724 0.303868
O O5 0.380201 0.084883 0.144154
O O6 0.500000 0.000000 0.187825
O O7 0.410562 0.877615 0.321322
O O8 0.757243 0.750838 0.500000
O O9 0.800778 0.227562 0.770633
O O10 0.690096 0.238266 0.754986
O O11 0.730221 0.981320 0.862149
O O12 0.188840 0.768564 0.500000
O O13 0.347135 0.726907 0.500000
#
# Coordination Sequence:
#
# PCOD9443082 Si02
#       5
#     8   8   8   8   8
#     4  10  20  34  57  90 127 165 212 262 314 377
#     4  11  22  38  62  93 132 171 215 263 326 385
#     4  10  23  43  65  91 124 162 211 267 325 390
#     4  10  24  44  66  94 128 169 213 268 331 390
#     4  10  21  38  62  91 126 166 209 267 323 378
#
# _framework density 21.858457999999999
#
# number of rings (size 3 to 8) (size 9 to 14) (size 15 to 20)
#    0.000    1.800    2.000    1.200    2.800    6.000 
#    0.000    0.000    0.000    1.200    0.000    0.000 
#    0.000    0.000    0.000    0.000    0.000    0.000 
#
# Total GULP energy -222988.181264 kJ/mol
# GULP energy per Si atom -5574.704532 kJ/mol
# Density = 2.180871 g / cm^3
# Si number density = 21.858458 Si / 1000 Ang^3
#
#
#
# Elastic Constant Matrix: (Units=GPa)
#
#
# Indices 1 2 3 4 5 6 
#
# 1 115.2077 60.0152 66.4129 0.0000 0.0000 0.0000
# 2 60.0152 102.1104 12.9980 0.0000 0.0000 0.0000
# 3 66.4129 12.9980 116.6387 0.0000 0.0000 0.0000
# 4 0.0000 0.0000 0.0000 11.5011 0.0000 0.0000
# 5 0.0000 0.0000 0.0000 0.0000 -5.6681 0.0000
# 6 0.0000 0.0000 0.0000 0.0000 0.0000 44.3267
#
#
#
# Elastic Compliance Matrix: (Units=1/GPa)
#
#
# Indices 1 2 3 4 5 6 
#
# 1 0.020043 -0.010476 -0.010245 0.000000 0.000000 0.000000
# 2 -0.010476 0.015410 0.004248 0.000000 0.000000 0.000000
# 3 -0.010245 0.004248 0.013933 0.000000 0.000000 0.000000
# 4 0.000000 0.000000 0.000000 0.086948 0.000000 0.000000
# 5 0.000000 0.000000 0.000000 0.000000 -0.176426 0.000000
# 6 0.000000 0.000000 0.000000 0.000000 0.000000 0.022560
#
#
# Mechanical properties :
#
#
# Convention : Reuss Voigt Hill
#
# Bulk Modulus (GPa) = 60.82755 68.08990 64.45873
# Shear Modulus (GPa) = 239.29475 23.00065 131.14770
#
# Velocity S-wave (km/s) = 10.47437 3.24737 7.75428
# Velocity P-wave (km/s) = 13.19740 6.72893 10.47497
#
# Compressibility (1/GPa) = 0.01643992
#
# Stress axis : x y z
#
# Youngs Moduli (GPa) = 49.89226 64.89298 71.76956
#
# Poissons Ratio (x) = 0.67983 0.73527
# Poissons Ratio (y) = 0.52268 -0.30486
# Poissons Ratio (z) = 0.51114 -0.27565
#
# Static dielectric constant tensor:
#      x y z
#    x 1.889280 0.000000 0.000000 
#    y 0.000000 1.793220 0.000000 
#    z 0.000000 0.000000 1.801250 
# 
# From -- ./inp_files/17630.got.cif
#   From: 2010.05.17/outbox.cif.g08.bks.cpg/sg58_9_cif.got.tgz:17630.got - 2010.06.03 14:20:14.
