data_PCOD9443071
_publ_section_title
;
Structure prediction by ZEFSAII (Michael W. Deem and Ramdas Pophale) SiO2 
 PCOD9443071
Probable space group: P N N M
;
_chemical_formula_sum "Si O2"
_cell_formula_units_Z 64
_cell_length_a 21.137760
_cell_length_b 17.846402
_cell_length_c 8.617108
_cell_angle_alpha 90.000000
_cell_angle_beta 90.000000
_cell_angle_gamma 90.000000
_cell_volume 3250.657178
_symmetry_space_group_name_H-M "P N N M"
_symmetry_group_IT_number 58
_symmetry_cell_setting 'orthorhombic'
loop_
_space_group_symop_operation_xyz
x,y,z
-x,-y,z
1/2+x,1/2-y,1/2-z
1/2-x,1/2+y,1/2-z
-x,-y,-z
x,y,-z
1/2-x,1/2+y,1/2+z
1/2+x,1/2-y,1/2+z
loop_
_atom_site_type_symbol
_atom_site_label
_atom_site_fract_x
_atom_site_fract_y
_atom_site_fract_z
Si Si1 0.496976 0.621752 0.817000
Si Si2 0.630252 0.198826 0.815596
Si Si3 0.634479 0.367618 0.685409
Si Si4 0.729967 0.925193 0.815258
Si Si5 0.771814 0.581686 0.815410
Si Si6 0.498397 0.788551 0.316115
Si Si7 0.634489 0.631869 0.812258
Si Si8 0.360817 0.199330 0.683755
O O1 0.431941 0.596423 0.738342
O O2 0.499010 0.710964 0.780227
O O3 0.566898 0.596830 0.762524
O O4 0.491400 0.608017 0.000000
O O5 0.639093 0.283547 0.754027
O O6 0.687703 0.146506 0.764575
O O7 0.564648 0.170220 0.739120
O O8 0.624267 0.200398 0.000000
O O9 0.634414 0.361596 0.500000
O O10 0.697606 0.410445 0.735361
O O11 0.688177 0.853752 0.769797
O O12 0.705093 0.999949 0.734111
O O13 0.729091 0.935287 0.000000
O O14 0.697992 0.588482 0.768992
O O15 0.776101 0.591347 0.000000
O O16 0.493587 0.770723 0.500000
O O17 0.566306 0.826250 0.290919
O O18 0.641660 0.715303 0.743413
O O19 0.631774 0.637743 0.000000
O O20 0.348030 0.198204 0.500000
#
# Coordination Sequence:
#
# PCOD9443071 Si02
#       8
#     8   8   8   8   8   8   8   8
#     4   9  16  29  52  81 108 134 171 217 263 311
#     4  11  21  34  56  84 110 138 176 218 261 313
#     4  10  20  35  55  80 109 141 177 217 264 313
#     4  11  24  39  54  75 107 144 181 222 265 313
#     4  11  23  39  56  75 106 144 180 221 267 315
#     4   9  17  31  52  80 110 137 170 213 262 312
#     4   9  19  35  56  82 109 139 175 218 267 315
#     4  10  20  34  57  85 109 138 176 218 263 315
#
# _framework density 19.688326
#
# number of rings (size 3 to 8) (size 9 to 14) (size 15 to 20)
#    0.000    2.000    0.000    5.625    0.000    8.000 
#    0.000    1.250    0.000    7.500    0.000    0.000 
#    0.000    0.000    0.000    0.000    0.000    0.000 
#
# Total GULP energy -357255.060932 kJ/mol
# GULP energy per Si atom -5582.110327 kJ/mol
# Density = 1.964351 g / cm^3
# Si number density = 19.688326 Si / 1000 Ang^3
#
#
#
# Elastic Constant Matrix: (Units=GPa)
#
#
# Indices 1 2 3 4 5 6 
#
# 1 95.1470 18.6717 15.5395 0.0000 0.0000 0.0000
# 2 18.6717 52.9659 7.3291 0.0000 0.0000 0.0000
# 3 15.5395 7.3291 38.0570 0.0000 0.0000 0.0000
# 4 0.0000 0.0000 0.0000 -3.9580 0.0000 0.0000
# 5 0.0000 0.0000 0.0000 0.0000 30.2572 0.0000
# 6 0.0000 0.0000 0.0000 0.0000 0.0000 -17.3722
#
#
#
# Elastic Compliance Matrix: (Units=1/GPa)
#
#
# Indices 1 2 3 4 5 6 
#
# 1 0.011900 -0.003619 -0.004162 0.000000 0.000000 0.000000
# 2 -0.003619 0.020498 -0.002470 0.000000 0.000000 0.000000
# 3 -0.004162 -0.002470 0.028451 0.000000 0.000000 0.000000
# 4 0.000000 0.000000 0.000000 -0.252651 0.000000 0.000000
# 5 0.000000 0.000000 0.000000 0.000000 0.033050 0.000000
# 6 0.000000 0.000000 0.000000 0.000000 0.000000 -0.057563
#
#
# Mechanical properties :
#
#
# Convention : Reuss Voigt Hill
#
# Bulk Modulus (GPa) = 24.78478 29.91672 27.35075
# Shear Modulus (GPa) = -27.41769 11.42736 -7.99517
#
# Velocity S-wave (km/s) = -3.73579 2.41179 -2.01735
# Velocity P-wave (km/s) = 2.44790 4.79414 2.91475
#
# Compressibility (1/GPa) = 0.04034734
#
# Stress axis : x y z
#
# Youngs Moduli (GPa) = 84.03344 48.78614 35.14756
#
# Poissons Ratio (x) = 0.17656 0.14629
# Poissons Ratio (y) = 0.30413 0.08680
# Poissons Ratio (z) = 0.34975 0.12049
#
# Static dielectric constant tensor:
#      x y z
#    x 1.747420 0.000000 0.000000 
#    y 0.000000 1.640440 0.000000 
#    z 0.000000 0.000000 1.657420 
# 
# From -- ./inp_files/9253.got.cif
#   From: 2010.05.17/outbox.cif.g08.bks.cpg/sg58_5_cif.got.tgz:9253.got - 2010.06.03 14:20:14.
