data_PCOD9443490
_publ_section_title
;
Structure prediction by ZEFSAII (Michael W. Deem and Ramdas Pophale) SiO2 
 PCOD9443490
Probable space group: P N N M
;
_chemical_formula_sum "Si O2"
_cell_formula_units_Z 36
_cell_length_a 21.293593
_cell_length_b 7.427661
_cell_length_c 12.439501
_cell_angle_alpha 90.000000
_cell_angle_beta 90.000000
_cell_angle_gamma 90.000000
_cell_volume 1967.451260
_symmetry_space_group_name_H-M "P N N M"
_symmetry_group_IT_number 58
_symmetry_cell_setting 'orthorhombic'
loop_
_space_group_symop_operation_xyz
x,y,z
-x,-y,z
1/2+x,1/2-y,1/2-z
1/2-x,1/2+y,1/2-z
-x,-y,-z
x,y,-z
1/2-x,1/2+y,1/2+z
1/2+x,1/2-y,1/2+z
loop_
_atom_site_type_symbol
_atom_site_label
_atom_site_fract_x
_atom_site_fract_y
_atom_site_fract_z
Si Si1 0.556047 0.359667 0.376005
Si Si2 0.668561 0.306382 0.218768
Si Si3 0.723367 0.665533 0.124119
Si Si4 0.610825 0.949871 0.123462
Si Si5 0.000000 0.500000 0.215107
O O1 0.500000 0.500000 0.355802
O O2 0.576101 0.378849 0.500000
O O3 0.613401 0.384527 0.294327
O O4 0.529143 0.159939 0.354780
O O5 0.699121 0.466199 0.150966
O O6 0.720891 0.219569 0.296219
O O7 0.639376 0.147362 0.146968
O O8 0.665757 0.804215 0.139319
O O9 0.743863 0.677264 0.000000
O O10 0.554450 0.923732 0.207131
O O11 0.589135 0.937771 0.000000
#
# Coordination Sequence:
#
# PCOD9443490 Si02
#       5
#     8   8   8   8   4
#     4  10  21  37  57  83 114 149 189 235 287 340
#     4  11  21  38  58  82 115 152 190 238 287 343
#     4  11  22  37  57  83 114 150 192 237 286 341
#     4  10  21  37  58  84 114 148 188 235 285 338
#     4  10  20  36  60  82 112 148 188 234 282 338
#
# _framework density 18.297785000000001
#
# number of rings (size 3 to 8) (size 9 to 14) (size 15 to 20)
#    0.000    1.556    2.222    3.333    0.000    0.000 
#    0.000    0.000    0.000   10.667    0.000    0.000 
#    0.000    0.000    0.000    0.000    0.000    0.000 
#
# Total GULP energy -201120.275914 kJ/mol
# GULP energy per Si atom -5586.674331 kJ/mol
# Density = 1.825614 g / cm^3
# Si number density = 18.297785 Si / 1000 Ang^3
#
#
#
# Elastic Constant Matrix: (Units=GPa)
#
#
# Indices 1 2 3 4 5 6 
#
# 1 27.0782 -12.1306 -3.4733 0.0000 0.0000 0.0000
# 2 -12.1306 35.4871 -2.8363 0.0000 0.0000 0.0000
# 3 -3.4733 -2.8363 35.0062 0.0000 0.0000 0.0000
# 4 0.0000 0.0000 0.0000 25.4428 0.0000 0.0000
# 5 0.0000 0.0000 0.0000 0.0000 -5.2634 0.0000
# 6 0.0000 0.0000 0.0000 0.0000 0.0000 30.7224
#
#
#
# Elastic Compliance Matrix: (Units=1/GPa)
#
#
# Indices 1 2 3 4 5 6 
#
# 1 0.044715 0.015742 0.005712 0.000000 0.000000 0.000000
# 2 0.015742 0.033905 0.004309 0.000000 0.000000 0.000000
# 3 0.005712 0.004309 0.029482 0.000000 0.000000 0.000000
# 4 0.000000 0.000000 0.000000 0.039304 0.000000 0.000000
# 5 0.000000 0.000000 0.000000 0.000000 -0.189991 0.000000
# 6 0.000000 0.000000 0.000000 0.000000 0.000000 0.032550
#
#
# Mechanical properties :
#
#
# Convention : Reuss Voigt Hill
#
# Bulk Modulus (GPa) = 6.26462 6.74342 6.50402
# Shear Modulus (GPa) = -598.63430 17.91447 -290.35991
#
# Velocity S-wave (km/s) = -18.10725 3.13237 -12.61072
# Velocity P-wave (km/s) = 20.82624 4.09582 14.43877
#
# Compressibility (1/GPa) = 0.15962671
#
# Stress axis : x y z
#
# Youngs Moduli (GPa) = 22.36398 29.49448 33.91868
#
# Poissons Ratio (x) = -0.46429 -0.19374
# Poissons Ratio (y) = -0.35204 -0.14615
# Poissons Ratio (z) = -0.12774 -0.12709
#
# Static dielectric constant tensor:
#      x y z
#    x 1.602230 0.000000 0.000000 
#    y 0.000000 1.598590 0.000000 
#    z 0.000000 0.000000 1.592870 
# 
# From -- ./inp_files/11665.got.cif
#   From: 2010.05.17/outbox.cif.g08.bks.cpg/sg58_6_cif.got.tgz:11665.got - 2010.06.03 14:20:14.
