data_PCOD9443704
_publ_section_title
;
Structure prediction by ZEFSAII (Michael W. Deem and Ramdas Pophale) SiO2 
 PCOD9443704
Probable space group: P N N M
;
_chemical_formula_sum "Si O2"
_cell_formula_units_Z 48
_cell_length_a 31.487603
_cell_length_b 10.789372
_cell_length_c 7.585671
_cell_angle_alpha 90.000000
_cell_angle_beta 90.000000
_cell_angle_gamma 90.000000
_cell_volume 2577.091100
_symmetry_space_group_name_H-M "P N N M"
_symmetry_group_IT_number 58
_symmetry_cell_setting 'orthorhombic'
loop_
_space_group_symop_operation_xyz
x,y,z
-x,-y,z
1/2+x,1/2-y,1/2-z
1/2-x,1/2+y,1/2-z
-x,-y,-z
x,y,-z
1/2-x,1/2+y,1/2+z
1/2+x,1/2-y,1/2+z
loop_
_atom_site_type_symbol
_atom_site_label
_atom_site_fract_x
_atom_site_fract_y
_atom_site_fract_z
Si Si1 0.482730 0.803602 0.500000
Si Si2 0.374660 0.173602 0.212021
Si Si3 0.276684 0.205308 0.789064
Si Si4 0.035697 0.106036 0.293381
Si Si5 0.070520 0.547038 0.000000
Si Si6 0.618301 0.540922 0.213913
Si Si7 0.286075 0.480926 0.210772
O O1 0.477510 0.718927 0.328314
O O2 0.528510 0.868046 0.500000
O O3 0.446532 0.908027 0.500000
O O4 0.324742 0.167860 0.260810
O O5 0.401813 0.080254 0.328183
O O6 0.388756 0.314528 0.256962
O O7 0.378844 0.156388 0.000000
O O8 0.269046 0.346616 0.723371
O O9 0.243314 0.099040 0.743010
O O10 0.276669 0.211967 0.000000
O O11 0.039415 0.140550 0.500000
O O12 0.080098 0.046616 0.229146
O O13 0.000000 0.000000 0.280848
O O14 0.665452 0.504388 0.276352
O O15 0.618277 0.535905 0.000000
O O16 0.289296 0.469211 0.000000
#
# Coordination Sequence:
#
# PCOD9443704 Si02
#       7
#     4   8   8   8   4   8   8
#     4  11  25  40  54  86 125 141 192 248 278 345
#     4   9  19  38  61  81 109 147 194 235 273 339
#     4   9  19  36  54  81 112 144 192 237 280 343
#     4  10  20  37  62  87 113 149 189 236 296 344
#     4  11  24  40  58  82 112 160 194 224 289 348
#     4   8  16  34  57  82 110 142 185 235 287 339
#     4   9  18  34  54  77 112 149 183 235 286 336
#
# _framework density 18.625651000000001
#
# number of rings (size 3 to 8) (size 9 to 14) (size 15 to 20)
#    0.000    2.667    0.000    3.250    1.167    4.000 
#    9.000    1.667    0.000    0.000    0.000    0.000 
#    0.000    0.000    0.000    0.000    0.000    0.000 
#
# Total GULP energy -267747.475133 kJ/mol
# GULP energy per Si atom -5578.072399 kJ/mol
# Density = 1.858326 g / cm^3
# Si number density = 18.625651 Si / 1000 Ang^3
#
#
#
# Elastic Constant Matrix: (Units=GPa)
#
#
# Indices 1 2 3 4 5 6 
#
# 1 69.0529 53.6227 29.6297 0.0000 0.0000 0.0000
# 2 53.6227 98.1204 39.4402 0.0000 0.0000 0.0000
# 3 29.6297 39.4402 67.0690 0.0000 0.0000 0.0000
# 4 0.0000 0.0000 0.0000 17.2130 0.0000 0.0000
# 5 0.0000 0.0000 0.0000 0.0000 22.6050 0.0000
# 6 0.0000 0.0000 0.0000 0.0000 0.0000 33.3013
#
#
#
# Elastic Compliance Matrix: (Units=1/GPa)
#
#
# Indices 1 2 3 4 5 6 
#
# 1 0.025991 -0.012557 -0.004098 0.000000 0.000000 0.000000
# 2 -0.012557 0.019413 -0.005868 0.000000 0.000000 0.000000
# 3 -0.004098 -0.005868 0.020171 0.000000 0.000000 0.000000
# 4 0.000000 0.000000 0.000000 0.058096 0.000000 0.000000
# 5 0.000000 0.000000 0.000000 0.000000 0.044238 0.000000
# 6 0.000000 0.000000 0.000000 0.000000 0.000000 0.030029
#
#
# Mechanical properties :
#
#
# Convention : Reuss Voigt Hill
#
# Bulk Modulus (GPa) = 48.71303 53.29194 51.00248
# Shear Modulus (GPa) = 20.01382 22.06049 21.03716
#
# Velocity S-wave (km/s) = 3.28156 3.44527 3.36441
# Velocity P-wave (km/s) = 6.36935 6.67089 6.52186
#
# Compressibility (1/GPa) = 0.02052839
#
# Stress axis : x y z
#
# Youngs Moduli (GPa) = 38.47482 51.51281 49.57499
#
# Poissons Ratio (x) = 0.64683 0.20317
# Poissons Ratio (y) = 0.48312 0.29092
# Poissons Ratio (z) = 0.15768 0.30230
#
# Static dielectric constant tensor:
#      x y z
#    x 1.644160 0.000000 0.000000 
#    y 0.000000 1.652140 0.000000 
#    z 0.000000 0.000000 1.701780 
# 
# From -- ./inp_files/3044.got.cif
#   From: 2010.05.17/outbox.cif.g08.bks.cpg/sg58_2_cif.got.tgz:3044.got - 2010.06.03 14:20:14.
