data_PCOD9443586
_publ_section_title
;
Structure prediction by ZEFSAII (Michael W. Deem and Ramdas Pophale) SiO2 
 PCOD9443586
Probable space group: P N N M
;
_chemical_formula_sum "Si O2"
_cell_formula_units_Z 38
_cell_length_a 26.263420
_cell_length_b 5.035459
_cell_length_c 12.938593
_cell_angle_alpha 90.000000
_cell_angle_beta 90.000000
_cell_angle_gamma 90.000000
_cell_volume 1711.107894
_symmetry_space_group_name_H-M "P N N M"
_symmetry_group_IT_number 58
_symmetry_cell_setting 'orthorhombic'
loop_
_space_group_symop_operation_xyz
x,y,z
-x,-y,z
1/2+x,1/2-y,1/2-z
1/2-x,1/2+y,1/2-z
-x,-y,-z
x,y,-z
1/2-x,1/2+y,1/2+z
1/2+x,1/2-y,1/2+z
loop_
_atom_site_type_symbol
_atom_site_label
_atom_site_fract_x
_atom_site_fract_y
_atom_site_fract_z
Si Si1 0.587271 0.052145 0.167467
Si Si2 0.538156 0.746254 0.500000
Si Si3 0.265246 0.825582 0.613423
Si Si4 0.500000 0.000000 0.000000
Si Si5 0.301220 0.825117 0.839441
Si Si6 0.939416 0.044949 0.786578
O O1 0.642657 0.110440 0.122330
O O2 0.582057 0.253824 0.264334
O O3 0.540756 0.099015 0.089744
O O4 0.582007 0.746908 0.201665
O O5 0.500000 0.500000 0.500000
O O6 0.569467 0.693765 0.604480
O O7 0.500000 0.000000 0.500000
O O8 0.288646 0.865011 0.500000
O O9 0.300442 0.852662 0.714176
O O10 0.239413 0.537865 0.620133
O O11 0.219996 0.038818 0.629633
O O12 0.000000 0.000000 0.776299
#
# Coordination Sequence:
#
# PCOD9443586 Si02
#       6
#     8   4   8   2   8   8
#     4  12  25  42  63  93 135 176 221 276 318 392
#     4  10  20  36  66  86 109 166 216 264 330 380
#     4  10  21  42  69  96 127 165 217 273 340 407
#     4  12  28  42  64  96 134 186 232 258 324 398
#     4  10  23  42  65  98 131 169 214 275 333 398
#     4  11  21  42  60  89 127 169 217 272 317 377
#
# _framework density 22.207834999999999
#
# number of rings (size 3 to 8) (size 9 to 14) (size 15 to 20)
#    0.000    1.263    2.105    4.421    2.947    1.684 
#    3.789    0.000    0.000    0.000    0.000    0.000 
#    0.000    0.000    0.000    0.000    0.000    0.000 
#
# Total GULP energy -211646.121635 kJ/mol
# GULP energy per Si atom -5569.634780 kJ/mol
# Density = 2.215729 g / cm^3
# Si number density = 22.207835 Si / 1000 Ang^3
#
#
#
# Elastic Constant Matrix: (Units=GPa)
#
#
# Indices 1 2 3 4 5 6 
#
# 1 72.9127 -11.1021 11.2811 0.0000 0.0000 0.0000
# 2 -11.1021 69.2402 -0.6441 0.0000 0.0000 0.0000
# 3 11.2811 -0.6441 137.6861 0.0000 0.0000 0.0000
# 4 0.0000 0.0000 0.0000 -90.5914 0.0000 0.0000
# 5 0.0000 0.0000 0.0000 0.0000 46.1002 0.0000
# 6 0.0000 0.0000 0.0000 0.0000 0.0000 19.4980
#
#
#
# Elastic Compliance Matrix: (Units=1/GPa)
#
#
# Indices 1 2 3 4 5 6 
#
# 1 0.014240 0.002272 -0.001156 0.000000 0.000000 0.000000
# 2 0.002272 0.014806 -0.000117 0.000000 0.000000 0.000000
# 3 -0.001156 -0.000117 0.007357 0.000000 0.000000 0.000000
# 4 0.000000 0.000000 0.000000 -0.011039 0.000000 0.000000
# 5 0.000000 0.000000 0.000000 0.000000 0.021692 0.000000
# 6 0.000000 0.000000 0.000000 0.000000 0.000000 0.051287
#
#
# Mechanical properties :
#
#
# Convention : Reuss Voigt Hill
#
# Bulk Modulus (GPa) = 26.04051 30.98988 28.51520
# Shear Modulus (GPa) = 45.81063 13.68830 29.74947
#
# Velocity S-wave (km/s) = 4.54675 2.48538 3.66402
# Velocity P-wave (km/s) = 6.27018 4.71391 5.54690
#
# Compressibility (1/GPa) = 0.03840170
#
# Stress axis : x y z
#
# Youngs Moduli (GPa) = 70.22505 67.54121 135.92361
#
# Poissons Ratio (x) = -0.15349 0.15714
# Poissons Ratio (y) = -0.15959 0.01589
# Poissons Ratio (z) = 0.08119 0.00790
#
# Static dielectric constant tensor:
#      x y z
#    x 1.652250 0.000000 0.000000 
#    y 0.000000 1.750710 0.000000 
#    z 0.000000 0.000000 1.957320 
# 
# From -- ./inp_files/17648.got.cif
#   From: 2010.05.17/outbox.cif.g08.bks.cpg/sg58_9_cif.got.tgz:17648.got - 2010.06.03 14:20:14.
