data_PCOD9443834
_publ_section_title
;
Structure prediction by ZEFSAII (Michael W. Deem and Ramdas Pophale) SiO2 
 PCOD9443834
Probable space group: P N N M
;
_chemical_formula_sum "Si O2"
_cell_formula_units_Z 44
_cell_length_a 28.305175
_cell_length_b 7.997436
_cell_length_c 7.285997
_cell_angle_alpha 90.000000
_cell_angle_beta 90.000000
_cell_angle_gamma 90.000000
_cell_volume 1649.322584
_symmetry_space_group_name_H-M "P N N M"
_symmetry_group_IT_number 58
_symmetry_cell_setting 'orthorhombic'
loop_
_space_group_symop_operation_xyz
x,y,z
-x,-y,z
1/2+x,1/2-y,1/2-z
1/2-x,1/2+y,1/2-z
-x,-y,-z
x,y,-z
1/2-x,1/2+y,1/2+z
1/2+x,1/2-y,1/2+z
loop_
_atom_site_type_symbol
_atom_site_label
_atom_site_fract_x
_atom_site_fract_y
_atom_site_fract_z
Si Si1 0.294373 0.048281 0.790801
Si Si2 0.880085 0.665535 0.777935
Si Si3 0.530018 0.341148 0.276308
Si Si4 0.857481 0.123191 0.788803
Si Si5 0.290963 0.529920 0.000000
Si Si6 0.557711 0.848537 0.278175
O O1 0.327867 0.883189 0.790629
O O2 0.250469 0.031018 0.659100
O O3 0.325597 0.206438 0.726550
O O4 0.279609 0.081917 0.000000
O O5 0.912380 0.507089 0.717298
O O6 0.915801 0.813614 0.722977
O O7 0.876047 0.665387 0.000000
O O8 0.500000 0.500000 0.215535
O O9 0.530907 0.345680 0.500000
O O10 0.495598 0.187981 0.221575
O O11 0.831455 0.995557 0.658994
O O12 0.909258 0.188941 0.735881
O O13 0.858317 0.068309 0.000000
O O14 0.556517 0.862110 0.500000
#
# Coordination Sequence:
#
# PCOD9443834 Si02
#       6
#     8   8   8   8   4   8
#     4  11  21  38  62  87 122 158 207 259 309 363
#     4   9  16  31  55  83 113 156 203 250 294 361
#     4   9  16  27  51  83 122 154 192 243 308 372
#     4  10  20  38  62  87 121 156 206 259 314 362
#     4  12  22  38  64  88 120 160 192 268 318 366
#     4   8  15  29  53  83 111 154 201 247 296 363
#
# _framework density 26.677617999999999
#
# number of rings (size 3 to 8) (size 9 to 14) (size 15 to 20)
#    0.000    2.364    2.727    2.182    0.000    2.182 
#    0.000    1.818    6.000    2.727    0.000    0.000 
#    0.000    0.000    0.000    0.000    0.000    0.000 
#
# Total GULP energy -245352.168669 kJ/mol
# GULP energy per Si atom -5576.185652 kJ/mol
# Density = 2.661690 g / cm^3
# Si number density = 26.677618 Si / 1000 Ang^3
#
#
#
# Elastic Constant Matrix: (Units=GPa)
#
#
# Indices 1 2 3 4 5 6 
#
# 1 204.4416 12.2695 51.0863 0.0000 0.0000 0.0000
# 2 12.2695 90.1462 -5.8326 0.0000 0.0000 0.0000
# 3 51.0863 -5.8326 149.4175 0.0000 0.0000 0.0000
# 4 0.0000 0.0000 0.0000 15.9158 0.0000 0.0000
# 5 0.0000 0.0000 0.0000 0.0000 10.2404 0.0000
# 6 0.0000 0.0000 0.0000 0.0000 0.0000 -2.5683
#
#
#
# Elastic Compliance Matrix: (Units=1/GPa)
#
#
# Indices 1 2 3 4 5 6 
#
# 1 0.005414 -0.000859 -0.001885 0.000000 0.000000 0.000000
# 2 -0.000859 0.011257 0.000733 0.000000 0.000000 0.000000
# 3 -0.001885 0.000733 0.007366 0.000000 0.000000 0.000000
# 4 0.000000 0.000000 0.000000 0.062831 0.000000 0.000000
# 5 0.000000 0.000000 0.000000 0.000000 0.097652 0.000000
# 6 0.000000 0.000000 0.000000 0.000000 0.000000 -0.389365
#
#
# Mechanical properties :
#
#
# Convention : Reuss Voigt Hill
#
# Bulk Modulus (GPa) = 49.95924 62.11686 56.03805
# Shear Modulus (GPa) = -25.75292 30.48305 2.36506
#
# Velocity S-wave (km/s) = -3.11036 3.38397 0.94258
# Velocity P-wave (km/s) = 2.42251 6.21314 4.71549
#
# Compressibility (1/GPa) = 0.02001632
#
# Stress axis : x y z
#
# Youngs Moduli (GPa) = 184.71237 88.83041 135.76633
#
# Poissons Ratio (x) = 0.07629 0.25586
# Poissons Ratio (y) = 0.15863 -0.09952
# Poissons Ratio (z) = 0.34810 -0.06512
#
# Static dielectric constant tensor:
#      x y z
#    x 1.206990 0.000000 0.000000 
#    y 0.000000 2.295870 0.000000 
#    z 0.000000 0.000000 2.054010 
# 
# From -- ./inp_files/10703.got.cif
#   From: 2010.05.17/outbox.cif.g08.bks.cpg/sg58_6_cif.got.tgz:10703.got - 2010.06.03 14:20:14.
