data_PCOD9443583
_publ_section_title
;
Structure prediction by ZEFSAII (Michael W. Deem and Ramdas Pophale) SiO2 
 PCOD9443583
Probable space group: P N N M
;
_chemical_formula_sum "Si O2"
_cell_formula_units_Z 52
_cell_length_a 5.741389
_cell_length_b 15.566995
_cell_length_c 25.851093
_cell_angle_alpha 90.000000
_cell_angle_beta 90.000000
_cell_angle_gamma 90.000000
_cell_volume 2310.471782
_symmetry_space_group_name_H-M "P N N M"
_symmetry_group_IT_number 58
_symmetry_cell_setting 'orthorhombic'
loop_
_space_group_symop_operation_xyz
x,y,z
-x,-y,z
1/2+x,1/2-y,1/2-z
1/2-x,1/2+y,1/2-z
-x,-y,-z
x,y,-z
1/2-x,1/2+y,1/2+z
1/2+x,1/2-y,1/2+z
loop_
_atom_site_type_symbol
_atom_site_label
_atom_site_fract_x
_atom_site_fract_y
_atom_site_fract_z
Si Si1 0.500000 0.000000 0.622774
Si Si2 0.184343 0.576113 0.443067
Si Si3 0.459537 0.652807 0.356008
Si Si4 0.777388 0.157593 0.355117
Si Si5 0.214647 0.301392 0.556438
Si Si6 0.867621 0.891120 0.559257
Si Si7 0.978297 0.800789 0.254128
O O1 0.403555 0.919250 0.655127
O O2 0.704892 0.959864 0.587337
O O3 0.293371 0.563441 0.500000
O O4 0.325967 0.583440 0.390600
O O5 0.000000 0.500000 0.438738
O O6 0.050499 0.667457 0.445334
O O7 0.339501 0.748276 0.357541
O O8 0.690844 0.661705 0.390148
O O9 0.739236 0.799217 0.441414
O O10 0.480507 0.636228 0.295335
O O11 0.971233 0.159831 0.310145
O O12 0.903540 0.131529 0.408064
O O13 0.308825 0.330849 0.500000
O O14 0.916993 0.912787 0.500000
O O15 0.219800 0.743939 0.245232
#
# Coordination Sequence:
#
# PCOD9443583 Si02
#       7
#     4   8   8   8   8   8   8
#     4  12  25  42  64  98 142 186 237 290 352 406
#     4  10  22  40  66 102 139 173 221 289 362 427
#     4  11  21  40  71  95 133 180 233 283 352 427
#     4  11  24  42  68  98 137 183 236 291 351 413
#     4  10  20  36  65  97 130 175 226 276 345 425
#     4  11  23  40  64  98 139 182 232 287 349 422
#     4  10  24  43  76 104 132 183 243 295 349 419
#
# _framework density 22.506228
#
# number of rings (size 3 to 8) (size 9 to 14) (size 15 to 20)
#    0.000    1.385    3.077    2.077    4.308    3.077 
#    0.000    2.308   10.154    0.000    0.000    0.000 
#    0.000    0.000    0.000    0.000    0.000    0.000 
#
# Total GULP energy -289867.259452 kJ/mol
# GULP energy per Si atom -5574.370374 kJ/mol
# Density = 2.245500 g / cm^3
# Si number density = 22.506228 Si / 1000 Ang^3
#
#
#
# Elastic Constant Matrix: (Units=GPa)
#
#
# Indices 1 2 3 4 5 6 
#
# 1 51.0555 14.7074 8.7959 0.0000 0.0000 0.0000
# 2 14.7074 74.6940 5.7717 0.0000 0.0000 0.0000
# 3 8.7959 5.7717 66.6391 0.0000 0.0000 0.0000
# 4 0.0000 0.0000 0.0000 11.3706 0.0000 0.0000
# 5 0.0000 0.0000 0.0000 0.0000 38.9903 0.0000
# 6 0.0000 0.0000 0.0000 0.0000 0.0000 36.2272
#
#
#
# Elastic Compliance Matrix: (Units=1/GPa)
#
#
# Indices 1 2 3 4 5 6 
#
# 1 0.021154 -0.003976 -0.002448 0.000000 0.000000 0.000000
# 2 -0.003976 0.014226 -0.000707 0.000000 0.000000 0.000000
# 3 -0.002448 -0.000707 0.015391 0.000000 0.000000 0.000000
# 4 0.000000 0.000000 0.000000 0.087946 0.000000 0.000000
# 5 0.000000 0.000000 0.000000 0.000000 0.025647 0.000000
# 6 0.000000 0.000000 0.000000 0.000000 0.000000 0.027604
#
#
# Mechanical properties :
#
#
# Convention : Reuss Voigt Hill
#
# Bulk Modulus (GPa) = 27.39165 27.88207 27.63686
# Shear Modulus (GPa) = 22.89401 28.19188 25.54294
#
# Velocity S-wave (km/s) = 3.19286 3.54309 3.37252
# Velocity P-wave (km/s) = 5.07835 5.39939 5.24133
#
# Compressibility (1/GPa) = 0.03650747
#
# Stress axis : x y z
#
# Youngs Moduli (GPa) = 47.27329 70.29623 64.97498
#
# Poissons Ratio (x) = 0.27950 0.15904
# Poissons Ratio (y) = 0.18796 0.04596
# Poissons Ratio (z) = 0.11571 0.04972
#
# Static dielectric constant tensor:
#      x y z
#    x 1.916090 0.000000 0.000000 
#    y 0.000000 1.857910 0.000000 
#    z 0.000000 0.000000 1.831680 
# 
# From -- ./inp_files/32904.got.cif
#   From: 2010.05.17/outbox.cif.g08.bks.cpg/sg58_17_cif.got.tgz:32904.got - 2010.06.03 14:20:14.
