data_PCOD9443008
_publ_section_title
;
Structure prediction by ZEFSAII (Michael W. Deem and Ramdas Pophale) SiO2 
 PCOD9443008
Probable space group: P N N M
;
_chemical_formula_sum "Si O2"
_cell_formula_units_Z 40
_cell_length_a 18.564185
_cell_length_b 13.452104
_cell_length_c 9.066076
_cell_angle_alpha 90.000000
_cell_angle_beta 90.000000
_cell_angle_gamma 90.000000
_cell_volume 2264.047110
_symmetry_space_group_name_H-M "P N N M"
_symmetry_group_IT_number 58
_symmetry_cell_setting 'orthorhombic'
loop_
_space_group_symop_operation_xyz
x,y,z
-x,-y,z
1/2+x,1/2-y,1/2-z
1/2-x,1/2+y,1/2-z
-x,-y,-z
x,y,-z
1/2-x,1/2+y,1/2+z
1/2+x,1/2-y,1/2+z
loop_
_atom_site_type_symbol
_atom_site_label
_atom_site_fract_x
_atom_site_fract_y
_atom_site_fract_z
Si Si1 0.025603 0.188990 0.674482
Si Si2 0.685227 0.823457 0.324185
Si Si3 0.667612 0.392872 0.323780
Si Si4 0.385128 0.387836 0.675571
Si Si5 0.045201 0.596871 0.324628
O O1 0.033978 0.172574 0.500000
O O2 0.098806 0.163774 0.757842
O O3 0.959859 0.123441 0.737544
O O4 0.001386 0.303202 0.698506
O O5 0.691112 0.833589 0.500000
O O6 0.759219 0.853768 0.247793
O O7 0.662940 0.709152 0.290785
O O8 0.619295 0.889209 0.262778
O O9 0.670180 0.381256 0.500000
O O10 0.654766 0.509604 0.290448
O O11 0.401031 0.386257 0.500000
O O12 0.061041 0.590188 0.500000
O O13 0.000000 0.500000 0.281518
#
# Coordination Sequence:
#
# PCOD9443008 Si02
#       5
#     8   8   8   8   8
#     4  10  20  34  55  82 107 134 175 221 259 304
#     4  10  21  37  55  78 107 136 175 223 262 301
#     4  11  22  36  55  78 107 142 176 211 262 321
#     4   9  20  38  56  74 103 142 175 210 261 317
#     4   9  19  37  58  78 106 144 178 210 258 318
#
# _framework density 17.667477999999999
#
# number of rings (size 3 to 8) (size 9 to 14) (size 15 to 20)
#    0.000    2.200    0.000    2.400    0.000    7.600 
#    0.000    8.000    0.000    0.000    0.000    0.000 
#    0.000    0.000    0.000    0.000    0.000    0.000 
#
# Total GULP energy -223378.394405 kJ/mol
# GULP energy per Si atom -5584.459860 kJ/mol
# Density = 1.762727 g / cm^3
# Si number density = 17.667478 Si / 1000 Ang^3
#
#
#
# Elastic Constant Matrix: (Units=GPa)
#
#
# Indices 1 2 3 4 5 6 
#
# 1 192.1765 83.8317 97.1095 0.0000 0.0000 0.0000
# 2 83.8317 74.7777 60.3102 0.0000 0.0000 0.0000
# 3 97.1095 60.3102 76.1292 0.0000 0.0000 0.0000
# 4 0.0000 0.0000 0.0000 29.2543 0.0000 0.0000
# 5 0.0000 0.0000 0.0000 0.0000 42.6328 0.0000
# 6 0.0000 0.0000 0.0000 0.0000 0.0000 22.5753
#
#
#
# Elastic Compliance Matrix: (Units=1/GPa)
#
#
# Indices 1 2 3 4 5 6 
#
# 1 0.015028 -0.003841 -0.016127 0.000000 0.000000 0.000000
# 2 -0.003841 0.038020 -0.025220 0.000000 0.000000 0.000000
# 3 -0.016127 -0.025220 0.053686 0.000000 0.000000 0.000000
# 4 0.000000 0.000000 0.000000 0.034183 0.000000 0.000000
# 5 0.000000 0.000000 0.000000 0.000000 0.023456 0.000000
# 6 0.000000 0.000000 0.000000 0.000000 0.000000 0.044296
#
#
# Mechanical properties :
#
#
# Convention : Reuss Voigt Hill
#
# Bulk Modulus (GPa) = 61.13060 91.73180 76.43120
# Shear Modulus (GPa) = 16.42046 25.68129 21.05087
#
# Velocity S-wave (km/s) = 3.05194 3.81673 3.45556
# Velocity P-wave (km/s) = 6.86257 8.45324 7.69910
#
# Compressibility (1/GPa) = 0.01635842
#
# Stress axis : x y z
#
# Youngs Moduli (GPa) = 66.54115 26.30226 18.62670
#
# Poissons Ratio (x) = 0.10103 0.30039
# Poissons Ratio (y) = 0.25559 0.46976
# Poissons Ratio (z) = 1.07311 0.66334
#
# Static dielectric constant tensor:
#      x y z
#    x 1.555770 0.000000 0.000000 
#    y 0.000000 1.602170 0.000000 
#    z 0.000000 0.000000 1.587340 
# 
# From -- ./inp_files/3786.got.cif
#   From: 2010.05.17/outbox.cif.g08.bks.cpg/sg58_2_cif.got.tgz:3786.got - 2010.06.03 14:20:14.
