data_PCOD9443416
_publ_section_title
;
Structure prediction by ZEFSAII (Michael W. Deem and Ramdas Pophale) SiO2 
 PCOD9443416
Probable space group: P N N M
;
_chemical_formula_sum "Si O2"
_cell_formula_units_Z 64
_cell_length_a 30.150666
_cell_length_b 12.196879
_cell_length_c 9.001745
_cell_angle_alpha 90.000000
_cell_angle_beta 90.000000
_cell_angle_gamma 90.000000
_cell_volume 3310.337938
_symmetry_space_group_name_H-M "P N N M"
_symmetry_group_IT_number 58
_symmetry_cell_setting 'orthorhombic'
loop_
_space_group_symop_operation_xyz
x,y,z
-x,-y,z
1/2+x,1/2-y,1/2-z
1/2-x,1/2+y,1/2-z
-x,-y,-z
x,y,-z
1/2-x,1/2+y,1/2+z
1/2+x,1/2-y,1/2+z
loop_
_atom_site_type_symbol
_atom_site_label
_atom_site_fract_x
_atom_site_fract_y
_atom_site_fract_z
Si Si1 0.610146 0.852894 0.177676
Si Si2 0.818803 0.525753 0.319432
Si Si3 0.664582 0.272246 0.179593
Si Si4 0.722279 0.464819 0.679419
Si Si5 0.435587 0.473633 0.330763
Si Si6 0.523223 0.767583 0.674505
Si Si7 0.561973 0.302956 0.175654
Si Si8 0.155873 0.852258 0.173178
O O1 0.561775 0.838438 0.249191
O O2 0.640247 0.749675 0.229259
O O3 0.637288 0.960284 0.226267
O O4 0.605884 0.851880 0.000000
O O5 0.818766 0.525241 0.500000
O O6 0.819045 0.652076 0.273653
O O7 0.773471 0.466425 0.272733
O O8 0.694092 0.367696 0.249234
O O9 0.612728 0.281342 0.221557
O O10 0.666936 0.280754 0.000000
O O11 0.719878 0.455594 0.500000
O O12 0.699784 0.582148 0.717280
O O13 0.444526 0.511285 0.500000
O O14 0.460694 0.359187 0.306899
O O15 0.446749 0.570609 0.219983
O O16 0.383952 0.441063 0.318900
O O17 0.522049 0.790608 0.500000
O O18 0.474709 0.771912 0.745431
O O19 0.558336 0.288180 0.000000
O O20 0.158865 0.817630 0.000000
#
# Coordination Sequence:
#
# PCOD9443416 Si02
#       8
#     8   8   8   8   8   8   8   8
#     4  10  20  36  58  82 112 148 192 240 280 330
#     4   9  21  40  60  82 114 154 191 234 287 340
#     4  10  22  40  59  84 118 152 190 236 288 340
#     4  10  20  37  60  84 112 150 191 229 281 343
#     4   9  17  31  49  74 110 149 181 219 277 340
#     4  10  21  36  55  79 111 152 191 230 287 349
#     4  11  21  32  52  82 112 146 189 238 285 334
#     4   9  18  32  53  81 114 150 183 224 281 339
#
# _framework density 19.333373999999999
#
# number of rings (size 3 to 8) (size 9 to 14) (size 15 to 20)
#    0.000    2.250    1.250    2.250    1.750    5.000 
#    0.000    3.125    0.000    3.750    0.000    0.000 
#    0.000    0.000    0.000    0.000    0.000    0.000 
#
# Total GULP energy -357214.141843 kJ/mol
# GULP energy per Si atom -5581.470966 kJ/mol
# Density = 1.928937 g / cm^3
# Si number density = 19.333374 Si / 1000 Ang^3
#
#
#
# Elastic Constant Matrix: (Units=GPa)
#
#
# Indices 1 2 3 4 5 6 
#
# 1 96.8869 15.6635 30.8409 0.0000 0.0000 0.0000
# 2 15.6635 40.5171 14.5233 0.0000 0.0000 0.0000
# 3 30.8409 14.5233 33.3618 0.0000 0.0000 0.0000
# 4 0.0000 0.0000 0.0000 6.6789 0.0000 0.0000
# 5 0.0000 0.0000 0.0000 0.0000 26.8369 0.0000
# 6 0.0000 0.0000 0.0000 0.0000 0.0000 13.0369
#
#
#
# Elastic Compliance Matrix: (Units=1/GPa)
#
#
# Indices 1 2 3 4 5 6 
#
# 1 0.014656 -0.000959 -0.013131 0.000000 0.000000 0.000000
# 2 -0.000959 0.029307 -0.011872 0.000000 0.000000 0.000000
# 3 -0.013131 -0.011872 0.047282 0.000000 0.000000 0.000000
# 4 0.000000 0.000000 0.000000 0.149726 0.000000 0.000000
# 5 0.000000 0.000000 0.000000 0.000000 0.037262 0.000000
# 6 0.000000 0.000000 0.000000 0.000000 0.000000 0.076705
#
#
# Mechanical properties :
#
#
# Convention : Reuss Voigt Hill
#
# Bulk Modulus (GPa) = 25.43172 32.53570 28.98371
# Shear Modulus (GPa) = 11.90564 16.62640 14.26602
#
# Velocity S-wave (km/s) = 2.48424 2.93573 2.71937
# Velocity P-wave (km/s) = 4.62725 5.32510 4.98839
#
# Compressibility (1/GPa) = 0.03932098
#
# Stress axis : x y z
#
# Youngs Moduli (GPa) = 68.22989 34.12151 21.14989
#
# Poissons Ratio (x) = 0.03273 0.27773
# Poissons Ratio (y) = 0.06544 0.25108
# Poissons Ratio (z) = 0.89595 0.40507
#
# Static dielectric constant tensor:
#      x y z
#    x 1.703520 0.000000 0.000000 
#    y 0.000000 1.654910 0.000000 
#    z 0.000000 0.000000 1.652700 
# 
# From -- ./inp_files/10964.got.cif
#   From: 2010.05.17/outbox.cif.g08.bks.cpg/sg58_6_cif.got.tgz:10964.got - 2010.06.03 14:20:14.
