data_PCOD9443396
_publ_section_title
;
Structure prediction by ZEFSAII (Michael W. Deem and Ramdas Pophale) SiO2 
 PCOD9443396
Probable space group: P N N M
;
_chemical_formula_sum "Si O2"
_cell_formula_units_Z 64
_cell_length_a 16.298257
_cell_length_b 18.377354
_cell_length_c 11.747936
_cell_angle_alpha 90.000000
_cell_angle_beta 90.000000
_cell_angle_gamma 90.000000
_cell_volume 3518.728145
_symmetry_space_group_name_H-M "P N N M"
_symmetry_group_IT_number 58
_symmetry_cell_setting 'orthorhombic'
loop_
_space_group_symop_operation_xyz
x,y,z
-x,-y,z
1/2+x,1/2-y,1/2-z
1/2-x,1/2+y,1/2-z
-x,-y,-z
x,y,-z
1/2-x,1/2+y,1/2+z
1/2+x,1/2-y,1/2+z
loop_
_atom_site_type_symbol
_atom_site_label
_atom_site_fract_x
_atom_site_fract_y
_atom_site_fract_z
Si Si1 0.999038 0.159020 0.133668
Si Si2 0.083760 0.474538 0.374075
Si Si3 0.683730 0.897988 0.212441
Si Si4 0.553483 0.573590 0.133882
Si Si5 0.862347 0.633479 0.805250
Si Si6 0.046746 0.672764 0.872187
Si Si7 0.264767 0.485624 0.874316
Si Si8 0.682870 0.286327 0.369313
O O1 0.097464 0.170087 0.142907
O O2 0.971611 0.117776 0.250364
O O3 0.959785 0.239835 0.138702
O O4 0.983439 0.132062 0.000000
O O5 0.061599 0.451240 0.500000
O O6 0.141929 0.544483 0.372171
O O7 0.124742 0.407036 0.313316
O O8 0.000000 0.500000 0.313026
O O9 0.610500 0.861363 0.284277
O O10 0.740648 0.836891 0.158179
O O11 0.739701 0.949930 0.290776
O O12 0.500000 0.500000 0.134406
O O13 0.648399 0.551752 0.150451
O O14 0.545583 0.603340 0.000000
O O15 0.804687 0.576831 0.870807
O O16 0.822169 0.712667 0.796889
O O17 0.953355 0.644702 0.856032
O O18 0.073552 0.654222 0.000000
O O19 0.270208 0.517376 0.000000
O O20 0.686369 0.260938 0.500000
#
# Coordination Sequence:
#
# PCOD9443396 Si02
#       8
#     8   8   8   8   8   8   8   8
#     4   9  20  39  60  84 115 152 195 246 296 348
#     4  10  20  37  56  83 120 153 190 238 293 358
#     4  11  21  35  58  86 114 152 193 233 298 360
#     4  10  21  38  58  84 118 156 197 245 295 348
#     4  10  20  38  59  84 112 151 197 240 291 342
#     4  10  20  36  57  83 115 148 189 244 293 346
#     4  10  21  35  56  84 116 152 192 242 291 346
#     4  10  21  38  60  84 115 150 194 246 292 349
#
# _framework density 18.188389999999998
#
# number of rings (size 3 to 8) (size 9 to 14) (size 15 to 20)
#    0.000    2.000    1.250    3.375    1.750    0.250 
#    0.000   10.000    0.000    0.000    0.000    0.000 
#    0.000    0.000    0.000    0.000    0.000    0.000 
#
# Total GULP energy -356355.401454 kJ/mol
# GULP energy per Si atom -5568.053148 kJ/mol
# Density = 1.814699 g / cm^3
# Si number density = 18.188390 Si / 1000 Ang^3
#
#
#
# Elastic Constant Matrix: (Units=GPa)
#
#
# Indices 1 2 3 4 5 6 
#
# 1 69.2938 34.7374 30.8046 0.0000 0.0000 0.0000
# 2 34.7374 74.2903 41.7815 0.0000 0.0000 0.0000
# 3 30.8046 41.7815 92.2512 0.0000 0.0000 0.0000
# 4 0.0000 0.0000 0.0000 45.5719 0.0000 0.0000
# 5 0.0000 0.0000 0.0000 0.0000 12.5164 0.0000
# 6 0.0000 0.0000 0.0000 0.0000 0.0000 25.7430
#
#
#
# Elastic Compliance Matrix: (Units=1/GPa)
#
#
# Indices 1 2 3 4 5 6 
#
# 1 0.019530 -0.007332 -0.003201 0.000000 0.000000 0.000000
# 2 -0.007332 0.020814 -0.006979 0.000000 0.000000 0.000000
# 3 -0.003201 -0.006979 0.015069 0.000000 0.000000 0.000000
# 4 0.000000 0.000000 0.000000 0.021943 0.000000 0.000000
# 5 0.000000 0.000000 0.000000 0.000000 0.079895 0.000000
# 6 0.000000 0.000000 0.000000 0.000000 0.000000 0.038845
#
#
# Mechanical properties :
#
#
# Convention : Reuss Voigt Hill
#
# Bulk Modulus (GPa) = 49.04177 50.05357 49.54767
# Shear Modulus (GPa) = 21.01586 25.33372 23.17479
#
# Velocity S-wave (km/s) = 3.40289 3.73614 3.57340
# Velocity P-wave (km/s) = 6.51623 6.79639 6.65778
#
# Compressibility (1/GPa) = 0.02039078
#
# Stress axis : x y z
#
# Youngs Moduli (GPa) = 51.20418 48.04516 66.35958
#
# Poissons Ratio (x) = 0.35225 0.21240
# Poissons Ratio (y) = 0.37542 0.46309
# Poissons Ratio (z) = 0.16389 0.33528
#
# Static dielectric constant tensor:
#      x y z
#    x 1.630540 0.000000 0.000000 
#    y 0.000000 1.608580 0.000000 
#    z 0.000000 0.000000 1.643200 
# 
# From -- ./inp_files/15921.got.cif
#   From: 2010.05.17/outbox.cif.g08.bks.cpg/sg58_8_cif.got.tgz:15921.got - 2010.06.03 14:20:14.
