data_PCOD9443395
_publ_section_title
;
Structure prediction by ZEFSAII (Michael W. Deem and Ramdas Pophale) SiO2 
 PCOD9443395
Probable space group: P N N M
;
_chemical_formula_sum "Si O2"
_cell_formula_units_Z 64
_cell_length_a 14.652335
_cell_length_b 11.764846
_cell_length_c 19.799333
_cell_angle_alpha 90.000000
_cell_angle_beta 90.000000
_cell_angle_gamma 90.000000
_cell_volume 3413.057824
_symmetry_space_group_name_H-M "P N N M"
_symmetry_group_IT_number 58
_symmetry_cell_setting 'orthorhombic'
loop_
_space_group_symop_operation_xyz
x,y,z
-x,-y,z
1/2+x,1/2-y,1/2-z
1/2-x,1/2+y,1/2-z
-x,-y,-z
x,y,-z
1/2-x,1/2+y,1/2+z
1/2+x,1/2-y,1/2+z
loop_
_atom_site_type_symbol
_atom_site_label
_atom_site_fract_x
_atom_site_fract_y
_atom_site_fract_z
Si Si1 0.724698 0.652072 0.660396
Si Si2 0.357221 0.722999 0.358501
Si Si3 0.223623 0.553306 0.574377
Si Si4 0.660544 0.357042 0.795659
Si Si5 0.965665 0.131008 0.918635
Si Si6 0.519858 0.876831 0.075184
Si Si7 0.516244 0.622169 0.122718
Si Si8 0.284633 0.399839 0.183206
O O1 0.776607 0.542502 0.631254
O O2 0.794777 0.756706 0.660462
O O3 0.632088 0.653958 0.616411
O O4 0.701930 0.641569 0.739709
O O5 0.303189 0.640876 0.409172
O O6 0.345455 0.672226 0.283215
O O7 0.460524 0.715168 0.384135
O O8 0.302046 0.840773 0.351749
O O9 0.238005 0.501870 0.500000
O O10 0.129291 0.620524 0.573811
O O11 0.557676 0.387059 0.817314
O O12 0.723140 0.465534 0.809791
O O13 0.961634 0.144742 0.000000
O O14 0.000000 0.000000 0.905435
O O15 0.494412 0.748924 0.095684
O O16 0.500000 0.000000 0.110553
O O17 0.479305 0.889559 0.000000
O O18 0.500000 0.500000 0.084821
O O19 0.621803 0.625828 0.143914
#
# Coordination Sequence:
#
# PCOD9443395 Si02
#       8
#     8   8   8   8   8   8   8   8
#     4  11  21  35  57  85 119 151 192 243 292 342
#     4  11  20  35  57  85 114 149 193 240 286 339
#     4  11  20  34  58  83 113 149 186 235 285 338
#     4  10  21  36  57  84 118 152 191 239 293 346
#     4  11  21  35  58  86 115 150 196 244 291 346
#     4  10  21  36  55  82 115 147 190 241 290 343
#     4  10  20  36  57  83 113 153 190 235 291 355
#     4  10  20  36  58  83 118 153 192 238 287 350
#
# _framework density 18.751512999999999
#
# number of rings (size 3 to 8) (size 9 to 14) (size 15 to 20)
#    0.000    1.500    3.750    2.250    0.000    1.250 
#    0.000    1.250    0.000    5.250    0.000    0.000 
#    0.000    0.000    0.000    0.000    0.000    0.000 
#
# Total GULP energy -356295.878537 kJ/mol
# GULP energy per Si atom -5567.123102 kJ/mol
# Density = 1.870883 g / cm^3
# Si number density = 18.751513 Si / 1000 Ang^3
#
#
#
# Elastic Constant Matrix: (Units=GPa)
#
#
# Indices 1 2 3 4 5 6 
#
# 1 87.9488 23.6366 26.4112 0.0000 0.0000 0.0000
# 2 23.6366 98.7738 23.0880 0.0000 0.0000 0.0000
# 3 26.4112 23.0880 56.0780 0.0000 0.0000 0.0000
# 4 0.0000 0.0000 0.0000 19.8960 0.0000 0.0000
# 5 0.0000 0.0000 0.0000 0.0000 14.8202 0.0000
# 6 0.0000 0.0000 0.0000 0.0000 0.0000 31.9068
#
#
#
# Elastic Compliance Matrix: (Units=1/GPa)
#
#
# Indices 1 2 3 4 5 6 
#
# 1 0.013571 -0.001940 -0.005593 0.000000 0.000000 0.000000
# 2 -0.001940 0.011480 -0.003812 0.000000 0.000000 0.000000
# 3 -0.005593 -0.003812 0.022036 0.000000 0.000000 0.000000
# 4 0.000000 0.000000 0.000000 0.050261 0.000000 0.000000
# 5 0.000000 0.000000 0.000000 0.000000 0.067476 0.000000
# 6 0.000000 0.000000 0.000000 0.000000 0.000000 0.031341
#
#
# Mechanical properties :
#
#
# Convention : Reuss Voigt Hill
#
# Bulk Modulus (GPa) = 40.99089 43.23025 42.11057
# Shear Modulus (GPa) = 22.02758 24.63558 23.33158
#
# Velocity S-wave (km/s) = 3.43112 3.62856 3.53122
# Velocity P-wave (km/s) = 6.13223 6.37649 6.25555
#
# Compressibility (1/GPa) = 0.02439566
#
# Stress axis : x y z
#
# Youngs Moduli (GPa) = 73.68511 87.11095 45.38020
#
# Poissons Ratio (x) = 0.16902 0.25380
# Poissons Ratio (y) = 0.14297 0.17301
# Poissons Ratio (z) = 0.41211 0.33211
#
# Static dielectric constant tensor:
#      x y z
#    x 1.651000 0.000000 0.000000 
#    y 0.000000 1.711800 0.000000 
#    z 0.000000 0.000000 1.655250 
# 
# From -- ./inp_files/26397.got.cif
#   From: 2010.05.17/outbox.cif.g08.bks.cpg/sg58_14_cif.got.tgz:26397.got - 2010.06.03 14:20:14.
