data_PCOD9443450
_publ_section_title
;
Structure prediction by ZEFSAII (Michael W. Deem and Ramdas Pophale) SiO2 
 PCOD9443450
Probable space group: P N N M
;
_chemical_formula_sum "Si O2"
_cell_formula_units_Z 58
_cell_length_a 19.561706
_cell_length_b 18.451654
_cell_length_c 8.145169
_cell_angle_alpha 90.000000
_cell_angle_beta 90.000000
_cell_angle_gamma 90.000000
_cell_volume 2939.964791
_symmetry_space_group_name_H-M "P N N M"
_symmetry_group_IT_number 58
_symmetry_cell_setting 'orthorhombic'
loop_
_space_group_symop_operation_xyz
x,y,z
-x,-y,z
1/2+x,1/2-y,1/2-z
1/2-x,1/2+y,1/2-z
-x,-y,-z
x,y,-z
1/2-x,1/2+y,1/2+z
1/2+x,1/2-y,1/2+z
loop_
_atom_site_type_symbol
_atom_site_label
_atom_site_fract_x
_atom_site_fract_y
_atom_site_fract_z
Si Si1 0.973796 0.905536 0.185218
Si Si2 0.826932 0.984283 0.188747
Si Si3 0.244715 0.648111 0.195032
Si Si4 0.462437 0.752194 0.185948
Si Si5 0.896529 0.283391 0.192435
Si Si6 0.320106 0.355176 0.806358
Si Si7 0.000000 0.000000 0.500000
Si Si8 0.679251 0.211990 0.308016
O O1 0.898394 0.941180 0.194505
O O2 0.966070 0.819422 0.202200
O O3 0.008541 0.938243 0.349670
O O4 0.002648 0.920670 0.000000
O O5 0.770267 0.932097 0.267104
O O6 0.833835 0.060970 0.276844
O O7 0.809803 0.997934 0.000000
O O8 0.167716 0.667792 0.247953
O O9 0.294877 0.705571 0.281166
O O10 0.249082 0.661453 0.000000
O O11 0.532664 0.794577 0.215068
O O12 0.393626 0.795852 0.223479
O O13 0.458517 0.726193 0.000000
O O14 0.871512 0.200371 0.219458
O O15 0.907506 0.295694 0.000000
O O16 0.243137 0.335855 0.747450
O O17 0.323411 0.338663 0.000000
O O18 0.670247 0.198049 0.500000
#
# Coordination Sequence:
#
# PCOD9443450 Si02
#       8
#     8   8   8   8   8   8   2   8
#     4  11  25  40  55  83 120 162 200 241 285 352
#     4  11  23  37  57  82 114 152 192 238 293 343
#     4  10  20  36  59  83 111 147 192 237 288 349
#     4  12  23  37  58  84 113 155 200 238 288 350
#     4  10  22  38  57  84 116 150 187 241 296 343
#     4  10  22  37  58  84 115 149 189 238 290 350
#     4  12  26  40  56  78 116 164 202 228 296 340
#     4  10  20  37  58  83 112 148 190 240 294 341
#
# _framework density 19.728126
#
# number of rings (size 3 to 8) (size 9 to 14) (size 15 to 20)
#    0.000    1.379    2.069    3.517    3.862    3.310 
#    0.000    0.000    0.000    0.828    0.000    5.793 
#    0.000    0.000    0.000    0.000    0.000    0.000 
#
# Total GULP energy -323583.954666 kJ/mol
# GULP energy per Si atom -5579.033701 kJ/mol
# Density = 1.968322 g / cm^3
# Si number density = 19.728126 Si / 1000 Ang^3
#
#
#
# Elastic Constant Matrix: (Units=GPa)
#
#
# Indices 1 2 3 4 5 6 
#
# 1 124.0341 14.4808 21.2687 0.0000 0.0000 0.0000
# 2 14.4808 32.8824 3.3000 0.0000 0.0000 0.0000
# 3 21.2687 3.3000 83.0854 0.0000 0.0000 0.0000
# 4 0.0000 0.0000 0.0000 21.7600 0.0000 0.0000
# 5 0.0000 0.0000 0.0000 0.0000 21.5824 0.0000
# 6 0.0000 0.0000 0.0000 0.0000 0.0000 17.9141
#
#
#
# Elastic Compliance Matrix: (Units=1/GPa)
#
#
# Indices 1 2 3 4 5 6 
#
# 1 0.008856 -0.003687 -0.002121 0.000000 0.000000 0.000000
# 2 -0.003687 0.032068 -0.000330 0.000000 0.000000 0.000000
# 3 -0.002121 -0.000330 0.012592 0.000000 0.000000 0.000000
# 4 0.000000 0.000000 0.000000 0.045956 0.000000 0.000000
# 5 0.000000 0.000000 0.000000 0.000000 0.046334 0.000000
# 6 0.000000 0.000000 0.000000 0.000000 0.000000 0.055822
#
#
# Mechanical properties :
#
#
# Convention : Reuss Voigt Hill
#
# Bulk Modulus (GPa) = 24.24779 35.34453 29.79616
# Shear Modulus (GPa) = 21.96345 25.64813 23.80579
#
# Velocity S-wave (km/s) = 3.34024 3.60957 3.47752
# Velocity P-wave (km/s) = 5.21478 5.94363 5.59110
#
# Compressibility (1/GPa) = 0.04124087
#
# Stress axis : x y z
#
# Youngs Moduli (GPa) = 112.91223 31.18344 79.41697
#
# Poissons Ratio (x) = 0.11498 0.16842
# Poissons Ratio (y) = 0.41635 0.02619
# Poissons Ratio (z) = 0.23945 0.01028
#
# Static dielectric constant tensor:
#      x y z
#    x 1.733220 0.000000 0.000000 
#    y 0.000000 1.683220 0.000000 
#    z 0.000000 0.000000 1.711200 
# 
# From -- ./inp_files/8064.got.cif
#   From: 2010.05.17/outbox.cif.g08.bks.cpg/sg58_5_cif.got.tgz:8064.got - 2010.06.03 14:20:14.
