data_PCOD9443928
_publ_section_title
;
Structure prediction by ZEFSAII (Michael W. Deem and Ramdas Pophale) SiO2 
 PCOD9443928
Probable space group: P N N M
;
_chemical_formula_sum "Si O2"
_cell_formula_units_Z 64
_cell_length_a 8.318591
_cell_length_b 23.036385
_cell_length_c 16.687585
_cell_angle_alpha 90.000000
_cell_angle_beta 90.000000
_cell_angle_gamma 90.000000
_cell_volume 3197.846335
_symmetry_space_group_name_H-M "P N N M"
_symmetry_group_IT_number 58
_symmetry_cell_setting 'orthorhombic'
loop_
_space_group_symop_operation_xyz
x,y,z
-x,-y,z
1/2+x,1/2-y,1/2-z
1/2-x,1/2+y,1/2-z
-x,-y,-z
x,y,-z
1/2-x,1/2+y,1/2+z
1/2+x,1/2-y,1/2+z
loop_
_atom_site_type_symbol
_atom_site_label
_atom_site_fract_x
_atom_site_fract_y
_atom_site_fract_z
Si Si1 0.155538 0.423137 0.844682
Si Si2 0.819910 0.491721 0.299577
Si Si3 0.654266 0.172111 0.204249
Si Si4 0.664257 0.874999 0.410026
Si Si5 0.388172 0.617999 0.301042
Si Si6 0.175849 0.712451 0.239441
Si Si7 0.670602 0.587407 0.406201
Si Si8 0.998352 0.069379 0.365080
O O1 0.178024 0.480804 0.789793
O O2 0.150818 0.372836 0.777672
O O3 0.319212 0.414631 0.895079
O O4 0.987074 0.417340 0.890732
O O5 0.764410 0.425502 0.299640
O O6 0.703810 0.528774 0.356155
O O7 0.000000 0.500000 0.330439
O O8 0.785655 0.221491 0.220017
O O9 0.481801 0.202980 0.206906
O O10 0.701540 0.134536 0.127024
O O11 0.644312 0.852402 0.500000
O O12 0.661687 0.824608 0.342938
O O13 0.838705 0.906145 0.404230
O O14 0.323804 0.682009 0.285550
O O15 0.496403 0.610185 0.378681
O O16 0.491229 0.594659 0.225473
O O17 0.682616 0.578174 0.500000
O O18 0.000000 0.000000 0.365545
#
# Coordination Sequence:
#
# PCOD9443928 Si02
#       8
#     8   8   8   8   8   8   8   8
#     4  10  21  36  62  87 115 157 199 245 290 351
#     4  11  20  35  60  86 119 157 203 243 292 348
#     4  10  20  39  61  90 111 147 201 248 291 347
#     4  10  24  40  55  87 123 153 192 241 301 357
#     4  11  19  36  59  88 115 155 201 245 285 355
#     4  10  22  38  67  85 111 150 201 248 294 352
#     4  11  23  37  57  89 125 159 194 240 303 360
#     4  11  19  35  62  85 113 157 202 238 284 344
#
# _framework density 20.013469000000001
#
# number of rings (size 3 to 8) (size 9 to 14) (size 15 to 20)
#    0.000    1.500    3.750    4.125    1.750    2.500 
#    0.000    2.500    0.000    0.750    0.000    0.000 
#    0.000    0.000    0.000    0.000    0.000    0.000 
#
# Total GULP energy -357357.326399 kJ/mol
# GULP energy per Si atom -5583.708225 kJ/mol
# Density = 1.996792 g / cm^3
# Si number density = 20.013469 Si / 1000 Ang^3
#
#
#
# Elastic Constant Matrix: (Units=GPa)
#
#
# Indices 1 2 3 4 5 6 
#
# 1 109.9771 -9.0526 22.0761 0.0000 0.0000 0.0000
# 2 -9.0526 35.4178 -2.8152 0.0000 0.0000 0.0000
# 3 22.0761 -2.8152 61.7223 0.0000 0.0000 0.0000
# 4 0.0000 0.0000 0.0000 -6.9480 0.0000 0.0000
# 5 0.0000 0.0000 0.0000 0.0000 13.8952 0.0000
# 6 0.0000 0.0000 0.0000 0.0000 0.0000 29.4848
#
#
#
# Elastic Compliance Matrix: (Units=1/GPa)
#
#
# Indices 1 2 3 4 5 6 
#
# 1 0.009975 0.002274 -0.003464 0.000000 0.000000 0.000000
# 2 0.002274 0.028856 0.000503 0.000000 0.000000 0.000000
# 3 -0.003464 0.000503 0.017464 0.000000 0.000000 0.000000
# 4 0.000000 0.000000 0.000000 -0.143926 0.000000 0.000000
# 5 0.000000 0.000000 0.000000 0.000000 0.071967 0.000000
# 6 0.000000 0.000000 0.000000 0.000000 0.000000 0.033916
#
#
# Mechanical properties :
#
#
# Convention : Reuss Voigt Hill
#
# Bulk Modulus (GPa) = 18.20823 25.28155 21.74489
# Shear Modulus (GPa) = 131.81424 20.41366 76.11395
#
# Velocity S-wave (km/s) = 8.12439 3.19720 6.17365
# Velocity P-wave (km/s) = 9.85522 5.12730 7.85540
#
# Compressibility (1/GPa) = 0.05492021
#
# Stress axis : x y z
#
# Youngs Moduli (GPa) = 100.24686 34.65527 57.26212
#
# Poissons Ratio (x) = -0.07882 0.19836
# Poissons Ratio (y) = -0.22799 -0.02878
# Poissons Ratio (z) = 0.34727 -0.01742
#
# Static dielectric constant tensor:
#      x y z
#    x 1.799080 0.000000 0.000000 
#    y 0.000000 1.692530 0.000000 
#    z 0.000000 0.000000 1.667060 
# 
# From -- ./inp_files/25703.got.cif
#   From: 2010.05.17/outbox.cif.g08.bks.cpg/sg58_13_cif.got.tgz:25703.got - 2010.06.03 14:20:14.
