data_PCOD9443613
_publ_section_title
;
Structure prediction by ZEFSAII (Michael W. Deem and Ramdas Pophale) SiO2 
 PCOD9443613
Probable space group: P N N M
;
_chemical_formula_sum "Si O2"
_cell_formula_units_Z 64
_cell_length_a 9.283157
_cell_length_b 14.639204
_cell_length_c 25.188189
_cell_angle_alpha 90.000000
_cell_angle_beta 90.000000
_cell_angle_gamma 90.000000
_cell_volume 3423.025241
_symmetry_space_group_name_H-M "P N N M"
_symmetry_group_IT_number 58
_symmetry_cell_setting 'orthorhombic'
loop_
_space_group_symop_operation_xyz
x,y,z
-x,-y,z
1/2+x,1/2-y,1/2-z
1/2-x,1/2+y,1/2-z
-x,-y,-z
x,y,-z
1/2-x,1/2+y,1/2+z
1/2+x,1/2-y,1/2+z
loop_
_atom_site_type_symbol
_atom_site_label
_atom_site_fract_x
_atom_site_fract_y
_atom_site_fract_z
Si Si1 0.414293 0.909394 0.221844
Si Si2 0.394645 0.584601 0.559309
Si Si3 0.071232 0.906169 0.773835
Si Si4 0.846854 0.546450 0.560082
Si Si5 0.409345 0.911181 0.347528
Si Si6 0.065722 0.902846 0.647996
Si Si7 0.050378 0.771528 0.865005
Si Si8 0.110687 0.274490 0.631574
O O1 0.241852 0.919110 0.217545
O O2 0.441135 0.898153 0.284427
O O3 0.449481 0.823367 0.184903
O O4 0.500000 0.000000 0.204126
O O5 0.500000 0.500000 0.553723
O O6 0.355132 0.619446 0.500000
O O7 0.256339 0.532562 0.584520
O O8 0.485372 0.657938 0.592287
O O9 0.037906 0.893781 0.711657
O O10 0.020061 0.821378 0.808865
O O11 0.000000 0.000000 0.792600
O O12 0.791809 0.565052 0.500000
O O13 0.872554 0.641289 0.590308
O O14 0.000000 0.500000 0.556324
O O15 0.238188 0.912763 0.356793
O O16 0.469164 0.821673 0.374598
O O17 0.500000 0.000000 0.363924
O O18 0.989316 0.814211 0.621535
O O19 0.000000 0.000000 0.630520
O O20 0.220685 0.748536 0.863171
#
# Coordination Sequence:
#
# PCOD9443613 Si02
#       8
#     8   8   8   8   8   8   8   8
#     4   9  19  33  50  76 109 144 180 225 269 320
#     4  10  20  37  58  83 115 145 175 217 273 330
#     4   9  19  32  50  76 109 144 181 223 269 319
#     4  10  22  38  57  84 117 145 174 219 274 332
#     4  10  21  37  54  75 106 144 188 230 273 317
#     4  10  21  37  53  74 107 146 185 231 273 316
#     4  11  21  32  55  81 108 145 185 223 267 329
#     4  11  21  33  54  81 110 144 185 221 271 327
#
# _framework density 18.696912000000001
#
# number of rings (size 3 to 8) (size 9 to 14) (size 15 to 20)
#    0.000    2.000    1.250    2.250    3.500    2.000 
#    0.000    0.000    0.000    0.750    0.000    0.000 
#    0.000    0.000    0.000    0.000    0.000    0.000 
#
# Total GULP energy -356545.261657 kJ/mol
# GULP energy per Si atom -5571.019713 kJ/mol
# Density = 1.865436 g / cm^3
# Si number density = 18.696912 Si / 1000 Ang^3
#
#
#
# Elastic Constant Matrix: (Units=GPa)
#
#
# Indices 1 2 3 4 5 6 
#
# 1 69.1968 51.0376 11.5257 0.0000 0.0000 0.0000
# 2 51.0376 129.7345 19.2180 0.0000 0.0000 0.0000
# 3 11.5257 19.2180 24.9951 0.0000 0.0000 0.0000
# 4 0.0000 0.0000 0.0000 -29.1393 0.0000 0.0000
# 5 0.0000 0.0000 0.0000 0.0000 17.7247 0.0000
# 6 0.0000 0.0000 0.0000 0.0000 0.0000 39.8252
#
#
#
# Elastic Compliance Matrix: (Units=1/GPa)
#
#
# Indices 1 2 3 4 5 6 
#
# 1 0.020657 -0.007579 -0.003698 0.000000 0.000000 0.000000
# 2 -0.007579 0.011479 -0.005331 0.000000 0.000000 0.000000
# 3 -0.003698 -0.005331 0.045812 0.000000 0.000000 0.000000
# 4 0.000000 0.000000 0.000000 -0.034318 0.000000 0.000000
# 5 0.000000 0.000000 0.000000 0.000000 0.056418 0.000000
# 6 0.000000 0.000000 0.000000 0.000000 0.000000 0.025110
#
#
# Mechanical properties :
#
#
# Convention : Reuss Voigt Hill
#
# Bulk Modulus (GPa) = 22.35540 43.05434 32.70487
# Shear Modulus (GPa) = 28.85386 15.15847 22.00617
#
# Velocity S-wave (km/s) = 3.93267 2.85045 3.43446
# Velocity P-wave (km/s) = 5.70998 5.82331 5.76693
#
# Compressibility (1/GPa) = 0.04473191
#
# Stress axis : x y z
#
# Youngs Moduli (GPa) = 48.40870 87.11338 21.82817
#
# Poissons Ratio (x) = 0.66021 0.08073
# Poissons Ratio (y) = 0.36688 0.11637
# Poissons Ratio (z) = 0.17904 0.46443
#
# Static dielectric constant tensor:
#      x y z
#    x 1.652320 0.000000 0.000000 
#    y 0.000000 1.654660 0.000000 
#    z 0.000000 0.000000 1.693770 
# 
# From -- ./inp_files/34786.got.cif
#   From: 2010.05.17/outbox.cif.g08.bks.cpg/sg58_18_cif.got.tgz:34786.got - 2010.06.03 14:20:14.
