data_PCOD9443458
_publ_section_title
;
Structure prediction by ZEFSAII (Michael W. Deem and Ramdas Pophale) SiO2 
 PCOD9443458
Probable space group: P N N M
;
_chemical_formula_sum "Si O2"
_cell_formula_units_Z 64
_cell_length_a 20.400198
_cell_length_b 19.117403
_cell_length_c 8.664177
_cell_angle_alpha 90.000000
_cell_angle_beta 90.000000
_cell_angle_gamma 90.000000
_cell_volume 3379.018689
_symmetry_space_group_name_H-M "P N N M"
_symmetry_group_IT_number 58
_symmetry_cell_setting 'orthorhombic'
loop_
_space_group_symop_operation_xyz
x,y,z
-x,-y,z
1/2+x,1/2-y,1/2-z
1/2-x,1/2+y,1/2-z
-x,-y,-z
x,y,-z
1/2-x,1/2+y,1/2+z
1/2+x,1/2-y,1/2+z
loop_
_atom_site_type_symbol
_atom_site_label
_atom_site_fract_x
_atom_site_fract_y
_atom_site_fract_z
Si Si1 0.563989 0.542164 0.312003
Si Si2 0.351819 0.704898 0.185939
Si Si3 0.092847 0.800762 0.813681
Si Si4 0.756876 0.179611 0.814047
Si Si5 0.553511 0.057179 0.686641
Si Si6 0.814911 0.945667 0.184595
Si Si7 0.702701 0.034376 0.684477
Si Si8 0.020224 0.290251 0.684688
O O1 0.500000 0.500000 0.259357
O O2 0.563354 0.542233 0.500000
O O3 0.566059 0.622885 0.263920
O O4 0.629508 0.501333 0.264063
O O5 0.295648 0.761028 0.226870
O O6 0.336278 0.630503 0.259437
O O7 0.421532 0.737351 0.234440
O O8 0.351948 0.697627 0.000000
O O9 0.169426 0.798746 0.770734
O O10 0.048238 0.740671 0.742828
O O11 0.088775 0.796677 0.000000
O O12 0.735912 0.106446 0.740133
O O13 0.755840 0.170306 0.000000
O O14 0.553013 0.060364 0.500000
O O15 0.626938 0.035906 0.735837
O O16 0.535752 0.133397 0.749775
O O17 0.500000 0.000000 0.735616
O O18 0.745525 0.971011 0.249700
O O19 0.812607 0.947112 0.000000
O O20 0.704010 0.031198 0.500000
O O21 0.021116 0.293509 0.500000
#
# Coordination Sequence:
#
# PCOD9443458 Si02
#       8
#     8   8   8   8   8   8   8   8
#     4   9  17  31  53  81 111 149 196 239 279 338
#     4  10  22  39  59  86 120 158 200 247 304 359
#     4  10  20  36  59  84 117 159 200 240 289 359
#     4  10  20  39  63  84 115 162 205 242 297 367
#     4  10  23  43  66  90 118 160 211 253 301 369
#     4  11  22  37  60  88 120 156 201 248 297 362
#     4  11  22  38  63  90 120 155 199 257 309 359
#     4  11  23  39  61  90 126 161 198 254 311 358
#
# _framework density 18.940411000000001
#
# number of rings (size 3 to 8) (size 9 to 14) (size 15 to 20)
#    0.000    1.750    2.500    1.875    0.000    4.750 
#    0.000    5.000    0.000    2.625    0.000    0.000 
#    0.000    0.000    0.000    0.000    0.000    0.000 
#
# Total GULP energy -357591.271369 kJ/mol
# GULP energy per Si atom -5587.363615 kJ/mol
# Density = 1.889730 g / cm^3
# Si number density = 18.940411 Si / 1000 Ang^3
#
#
#
# Elastic Constant Matrix: (Units=GPa)
#
#
# Indices 1 2 3 4 5 6 
#
# 1 155.7786 57.2326 32.1164 0.0000 0.0000 0.0000
# 2 57.2326 104.8831 27.0195 0.0000 0.0000 0.0000
# 3 32.1164 27.0195 17.3339 0.0000 0.0000 0.0000
# 4 0.0000 0.0000 0.0000 32.6648 0.0000 0.0000
# 5 0.0000 0.0000 0.0000 0.0000 12.4661 0.0000
# 6 0.0000 0.0000 0.0000 0.0000 0.0000 40.6021
#
#
#
# Elastic Compliance Matrix: (Units=1/GPa)
#
#
# Indices 1 2 3 4 5 6 
#
# 1 0.010476 -0.001197 -0.017545 0.000000 0.000000 0.000000
# 2 -0.001197 0.016069 -0.022830 0.000000 0.000000 0.000000
# 3 -0.017545 -0.022830 0.125785 0.000000 0.000000 0.000000
# 4 0.000000 0.000000 0.000000 0.030614 0.000000 0.000000
# 5 0.000000 0.000000 0.000000 0.000000 0.080218 0.000000
# 6 0.000000 0.000000 0.000000 0.000000 0.000000 0.024629
#
#
# Mechanical properties :
#
#
# Convention : Reuss Voigt Hill
#
# Bulk Modulus (GPa) = 14.45374 56.74805 35.60089
# Shear Modulus (GPa) = 12.69043 27.92172 20.30608
#
# Velocity S-wave (km/s) = 2.59128 3.84368 3.27785
# Velocity P-wave (km/s) = 4.07440 7.05159 5.75872
#
# Compressibility (1/GPa) = 0.06918626
#
# Stress axis : x y z
#
# Youngs Moduli (GPa) = 95.45371 62.23187 7.95006
#
# Poissons Ratio (x) = 0.07448 0.13948
# Poissons Ratio (y) = 0.11424 0.18150
# Poissons Ratio (z) = 1.67473 1.42077
#
# Static dielectric constant tensor:
#      x y z
#    x 1.658040 0.000000 0.000000 
#    y 0.000000 1.619870 0.000000 
#    z 0.000000 0.000000 1.640510 
# 
# From -- ./inp_files/8319.got.cif
#   From: 2010.05.17/outbox.cif.g08.bks.cpg/sg58_5_cif.got.tgz:8319.got - 2010.06.03 14:20:14.
