data_PCOD9443775
_publ_section_title
;
Structure prediction by ZEFSAII (Michael W. Deem and Ramdas Pophale) SiO2 
 PCOD9443775
Probable space group: P N N M
;
_chemical_formula_sum "Si O2"
_cell_formula_units_Z 56
_cell_length_a 21.544254
_cell_length_b 14.960757
_cell_length_c 7.706197
_cell_angle_alpha 90.000000
_cell_angle_beta 90.000000
_cell_angle_gamma 90.000000
_cell_volume 2483.848693
_symmetry_space_group_name_H-M "P N N M"
_symmetry_group_IT_number 58
_symmetry_cell_setting 'orthorhombic'
loop_
_space_group_symop_operation_xyz
x,y,z
-x,-y,z
1/2+x,1/2-y,1/2-z
1/2-x,1/2+y,1/2-z
-x,-y,-z
x,y,-z
1/2-x,1/2+y,1/2+z
1/2+x,1/2-y,1/2+z
loop_
_atom_site_type_symbol
_atom_site_label
_atom_site_fract_x
_atom_site_fract_y
_atom_site_fract_z
Si Si1 0.826692 0.623158 0.801742
Si Si2 0.739053 0.468838 0.702085
Si Si3 0.597041 0.473943 0.789630
Si Si4 0.262293 0.228482 0.794051
Si Si5 0.395527 0.206352 0.296423
Si Si6 0.428422 0.009333 0.286981
Si Si7 0.512709 0.643470 0.208654
O O1 0.774264 0.546345 0.801978
O O2 0.790654 0.706878 0.719452
O O3 0.886502 0.573490 0.724438
O O4 0.843385 0.646985 0.000000
O O5 0.757757 0.475554 0.500000
O O6 0.665332 0.476199 0.715153
O O7 0.757099 0.371876 0.774403
O O8 0.555624 0.388346 0.734365
O O9 0.558811 0.562665 0.739482
O O10 0.601117 0.473108 0.000000
O O11 0.334089 0.256024 0.773077
O O12 0.250955 0.224184 0.000000
O O13 0.385708 0.198572 0.500000
O O14 0.402880 0.105612 0.225741
O O15 0.457350 0.264216 0.267673
O O16 0.425367 0.009542 0.500000
O O17 0.500000 0.000000 0.238343
O O18 0.511748 0.644971 0.000000
#
# Coordination Sequence:
#
# PCOD9443775 Si02
#       7
#     8   8   8   8   8   8   8
#     4  10  20  38  60  80 108 152 195 229 279 349
#     4  11  22  35  54  84 116 142 177 238 291 324
#     4   9  19  36  56  78 108 150 191 223 269 339
#     4  10  22  37  56  80 111 152 190 229 284 347
#     4  11  21  34  57  86 111 143 188 241 287 335
#     4   9  19  36  58  82 108 143 190 238 278 332
#     4   9  19  36  56  78 109 149 187 224 273 340
#
# _framework density 22.545656000000001
#
# number of rings (size 3 to 8) (size 9 to 14) (size 15 to 20)
#    0.000    2.143    1.429    2.571    0.000    6.857 
#    0.000    4.286    0.000    3.857    0.000    0.000 
#    0.000    0.000    0.000    0.000    0.000    0.000 
#
# Total GULP energy -312759.486510 kJ/mol
# GULP energy per Si atom -5584.990831 kJ/mol
# Density = 2.249434 g / cm^3
# Si number density = 22.545656 Si / 1000 Ang^3
#
#
#
# Elastic Constant Matrix: (Units=GPa)
#
#
# Indices 1 2 3 4 5 6 
#
# 1 100.6371 -10.4027 -6.7285 0.0000 0.0000 0.0000
# 2 -10.4027 37.9913 -0.6109 0.0000 0.0000 0.0000
# 3 -6.7285 -0.6109 42.9608 0.0000 0.0000 0.0000
# 4 0.0000 0.0000 0.0000 12.8486 0.0000 0.0000
# 5 0.0000 0.0000 0.0000 0.0000 11.1343 0.0000
# 6 0.0000 0.0000 0.0000 0.0000 0.0000 36.3758
#
#
#
# Elastic Compliance Matrix: (Units=1/GPa)
#
#
# Indices 1 2 3 4 5 6 
#
# 1 0.010343 0.002859 0.001661 0.000000 0.000000 0.000000
# 2 0.002859 0.027118 0.000833 0.000000 0.000000 0.000000
# 3 0.001661 0.000833 0.023549 0.000000 0.000000 0.000000
# 4 0.000000 0.000000 0.000000 0.077829 0.000000 0.000000
# 5 0.000000 0.000000 0.000000 0.000000 0.089812 0.000000
# 6 0.000000 0.000000 0.000000 0.000000 0.000000 0.027491
#
#
# Mechanical properties :
#
#
# Convention : Reuss Voigt Hill
#
# Bulk Modulus (GPa) = 13.94390 16.23388 15.08889
# Shear Modulus (GPa) = 18.56373 25.36051 21.96212
#
# Velocity S-wave (km/s) = 2.87258 3.35752 3.12447
# Velocity P-wave (km/s) = 4.14734 4.71664 4.44112
#
# Compressibility (1/GPa) = 0.07171593
#
# Stress axis : x y z
#
# Youngs Moduli (GPa) = 96.68153 36.87584 42.46474
#
# Poissons Ratio (x) = -0.10542 -0.07052
# Poissons Ratio (y) = -0.27640 -0.03539
# Poissons Ratio (z) = -0.16055 -0.03073
#
# Static dielectric constant tensor:
#      x y z
#    x 1.826950 0.000000 0.000000 
#    y 0.000000 1.848920 0.000000 
#    z 0.000000 0.000000 1.851270 
# 
# From -- ./inp_files/6420.got.cif
#   From: 2010.05.17/outbox.cif.g08.bks.cpg/sg58_4_cif.got.tgz:6420.got - 2010.06.03 14:20:14.
