data_PCOD9443357
_publ_section_title
;
Structure prediction by ZEFSAII (Michael W. Deem and Ramdas Pophale) SiO2 
 PCOD9443357
Probable space group: P N N M
;
_chemical_formula_sum "Si O2"
_cell_formula_units_Z 40
_cell_length_a 7.881305
_cell_length_b 8.003626
_cell_length_c 27.421193
_cell_angle_alpha 90.000000
_cell_angle_beta 90.000000
_cell_angle_gamma 90.000000
_cell_volume 1729.701916
_symmetry_space_group_name_H-M "P N N M"
_symmetry_group_IT_number 58
_symmetry_cell_setting 'orthorhombic'
loop_
_space_group_symop_operation_xyz
x,y,z
-x,-y,z
1/2+x,1/2-y,1/2-z
1/2-x,1/2+y,1/2-z
-x,-y,-z
x,y,-z
1/2-x,1/2+y,1/2+z
1/2+x,1/2-y,1/2+z
loop_
_atom_site_type_symbol
_atom_site_label
_atom_site_fract_x
_atom_site_fract_y
_atom_site_fract_z
Si Si1 0.326557 0.908997 0.273108
Si Si2 0.708719 0.192599 0.945519
Si Si3 0.818216 0.345619 0.586761
Si Si4 0.323613 0.548107 0.682244
Si Si5 0.294775 0.507489 0.121647
O O1 0.348201 0.719892 0.289048
O O2 0.254878 0.998262 0.321740
O O3 0.500000 0.000000 0.260238
O O4 0.217339 0.916870 0.224209
O O5 0.504295 0.180604 0.936064
O O6 0.768516 0.325636 0.905176
O O7 0.767898 0.000335 0.940983
O O8 0.739728 0.255539 0.000000
O O9 0.819117 0.418046 0.642058
O O10 0.736359 0.162519 0.593825
O O11 0.500000 0.500000 0.657133
O O12 0.500000 0.500000 0.119593
#
# Coordination Sequence:
#
# PCOD9443357 Si02
#       5
#     8   8   8   8   8
#     4  11  24  38  61  88 123 164 204 251 305 374
#     4  10  20  35  64  92 119 158 207 261 308 359
#     4   9  20  35  56  87 122 152 199 252 305 360
#     4  11  24  40  59  90 123 166 202 250 311 371
#     4   9  20  37  57  88 121 158 200 254 306 365
#
# _framework density 23.125373
#
# number of rings (size 3 to 8) (size 9 to 14) (size 15 to 20)
#    0.000    2.000    0.000    3.000    8.400    6.000 
#    0.000    0.000    0.000    3.000    0.000    0.000 
#    0.000    0.000    0.000    0.000    0.000    0.000 
#
# Total GULP energy -223322.637247 kJ/mol
# GULP energy per Si atom -5583.065931 kJ/mol
# Density = 2.307274 g / cm^3
# Si number density = 23.125373 Si / 1000 Ang^3
#
#
#
# Elastic Constant Matrix: (Units=GPa)
#
#
# Indices 1 2 3 4 5 6 
#
# 1 42.6678 2.0949 7.2339 0.0000 0.0000 0.0000
# 2 2.0949 85.6230 7.3460 0.0000 0.0000 0.0000
# 3 7.2339 7.3460 63.2625 0.0000 0.0000 0.0000
# 4 0.0000 0.0000 0.0000 33.9312 0.0000 0.0000
# 5 0.0000 0.0000 0.0000 0.0000 11.3281 0.0000
# 6 0.0000 0.0000 0.0000 0.0000 0.0000 14.2879
#
#
#
# Elastic Compliance Matrix: (Units=1/GPa)
#
#
# Indices 1 2 3 4 5 6 
#
# 1 0.023911 -0.000354 -0.002693 0.000000 0.000000 0.000000
# 2 -0.000354 0.011802 -0.001330 0.000000 0.000000 0.000000
# 3 -0.002693 -0.001330 0.016270 0.000000 0.000000 0.000000
# 4 0.000000 0.000000 0.000000 0.029471 0.000000 0.000000
# 5 0.000000 0.000000 0.000000 0.000000 0.088276 0.000000
# 6 0.000000 0.000000 0.000000 0.000000 0.000000 0.069990
#
#
# Mechanical properties :
#
#
# Convention : Reuss Voigt Hill
#
# Bulk Modulus (GPa) = 23.13296 24.98920 24.06108
# Shear Modulus (GPa) = 19.01989 23.56799 21.29394
#
# Velocity S-wave (km/s) = 2.87098 3.19586 3.03777
# Velocity P-wave (km/s) = 4.58422 4.94444 4.76773
#
# Compressibility (1/GPa) = 0.04322836
#
# Stress axis : x y z
#
# Youngs Moduli (GPa) = 41.82201 84.73234 61.46462
#
# Poissons Ratio (x) = 0.02999 0.16553
# Poissons Ratio (y) = 0.01480 0.08174
# Poissons Ratio (z) = 0.11263 0.11269
#
# Static dielectric constant tensor:
#      x y z
#    x 1.831460 0.000000 0.000000 
#    y 0.000000 1.904150 0.000000 
#    z 0.000000 0.000000 1.859090 
# 
# From -- ./inp_files/31273.got.cif
#   From: 2010.05.17/outbox.cif.g08.bks.cpg/sg58_16_cif.got.tgz:31273.got - 2010.06.03 14:20:14.
