data_PCOD9443733
_publ_section_title
;
Structure prediction by ZEFSAII (Michael W. Deem and Ramdas Pophale) SiO2 
 PCOD9443733
Probable space group: P N N M
;
_chemical_formula_sum "Si O2"
_cell_formula_units_Z 56
_cell_length_a 15.371002
_cell_length_b 11.916043
_cell_length_c 13.167391
_cell_angle_alpha 90.000000
_cell_angle_beta 90.000000
_cell_angle_gamma 90.000000
_cell_volume 2411.759360
_symmetry_space_group_name_H-M "P N N M"
_symmetry_group_IT_number 58
_symmetry_cell_setting 'orthorhombic'
loop_
_space_group_symop_operation_xyz
x,y,z
-x,-y,z
1/2+x,1/2-y,1/2-z
1/2-x,1/2+y,1/2-z
-x,-y,-z
x,y,-z
1/2-x,1/2+y,1/2+z
1/2+x,1/2-y,1/2+z
loop_
_atom_site_type_symbol
_atom_site_label
_atom_site_fract_x
_atom_site_fract_y
_atom_site_fract_z
Si Si1 0.733514 0.587125 0.116517
Si Si2 0.906298 0.466042 0.884092
Si Si3 0.799499 0.725822 0.388812
Si Si4 0.650144 0.556155 0.677687
Si Si5 0.004940 0.365750 0.611867
Si Si6 0.027603 0.753612 0.182123
Si Si7 0.829803 0.802934 0.829631
O O1 0.819454 0.520577 0.158127
O O2 0.661409 0.560938 0.199758
O O3 0.761400 0.718081 0.120872
O O4 0.714271 0.556578 0.000000
O O5 0.911461 0.332393 0.878971
O O6 0.000000 0.500000 0.838870
O O7 0.907090 0.506234 0.000000
O O8 0.786640 0.779207 0.500000
O O9 0.725964 0.633860 0.368066
O O10 0.804749 0.803999 0.290116
O O11 0.893335 0.665903 0.389092
O O12 0.560584 0.621814 0.660598
O O13 0.662201 0.431079 0.637484
O O14 0.968092 0.338173 0.500000
O O15 0.963681 0.292228 0.702138
O O16 0.000000 0.500000 0.624454
O O17 0.925588 0.748215 0.156417
#
# Coordination Sequence:
#
# PCOD9443733 Si02
#       7
#     8   8   8   8   8   8   8
#     4  10  23  41  62  89 119 155 201 253 301 347
#     4  10  20  37  63  89 113 151 202 249 293 343
#     4   9  21  40  58  83 115 152 196 239 290 348
#     4  11  25  38  58  90 123 161 195 239 304 365
#     4   9  19  35  60  87 112 148 196 247 294 340
#     4  11  22  37  61  86 122 157 200 243 292 356
#     4  10  22  41  61  85 121 159 198 243 294 354
#
# _framework density 23.219563999999998
#
# number of rings (size 3 to 8) (size 9 to 14) (size 15 to 20)
#    0.000    2.000    1.429    0.857    8.000    2.286 
#    0.000    1.429    0.000    6.857    0.000    0.000 
#    0.000    0.000    0.000    0.000    0.000    0.000 
#
# Total GULP energy -312885.000143 kJ/mol
# GULP energy per Si atom -5587.232145 kJ/mol
# Density = 2.316671 g / cm^3
# Si number density = 23.219564 Si / 1000 Ang^3
#
#
#
# Elastic Constant Matrix: (Units=GPa)
#
#
# Indices 1 2 3 4 5 6 
#
# 1 28.6695 -3.2244 -4.0979 0.0000 0.0000 0.0000
# 2 -3.2244 114.8486 -16.2758 0.0000 0.0000 0.0000
# 3 -4.0979 -16.2758 76.4474 0.0000 0.0000 0.0000
# 4 0.0000 0.0000 0.0000 -2.1161 0.0000 0.0000
# 5 0.0000 0.0000 0.0000 0.0000 12.9412 0.0000
# 6 0.0000 0.0000 0.0000 0.0000 0.0000 29.5965
#
#
#
# Elastic Compliance Matrix: (Units=1/GPa)
#
#
# Indices 1 2 3 4 5 6 
#
# 1 0.035337 0.001300 0.002171 0.000000 0.000000 0.000000
# 2 0.001300 0.009026 0.001991 0.000000 0.000000 0.000000
# 3 0.002171 0.001991 0.013621 0.000000 0.000000 0.000000
# 4 0.000000 0.000000 0.000000 -0.472562 0.000000 0.000000
# 5 0.000000 0.000000 0.000000 0.000000 0.077273 0.000000
# 6 0.000000 0.000000 0.000000 0.000000 0.000000 0.033788
#
#
# Mechanical properties :
#
#
# Convention : Reuss Voigt Hill
#
# Bulk Modulus (GPa) = 14.51216 19.19657 16.85437
# Shear Modulus (GPa) = -17.15427 24.32188 3.58381
#
# Velocity S-wave (km/s) = -2.72101 3.23998 1.24370
# Velocity P-wave (km/s) = 1.89956 4.72038 3.05562
#
# Compressibility (1/GPa) = 0.06890772
#
# Stress axis : x y z
#
# Youngs Moduli (GPa) = 28.29911 110.79345 73.41493
#
# Poissons Ratio (x) = -0.14400 -0.15938
# Poissons Ratio (y) = -0.03678 -0.14619
# Poissons Ratio (z) = -0.06144 -0.22062
#
# Static dielectric constant tensor:
#      x y z
#    x 1.852780 0.000000 0.000000 
#    y 0.000000 1.909770 0.000000 
#    z 0.000000 0.000000 1.902490 
# 
# From -- ./inp_files/22216.got.cif
#   From: 2010.05.17/outbox.cif.g08.bks.cpg/sg58_12_cif.got.tgz:22216.got - 2010.06.03 14:20:14.
