data_PCOD9443550
_publ_section_title
;
Structure prediction by ZEFSAII (Michael W. Deem and Ramdas Pophale) SiO2 
 PCOD9443550
Probable space group: P N N M
;
_chemical_formula_sum "Si O2"
_cell_formula_units_Z 56
_cell_length_a 22.593176
_cell_length_b 8.926132
_cell_length_c 13.457940
_cell_angle_alpha 90.000000
_cell_angle_beta 90.000000
_cell_angle_gamma 90.000000
_cell_volume 2714.058336
_symmetry_space_group_name_H-M "P N N M"
_symmetry_group_IT_number 58
_symmetry_cell_setting 'orthorhombic'
loop_
_space_group_symop_operation_xyz
x,y,z
-x,-y,z
1/2+x,1/2-y,1/2-z
1/2-x,1/2+y,1/2-z
-x,-y,-z
x,y,-z
1/2-x,1/2+y,1/2+z
1/2+x,1/2-y,1/2+z
loop_
_atom_site_type_symbol
_atom_site_label
_atom_site_fract_x
_atom_site_fract_y
_atom_site_fract_z
Si Si1 0.872708 0.353058 0.114056
Si Si2 0.476542 0.337938 0.320096
Si Si3 0.783972 0.228820 0.382663
Si Si4 0.129031 0.204505 0.614055
Si Si5 0.080651 0.867830 0.610534
Si Si6 0.750165 0.907181 0.294485
Si Si7 0.943861 0.592263 0.241631
O O1 0.915781 0.210768 0.127920
O O2 0.806105 0.333811 0.150912
O O3 0.901917 0.480337 0.182287
O O4 0.872751 0.398980 0.000000
O O5 0.500000 0.500000 0.348161
O O6 0.461587 0.334389 0.202098
O O7 0.527359 0.214200 0.332935
O O8 0.769363 0.228257 0.500000
O O9 0.855602 0.213263 0.375853
O O10 0.761123 0.372002 0.321451
O O11 0.757220 0.079694 0.329588
O O12 0.139729 0.246111 0.500000
O O13 0.190319 0.173139 0.669740
O O14 0.091757 0.325720 0.672904
O O15 0.095205 0.044757 0.614353
O O16 0.057511 0.831913 0.500000
O O17 0.000000 0.500000 0.281405
#
# Coordination Sequence:
#
# PCOD9443550 Si02
#       7
#     8   8   8   8   8   8   8
#     4  11  24  43  62  86 121 167 209 256 326 380
#     4  11  21  38  64  90 119 156 214 260 300 373
#     4  10  21  39  64  94 127 163 206 258 321 381
#     4  10  20  36  61  93 126 163 207 257 316 377
#     4   9  18  35  61  89 119 156 194 247 310 365
#     4  11  21  40  69  93 127 169 211 264 321 390
#     4  10  23  39  60  89 128 167 204 260 317 377
#
# _framework density 20.633306999999999
#
# number of rings (size 3 to 8) (size 9 to 14) (size 15 to 20)
#    0.000    1.714    2.857    3.000    0.000    4.000 
#    0.000    6.429    0.000    0.000    0.000    0.000 
#    0.000    0.000    0.000    0.000    0.000    0.000 
#
# Total GULP energy -313012.308511 kJ/mol
# GULP energy per Si atom -5589.505509 kJ/mol
# Density = 2.058635 g / cm^3
# Si number density = 20.633307 Si / 1000 Ang^3
#
#
#
# Elastic Constant Matrix: (Units=GPa)
#
#
# Indices 1 2 3 4 5 6 
#
# 1 58.6163 20.2564 15.7662 0.0000 0.0000 0.0000
# 2 20.2564 51.8016 11.6302 0.0000 0.0000 0.0000
# 3 15.7662 11.6302 99.1285 0.0000 0.0000 0.0000
# 4 0.0000 0.0000 0.0000 22.2372 0.0000 0.0000
# 5 0.0000 0.0000 0.0000 0.0000 5.3428 0.0000
# 6 0.0000 0.0000 0.0000 0.0000 0.0000 10.7703
#
#
#
# Elastic Compliance Matrix: (Units=1/GPa)
#
#
# Indices 1 2 3 4 5 6 
#
# 1 0.020246 -0.007389 -0.002353 0.000000 0.000000 0.000000
# 2 -0.007389 0.022523 -0.001467 0.000000 0.000000 0.000000
# 3 -0.002353 -0.001467 0.010634 0.000000 0.000000 0.000000
# 4 0.000000 0.000000 0.000000 0.044970 0.000000 0.000000
# 5 0.000000 0.000000 0.000000 0.000000 0.187169 0.000000
# 6 0.000000 0.000000 0.000000 0.000000 0.000000 0.092848
#
#
# Mechanical properties :
#
#
# Convention : Reuss Voigt Hill
#
# Bulk Modulus (GPa) = 32.27353 33.87246 33.07300
# Shear Modulus (GPa) = 12.16138 18.46296 15.31217
#
# Velocity S-wave (km/s) = 2.43040 2.99459 2.72712
# Velocity P-wave (km/s) = 4.85296 5.32999 5.09706
#
# Compressibility (1/GPa) = 0.03098514
#
# Stress axis : x y z
#
# Youngs Moduli (GPa) = 49.39137 44.39878 94.03483
#
# Poissons Ratio (x) = 0.32805 0.22129
# Poissons Ratio (y) = 0.36494 0.13798
# Poissons Ratio (z) = 0.11623 0.06515
#
# Static dielectric constant tensor:
#      x y z
#    x 1.732540 0.000000 0.000000 
#    y 0.000000 1.755460 0.000000 
#    z 0.000000 0.000000 1.716560 
# 
# From -- ./inp_files/23258.got.cif
#   From: 2010.05.17/outbox.cif.g08.bks.cpg/sg58_12_cif.got.tgz:23258.got - 2010.06.03 14:20:14.
