data_PCOD9443360
_publ_section_title
;
Structure prediction by ZEFSAII (Michael W. Deem and Ramdas Pophale) SiO2 
 PCOD9443360
Probable space group: P N N M
;
_chemical_formula_sum "Si O2"
_cell_formula_units_Z 44
_cell_length_a 16.342540
_cell_length_b 13.324473
_cell_length_c 7.586785
_cell_angle_alpha 90.000000
_cell_angle_beta 90.000000
_cell_angle_gamma 90.000000
_cell_volume 1652.065929
_symmetry_space_group_name_H-M "P N N M"
_symmetry_group_IT_number 58
_symmetry_cell_setting 'orthorhombic'
loop_
_space_group_symop_operation_xyz
x,y,z
-x,-y,z
1/2+x,1/2-y,1/2-z
1/2-x,1/2+y,1/2-z
-x,-y,-z
x,y,-z
1/2-x,1/2+y,1/2+z
1/2+x,1/2-y,1/2+z
loop_
_atom_site_type_symbol
_atom_site_label
_atom_site_fract_x
_atom_site_fract_y
_atom_site_fract_z
Si Si1 0.288823 0.790945 0.796556
Si Si2 0.901734 0.193950 0.214547
Si Si3 0.962049 0.398353 0.200063
Si Si4 0.710166 0.970626 0.794956
Si Si5 0.103821 0.037251 0.691559
Si Si6 0.104536 0.179578 0.000000
O O1 0.193276 0.776921 0.746116
O O2 0.302402 0.910403 0.795932
O O3 0.349080 0.744314 0.655436
O O4 0.300123 0.757976 0.000000
O O5 0.961264 0.285188 0.275407
O O6 0.910038 0.081781 0.285686
O O7 0.907909 0.192408 0.000000
O O8 0.866139 0.423387 0.197869
O O9 0.000000 0.500000 0.283178
O O10 0.996064 0.390548 0.000000
O O11 0.797682 0.950448 0.711181
O O12 0.714849 0.936990 0.000000
O O13 0.076734 0.069469 0.500000
O O14 0.069338 0.102825 0.847981
#
# Coordination Sequence:
#
# PCOD9443360 Si02
#       6
#     8   8   8   8   8   4
#     4   9  20  33  52  81 111 148 187 233 283 338
#     4   9  18  35  51  77 114 149 193 230 274 345
#     4  10  21  35  57  86 117 157 196 231 280 342
#     4  10  20  36  53  78 112 149 195 231 277 346
#     4  11  21  33  54  82 112 149 187 234 289 339
#     4  12  20  32  52  80 108 142 180 222 292 336
#
# _framework density 26.633320999999999
#
# number of rings (size 3 to 8) (size 9 to 14) (size 15 to 20)
#    0.000    2.000    1.818    3.273    6.364    2.545 
#    0.000    0.000    0.000    0.000    0.000    2.545 
#    0.000    4.364    0.000    0.000    0.000    0.000 
#
# Total GULP energy -245539.087103 kJ/mol
# GULP energy per Si atom -5580.433798 kJ/mol
# Density = 2.657270 g / cm^3
# Si number density = 26.633321 Si / 1000 Ang^3
#
#
#
# Elastic Constant Matrix: (Units=GPa)
#
#
# Indices 1 2 3 4 5 6 
#
# 1 107.2179 14.5517 32.4984 0.0000 0.0000 0.0000
# 2 14.5517 79.8899 17.0060 0.0000 0.0000 0.0000
# 3 32.4984 17.0060 154.7162 0.0000 0.0000 0.0000
# 4 0.0000 0.0000 0.0000 36.5227 0.0000 0.0000
# 5 0.0000 0.0000 0.0000 0.0000 11.7151 0.0000
# 6 0.0000 0.0000 0.0000 0.0000 0.0000 42.0990
#
#
#
# Elastic Compliance Matrix: (Units=1/GPa)
#
#
# Indices 1 2 3 4 5 6 
#
# 1 0.010117 -0.001424 -0.001969 0.000000 0.000000 0.000000
# 2 -0.001424 0.013017 -0.001132 0.000000 0.000000 0.000000
# 3 -0.001969 -0.001132 0.007001 0.000000 0.000000 0.000000
# 4 0.000000 0.000000 0.000000 0.027380 0.000000 0.000000
# 5 0.000000 0.000000 0.000000 0.000000 0.085360 0.000000
# 6 0.000000 0.000000 0.000000 0.000000 0.000000 0.023754
#
#
# Mechanical properties :
#
#
# Convention : Reuss Voigt Hill
#
# Bulk Modulus (GPa) = 47.42154 52.21513 49.81833
# Shear Modulus (GPa) = 27.36631 36.58522 31.97576
#
# Velocity S-wave (km/s) = 3.20897 3.71032 3.46872
# Velocity P-wave (km/s) = 5.61908 6.16466 5.89818
#
# Compressibility (1/GPa) = 0.02108747
#
# Stress axis : x y z
#
# Youngs Moduli (GPa) = 98.84642 76.81986 142.82971
#
# Poissons Ratio (x) = 0.10937 0.28117
# Poissons Ratio (y) = 0.14073 0.16165
# Poissons Ratio (z) = 0.19458 0.08694
#
# Static dielectric constant tensor:
#      x y z
#    x 2.169010 0.000000 0.000000 
#    y 0.000000 2.151130 0.000000 
#    z 0.000000 0.000000 2.168770 
# 
# From -- ./inp_files/7654.got.cif
#   From: 2010.05.17/outbox.cif.g08.bks.cpg/sg58_4_cif.got.tgz:7654.got - 2010.06.03 14:20:14.
