data_PCOD9443188
_publ_section_title
;
Structure prediction by ZEFSAII (Michael W. Deem and Ramdas Pophale) SiO2 
 PCOD9443188
Probable space group: P N N M
;
_chemical_formula_sum "Si O2"
_cell_formula_units_Z 48
_cell_length_a 31.520331
_cell_length_b 9.405569
_cell_length_c 9.125452
_cell_angle_alpha 90.000000
_cell_angle_beta 90.000000
_cell_angle_gamma 90.000000
_cell_volume 2705.392167
_symmetry_space_group_name_H-M "P N N M"
_symmetry_group_IT_number 58
_symmetry_cell_setting 'orthorhombic'
loop_
_space_group_symop_operation_xyz
x,y,z
-x,-y,z
1/2+x,1/2-y,1/2-z
1/2-x,1/2+y,1/2-z
-x,-y,-z
x,y,-z
1/2-x,1/2+y,1/2+z
1/2+x,1/2-y,1/2+z
loop_
_atom_site_type_symbol
_atom_site_label
_atom_site_fract_x
_atom_site_fract_y
_atom_site_fract_z
Si Si1 0.040056 0.096888 0.176115
Si Si2 0.619505 0.899266 0.176347
Si Si3 0.709183 0.573459 0.171513
Si Si4 0.459706 0.903364 0.176143
Si Si5 0.215452 0.587141 0.671511
Si Si6 0.621287 0.593687 0.675499
O O1 0.038483 0.250292 0.249835
O O2 0.083186 0.012999 0.212950
O O3 0.038421 0.113689 0.000000
O O4 0.000000 0.000000 0.220248
O O5 0.667034 0.951908 0.212619
O O6 0.612536 0.748729 0.255315
O O7 0.583137 0.011219 0.214376
O O8 0.618697 0.875139 0.000000
O O9 0.748977 0.488160 0.233427
O O10 0.717649 0.742263 0.187096
O O11 0.666095 0.542208 0.259519
O O12 0.702597 0.543899 0.000000
O O13 0.500000 0.000000 0.218165
O O14 0.460630 0.886269 0.000000
O O15 0.221876 0.551928 0.500000
O O16 0.623939 0.605897 0.500000
#
# Coordination Sequence:
#
# PCOD9443188 Si02
#       6
#     8   8   8   8   8   8
#     4  10  22  38  55  79 110 142 178 219 262 312
#     4   9  19  36  55  78 109 141 176 220 266 313
#     4  10  21  36  55  79 107 140 177 219 268 317
#     4  10  21  36  56  83 111 140 177 219 263 314
#     4   9  19  35  53  76 107 140 177 220 262 312
#     4  10  20  35  56  80 106 139 179 220 263 314
#
# _framework density 17.742343999999999
#
# number of rings (size 3 to 8) (size 9 to 14) (size 15 to 20)
#    0.000    2.333    0.000    3.000    0.000    7.333 
#    0.000    3.333    0.000    0.000    0.000    0.000 
#    0.000    0.000    0.000    0.000    0.000    0.000 
#
# Total GULP energy -267962.580433 kJ/mol
# GULP energy per Si atom -5582.553759 kJ/mol
# Density = 1.770196 g / cm^3
# Si number density = 17.742344 Si / 1000 Ang^3
#
#
#
# Elastic Constant Matrix: (Units=GPa)
#
#
# Indices 1 2 3 4 5 6 
#
# 1 178.2413 106.8893 70.6005 0.0000 0.0000 0.0000
# 2 106.8893 113.2725 56.8773 0.0000 0.0000 0.0000
# 3 70.6005 56.8773 49.6631 0.0000 0.0000 0.0000
# 4 0.0000 0.0000 0.0000 37.7189 0.0000 0.0000
# 5 0.0000 0.0000 0.0000 0.0000 30.0509 0.0000
# 6 0.0000 0.0000 0.0000 0.0000 0.0000 33.7645
#
#
#
# Elastic Compliance Matrix: (Units=1/GPa)
#
#
# Indices 1 2 3 4 5 6 
#
# 1 0.015675 -0.008478 -0.012574 0.000000 0.000000 0.000000
# 2 -0.008478 0.025361 -0.016993 0.000000 0.000000 0.000000
# 3 -0.012574 -0.016993 0.057472 0.000000 0.000000 0.000000
# 4 0.000000 0.000000 0.000000 0.026512 0.000000 0.000000
# 5 0.000000 0.000000 0.000000 0.000000 0.033277 0.000000
# 6 0.000000 0.000000 0.000000 0.000000 0.000000 0.029617
#
#
# Mechanical properties :
#
#
# Convention : Reuss Voigt Hill
#
# Bulk Modulus (GPa) = 44.60607 89.99013 67.29810
# Shear Modulus (GPa) = 18.41780 27.42750 22.92265
#
# Velocity S-wave (km/s) = 3.22541 3.93603 3.59830
# Velocity P-wave (km/s) = 6.25033 8.45500 7.43484
#
# Compressibility (1/GPa) = 0.02241847
#
# Stress axis : x y z
#
# Youngs Moduli (GPa) = 63.79606 39.43040 17.39974
#
# Poissons Ratio (x) = 0.33429 0.21878
# Poissons Ratio (y) = 0.54086 0.29567
# Poissons Ratio (z) = 0.80216 0.67004
#
# Static dielectric constant tensor:
#      x y z
#    x 1.601560 0.000000 0.000000 
#    y 0.000000 1.564910 0.000000 
#    z 0.000000 0.000000 1.591800 
# 
# From -- ./inp_files/2869.got.cif
#   From: 2010.05.17/outbox.cif.g08.bks.cpg/sg58_2_cif.got.tgz:2869.got - 2010.06.03 14:20:14.
