data_PCOD9443533
_publ_section_title
;
Structure prediction by ZEFSAII (Michael W. Deem and Ramdas Pophale) SiO2 
 PCOD9443533
Probable space group: P N N M
;
_chemical_formula_sum "Si O2"
_cell_formula_units_Z 56
_cell_length_a 15.182565
_cell_length_b 22.641604
_cell_length_c 8.258678
_cell_angle_alpha 90.000000
_cell_angle_beta 90.000000
_cell_angle_gamma 90.000000
_cell_volume 2838.983530
_symmetry_space_group_name_H-M "P N N M"
_symmetry_group_IT_number 58
_symmetry_cell_setting 'orthorhombic'
loop_
_space_group_symop_operation_xyz
x,y,z
-x,-y,z
1/2+x,1/2-y,1/2-z
1/2-x,1/2+y,1/2-z
-x,-y,-z
x,y,-z
1/2-x,1/2+y,1/2+z
1/2+x,1/2-y,1/2+z
loop_
_atom_site_type_symbol
_atom_site_label
_atom_site_fract_x
_atom_site_fract_y
_atom_site_fract_z
Si Si1 0.657734 0.903445 0.197964
Si Si2 0.641617 0.035793 0.196454
Si Si3 0.488651 0.431961 0.806842
Si Si4 0.320648 0.778890 0.691207
Si Si5 0.845280 0.855003 0.803878
Si Si6 0.198517 0.882163 0.193358
Si Si7 0.479662 0.857588 0.195137
O O1 0.755628 0.887164 0.247372
O O2 0.581042 0.858134 0.247227
O O3 0.636589 0.969359 0.255437
O O4 0.655557 0.903601 0.000000
O O5 0.729391 0.069768 0.252709
O O6 0.559552 0.077631 0.233296
O O7 0.645950 0.033207 0.000000
O O8 0.500000 0.500000 0.744533
O O9 0.569833 0.390850 0.753460
O O10 0.397218 0.401099 0.754681
O O11 0.488620 0.435159 0.000000
O O12 0.305101 0.775534 0.500000
O O13 0.334324 0.712494 0.753880
O O14 0.240968 0.818746 0.760909
O O15 0.412135 0.812503 0.725957
O O16 0.848697 0.854032 0.000000
O O17 0.196285 0.884781 0.000000
O O18 0.474350 0.849583 0.000000
#
# Coordination Sequence:
#
# PCOD9443533 Si02
#       7
#     8   8   8   8   8   8   8
#     4   9  16  29  51  77 103 131 171 223 269 315
#     4   8  14  26  49  81 108 129 163 215 267 318
#     4  11  24  40  59  86 119 153 190 240 301 352
#     4  10  21  37  54  78 113 147 186 235 282 330
#     4  10  22  38  56  79 108 148 195 237 278 333
#     4  10  20  36  61  86 109 146 191 231 278 341
#     4   9  17  30  52  80 106 137 176 216 269 335
#
# _framework density 19.725372
#
# number of rings (size 3 to 8) (size 9 to 14) (size 15 to 20)
#    0.000    2.429    0.000    3.429    0.000    6.286 
#    0.000    2.143    0.000    7.714    0.000    0.000 
#    0.000    0.000    0.000    0.000    0.000    0.000 
#
# Total GULP energy -312343.714564 kJ/mol
# GULP energy per Si atom -5577.566332 kJ/mol
# Density = 1.968048 g / cm^3
# Si number density = 19.725372 Si / 1000 Ang^3
#
#
#
# Elastic Constant Matrix: (Units=GPa)
#
#
# Indices 1 2 3 4 5 6 
#
# 1 143.9770 36.3247 15.6263 0.0000 0.0000 0.0000
# 2 36.3247 102.3231 12.5208 0.0000 0.0000 0.0000
# 3 15.6263 12.5208 22.1692 0.0000 0.0000 0.0000
# 4 0.0000 0.0000 0.0000 19.0320 0.0000 0.0000
# 5 0.0000 0.0000 0.0000 0.0000 60.3278 0.0000
# 6 0.0000 0.0000 0.0000 0.0000 0.0000 11.0122
#
#
#
# Elastic Compliance Matrix: (Units=1/GPa)
#
#
# Indices 1 2 3 4 5 6 
#
# 1 0.007998 -0.002309 -0.004334 0.000000 0.000000 0.000000
# 2 -0.002309 0.011165 -0.004678 0.000000 0.000000 0.000000
# 3 -0.004334 -0.004678 0.050804 0.000000 0.000000 0.000000
# 4 0.000000 0.000000 0.000000 0.052543 0.000000 0.000000
# 5 0.000000 0.000000 0.000000 0.000000 0.016576 0.000000
# 6 0.000000 0.000000 0.000000 0.000000 0.000000 0.090808
#
#
# Mechanical properties :
#
#
# Convention : Reuss Voigt Hill
#
# Bulk Modulus (GPa) = 21.13009 44.15699 32.64354
# Shear Modulus (GPa) = 18.63494 31.67424 25.15459
#
# Velocity S-wave (km/s) = 3.07696 4.01154 3.57492
# Velocity P-wave (km/s) = 4.83311 6.62504 5.79871
#
# Compressibility (1/GPa) = 0.04732588
#
# Stress axis : x y z
#
# Youngs Moduli (GPa) = 125.02363 89.56424 19.68336
#
# Poissons Ratio (x) = 0.20682 0.08530
# Poissons Ratio (y) = 0.28870 0.09208
# Poissons Ratio (z) = 0.54181 0.41900
#
# Static dielectric constant tensor:
#      x y z
#    x 1.680590 0.000000 0.000000 
#    y 0.000000 1.701230 0.000000 
#    z 0.000000 0.000000 1.698520 
# 
# From -- ./inp_files/6473.got.cif
#   From: 2010.05.17/outbox.cif.g08.bks.cpg/sg58_4_cif.got.tgz:6473.got - 2010.06.03 14:20:14.
