data_PCOD9443716
_publ_section_title
;
Structure prediction by ZEFSAII (Michael W. Deem and Ramdas Pophale) SiO2 
 PCOD9443716
Probable space group: P N N M
;
_chemical_formula_sum "Si O2"
_cell_formula_units_Z 36
_cell_length_a 10.884384
_cell_length_b 22.038959
_cell_length_c 7.738432
_cell_angle_alpha 90.000000
_cell_angle_beta 90.000000
_cell_angle_gamma 90.000000
_cell_volume 1856.298881
_symmetry_space_group_name_H-M "P N N M"
_symmetry_group_IT_number 58
_symmetry_cell_setting 'orthorhombic'
loop_
_space_group_symop_operation_xyz
x,y,z
-x,-y,z
1/2+x,1/2-y,1/2-z
1/2-x,1/2+y,1/2-z
-x,-y,-z
x,y,-z
1/2-x,1/2+y,1/2+z
1/2+x,1/2-y,1/2+z
loop_
_atom_site_type_symbol
_atom_site_label
_atom_site_fract_x
_atom_site_fract_y
_atom_site_fract_z
Si Si1 0.418425 0.608433 0.198160
Si Si2 0.181134 0.828052 0.298698
Si Si3 0.820686 0.970207 0.000000
Si Si4 0.928250 0.392750 0.500000
Si Si5 0.327376 0.186991 0.299698
Si Si6 0.797552 0.597645 0.500000
O O1 0.547091 0.641891 0.228461
O O2 0.391169 0.555239 0.332896
O O3 0.308282 0.657339 0.218114
O O4 0.415677 0.586451 0.000000
O O5 0.214177 0.835289 0.500000
O O6 0.175562 0.757136 0.252849
O O7 0.271484 0.861771 0.168110
O O8 0.686155 0.938552 0.000000
O O9 0.795176 0.041172 0.000000
O O10 0.912073 0.350187 0.331914
O O11 0.061304 0.422577 0.500000
O O12 0.364589 0.181121 0.500000
#
# Coordination Sequence:
#
# PCOD9443716 Si02
#       6
#     8   8   4   4   8   4
#     4   9  21  39  61  86 119 159 202 252 311 361
#     4  11  23  37  58  94 125 159 195 255 314 359
#     4  10  22  44  65  83 116 172 212 246 301 363
#     4  10  23  42  62  88 122 170 199 257 305 349
#     4  10  20  37  62  90 121 157 200 248 310 371
#     4  12  26  40  59  93 126 159 216 248 290 366
#
# _framework density 19.393429000000001
#
# number of rings (size 3 to 8) (size 9 to 14) (size 15 to 20)
#    0.000    1.778    2.222    1.000    3.111    3.556 
#    0.000    2.222    0.000    6.667    0.000    0.000 
#    0.000    0.000    0.000    0.000    0.000    0.000 
#
# Total GULP energy -201213.321560 kJ/mol
# GULP energy per Si atom -5589.258932 kJ/mol
# Density = 1.934929 g / cm^3
# Si number density = 19.393429 Si / 1000 Ang^3
#
#
#
# Elastic Constant Matrix: (Units=GPa)
#
#
# Indices 1 2 3 4 5 6 
#
# 1 64.4386 -1.8910 39.9397 0.0000 0.0000 0.0000
# 2 -1.8910 73.0979 30.7192 0.0000 0.0000 0.0000
# 3 39.9397 30.7192 122.1042 0.0000 0.0000 0.0000
# 4 0.0000 0.0000 0.0000 6.1117 0.0000 0.0000
# 5 0.0000 0.0000 0.0000 0.0000 25.2482 0.0000
# 6 0.0000 0.0000 0.0000 0.0000 0.0000 17.6710
#
#
#
# Elastic Compliance Matrix: (Units=1/GPa)
#
#
# Indices 1 2 3 4 5 6 
#
# 1 0.020328 0.003713 -0.007583 0.000000 0.000000 0.000000
# 2 0.003713 0.015976 -0.005234 0.000000 0.000000 0.000000
# 3 -0.007583 -0.005234 0.011987 0.000000 0.000000 0.000000
# 4 0.000000 0.000000 0.000000 0.163620 0.000000 0.000000
# 5 0.000000 0.000000 0.000000 0.000000 0.039607 0.000000
# 6 0.000000 0.000000 0.000000 0.000000 0.000000 0.056590
#
#
# Mechanical properties :
#
#
# Convention : Reuss Voigt Hill
#
# Bulk Modulus (GPa) = 33.24236 44.13072 38.68654
# Shear Modulus (GPa) = 14.86582 22.53106 18.69844
#
# Velocity S-wave (km/s) = 2.77165 3.41220 3.10847
# Velocity P-wave (km/s) = 5.23650 6.19105 5.73367
#
# Compressibility (1/GPa) = 0.03008210
#
# Stress axis : x y z
#
# Youngs Moduli (GPa) = 49.19398 62.59497 83.42506
#
# Poissons Ratio (x) = -0.23239 0.63262
# Poissons Ratio (y) = -0.18264 0.43661
# Poissons Ratio (z) = 0.37304 0.32760
#
# Static dielectric constant tensor:
#      x y z
#    x 1.667120 0.000000 0.000000 
#    y 0.000000 1.634270 0.000000 
#    z 0.000000 0.000000 1.665840 
# 
# From -- ./inp_files/2322.got.cif
#   From: 2010.05.17/outbox.cif.g08.bks.cpg/sg58_2_cif.got.tgz:2322.got - 2010.06.03 14:20:14.
