data_PCOD9443968
_publ_section_title
;
Structure prediction by ZEFSAII (Michael W. Deem and Ramdas Pophale) SiO2 
 PCOD9443968
Probable space group: P N N M
;
_chemical_formula_sum "Si O2"
_cell_formula_units_Z 48
_cell_length_a 10.043686
_cell_length_b 13.358891
_cell_length_c 16.901082
_cell_angle_alpha 90.000000
_cell_angle_beta 90.000000
_cell_angle_gamma 90.000000
_cell_volume 2267.660535
_symmetry_space_group_name_H-M "P N N M"
_symmetry_group_IT_number 58
_symmetry_cell_setting 'orthorhombic'
loop_
_space_group_symop_operation_xyz
x,y,z
-x,-y,z
1/2+x,1/2-y,1/2-z
1/2-x,1/2+y,1/2-z
-x,-y,-z
x,y,-z
1/2-x,1/2+y,1/2+z
1/2+x,1/2-y,1/2+z
loop_
_atom_site_type_symbol
_atom_site_label
_atom_site_fract_x
_atom_site_fract_y
_atom_site_fract_z
Si Si1 0.772673 0.145259 0.665876
Si Si2 0.119341 0.430839 0.595338
Si Si3 0.977073 0.729446 0.906632
Si Si4 0.051906 0.206714 0.405301
Si Si5 0.612246 0.581391 0.668302
Si Si6 0.206186 0.567302 0.904762
O O1 0.653438 0.221397 0.647621
O O2 0.826906 0.133032 0.754042
O O3 0.903822 0.175148 0.617012
O O4 0.712971 0.039206 0.636945
O O5 0.119396 0.431126 0.500000
O O6 0.090905 0.317497 0.622856
O O7 0.261700 0.467370 0.624865
O O8 0.000000 0.500000 0.624007
O O9 0.052778 0.832186 0.887578
O O10 0.078720 0.637633 0.889717
O O11 0.942018 0.724173 0.000000
O O12 0.062053 0.208658 0.500000
O O13 0.162473 0.127791 0.377996
O O14 0.500000 0.500000 0.687656
O O15 0.211258 0.551654 0.000000
#
# Coordination Sequence:
#
# PCOD9443968 Si02
#       6
#     8   8   8   8   8   8
#     4  12  26  40  67 100 139 175 225 277 352 416
#     4  10  23  44  68  95 131 179 233 286 336 402
#     4  11  25  46  72 101 137 185 236 286 341 412
#     4  10  20  39  67  97 129 169 222 280 336 399
#     4  12  28  45  67 100 141 184 227 286 349 417
#     4  10  20  41  69  97 133 172 224 284 338 404
#
# _framework density 21.167190000000002
#
# number of rings (size 3 to 8) (size 9 to 14) (size 15 to 20)
#    0.000    1.167    1.667    4.000    4.667    6.667 
#    0.000    0.000    0.000    0.000    0.000    0.000 
#    0.000    0.000    0.000    0.000    0.000    0.000 
#
# Total GULP energy -268478.807479 kJ/mol
# GULP energy per Si atom -5593.308489 kJ/mol
# Density = 2.111901 g / cm^3
# Si number density = 21.167190 Si / 1000 Ang^3
#
#
#
# Elastic Constant Matrix: (Units=GPa)
#
#
# Indices 1 2 3 4 5 6 
#
# 1 144.4651 26.6089 19.5112 0.0000 0.0000 0.0000
# 2 26.6089 31.2188 18.8080 0.0000 0.0000 0.0000
# 3 19.5112 18.8080 22.6071 0.0000 0.0000 0.0000
# 4 0.0000 0.0000 0.0000 15.4448 0.0000 0.0000
# 5 0.0000 0.0000 0.0000 0.0000 27.8188 0.0000
# 6 0.0000 0.0000 0.0000 0.0000 0.0000 36.8359
#
#
#
# Elastic Compliance Matrix: (Units=1/GPa)
#
#
# Indices 1 2 3 4 5 6 
#
# 1 0.008284 -0.005520 -0.002557 0.000000 0.000000 0.000000
# 2 -0.005520 0.067899 -0.051724 0.000000 0.000000 0.000000
# 3 -0.002557 -0.051724 0.089472 0.000000 0.000000 0.000000
# 4 0.000000 0.000000 0.000000 0.064747 0.000000 0.000000
# 5 0.000000 0.000000 0.000000 0.000000 0.035947 0.000000
# 6 0.000000 0.000000 0.000000 0.000000 0.000000 0.027147
#
#
# Mechanical properties :
#
#
# Convention : Reuss Voigt Hill
#
# Bulk Modulus (GPa) = 21.71430 36.46080 29.08755
# Shear Modulus (GPa) = 11.66999 24.91077 18.29038
#
# Velocity S-wave (km/s) = 2.35058 3.43426 2.94273
# Velocity P-wave (km/s) = 4.20092 5.74352 5.03169
#
# Compressibility (1/GPa) = 0.04605259
#
# Stress axis : x y z
#
# Youngs Moduli (GPa) = 120.71110 14.72784 11.17666
#
# Poissons Ratio (x) = 0.08130 0.02858
# Poissons Ratio (y) = 0.66638 0.57810
# Poissons Ratio (z) = 0.30865 0.76178
#
# Static dielectric constant tensor:
#      x y z
#    x 1.749140 0.000000 0.000000 
#    y 0.000000 1.764920 0.000000 
#    z 0.000000 0.000000 1.766100 
# 
# From -- ./inp_files/25296.got.cif
#   From: 2010.05.17/outbox.cif.g08.bks.cpg/sg58_13_cif.got.tgz:25296.got - 2010.06.03 14:20:14.
