data_PCOD9443253
_publ_section_title
;
Structure prediction by ZEFSAII (Michael W. Deem and Ramdas Pophale) SiO2 
 PCOD9443253
Probable space group: P N N M
;
_chemical_formula_sum "Si O2"
_cell_formula_units_Z 64
_cell_length_a 10.822919
_cell_length_b 31.706877
_cell_length_c 7.869830
_cell_angle_alpha 90.000000
_cell_angle_beta 90.000000
_cell_angle_gamma 90.000000
_cell_volume 2700.618430
_symmetry_space_group_name_H-M "P N N M"
_symmetry_group_IT_number 58
_symmetry_cell_setting 'orthorhombic'
loop_
_space_group_symop_operation_xyz
x,y,z
-x,-y,z
1/2+x,1/2-y,1/2-z
1/2-x,1/2+y,1/2-z
-x,-y,-z
x,y,-z
1/2-x,1/2+y,1/2+z
1/2+x,1/2-y,1/2+z
loop_
_atom_site_type_symbol
_atom_site_label
_atom_site_fract_x
_atom_site_fract_y
_atom_site_fract_z
Si Si1 0.484672 0.631977 0.800633
Si Si2 0.450120 0.839501 0.703545
Si Si3 0.555374 0.455530 0.705050
Si Si4 0.730987 0.837951 0.309639
Si Si5 0.579776 0.066330 0.205560
Si Si6 0.823477 0.476993 0.292913
Si Si7 0.667500 0.245249 0.248548
Si Si8 0.597469 0.714581 0.686141
O O1 0.518497 0.583904 0.776173
O O2 0.345394 0.637658 0.725943
O O3 0.571092 0.665705 0.712525
O O4 0.480652 0.642992 0.000000
O O5 0.446485 0.828934 0.500000
O O6 0.593678 0.839363 0.764301
O O7 0.398163 0.886690 0.726896
O O8 0.378209 0.802189 0.799904
O O9 0.500000 0.500000 0.754712
O O10 0.552662 0.452674 0.500000
O O11 0.696879 0.456430 0.765379
O O12 0.715272 0.855265 0.500000
O O13 0.783890 0.790391 0.322798
O O14 0.442492 0.050274 0.257361
O O15 0.663535 0.026218 0.257915
O O16 0.583930 0.068824 0.000000
O O17 0.823520 0.477401 0.500000
O O18 0.534047 0.262005 0.312379
O O19 0.802624 0.231450 0.318422
O O20 0.653895 0.722414 0.500000
#
# Coordination Sequence:
#
# PCOD9443253 Si02
#       8
#     8   8   8   8   8   8   8   8
#     4  10  22  39  62  90 122 163 210 264 321 383
#     4  11  22  37  58  88 125 158 197 256 316 371
#     4  10  20  35  57  84 116 159 204 253 314 381
#     4   9  19  38  60  83 118 160 202 253 314 375
#     4   9  18  34  57  84 112 152 198 250 304 362
#     4   8  16  34  57  80 113 150 198 253 302 361
#     4  11  22  39  65  91 121 166 213 260 319 377
#     4  11  24  44  68  93 128 172 217 269 323 386
#
# _framework density 23.698273
#
# number of rings (size 3 to 8) (size 9 to 14) (size 15 to 20)
#    0.000    2.125    1.250    2.625    0.000    3.750 
#    0.000    6.250    0.000    0.000    0.000    0.000 
#    0.000    0.000    0.000    0.000    0.000    0.000 
#
# Total GULP energy -356423.097798 kJ/mol
# GULP energy per Si atom -5569.110903 kJ/mol
# Density = 2.364434 g / cm^3
# Si number density = 23.698273 Si / 1000 Ang^3
#
#
#
# Elastic Constant Matrix: (Units=GPa)
#
#
# Indices 1 2 3 4 5 6 
#
# 1 60.0620 5.1159 13.7641 0.0000 0.0000 0.0000
# 2 5.1159 174.9737 10.3123 0.0000 0.0000 0.0000
# 3 13.7641 10.3123 46.0647 0.0000 0.0000 0.0000
# 4 0.0000 0.0000 0.0000 63.2765 0.0000 0.0000
# 5 0.0000 0.0000 0.0000 0.0000 -5.1877 0.0000
# 6 0.0000 0.0000 0.0000 0.0000 0.0000 28.3901
#
#
#
# Elastic Compliance Matrix: (Units=1/GPa)
#
#
# Indices 1 2 3 4 5 6 
#
# 1 0.017881 -0.000211 -0.005296 0.000000 0.000000 0.000000
# 2 -0.000211 0.005794 -0.001234 0.000000 0.000000 0.000000
# 3 -0.005296 -0.001234 0.023567 0.000000 0.000000 0.000000
# 4 0.000000 0.000000 0.000000 0.015804 0.000000 0.000000
# 5 0.000000 0.000000 0.000000 0.000000 -0.192764 0.000000
# 6 0.000000 0.000000 0.000000 0.000000 0.000000 0.035224
#
#
# Mechanical properties :
#
#
# Convention : Reuss Voigt Hill
#
# Bulk Modulus (GPa) = 29.61976 37.72057 33.67017
# Shear Modulus (GPa) = -71.67498 34.08965 -18.79267
#
# Velocity S-wave (km/s) = -5.50549 3.79685 -2.81908
# Velocity P-wave (km/s) = 5.28092 5.93069 1.90852
#
# Compressibility (1/GPa) = 0.03376125
#
# Stress axis : x y z
#
# Youngs Moduli (GPa) = 55.92532 172.59117 42.43180
#
# Poissons Ratio (x) = 0.03637 0.22471
# Poissons Ratio (y) = 0.01178 0.05237
# Poissons Ratio (z) = 0.29616 0.21300
#
# Static dielectric constant tensor:
#      x y z
#    x 1.899370 0.000000 0.000000 
#    y 0.000000 1.875950 0.000000 
#    z 0.000000 0.000000 2.010660 
# 
# From -- ./inp_files/4838.got.cif
#   From: 2010.05.17/outbox.cif.g08.bks.cpg/sg58_3_cif.got.tgz:4838.got - 2010.06.03 14:20:14.
