data_PCOD9443591
_publ_section_title
;
Structure prediction by ZEFSAII (Michael W. Deem and Ramdas Pophale) SiO2 
 PCOD9443591
Probable space group: P N N M
;
_chemical_formula_sum "Si O2"
_cell_formula_units_Z 64
_cell_length_a 13.305300
_cell_length_b 28.927005
_cell_length_c 8.197511
_cell_angle_alpha 90.000000
_cell_angle_beta 90.000000
_cell_angle_gamma 90.000000
_cell_volume 3155.078360
_symmetry_space_group_name_H-M "P N N M"
_symmetry_group_IT_number 58
_symmetry_cell_setting 'orthorhombic'
loop_
_space_group_symop_operation_xyz
x,y,z
-x,-y,z
1/2+x,1/2-y,1/2-z
1/2-x,1/2+y,1/2-z
-x,-y,-z
x,y,-z
1/2-x,1/2+y,1/2+z
1/2+x,1/2-y,1/2+z
loop_
_atom_site_type_symbol
_atom_site_label
_atom_site_fract_x
_atom_site_fract_y
_atom_site_fract_z
Si Si1 0.133943 0.960144 0.695287
Si Si2 0.961588 0.254132 0.687486
Si Si3 0.259079 0.133338 0.304164
Si Si4 0.186929 0.400081 0.689362
Si Si5 0.477439 0.140209 0.802630
Si Si6 0.657066 0.277512 0.317916
Si Si7 0.292872 0.310844 0.187118
Si Si8 0.082347 0.064469 0.698958
O O1 0.128025 0.960518 0.500000
O O2 0.241941 0.939841 0.739915
O O3 0.034684 0.931313 0.752031
O O4 0.117653 0.013076 0.749040
O O5 0.926884 0.260180 0.500000
O O6 0.975511 0.305910 0.755839
O O7 0.066006 0.227144 0.694441
O O8 0.882960 0.218671 0.764371
O O9 0.259255 0.134362 0.500000
O O10 0.370013 0.118967 0.245474
O O11 0.236707 0.184282 0.235236
O O12 0.165659 0.101467 0.247577
O O13 0.172991 0.410342 0.500000
O O14 0.076159 0.387242 0.758560
O O15 0.252911 0.353963 0.714275
O O16 0.485185 0.141911 0.000000
O O17 0.620278 0.288624 0.500000
O O18 0.706422 0.227335 0.322930
O O19 0.317868 0.326170 0.000000
O O20 0.082427 0.066236 0.500000
#
# Coordination Sequence:
#
# PCOD9443591 Si02
#       8
#     8   8   8   8   8   8   8   8
#     4   9  18  39  66  85 110 144 181 224 282 342
#     4  10  20  37  54  72 106 152 193 233 274 320
#     4  11  22  36  58  86 113 145 192 235 278 335
#     4  11  23  37  56  84 116 146 186 234 285 335
#     4  10  21  39  56  76 114 156 190 233 282 327
#     4  11  22  36  53  80 114 149 189 229 279 332
#     4  10  21  36  54  75 107 150 196 230 267 327
#     4   8  18  38  63  88 110 141 181 228 279 336
#
# _framework density 20.284759000000001
#
# number of rings (size 3 to 8) (size 9 to 14) (size 15 to 20)
#    0.000    2.000    2.500    1.875    1.750    2.500 
#    0.000    3.750    0.000    3.750    0.000    0.000 
#    0.000    0.000    0.000    0.000    0.000    0.000 
#
# Total GULP energy -356798.885660 kJ/mol
# GULP energy per Si atom -5574.982588 kJ/mol
# Density = 2.023859 g / cm^3
# Si number density = 20.284759 Si / 1000 Ang^3
#
#
#
# Elastic Constant Matrix: (Units=GPa)
#
#
# Indices 1 2 3 4 5 6 
#
# 1 69.9815 0.0793 1.5761 0.0000 0.0000 0.0000
# 2 0.0793 25.7043 -0.1995 0.0000 0.0000 0.0000
# 3 1.5761 -0.1995 11.7294 0.0000 0.0000 0.0000
# 4 0.0000 0.0000 0.0000 17.1277 0.0000 0.0000
# 5 0.0000 0.0000 0.0000 0.0000 29.8069 0.0000
# 6 0.0000 0.0000 0.0000 0.0000 0.0000 32.4345
#
#
#
# Elastic Compliance Matrix: (Units=1/GPa)
#
#
# Indices 1 2 3 4 5 6 
#
# 1 0.014333 -0.000059 -0.001927 0.000000 0.000000 0.000000
# 2 -0.000059 0.038909 0.000670 0.000000 0.000000 0.000000
# 3 -0.001927 0.000670 0.085526 0.000000 0.000000 0.000000
# 4 0.000000 0.000000 0.000000 0.058385 0.000000 0.000000
# 5 0.000000 0.000000 0.000000 0.000000 0.033549 0.000000
# 6 0.000000 0.000000 0.000000 0.000000 0.000000 0.030831
#
#
# Mechanical properties :
#
#
# Convention : Reuss Voigt Hill
#
# Bulk Modulus (GPa) = 7.34560 12.25856 9.80208
# Shear Modulus (GPa) = 16.15273 22.93777 19.54525
#
# Velocity S-wave (km/s) = 2.82494 3.36637 3.10747
# Velocity P-wave (km/s) = 3.77750 4.60068 4.20926
#
# Compressibility (1/GPa) = 0.13613585
#
# Stress axis : x y z
#
# Youngs Moduli (GPa) = 69.76925 25.70075 11.69234
#
# Poissons Ratio (x) = 0.00152 0.02253
# Poissons Ratio (y) = 0.00413 -0.00783
# Poissons Ratio (z) = 0.13444 -0.01722
#
# Static dielectric constant tensor:
#      x y z
#    x 1.771630 0.000000 0.000000 
#    y 0.000000 1.710150 0.000000 
#    z 0.000000 0.000000 1.733510 
# 
# From -- ./inp_files/4819.got.cif
#   From: 2010.05.17/outbox.cif.g08.bks.cpg/sg58_3_cif.got.tgz:4819.got - 2010.06.03 14:20:14.
