data_PCOD9443992
_publ_section_title
;
Structure prediction by ZEFSAII (Michael W. Deem and Ramdas Pophale) SiO2 
 PCOD9443992
Probable space group: P N N M
;
_chemical_formula_sum "Si O2"
_cell_formula_units_Z 56
_cell_length_a 12.256076
_cell_length_b 13.257040
_cell_length_c 14.727612
_cell_angle_alpha 90.000000
_cell_angle_beta 90.000000
_cell_angle_gamma 90.000000
_cell_volume 2392.931938
_symmetry_space_group_name_H-M "P N N M"
_symmetry_group_IT_number 58
_symmetry_cell_setting 'orthorhombic'
loop_
_space_group_symop_operation_xyz
x,y,z
-x,-y,z
1/2+x,1/2-y,1/2-z
1/2-x,1/2+y,1/2-z
-x,-y,-z
x,y,-z
1/2-x,1/2+y,1/2+z
1/2+x,1/2-y,1/2+z
loop_
_atom_site_type_symbol
_atom_site_label
_atom_site_fract_x
_atom_site_fract_y
_atom_site_fract_z
Si Si1 0.272611 0.182838 0.602399
Si Si2 0.579762 0.242229 0.634969
Si Si3 0.924545 0.081179 0.099443
Si Si4 0.815862 0.552846 0.901858
Si Si5 0.299180 0.947440 0.193025
Si Si6 0.449613 0.770085 0.153017
Si Si7 0.186105 0.687343 0.682640
O O1 0.300301 0.225852 0.500000
O O2 0.140262 0.197986 0.607060
O O3 0.306166 0.212925 0.707802
O O4 0.316289 0.068088 0.598233
O O5 0.493311 0.317333 0.593119
O O6 0.577732 0.126394 0.601847
O O7 0.554756 0.252304 0.740495
O O8 0.704913 0.279433 0.629169
O O9 0.808146 0.088284 0.142844
O O10 0.902673 0.037732 0.000000
O O11 0.000000 0.000000 0.150921
O O12 0.775091 0.575005 0.799605
O O13 0.763163 0.578844 0.000000
O O14 0.398281 0.882724 0.151869
O O15 0.318497 0.065782 0.181615
O O16 0.577948 0.769449 0.134053
#
# Coordination Sequence:
#
# PCOD9443992 Si02
#       7
#     8   8   8   8   8   8   8
#     4   9  20  40  64  95 131 170 223 275 329 401
#     4  10  21  37  64  93 126 167 216 270 330 394
#     4  11  23  40  64  93 127 169 221 278 335 392
#     4   9  19  39  65  92 128 168 212 266 327 398
#     4  10  21  40  64  93 130 169 216 273 334 405
#     4  10  22  37  63  93 127 174 214 262 339 398
#     4  10  20  40  63  90 127 174 217 269 333 400
#
# _framework density 23.402253000000002
#
# number of rings (size 3 to 8) (size 9 to 14) (size 15 to 20)
#    0.000    2.143    1.429    0.857    6.000    0.571 
#    0.000    5.714    0.000   15.000    0.000    0.000 
#    0.000    0.000    0.000    0.000    0.000    0.000 
#
# Total GULP energy -311814.214372 kJ/mol
# GULP energy per Si atom -5568.110971 kJ/mol
# Density = 2.334899 g / cm^3
# Si number density = 23.402253 Si / 1000 Ang^3
#
#
#
# Elastic Constant Matrix: (Units=GPa)
#
#
# Indices 1 2 3 4 5 6 
#
# 1 169.5757 21.2060 22.8743 0.0000 0.0000 0.0000
# 2 21.2060 66.2961 9.3602 0.0000 0.0000 0.0000
# 3 22.8743 9.3602 74.1602 0.0000 0.0000 0.0000
# 4 0.0000 0.0000 0.0000 -35.0376 0.0000 0.0000
# 5 0.0000 0.0000 0.0000 0.0000 18.2557 0.0000
# 6 0.0000 0.0000 0.0000 0.0000 0.0000 26.6766
#
#
#
# Elastic Compliance Matrix: (Units=1/GPa)
#
#
# Indices 1 2 3 4 5 6 
#
# 1 0.006355 -0.001788 -0.001734 0.000000 0.000000 0.000000
# 2 -0.001788 0.015860 -0.001450 0.000000 0.000000 0.000000
# 3 -0.001734 -0.001450 0.014202 0.000000 0.000000 0.000000
# 4 0.000000 0.000000 0.000000 -0.028541 0.000000 0.000000
# 5 0.000000 0.000000 0.000000 0.000000 0.054777 0.000000
# 6 0.000000 0.000000 0.000000 0.000000 0.000000 0.037486
#
#
# Mechanical properties :
#
#
# Convention : Reuss Voigt Hill
#
# Bulk Modulus (GPa) = 37.77537 46.32366 42.04952
# Shear Modulus (GPa) = 42.04888 19.08505 30.56696
#
# Velocity S-wave (km/s) = 4.24345 2.85883 3.61800
# Velocity P-wave (km/s) = 6.33924 5.54389 5.95486
#
# Compressibility (1/GPa) = 0.02647227
#
# Stress axis : x y z
#
# Youngs Moduli (GPa) = 157.36653 63.04982 70.41086
#
# Poissons Ratio (x) = 0.11272 0.12212
# Poissons Ratio (y) = 0.28133 0.10213
# Poissons Ratio (z) = 0.27294 0.09145
#
# Static dielectric constant tensor:
#      x y z
#    x 1.900450 0.000000 0.000000 
#    y 0.000000 2.014650 0.000000 
#    z 0.000000 0.000000 1.910360 
# 
# From -- ./inp_files/21285.got.cif
#   From: 2010.05.17/outbox.cif.g08.bks.cpg/sg58_11_cif.got.tgz:21285.got - 2010.06.03 14:20:14.
