data_PCOD9443403
_publ_section_title
;
Structure prediction by ZEFSAII (Michael W. Deem and Ramdas Pophale) SiO2 
 PCOD9443403
Probable space group: P N N M
;
_chemical_formula_sum "Si O2"
_cell_formula_units_Z 48
_cell_length_a 14.784383
_cell_length_b 20.693063
_cell_length_c 8.611707
_cell_angle_alpha 90.000000
_cell_angle_beta 90.000000
_cell_angle_gamma 90.000000
_cell_volume 2634.615423
_symmetry_space_group_name_H-M "P N N M"
_symmetry_group_IT_number 58
_symmetry_cell_setting 'orthorhombic'
loop_
_space_group_symop_operation_xyz
x,y,z
-x,-y,z
1/2+x,1/2-y,1/2-z
1/2-x,1/2+y,1/2-z
-x,-y,-z
x,y,-z
1/2-x,1/2+y,1/2+z
1/2+x,1/2-y,1/2+z
loop_
_atom_site_type_symbol
_atom_site_label
_atom_site_fract_x
_atom_site_fract_y
_atom_site_fract_z
Si Si1 0.338321 0.923532 0.187756
Si Si2 0.023946 0.624182 0.813975
Si Si3 0.158823 0.171119 0.685787
Si Si4 0.977348 0.225663 0.812639
Si Si5 0.289701 0.066520 0.814191
Si Si6 0.227747 0.797203 0.810867
O O1 0.438948 0.916618 0.254529
O O2 0.280014 0.861594 0.239340
O O3 0.293825 0.991424 0.233382
O O4 0.344330 0.921986 0.000000
O O5 0.009089 0.699137 0.768264
O O6 0.117765 0.599242 0.744710
O O7 0.029557 0.621261 0.000000
O O8 0.160706 0.170418 0.500000
O O9 0.206149 0.106838 0.747983
O O10 0.219000 0.232864 0.739629
O O11 0.057538 0.183240 0.743503
O O12 0.876693 0.205348 0.762085
O O13 0.981161 0.222062 0.000000
O O14 0.287352 0.069395 0.000000
O O15 0.227994 0.796651 0.000000
#
# Coordination Sequence:
#
# PCOD9443403 Si02
#       6
#     8   8   8   8   8   8
#     4  10  21  38  58  82 113 154 194 232 283 338
#     4  11  21  34  56  87 119 149 184 233 290 342
#     4  11  21  37  60  84 112 148 187 233 283 331
#     4  10  20  36  57  85 113 142 185 233 280 335
#     4  11  23  37  56  83 116 152 192 233 280 343
#     4   9  18  36  59  80 108 145 190 233 272 329
#
# _framework density 18.218978
#
# number of rings (size 3 to 8) (size 9 to 14) (size 15 to 20)
#    0.000    1.667    3.333    2.000    0.000    4.000 
#    0.000    1.667    0.000    5.000    0.000    0.000 
#    0.000    0.000    0.000    0.000    0.000    0.000 
#
# Total GULP energy -268143.730678 kJ/mol
# GULP energy per Si atom -5586.327722 kJ/mol
# Density = 1.817751 g / cm^3
# Si number density = 18.218978 Si / 1000 Ang^3
#
#
#
# Elastic Constant Matrix: (Units=GPa)
#
#
# Indices 1 2 3 4 5 6 
#
# 1 75.2822 -8.2121 4.5575 0.0000 0.0000 0.0000
# 2 -8.2121 41.9985 8.5988 0.0000 0.0000 0.0000
# 3 4.5575 8.5988 17.4572 0.0000 0.0000 0.0000
# 4 0.0000 0.0000 0.0000 22.2833 0.0000 0.0000
# 5 0.0000 0.0000 0.0000 0.0000 27.0462 0.0000
# 6 0.0000 0.0000 0.0000 0.0000 0.0000 29.8120
#
#
#
# Elastic Compliance Matrix: (Units=1/GPa)
#
#
# Indices 1 2 3 4 5 6 
#
# 1 0.014046 0.003889 -0.005583 0.000000 0.000000 0.000000
# 2 0.003889 0.027558 -0.014589 0.000000 0.000000 0.000000
# 3 -0.005583 -0.014589 0.065927 0.000000 0.000000 0.000000
# 4 0.000000 0.000000 0.000000 0.044877 0.000000 0.000000
# 5 0.000000 0.000000 0.000000 0.000000 0.036974 0.000000
# 6 0.000000 0.000000 0.000000 0.000000 0.000000 0.033544
#
#
# Mechanical properties :
#
#
# Convention : Reuss Voigt Hill
#
# Bulk Modulus (GPa) = 13.33961 16.06961 14.70461
# Shear Modulus (GPa) = 17.82673 24.48122 21.15398
#
# Velocity S-wave (km/s) = 3.13144 3.66966 3.41118
# Velocity P-wave (km/s) = 4.51800 5.17635 4.85834
#
# Compressibility (1/GPa) = 0.07496473
#
# Stress axis : x y z
#
# Youngs Moduli (GPa) = 71.19674 36.28725 15.16837
#
# Poissons Ratio (x) = -0.14113 0.08468
# Poissons Ratio (y) = -0.27691 0.22130
# Poissons Ratio (z) = 0.39747 0.52941
#
# Static dielectric constant tensor:
#      x y z
#    x 1.594250 0.000000 0.000000 
#    y 0.000000 1.625710 0.000000 
#    z 0.000000 0.000000 1.615030 
# 
# From -- ./inp_files/5766.got.cif
#   From: 2010.05.17/outbox.cif.g08.bks.cpg/sg58_3_cif.got.tgz:5766.got - 2010.06.03 14:20:14.
