data_PCOD9443725
_publ_section_title
;
Structure prediction by ZEFSAII (Michael W. Deem and Ramdas Pophale) SiO2 
 PCOD9443725
Probable space group: P N N M
;
_chemical_formula_sum "Si O2"
_cell_formula_units_Z 48
_cell_length_a 14.829727
_cell_length_b 21.001987
_cell_length_c 7.545632
_cell_angle_alpha 90.000000
_cell_angle_beta 90.000000
_cell_angle_gamma 90.000000
_cell_volume 2350.115259
_symmetry_space_group_name_H-M "P N N M"
_symmetry_group_IT_number 58
_symmetry_cell_setting 'orthorhombic'
loop_
_space_group_symop_operation_xyz
x,y,z
-x,-y,z
1/2+x,1/2-y,1/2-z
1/2-x,1/2+y,1/2-z
-x,-y,-z
x,y,-z
1/2-x,1/2+y,1/2+z
1/2+x,1/2-y,1/2+z
loop_
_atom_site_type_symbol
_atom_site_label
_atom_site_fract_x
_atom_site_fract_y
_atom_site_fract_z
Si Si1 0.150034 0.528967 0.000000
Si Si2 0.909458 0.188083 0.715640
Si Si3 0.767600 0.755365 0.214790
Si Si4 0.042508 0.299311 0.700717
Si Si5 0.030772 0.070540 0.284746
Si Si6 0.455807 0.903150 0.500000
Si Si7 0.261319 0.598752 0.295427
O O1 0.207715 0.551194 0.831040
O O2 0.123531 0.455066 0.000000
O O3 0.053725 0.564266 0.000000
O O4 0.909906 0.186343 0.500000
O O5 0.808123 0.204619 0.770083
O O6 0.969095 0.248866 0.767742
O O7 0.958758 0.123836 0.774912
O O8 0.863030 0.737762 0.295793
O O9 0.742140 0.828024 0.259695
O O10 0.776333 0.753298 0.000000
O O11 0.019093 0.317842 0.500000
O O12 0.050370 0.358818 0.828517
O O13 0.033698 0.071857 0.500000
O O14 0.131218 0.087380 0.221297
O O15 0.000000 0.000000 0.230471
O O16 0.234753 0.591172 0.500000
#
# Coordination Sequence:
#
# PCOD9443725 Si02
#       7
#     4   8   8   8   8   4   8
#     4  11  26  46  69  90 130 174 223 266 331 404
#     4   9  19  36  60  91 130 166 214 270 323 384
#     4  10  20  37  62  95 131 171 219 269 324 389
#     4  11  22  40  65  94 130 166 212 276 330 383
#     4  10  20  37  62  93 129 177 217 262 325 393
#     4  11  26  46  66  96 125 172 220 274 327 392
#     4  11  23  41  67  97 128 174 221 269 329 401
#
# _framework density 20.424529
#
# number of rings (size 3 to 8) (size 9 to 14) (size 15 to 20)
#    0.000    1.667    3.333    1.000    1.167    4.333 
#    1.500    1.667    0.000    0.000    0.000    0.000 
#    0.000    0.000    0.000    0.000    0.000    0.000 
#
# Total GULP energy -268374.235165 kJ/mol
# GULP energy per Si atom -5591.129899 kJ/mol
# Density = 2.037804 g / cm^3
# Si number density = 20.424529 Si / 1000 Ang^3
#
#
#
# Elastic Constant Matrix: (Units=GPa)
#
#
# Indices 1 2 3 4 5 6 
#
# 1 48.7126 -13.9512 -9.0876 0.0000 0.0000 0.0000
# 2 -13.9512 87.6583 26.3280 0.0000 0.0000 0.0000
# 3 -9.0876 26.3280 74.2324 0.0000 0.0000 0.0000
# 4 0.0000 0.0000 0.0000 37.9581 0.0000 0.0000
# 5 0.0000 0.0000 0.0000 0.0000 3.7058 0.0000
# 6 0.0000 0.0000 0.0000 0.0000 0.0000 36.5770
#
#
#
# Elastic Compliance Matrix: (Units=1/GPa)
#
#
# Indices 1 2 3 4 5 6 
#
# 1 0.021678 0.002969 0.001601 0.000000 0.000000 0.000000
# 2 0.002969 0.013175 -0.004309 0.000000 0.000000 0.000000
# 3 0.001601 -0.004309 0.015195 0.000000 0.000000 0.000000
# 4 0.000000 0.000000 0.000000 0.026345 0.000000 0.000000
# 5 0.000000 0.000000 0.000000 0.000000 0.269848 0.000000
# 6 0.000000 0.000000 0.000000 0.000000 0.000000 0.027340
#
#
# Mechanical properties :
#
#
# Convention : Reuss Voigt Hill
#
# Bulk Modulus (GPa) = 19.77481 24.13133 21.95307
# Shear Modulus (GPa) = 12.82331 29.46913 21.14622
#
# Velocity S-wave (km/s) = 2.50839 3.80258 3.22115
# Velocity P-wave (km/s) = 4.25350 5.57853 4.96046
#
# Compressibility (1/GPa) = 0.05056938
#
# Stress axis : x y z
#
# Youngs Moduli (GPa) = 46.13065 75.90272 65.80901
#
# Poissons Ratio (x) = -0.22538 -0.10534
# Poissons Ratio (y) = -0.13698 0.28358
# Poissons Ratio (z) = -0.07384 0.32708
#
# Static dielectric constant tensor:
#      x y z
#    x 1.697590 0.000000 0.000000 
#    y 0.000000 1.706530 0.000000 
#    z 0.000000 0.000000 1.730210 
# 
# From -- ./inp_files/5942.got.cif
#   From: 2010.05.17/outbox.cif.g08.bks.cpg/sg58_3_cif.got.tgz:5942.got - 2010.06.03 14:20:14.
