data_PCOD9443508
_publ_section_title
;
Structure prediction by ZEFSAII (Michael W. Deem and Ramdas Pophale) SiO2 
 PCOD9443508
Probable space group: P N N M
;
_chemical_formula_sum "Si O2"
_cell_formula_units_Z 48
_cell_length_a 29.716797
_cell_length_b 10.258997
_cell_length_c 8.893164
_cell_angle_alpha 90.000000
_cell_angle_beta 90.000000
_cell_angle_gamma 90.000000
_cell_volume 2711.210274
_symmetry_space_group_name_H-M "P N N M"
_symmetry_group_IT_number 58
_symmetry_cell_setting 'orthorhombic'
loop_
_space_group_symop_operation_xyz
x,y,z
-x,-y,z
1/2+x,1/2-y,1/2-z
1/2-x,1/2+y,1/2-z
-x,-y,-z
x,y,-z
1/2-x,1/2+y,1/2+z
1/2+x,1/2-y,1/2+z
loop_
_atom_site_type_symbol
_atom_site_label
_atom_site_fract_x
_atom_site_fract_y
_atom_site_fract_z
Si Si1 0.288251 0.712896 0.320325
Si Si2 0.026915 0.133546 0.822274
Si Si3 0.781990 0.483997 0.178995
Si Si4 0.471052 0.131733 0.821744
Si Si5 0.615338 0.277412 0.179486
Si Si6 0.613479 0.991442 0.320568
O O1 0.294409 0.708475 0.500000
O O2 0.250720 0.611795 0.267222
O O3 0.275685 0.863055 0.281560
O O4 0.335805 0.683256 0.241344
O O5 0.075221 0.134031 0.741951
O O6 0.997696 0.250377 0.753318
O O7 0.033446 0.155137 0.000000
O O8 0.000000 0.000000 0.800488
O O9 0.834617 0.453626 0.207697
O O10 0.774027 0.470122 0.000000
O O11 0.422743 0.107178 0.746549
O O12 0.500000 0.000000 0.799180
O O13 0.466527 0.152934 0.000000
O O14 0.606401 0.131896 0.243215
O O15 0.615043 0.274652 0.000000
O O16 0.607612 0.005147 0.500000
#
# Coordination Sequence:
#
# PCOD9443508 Si02
#       6
#     8   8   8   8   8   8
#     4  10  21  38  61  87 115 151 191 234 286 343
#     4  11  24  41  60  84 116 154 194 237 288 346
#     4   9  20  38  58  85 116 147 189 237 285 339
#     4  11  22  36  59  90 117 149 192 237 284 339
#     4  11  21  36  60  86 115 152 192 235 287 344
#     4  10  20  36  60  87 116 151 193 241 285 337
#
# _framework density 17.704270999999999
#
# number of rings (size 3 to 8) (size 9 to 14) (size 15 to 20)
#    0.000    1.667    1.667    4.500    0.000    6.000 
#    3.000    0.000    0.000    0.000    0.000    0.000 
#    0.000    0.000    0.000    0.000    0.000    0.000 
#
# Total GULP energy -268165.845003 kJ/mol
# GULP energy per Si atom -5586.788438 kJ/mol
# Density = 1.766398 g / cm^3
# Si number density = 17.704271 Si / 1000 Ang^3
#
#
#
# Elastic Constant Matrix: (Units=GPa)
#
#
# Indices 1 2 3 4 5 6 
#
# 1 130.9487 67.9417 82.8714 0.0000 0.0000 0.0000
# 2 67.9417 73.8046 70.8478 0.0000 0.0000 0.0000
# 3 82.8714 70.8478 121.8694 0.0000 0.0000 0.0000
# 4 0.0000 0.0000 0.0000 19.7172 0.0000 0.0000
# 5 0.0000 0.0000 0.0000 0.0000 32.5707 0.0000
# 6 0.0000 0.0000 0.0000 0.0000 0.0000 28.3195
#
#
#
# Elastic Compliance Matrix: (Units=1/GPa)
#
#
# Indices 1 2 3 4 5 6 
#
# 1 0.015970 -0.009677 -0.005234 0.000000 0.000000 0.000000
# 2 -0.009677 0.036522 -0.014651 0.000000 0.000000 0.000000
# 3 -0.005234 -0.014651 0.020282 0.000000 0.000000 0.000000
# 4 0.000000 0.000000 0.000000 0.050717 0.000000 0.000000
# 5 0.000000 0.000000 0.000000 0.000000 0.030702 0.000000
# 6 0.000000 0.000000 0.000000 0.000000 0.000000 0.035311
#
#
# Mechanical properties :
#
#
# Convention : Reuss Voigt Hill
#
# Bulk Modulus (GPa) = 73.26376 85.54937 79.40656
# Shear Modulus (GPa) = 19.74893 23.11892 21.43393
#
# Velocity S-wave (km/s) = 3.34352 3.61756 3.48323
# Velocity P-wave (km/s) = 7.50848 8.11635 7.81833
#
# Compressibility (1/GPa) = 0.01364931
#
# Stress axis : x y z
#
# Youngs Moduli (GPa) = 62.61917 27.38080 49.30496
#
# Poissons Ratio (x) = 0.26496 0.25805
# Poissons Ratio (y) = 0.60596 0.72239
# Poissons Ratio (z) = 0.32773 0.40117
#
# Static dielectric constant tensor:
#      x y z
#    x 1.598140 0.000000 0.000000 
#    y 0.000000 1.580400 0.000000 
#    z 0.000000 0.000000 1.588600 
# 
# From -- ./inp_files/2895.got.cif
#   From: 2010.05.17/outbox.cif.g08.bks.cpg/sg58_2_cif.got.tgz:2895.got - 2010.06.03 14:20:14.
