data_PCOD9443905
_publ_section_title
;
Structure prediction by ZEFSAII (Michael W. Deem and Ramdas Pophale) SiO2 
 PCOD9443905
Probable space group: P N N M
;
_chemical_formula_sum "Si O2"
_cell_formula_units_Z 58
_cell_length_a 17.124572
_cell_length_b 9.909391
_cell_length_c 16.893405
_cell_angle_alpha 90.000000
_cell_angle_beta 90.000000
_cell_angle_gamma 90.000000
_cell_volume 2866.710814
_symmetry_space_group_name_H-M "P N N M"
_symmetry_group_IT_number 58
_symmetry_cell_setting 'orthorhombic'
loop_
_space_group_symop_operation_xyz
x,y,z
-x,-y,z
1/2+x,1/2-y,1/2-z
1/2-x,1/2+y,1/2-z
-x,-y,-z
x,y,-z
1/2-x,1/2+y,1/2+z
1/2+x,1/2-y,1/2+z
loop_
_atom_site_type_symbol
_atom_site_label
_atom_site_fract_x
_atom_site_fract_y
_atom_site_fract_z
Si Si1 0.133651 0.515932 0.266933
Si Si2 0.082601 0.816516 0.751929
Si Si3 0.045694 0.303750 0.350996
Si Si4 0.500000 0.000000 0.000000
Si Si5 0.764659 0.381137 0.410987
Si Si6 0.211485 0.206099 0.409228
Si Si7 0.640442 0.603839 0.407768
Si Si8 0.730597 0.585088 0.155408
O O1 0.107521 0.660449 0.235248
O O2 0.064726 0.414204 0.284331
O O3 0.174980 0.552246 0.350498
O O4 0.197226 0.444513 0.212679
O O5 0.075859 0.878397 0.839807
O O6 0.153392 0.893918 0.708476
O O7 0.012237 0.804322 0.689026
O O8 0.131219 0.242705 0.366726
O O9 0.013507 0.382328 0.428755
O O10 0.794623 0.402651 0.500000
O O11 0.682635 0.458436 0.403359
O O12 0.758221 0.223900 0.391690
O O13 0.199131 0.242184 0.500000
O O14 0.288154 0.292363 0.386249
O O15 0.224512 0.047595 0.397874
O O16 0.617680 0.627461 0.500000
#
# Coordination Sequence:
#
# PCOD9443905 Si02
#       8
#     8   8   8   2   8   8   8   8
#     4  11  21  37  61  90 123 165 213 264 315 381
#     4  11  22  39  58  91 124 171 214 259 323 379
#     4  12  24  38  63  91 137 176 213 260 318 400
#     4  12  24  40  56  98 130 184 228 246 306 418
#     4  10  21  36  61  92 122 161 209 269 323 373
#     4  11  22  39  62  93 126 165 206 262 320 375
#     4  10  20  38  67  91 118 159 221 273 312 375
#     4  11  23  38  61  92 129 162 212 268 320 382
#
# _framework density 20.232246
#
# number of rings (size 3 to 8) (size 9 to 14) (size 15 to 20)
#    0.000    1.103    6.207    0.414    2.897    0.552 
#    1.241    0.690    0.000    3.310    0.000    2.897 
#    0.000    0.000    0.000    0.000    0.000    0.000 
#
# Total GULP energy -323310.816035 kJ/mol
# GULP energy per Si atom -5574.324414 kJ/mol
# Density = 2.018620 g / cm^3
# Si number density = 20.232246 Si / 1000 Ang^3
#
#
#
# Elastic Constant Matrix: (Units=GPa)
#
#
# Indices 1 2 3 4 5 6 
#
# 1 51.1283 0.1453 25.1712 0.0000 0.0000 0.0000
# 2 0.1453 74.4285 8.2171 0.0000 0.0000 0.0000
# 3 25.1712 8.2171 94.5743 0.0000 0.0000 0.0000
# 4 0.0000 0.0000 0.0000 22.7398 0.0000 0.0000
# 5 0.0000 0.0000 0.0000 0.0000 22.3836 0.0000
# 6 0.0000 0.0000 0.0000 0.0000 0.0000 25.7141
#
#
#
# Elastic Compliance Matrix: (Units=1/GPa)
#
#
# Indices 1 2 3 4 5 6 
#
# 1 0.022537 0.000624 -0.006052 0.000000 0.000000 0.000000
# 2 0.000624 0.013583 -0.001346 0.000000 0.000000 0.000000
# 3 -0.006052 -0.001346 0.012302 0.000000 0.000000 0.000000
# 4 0.000000 0.000000 0.000000 0.043976 0.000000 0.000000
# 5 0.000000 0.000000 0.000000 0.000000 0.044676 0.000000
# 6 0.000000 0.000000 0.000000 0.000000 0.000000 0.038889
#
#
# Mechanical properties :
#
#
# Convention : Reuss Voigt Hill
#
# Bulk Modulus (GPa) = 28.67611 31.91092 30.29352
# Shear Modulus (GPa) = 24.85897 26.60735 25.73316
#
# Velocity S-wave (km/s) = 3.50906 3.63036 3.57022
# Velocity P-wave (km/s) = 5.53373 5.77748 5.65692
#
# Compressibility (1/GPa) = 0.03487223
#
# Stress axis : x y z
#
# Youngs Moduli (GPa) = 44.37234 73.62072 81.29062
#
# Poissons Ratio (x) = -0.04596 0.49200
# Poissons Ratio (y) = -0.02770 0.10944
# Poissons Ratio (z) = 0.26856 0.09912
#
# Static dielectric constant tensor:
#      x y z
#    x 1.777340 0.000000 0.000000 
#    y 0.000000 1.735120 0.000000 
#    z 0.000000 0.000000 1.712730 
# 
# From -- ./inp_files/27306.got.cif
#   From: 2010.05.17/outbox.cif.g08.bks.cpg/sg58_14_cif.got.tgz:27306.got - 2010.06.03 14:20:14.
