data_PCOD9443099
_publ_section_title
;
Structure prediction by ZEFSAII (Michael W. Deem and Ramdas Pophale) SiO2 
 PCOD9443099
Probable space group: P N N M
;
_chemical_formula_sum "Si O2"
_cell_formula_units_Z 26
_cell_length_a 7.418317
_cell_length_b 17.968035
_cell_length_c 7.175043
_cell_angle_alpha 90.000000
_cell_angle_beta 90.000000
_cell_angle_gamma 90.000000
_cell_volume 956.379989
_symmetry_space_group_name_H-M "P N N M"
_symmetry_group_IT_number 58
_symmetry_cell_setting 'orthorhombic'
loop_
_space_group_symop_operation_xyz
x,y,z
-x,-y,z
1/2+x,1/2-y,1/2-z
1/2-x,1/2+y,1/2-z
-x,-y,-z
x,y,-z
1/2-x,1/2+y,1/2+z
1/2+x,1/2-y,1/2+z
loop_
_atom_site_type_symbol
_atom_site_label
_atom_site_fract_x
_atom_site_fract_y
_atom_site_fract_z
Si Si1 0.277174 0.933229 0.775185
Si Si2 0.866069 0.361714 0.710601
Si Si3 0.993633 0.198470 0.223582
Si Si4 0.500000 0.500000 0.000000
O O1 0.170306 0.856093 0.732812
O O2 0.516968 0.082255 0.716688
O O3 0.271999 0.943380 0.000000
O O4 0.158540 0.991710 0.662990
O O5 0.828349 0.387053 0.500000
O O6 0.961744 0.280696 0.703024
O O7 0.674029 0.341157 0.796872
O O8 0.008412 0.205382 0.000000
#
# Coordination Sequence:
#
# PCOD9443099 Si02
#       4
#     8   8   8   2
#     4  10  23  43  61  90 127 167 209 260 311 361
#     4  10  20  34  58  91 127 159 199 259 322 374
#     4  10  20  34  58  91 127 159 199 259 322 374
#     4  12  26  44  70  86 124 182 226 242 294 406
#
# _framework density 27.185846999999999
#
# number of rings (size 3 to 8) (size 9 to 14) (size 15 to 20)
#    0.000    1.846    3.077    0.462    4.308    0.000 
#    0.000    3.077    0.000    7.385    0.000    0.000 
#    0.000    0.000    0.000    0.000    0.000    0.000 
#
# Total GULP energy -145185.052714 kJ/mol
# GULP energy per Si atom -5584.040489 kJ/mol
# Density = 2.712397 g / cm^3
# Si number density = 27.185847 Si / 1000 Ang^3
#
#
#
# Elastic Constant Matrix: (Units=GPa)
#
#
# Indices 1 2 3 4 5 6 
#
# 1 150.7743 22.6563 1.6898 0.0000 0.0000 0.0000
# 2 22.6563 145.9336 -19.6561 0.0000 0.0000 0.0000
# 3 1.6898 -19.6561 157.2931 0.0000 0.0000 0.0000
# 4 0.0000 0.0000 0.0000 6.5328 0.0000 0.0000
# 5 0.0000 0.0000 0.0000 0.0000 -16.9363 0.0000
# 6 0.0000 0.0000 0.0000 0.0000 0.0000 -95.2512
#
#
#
# Elastic Compliance Matrix: (Units=1/GPa)
#
#
# Indices 1 2 3 4 5 6 
#
# 1 0.006798 -0.001083 -0.000208 0.000000 0.000000 0.000000
# 2 -0.001083 0.007142 0.000904 0.000000 0.000000 0.000000
# 3 -0.000208 0.000904 0.006473 0.000000 0.000000 0.000000
# 4 0.000000 0.000000 0.000000 0.153075 0.000000 0.000000
# 5 0.000000 0.000000 0.000000 0.000000 -0.059045 0.000000
# 6 0.000000 0.000000 0.000000 0.000000 0.000000 -0.010499
#
#
# Mechanical properties :
#
#
# Convention : Reuss Voigt Hill
#
# Bulk Modulus (GPa) = 50.92292 51.48679 51.20486
# Shear Modulus (GPa) = 44.93767 8.82311 26.88039
#
# Velocity S-wave (km/s) = 4.07010 1.80348 3.14787
# Velocity P-wave (km/s) = 6.39216 4.82873 5.66464
#
# Compressibility (1/GPa) = 0.01963752
#
# Stress axis : x y z
#
# Youngs Moduli (GPa) = 147.11156 140.00864 154.49290
#
# Poissons Ratio (x) = 0.15169 0.03220
# Poissons Ratio (y) = 0.15938 -0.13969
# Poissons Ratio (z) = 0.03066 -0.12659
#
# Static dielectric constant tensor:
#      x y z
#    x 2.067900 0.000000 0.000000 
#    y 0.000000 2.180790 0.000000 
#    z 0.000000 0.000000 2.006860 
# 
# From -- ./inp_files/1896.got.cif
#   From: 2010.05.17/outbox.cif.g08.bks.cpg/sg58_1_cif.got.tgz:1896.got - 2010.06.03 14:20:14.
