data_PCOD9443315
_publ_section_title
;
Structure prediction by ZEFSAII (Michael W. Deem and Ramdas Pophale) SiO2 
 PCOD9443315
Probable space group: P N N M
;
_chemical_formula_sum "Si O2"
_cell_formula_units_Z 48
_cell_length_a 6.890694
_cell_length_b 12.890623
_cell_length_c 27.384692
_cell_angle_alpha 90.000000
_cell_angle_beta 90.000000
_cell_angle_gamma 90.000000
_cell_volume 2432.454538
_symmetry_space_group_name_H-M "P N N M"
_symmetry_group_IT_number 58
_symmetry_cell_setting 'orthorhombic'
loop_
_space_group_symop_operation_xyz
x,y,z
-x,-y,z
1/2+x,1/2-y,1/2-z
1/2-x,1/2+y,1/2-z
-x,-y,-z
x,y,-z
1/2-x,1/2+y,1/2+z
1/2+x,1/2-y,1/2+z
loop_
_atom_site_type_symbol
_atom_site_label
_atom_site_fract_x
_atom_site_fract_y
_atom_site_fract_z
Si Si1 0.243956 0.740672 0.556817
Si Si2 0.956635 0.878764 0.376680
Si Si3 0.618996 0.392162 0.642398
Si Si4 0.287525 0.258051 0.690887
Si Si5 0.047769 0.610500 0.273783
Si Si6 0.102119 0.608254 0.053368
O O1 0.174818 0.724565 0.500000
O O2 0.283931 0.640007 0.590480
O O3 0.445973 0.801551 0.552231
O O4 0.113682 0.817267 0.590657
O O5 0.885124 0.815900 0.329792
O O6 0.764434 0.873029 0.408387
O O7 0.000000 0.000000 0.367717
O O8 0.500000 0.500000 0.639682
O O9 0.463595 0.301809 0.657505
O O10 0.789416 0.397163 0.683463
O O11 0.382227 0.195186 0.735090
O O12 0.161454 0.356538 0.705982
O O13 0.000000 0.500000 0.249470
O O14 0.000000 0.500000 0.064484
O O15 0.194209 0.596841 0.000000
#
# Coordination Sequence:
#
# PCOD9443315 Si02
#       6
#     8   8   8   8   8   8
#     4  11  24  41  65  98 135 177 229 283 333 391
#     4  12  24  38  65 100 139 175 218 270 334 398
#     4  12  25  45  73  95 132 180 227 276 339 393
#     4  12  26  43  69 103 137 172 220 276 331 405
#     4  12  26  45  73 102 132 174 223 270 337 405
#     4  10  20  35  58  90 129 175 217 260 322 391
#
# _framework density 19.733153999999999
#
# number of rings (size 3 to 8) (size 9 to 14) (size 15 to 20)
#    0.000    0.500    8.333    0.500    0.000    5.000 
#    0.000    0.000    0.000    1.500    0.000    0.000 
#    0.000    0.000    0.000    0.000    0.000    0.000 
#
# Total GULP energy -267638.112280 kJ/mol
# GULP energy per Si atom -5575.794006 kJ/mol
# Density = 1.968824 g / cm^3
# Si number density = 19.733154 Si / 1000 Ang^3
#
#
#
# Elastic Constant Matrix: (Units=GPa)
#
#
# Indices 1 2 3 4 5 6 
#
# 1 69.3471 18.3528 0.8737 0.0000 0.0000 0.0000
# 2 18.3528 80.6244 30.4088 0.0000 0.0000 0.0000
# 3 0.8737 30.4088 66.2481 0.0000 0.0000 0.0000
# 4 0.0000 0.0000 0.0000 22.9347 0.0000 0.0000
# 5 0.0000 0.0000 0.0000 0.0000 27.9024 0.0000
# 6 0.0000 0.0000 0.0000 0.0000 0.0000 37.8127
#
#
#
# Elastic Compliance Matrix: (Units=1/GPa)
#
#
# Indices 1 2 3 4 5 6 
#
# 1 0.015504 -0.004175 0.001712 0.000000 0.000000 0.000000
# 2 -0.004175 0.016124 -0.007346 0.000000 0.000000 0.000000
# 3 0.001712 -0.007346 0.018444 0.000000 0.000000 0.000000
# 4 0.000000 0.000000 0.000000 0.043602 0.000000 0.000000
# 5 0.000000 0.000000 0.000000 0.000000 0.035839 0.000000
# 6 0.000000 0.000000 0.000000 0.000000 0.000000 0.026446
#
#
# Mechanical properties :
#
#
# Convention : Reuss Voigt Hill
#
# Bulk Modulus (GPa) = 32.83677 35.05447 33.94562
# Shear Modulus (GPa) = 26.92095 28.83556 27.87826
#
# Velocity S-wave (km/s) = 3.69758 3.82681 3.76275
# Velocity P-wave (km/s) = 5.90813 6.10973 6.00978
#
# Compressibility (1/GPa) = 0.03045366
#
# Stress axis : x y z
#
# Youngs Moduli (GPa) = 64.50155 62.01845 54.21758
#
# Poissons Ratio (x) = 0.25891 -0.09281
# Poissons Ratio (y) = 0.26928 0.39829
# Poissons Ratio (z) = -0.11041 0.45560
#
# Static dielectric constant tensor:
#      x y z
#    x 1.668820 0.000000 0.000000 
#    y 0.000000 1.514020 0.000000 
#    z 0.000000 0.000000 2.425160 
# 
# From -- ./inp_files/32817.got.cif
#   From: 2010.05.17/outbox.cif.g08.bks.cpg/sg58_17_cif.got.tgz:32817.got - 2010.06.03 14:20:14.
