data_PCOD9443114
_publ_section_title
;
Structure prediction by ZEFSAII (Michael W. Deem and Ramdas Pophale) SiO2 
 PCOD9443114
Probable space group: P N N M
;
_chemical_formula_sum "Si O2"
_cell_formula_units_Z 48
_cell_length_a 8.695386
_cell_length_b 9.613978
_cell_length_c 27.390632
_cell_angle_alpha 90.000000
_cell_angle_beta 90.000000
_cell_angle_gamma 90.000000
_cell_volume 2289.781503
_symmetry_space_group_name_H-M "P N N M"
_symmetry_group_IT_number 58
_symmetry_cell_setting 'orthorhombic'
loop_
_space_group_symop_operation_xyz
x,y,z
-x,-y,z
1/2+x,1/2-y,1/2-z
1/2-x,1/2+y,1/2-z
-x,-y,-z
x,y,-z
1/2-x,1/2+y,1/2+z
1/2+x,1/2-y,1/2+z
loop_
_atom_site_type_symbol
_atom_site_label
_atom_site_fract_x
_atom_site_fract_y
_atom_site_fract_z
Si Si1 0.933058 0.839689 0.500000
Si Si2 0.661443 0.534733 0.829834
Si Si3 0.607981 0.243348 0.718056
Si Si4 0.676042 0.035279 0.500000
Si Si5 0.677103 0.464318 0.636199
Si Si6 0.258925 0.250476 0.679805
Si Si7 0.841573 0.226705 0.578799
O O1 0.005181 0.762650 0.546384
O O2 0.757971 0.883465 0.500000
O O3 0.000000 0.000000 0.500000
O O4 0.500000 0.500000 0.803556
O O5 0.793472 0.609634 0.798976
O O6 0.730145 0.390671 0.849368
O O7 0.621401 0.638374 0.873295
O O8 0.671886 0.373703 0.686471
O O9 0.429225 0.239569 0.703600
O O10 0.640876 0.250221 0.775162
O O11 0.727849 0.130463 0.546111
O O12 0.500000 0.000000 0.500000
O O13 0.500000 0.500000 0.622878
O O14 0.755007 0.610669 0.648554
O O15 0.761495 0.368471 0.596406
#
# Coordination Sequence:
#
# PCOD9443114 Si02
#       7
#     4   8   8   4   8   8   8
#     4   8  16  36  62  86 114 148 184 229 283 348
#     4  11  21  35  57  82 111 149 193 242 289 344
#     4  10  21  36  54  79 112 153 200 247 292 344
#     4  10  20  34  64  96 116 146 194 241 288 356
#     4   9  20  36  55  82 118 155 193 243 299 346
#     4  11  21  36  57  82 114 155 199 245 295 350
#     4   9  19  38  59  84 116 151 189 236 291 348
#
# _framework density 20.962700000000002
#
# number of rings (size 3 to 8) (size 9 to 14) (size 15 to 20)
#    0.000    2.333    0.000    4.000    0.000    5.333 
#    0.000    8.333    0.000    8.000    0.000   23.333 
#    0.000    0.000    0.000    0.000    0.000    0.000 
#
# Total GULP energy -267896.782789 kJ/mol
# GULP energy per Si atom -5581.182975 kJ/mol
# Density = 2.091499 g / cm^3
# Si number density = 20.962700 Si / 1000 Ang^3
#
#
#
# Elastic Constant Matrix: (Units=GPa)
#
#
# Indices 1 2 3 4 5 6 
#
# 1 103.7412 55.3713 30.1772 0.0000 0.0000 0.0000
# 2 55.3713 156.2446 38.8128 0.0000 0.0000 0.0000
# 3 30.1772 38.8128 69.5802 0.0000 0.0000 0.0000
# 4 0.0000 0.0000 0.0000 20.6128 0.0000 0.0000
# 5 0.0000 0.0000 0.0000 0.0000 10.8922 0.0000
# 6 0.0000 0.0000 0.0000 0.0000 0.0000 24.1233
#
#
#
# Elastic Compliance Matrix: (Units=1/GPa)
#
#
# Indices 1 2 3 4 5 6 
#
# 1 0.012560 -0.003596 -0.003441 0.000000 0.000000 0.000000
# 2 -0.003596 0.008459 -0.003159 0.000000 0.000000 0.000000
# 3 -0.003441 -0.003159 0.017627 0.000000 0.000000 0.000000
# 4 0.000000 0.000000 0.000000 0.048514 0.000000 0.000000
# 5 0.000000 0.000000 0.000000 0.000000 0.091809 0.000000
# 6 0.000000 0.000000 0.000000 0.000000 0.000000 0.041454
#
#
# Mechanical properties :
#
#
# Convention : Reuss Voigt Hill
#
# Bulk Modulus (GPa) = 54.78629 64.25432 59.52030
# Shear Modulus (GPa) = 20.25118 24.80596 22.52857
#
# Velocity S-wave (km/s) = 3.11152 3.44370 3.28182
# Velocity P-wave (km/s) = 6.25305 6.82132 6.54335
#
# Compressibility (1/GPa) = 0.01825274
#
# Stress axis : x y z
#
# Youngs Moduli (GPa) = 79.61865 118.21117 56.73256
#
# Poissons Ratio (x) = 0.42512 0.19523
# Poissons Ratio (y) = 0.28633 0.17922
# Poissons Ratio (z) = 0.27399 0.37344
#
# Static dielectric constant tensor:
#      x y z
#    x 1.805650 0.000000 0.000000 
#    y 0.000000 1.782090 0.000000 
#    z 0.000000 0.000000 1.802520 
# 
# From -- ./inp_files/34645.got.cif
#   From: 2010.05.17/outbox.cif.g08.bks.cpg/sg58_18_cif.got.tgz:34645.got - 2010.06.03 14:20:14.
