data_PCOD9443756
_publ_section_title
;
Structure prediction by ZEFSAII (Michael W. Deem and Ramdas Pophale) SiO2 
 PCOD9443756
Probable space group: P N N M
;
_chemical_formula_sum "Si O2"
_cell_formula_units_Z 48
_cell_length_a 10.005311
_cell_length_b 14.187210
_cell_length_c 19.037969
_cell_angle_alpha 90.000000
_cell_angle_beta 90.000000
_cell_angle_gamma 90.000000
_cell_volume 2702.391120
_symmetry_space_group_name_H-M "P N N M"
_symmetry_group_IT_number 58
_symmetry_cell_setting 'orthorhombic'
loop_
_space_group_symop_operation_xyz
x,y,z
-x,-y,z
1/2+x,1/2-y,1/2-z
1/2-x,1/2+y,1/2-z
-x,-y,-z
x,y,-z
1/2-x,1/2+y,1/2+z
1/2+x,1/2-y,1/2+z
loop_
_atom_site_type_symbol
_atom_site_label
_atom_site_fract_x
_atom_site_fract_y
_atom_site_fract_z
Si Si1 0.713191 0.240819 0.083690
Si Si2 0.641819 0.447757 0.580345
Si Si3 0.869133 0.564829 0.168995
Si Si4 0.138400 0.443229 0.666391
Si Si5 0.146004 0.044960 0.582585
Si Si6 0.529873 0.240739 0.417568
O O1 0.644698 0.155729 0.125164
O O2 0.653348 0.343881 0.100283
O O3 0.872743 0.243549 0.099150
O O4 0.699434 0.224696 0.000000
O O5 0.500000 0.500000 0.586464
O O6 0.690031 0.462903 0.500000
O O7 0.745568 0.491709 0.634068
O O8 0.609778 0.338082 0.590292
O O9 0.839309 0.575904 0.251283
O O10 0.749762 0.512390 0.129338
O O11 0.905506 0.662051 0.131070
O O12 0.000000 0.500000 0.162746
O O13 0.000000 0.500000 0.658002
O O14 0.183725 0.037377 0.500000
O O15 0.000000 0.000000 0.590999
O O16 0.535433 0.212404 0.500000
#
# Coordination Sequence:
#
# PCOD9443756 Si02
#       6
#     8   8   8   8   8   8
#     4  10  20  39  65  89 119 159 202 254 306 348
#     4  10  20  38  63  90 117 154 209 253 294 358
#     4  11  23  40  59  87 123 163 204 242 296 370
#     4  11  25  40  57  89 130 163 197 245 305 371
#     4  10  22  40  63  91 120 152 200 254 306 360
#     4  10  20  37  67  94 113 153 212 261 293 346
#
# _framework density 17.762048
#
# number of rings (size 3 to 8) (size 9 to 14) (size 15 to 20)
#    0.000    1.667    3.333    1.000    0.000    5.333 
#    3.000    3.333    0.000    0.000    0.000    0.000 
#    0.000    0.000    0.000    0.000    0.000    0.000 
#
# Total GULP energy -268102.233028 kJ/mol
# GULP energy per Si atom -5585.463188 kJ/mol
# Density = 1.772162 g / cm^3
# Si number density = 17.762048 Si / 1000 Ang^3
#
#
#
# Elastic Constant Matrix: (Units=GPa)
#
#
# Indices 1 2 3 4 5 6 
#
# 1 75.7643 63.7235 75.9222 0.0000 0.0000 0.0000
# 2 63.7235 145.9261 100.0857 0.0000 0.0000 0.0000
# 3 75.9222 100.0857 122.6102 0.0000 0.0000 0.0000
# 4 0.0000 0.0000 0.0000 94.2423 0.0000 0.0000
# 5 0.0000 0.0000 0.0000 0.0000 1.5582 0.0000
# 6 0.0000 0.0000 0.0000 0.0000 0.0000 31.7371
#
#
#
# Elastic Compliance Matrix: (Units=1/GPa)
#
#
# Indices 1 2 3 4 5 6 
#
# 1 0.034838 -0.000949 -0.020798 0.000000 0.000000 0.000000
# 2 -0.000949 0.015596 -0.012143 0.000000 0.000000 0.000000
# 3 -0.020798 -0.012143 0.030947 0.000000 0.000000 0.000000
# 4 0.000000 0.000000 0.000000 0.010611 0.000000 0.000000
# 5 0.000000 0.000000 0.000000 0.000000 0.641786 0.000000
# 6 0.000000 0.000000 0.000000 0.000000 0.000000 0.031509
#
#
# Mechanical properties :
#
#
# Convention : Reuss Voigt Hill
#
# Bulk Modulus (GPa) = 73.52449 91.52926 82.52688
# Shear Modulus (GPa) = 5.96944 32.47878 19.22411
#
# Velocity S-wave (km/s) = 1.83523 4.28079 3.29342
# Velocity P-wave (km/s) = 6.78047 8.72217 7.81188
#
# Compressibility (1/GPa) = 0.01360091
#
# Stress axis : x y z
#
# Youngs Moduli (GPa) = 28.70440 64.12054 32.31368
#
# Poissons Ratio (x) = 0.06083 0.67205
# Poissons Ratio (y) = 0.02723 0.39239
# Poissons Ratio (z) = 0.59699 0.77863
#
# Static dielectric constant tensor:
#      x y z
#    x 1.578150 0.000000 0.000000 
#    y 0.000000 1.581420 0.000000 
#    z 0.000000 0.000000 1.594390 
# 
# From -- ./inp_files/25288.got.cif
#   From: 2010.05.17/outbox.cif.g08.bks.cpg/sg58_13_cif.got.tgz:25288.got - 2010.06.03 14:20:14.
