data_PCOD9443653
_publ_section_title
;
Structure prediction by ZEFSAII (Michael W. Deem and Ramdas Pophale) SiO2 
 PCOD9443653
Probable space group: P N N M
;
_chemical_formula_sum "Si O2"
_cell_formula_units_Z 64
_cell_length_a 12.684961
_cell_length_b 14.149565
_cell_length_c 15.025120
_cell_angle_alpha 90.000000
_cell_angle_beta 90.000000
_cell_angle_gamma 90.000000
_cell_volume 2696.808908
_symmetry_space_group_name_H-M "P N N M"
_symmetry_group_IT_number 58
_symmetry_cell_setting 'orthorhombic'
loop_
_space_group_symop_operation_xyz
x,y,z
-x,-y,z
1/2+x,1/2-y,1/2-z
1/2-x,1/2+y,1/2-z
-x,-y,-z
x,y,-z
1/2-x,1/2+y,1/2+z
1/2+x,1/2-y,1/2+z
loop_
_atom_site_type_symbol
_atom_site_label
_atom_site_fract_x
_atom_site_fract_y
_atom_site_fract_z
Si Si1 0.770806 0.673311 0.675908
Si Si2 0.534966 0.686147 0.104800
Si Si3 0.393613 0.563656 0.600220
Si Si4 0.833608 0.890159 0.296053
Si Si5 0.751836 0.579918 0.860979
Si Si6 0.440523 0.285205 0.398312
Si Si7 0.517485 0.106000 0.102480
Si Si8 0.981803 0.597441 0.099925
O O1 0.784883 0.785418 0.693710
O O2 0.785356 0.615044 0.764174
O O3 0.650962 0.657021 0.647317
O O4 0.859411 0.635273 0.609352
O O5 0.452680 0.628183 0.166641
O O6 0.648503 0.637540 0.111047
O O7 0.537381 0.796324 0.135858
O O8 0.500762 0.684237 0.000000
O O9 0.500000 0.500000 0.605969
O O10 0.346509 0.545384 0.500000
O O11 0.333072 0.568532 0.694569
O O12 0.446052 0.667213 0.598596
O O13 0.777189 0.969181 0.356700
O O14 0.857606 0.606157 0.911343
O O15 0.404147 0.275758 0.500000
O O16 0.461244 0.184414 0.355051
O O17 0.500000 0.000000 0.140198
O O18 0.482709 0.099428 0.000000
O O19 0.000000 0.500000 0.148728
O O20 0.028638 0.591013 0.000000
#
# Coordination Sequence:
#
# PCOD9443653 Si02
#       8
#     8   8   8   8   8   8   8   8
#     4  11  23  37  59  89 123 163 206 256 314 380
#     4  10  22  40  64  94 129 167 208 261 320 384
#     4  10  20  37  61  84 112 152 198 254 312 363
#     4  11  23  40  60  89 127 163 207 259 320 389
#     4  12  24  37  60  90 122 161 208 259 316 383
#     4  10  20  37  60  84 115 155 202 254 304 361
#     4   9  20  41  66  92 125 166 212 262 318 382
#     4  10  22  40  60  83 115 155 199 247 300 365
#
# _framework density 23.731753000000001
#
# number of rings (size 3 to 8) (size 9 to 14) (size 15 to 20)
#    0.000    1.625    0.000    4.875    0.000    4.500 
#    0.000    2.500    0.000    4.500    0.000    0.000 
#    0.000    0.000    0.000    0.000    0.000    0.000 
#
# Total GULP energy -357078.192944 kJ/mol
# GULP energy per Si atom -5579.346765 kJ/mol
# Density = 2.367774 g / cm^3
# Si number density = 23.731753 Si / 1000 Ang^3
#
#
#
# Elastic Constant Matrix: (Units=GPa)
#
#
# Indices 1 2 3 4 5 6 
#
# 1 63.5792 9.6386 -3.4672 0.0000 0.0000 0.0000
# 2 9.6386 126.0411 -1.6788 0.0000 0.0000 0.0000
# 3 -3.4672 -1.6788 90.4666 0.0000 0.0000 0.0000
# 4 0.0000 0.0000 0.0000 26.5982 0.0000 0.0000
# 5 0.0000 0.0000 0.0000 0.0000 57.2018 0.0000
# 6 0.0000 0.0000 0.0000 0.0000 0.0000 27.2958
#
#
#
# Elastic Compliance Matrix: (Units=1/GPa)
#
#
# Indices 1 2 3 4 5 6 
#
# 1 0.015944 -0.001211 0.000589 0.000000 0.000000 0.000000
# 2 -0.001211 0.008028 0.000103 0.000000 0.000000 0.000000
# 3 0.000589 0.000103 0.011078 0.000000 0.000000 0.000000
# 4 0.000000 0.000000 0.000000 0.037597 0.000000 0.000000
# 5 0.000000 0.000000 0.000000 0.000000 0.017482 0.000000
# 6 0.000000 0.000000 0.000000 0.000000 0.000000 0.036636
#
#
# Mechanical properties :
#
#
# Convention : Reuss Voigt Hill
#
# Bulk Modulus (GPa) = 29.40335 32.11913 30.76124
# Shear Modulus (GPa) = 35.93458 40.59211 38.26335
#
# Velocity S-wave (km/s) = 3.89549 4.14025 4.01974
# Velocity P-wave (km/s) = 5.71401 6.03483 5.87661
#
# Compressibility (1/GPa) = 0.03400973
#
# Stress axis : x y z
#
# Youngs Moduli (GPa) = 62.71892 124.56513 90.26690
#
# Poissons Ratio (x) = 0.15090 -0.05313
# Poissons Ratio (y) = 0.07598 -0.00926
# Poissons Ratio (z) = -0.03692 -0.01277
#
# Static dielectric constant tensor:
#      x y z
#    x 1.924270 0.000000 0.000000 
#    y 0.000000 1.994820 0.000000 
#    z 0.000000 0.000000 2.013250 
# 
# From -- ./inp_files/26401.got.cif
#   From: 2010.05.17/outbox.cif.g08.bks.cpg/sg58_14_cif.got.tgz:26401.got - 2010.06.03 14:20:14.
