data_PCOD9443275
_publ_section_title
;
Structure prediction by ZEFSAII (Michael W. Deem and Ramdas Pophale) SiO2 
 PCOD9443275
Probable space group: P N N M
;
_chemical_formula_sum "Si O2"
_cell_formula_units_Z 48
_cell_length_a 7.085014
_cell_length_b 27.957689
_cell_length_c 12.822330
_cell_angle_alpha 90.000000
_cell_angle_beta 90.000000
_cell_angle_gamma 90.000000
_cell_volume 2539.855050
_symmetry_space_group_name_H-M "P N N M"
_symmetry_group_IT_number 58
_symmetry_cell_setting 'orthorhombic'
loop_
_space_group_symop_operation_xyz
x,y,z
-x,-y,z
1/2+x,1/2-y,1/2-z
1/2-x,1/2+y,1/2-z
-x,-y,-z
x,y,-z
1/2-x,1/2+y,1/2+z
1/2+x,1/2-y,1/2+z
loop_
_atom_site_type_symbol
_atom_site_label
_atom_site_fract_x
_atom_site_fract_y
_atom_site_fract_z
Si Si1 0.123304 0.041934 0.117046
Si Si2 0.456483 0.312858 0.240237
Si Si3 0.111523 0.272886 0.121176
Si Si4 0.521951 0.945045 0.739629
Si Si5 0.194770 0.642342 0.878439
Si Si6 0.778666 0.110325 0.119507
O O1 0.308804 0.052596 0.178307
O O2 0.984192 0.086388 0.111324
O O3 0.173817 0.025489 0.000000
O O4 0.000000 0.000000 0.167742
O O5 0.317906 0.292264 0.151805
O O6 0.557674 0.270505 0.303134
O O7 0.619137 0.346247 0.190062
O O8 0.318285 0.340482 0.320649
O O9 0.956065 0.314726 0.135734
O O10 0.106656 0.258157 0.000000
O O11 0.589434 0.906446 0.654887
O O12 0.347892 0.923375 0.806039
O O13 0.500000 0.000000 0.701994
O O14 0.247499 0.640439 0.000000
O O15 0.704739 0.114684 0.000000
#
# Coordination Sequence:
#
# PCOD9443275 Si02
#       6
#     8   8   8   8   8   8
#     4  10  20  35  57  87 125 164 203 252 312 371
#     4  12  22  44  67  95 126 164 206 256 311 384
#     4  11  24  42  67  96 127 164 206 258 315 376
#     4  12  23  39  64  91 127 166 216 260 312 369
#     4  11  25  44  64  90 126 169 213 259 313 368
#     4  11  23  37  60  95 131 164 200 252 315 380
#
# _framework density 18.898717000000001
#
# number of rings (size 3 to 8) (size 9 to 14) (size 15 to 20)
#    0.000    0.833    6.667    1.500    0.000    1.000 
#    0.000    1.667    0.000    1.500    0.000    0.000 
#    0.000    0.000    0.000    0.000    0.000    0.000 
#
# Total GULP energy -267883.773945 kJ/mol
# GULP energy per Si atom -5580.911957 kJ/mol
# Density = 1.885570 g / cm^3
# Si number density = 18.898717 Si / 1000 Ang^3
#
#
#
# Elastic Constant Matrix: (Units=GPa)
#
#
# Indices 1 2 3 4 5 6 
#
# 1 69.9173 21.7656 22.0360 0.0000 0.0000 0.0000
# 2 21.7656 93.1823 43.9492 0.0000 0.0000 0.0000
# 3 22.0360 43.9492 83.4943 0.0000 0.0000 0.0000
# 4 0.0000 0.0000 0.0000 24.2895 0.0000 0.0000
# 5 0.0000 0.0000 0.0000 0.0000 37.7917 0.0000
# 6 0.0000 0.0000 0.0000 0.0000 0.0000 33.6059
#
#
#
# Elastic Compliance Matrix: (Units=1/GPa)
#
#
# Indices 1 2 3 4 5 6 
#
# 1 0.015968 -0.002317 -0.002994 0.000000 0.000000 0.000000
# 2 -0.002317 0.014612 -0.007080 0.000000 0.000000 0.000000
# 3 -0.002994 -0.007080 0.016494 0.000000 0.000000 0.000000
# 4 0.000000 0.000000 0.000000 0.041170 0.000000 0.000000
# 5 0.000000 0.000000 0.000000 0.000000 0.026461 0.000000
# 6 0.000000 0.000000 0.000000 0.000000 0.000000 0.029757
#
#
# Mechanical properties :
#
#
# Convention : Reuss Voigt Hill
#
# Bulk Modulus (GPa) = 44.86245 46.89950 45.88097
# Shear Modulus (GPa) = 28.30059 29.72696 29.01378
#
# Velocity S-wave (km/s) = 3.87394 3.97036 3.92244
# Velocity P-wave (km/s) = 6.61814 6.77410 6.69657
#
# Compressibility (1/GPa) = 0.02229036
#
# Stress axis : x y z
#
# Youngs Moduli (GPa) = 62.62604 68.43623 60.62887
#
# Poissons Ratio (x) = 0.15860 0.18155
# Poissons Ratio (y) = 0.14513 0.42924
# Poissons Ratio (z) = 0.18753 0.48452
#
# Static dielectric constant tensor:
#      x y z
#    x 1.644710 0.000000 0.000000 
#    y 0.000000 1.700070 0.000000 
#    z 0.000000 0.000000 1.655360 
# 
# From -- ./inp_files/18614.got.cif
#   From: 2010.05.17/outbox.cif.g08.bks.cpg/sg58_10_cif.got.tgz:18614.got - 2010.06.03 14:20:14.
