data_PCOD9443766
_publ_section_title
;
Structure prediction by ZEFSAII (Michael W. Deem and Ramdas Pophale) SiO2 
 PCOD9443766
Probable space group: P N N M
;
_chemical_formula_sum "Si O2"
_cell_formula_units_Z 48
_cell_length_a 8.000579
_cell_length_b 10.003442
_cell_length_c 30.870901
_cell_angle_alpha 90.000000
_cell_angle_beta 90.000000
_cell_angle_gamma 90.000000
_cell_volume 2470.700945
_symmetry_space_group_name_H-M "P N N M"
_symmetry_group_IT_number 58
_symmetry_cell_setting 'orthorhombic'
loop_
_space_group_symop_operation_xyz
x,y,z
-x,-y,z
1/2+x,1/2-y,1/2-z
1/2-x,1/2+y,1/2-z
-x,-y,-z
x,y,-z
1/2-x,1/2+y,1/2+z
1/2+x,1/2-y,1/2+z
loop_
_atom_site_type_symbol
_atom_site_label
_atom_site_fract_x
_atom_site_fract_y
_atom_site_fract_z
Si Si1 0.406622 0.639760 0.548044
Si Si2 0.091379 0.273163 0.191537
Si Si3 0.949261 0.149977 0.726498
Si Si4 0.774364 0.431504 0.365986
Si Si5 0.084877 0.638426 0.895716
Si Si6 0.874523 0.723325 0.354309
O O1 0.500000 0.500000 0.543304
O O2 0.346807 0.680566 0.500000
O O3 0.275485 0.604054 0.585216
O O4 0.523747 0.751224 0.569932
O O5 0.971864 0.243812 0.231802
O O6 0.260383 0.345256 0.208201
O O7 0.158431 0.137724 0.169609
O O8 0.998003 0.342730 0.151838
O O9 0.079722 0.203213 0.690278
O O10 0.000000 0.000000 0.737660
O O11 0.761736 0.589358 0.355970
O O12 0.950720 0.353443 0.363364
O O13 0.281575 0.669590 0.885740
O O14 0.000000 0.500000 0.911029
#
# Coordination Sequence:
#
# PCOD9443766 Si02
#       6
#     8   8   8   8   8   8
#     4  10  20  38  64  91 119 151 197 247 302 374
#     4  10  23  35  54  81 111 159 196 244 298 345
#     4  11  23  36  53  81 117 155 204 253 292 353
#     4   9  20  38  60  85 113 157 200 247 305 353
#     4  11  22  38  61  86 119 158 195 245 309 368
#     4  10  20  38  58  83 117 156 203 249 295 360
#
# _framework density 19.427685
#
# number of rings (size 3 to 8) (size 9 to 14) (size 15 to 20)
#    0.000    1.833    1.667    2.000    4.667    0.333 
#    3.000    2.500    0.000    1.000    0.000    0.000 
#    0.000    0.000    0.000    0.000    0.000    0.000 
#
# Total GULP energy -267221.224244 kJ/mol
# GULP energy per Si atom -5567.108838 kJ/mol
# Density = 1.938347 g / cm^3
# Si number density = 19.427685 Si / 1000 Ang^3
#
#
#
# Elastic Constant Matrix: (Units=GPa)
#
#
# Indices 1 2 3 4 5 6 
#
# 1 49.5630 11.5799 4.2612 0.0000 0.0000 0.0000
# 2 11.5799 76.0874 19.7932 0.0000 0.0000 0.0000
# 3 4.2612 19.7932 72.2799 0.0000 0.0000 0.0000
# 4 0.0000 0.0000 0.0000 3.5356 0.0000 0.0000
# 5 0.0000 0.0000 0.0000 0.0000 -0.1766 0.0000
# 6 0.0000 0.0000 0.0000 0.0000 0.0000 16.2940
#
#
#
# Elastic Compliance Matrix: (Units=1/GPa)
#
#
# Indices 1 2 3 4 5 6 
#
# 1 0.020930 -0.003084 -0.000389 0.000000 0.000000 0.000000
# 2 -0.003084 0.014605 -0.003818 0.000000 0.000000 0.000000
# 3 -0.000389 -0.003818 0.014904 0.000000 0.000000 0.000000
# 4 0.000000 0.000000 0.000000 0.282837 0.000000 0.000000
# 5 0.000000 0.000000 0.000000 0.000000 -5.664100 0.000000
# 6 0.000000 0.000000 0.000000 0.000000 0.000000 0.061372
#
#
# Mechanical properties :
#
#
# Convention : Reuss Voigt Hill
#
# Bulk Modulus (GPa) = 27.88876 29.91100 28.89988
# Shear Modulus (GPa) = -0.95367 14.75034 6.89833
#
# Velocity S-wave (km/s) = -0.70139 2.75843 1.88639
# Velocity P-wave (km/s) = 3.70546 5.05714 4.43312
#
# Compressibility (1/GPa) = 0.03585674
#
# Stress axis : x y z
#
# Youngs Moduli (GPa) = 47.77737 68.46826 67.09833
#
# Poissons Ratio (x) = 0.21117 0.02613
# Poissons Ratio (y) = 0.14735 0.25616
# Poissons Ratio (z) = 0.01860 0.26139
#
# Static dielectric constant tensor:
#      x y z
#    x 1.751130 0.000000 0.000000 
#    y 0.000000 1.710830 0.000000 
#    z 0.000000 0.000000 1.675220 
# 
# From -- ./inp_files/34535.got.cif
#   From: 2010.05.17/outbox.cif.g08.bks.cpg/sg58_18_cif.got.tgz:34535.got - 2010.06.03 14:20:14.
