data_PCOD9443200
_publ_section_title
;
Structure prediction by ZEFSAII (Michael W. Deem and Ramdas Pophale) SiO2 
 PCOD9443200
Probable space group: P N N M
;
_chemical_formula_sum "Si O2"
_cell_formula_units_Z 48
_cell_length_a 15.273791
_cell_length_b 12.261828
_cell_length_c 13.115298
_cell_angle_alpha 90.000000
_cell_angle_beta 90.000000
_cell_angle_gamma 90.000000
_cell_volume 2456.293316
_symmetry_space_group_name_H-M "P N N M"
_symmetry_group_IT_number 58
_symmetry_cell_setting 'orthorhombic'
loop_
_space_group_symop_operation_xyz
x,y,z
-x,-y,z
1/2+x,1/2-y,1/2-z
1/2-x,1/2+y,1/2-z
-x,-y,-z
x,y,-z
1/2-x,1/2+y,1/2+z
1/2+x,1/2-y,1/2+z
loop_
_atom_site_type_symbol
_atom_site_label
_atom_site_fract_x
_atom_site_fract_y
_atom_site_fract_z
Si Si1 0.418091 0.569476 0.687548
Si Si2 0.686207 0.728971 0.122552
Si Si3 0.731302 0.971865 0.121305
Si Si4 0.436585 0.901371 0.174537
Si Si5 0.614623 0.185047 0.382802
Si Si6 0.501671 0.335796 0.883041
O O1 0.500000 0.500000 0.648049
O O2 0.325442 0.511737 0.671640
O O3 0.408929 0.687069 0.632351
O O4 0.438766 0.596890 0.805500
O O5 0.781077 0.676583 0.140523
O O6 0.598518 0.668830 0.157919
O O7 0.692921 0.854712 0.158675
O O8 0.675643 0.734152 0.000000
O O9 0.660610 0.063983 0.142757
O O10 0.745067 0.962269 0.000000
O O11 0.436263 0.880607 0.296197
O O12 0.466280 0.789417 0.123082
O O13 0.500000 0.000000 0.145564
O O14 0.599273 0.153674 0.500000
O O15 0.505467 0.372593 0.000000
#
# Coordination Sequence:
#
# PCOD9443200 Si02
#       6
#     8   8   8   8   8   8
#     4  10  22  37  57  83 110 150 191 230 272 339
#     4   8  15  31  55  76 103 145 184 222 276 328
#     4  10  20  35  56  81 110 143 187 234 275 328
#     4  11  21  34  58  88 112 146 189 235 281 332
#     4   9  20  37  55  80 115 152 188 229 278 338
#     4  10  20  35  56  85 117 145 181 236 287 328
#
# _framework density 19.541640000000001
#
# number of rings (size 3 to 8) (size 9 to 14) (size 15 to 20)
#    0.000    2.333    1.667    2.000    2.333    2.667 
#    0.000    0.833    0.000    2.000    0.000    0.000 
#    0.000    0.000    0.000    0.000    0.000    0.000 
#
# Total GULP energy -267917.988002 kJ/mol
# GULP energy per Si atom -5581.624750 kJ/mol
# Density = 1.949716 g / cm^3
# Si number density = 19.541640 Si / 1000 Ang^3
#
#
#
# Elastic Constant Matrix: (Units=GPa)
#
#
# Indices 1 2 3 4 5 6 
#
# 1 123.7339 37.3387 30.5441 0.0000 0.0000 0.0000
# 2 37.3387 58.6925 10.2299 0.0000 0.0000 0.0000
# 3 30.5441 10.2299 87.5550 0.0000 0.0000 0.0000
# 4 0.0000 0.0000 0.0000 5.3927 0.0000 0.0000
# 5 0.0000 0.0000 0.0000 0.0000 25.8986 0.0000
# 6 0.0000 0.0000 0.0000 0.0000 0.0000 24.6136
#
#
#
# Elastic Compliance Matrix: (Units=1/GPa)
#
#
# Indices 1 2 3 4 5 6 
#
# 1 0.010725 -0.006299 -0.003005 0.000000 0.000000 0.000000
# 2 -0.006299 0.021092 -0.000267 0.000000 0.000000 0.000000
# 3 -0.003005 -0.000267 0.012501 0.000000 0.000000 0.000000
# 4 0.000000 0.000000 0.000000 0.185434 0.000000 0.000000
# 5 0.000000 0.000000 0.000000 0.000000 0.038612 0.000000
# 6 0.000000 0.000000 0.000000 0.000000 0.000000 0.040628
#
#
# Mechanical properties :
#
#
# Convention : Reuss Voigt Hill
#
# Bulk Modulus (GPa) = 39.72214 47.35630 43.53922
# Shear Modulus (GPa) = 14.85771 23.97223 19.41497
#
# Velocity S-wave (km/s) = 2.76036 3.50626 3.15543
# Velocity P-wave (km/s) = 5.52544 6.37793 5.96693
#
# Compressibility (1/GPa) = 0.02517488
#
# Stress axis : x y z
#
# Youngs Moduli (GPa) = 93.24426 47.41210 79.99346
#
# Poissons Ratio (x) = 0.29864 0.24041
# Poissons Ratio (y) = 0.58733 0.02136
# Poissons Ratio (z) = 0.28023 0.01266
#
# Static dielectric constant tensor:
#      x y z
#    x 1.695270 0.000000 0.000000 
#    y 0.000000 1.690850 0.000000 
#    z 0.000000 0.000000 1.672220 
# 
# From -- ./inp_files/22282.got.cif
#   From: 2010.05.17/outbox.cif.g08.bks.cpg/sg58_12_cif.got.tgz:22282.got - 2010.06.03 14:20:14.
