data_PCOD9443400
_publ_section_title
;
Structure prediction by ZEFSAII (Michael W. Deem and Ramdas Pophale) SiO2 
 PCOD9443400
Probable space group: P N N M
;
_chemical_formula_sum "Si O2"
_cell_formula_units_Z 64
_cell_length_a 23.648491
_cell_length_b 16.566295
_cell_length_c 7.807947
_cell_angle_alpha 90.000000
_cell_angle_beta 90.000000
_cell_angle_gamma 90.000000
_cell_volume 3058.902829
_symmetry_space_group_name_H-M "P N N M"
_symmetry_group_IT_number 58
_symmetry_cell_setting 'orthorhombic'
loop_
_space_group_symop_operation_xyz
x,y,z
-x,-y,z
1/2+x,1/2-y,1/2-z
1/2-x,1/2+y,1/2-z
-x,-y,-z
x,y,-z
1/2-x,1/2+y,1/2+z
1/2+x,1/2-y,1/2+z
loop_
_atom_site_type_symbol
_atom_site_label
_atom_site_fract_x
_atom_site_fract_y
_atom_site_fract_z
Si Si1 0.023104 0.087913 0.709955
Si Si2 0.354512 0.631696 0.808357
Si Si3 0.673384 0.953520 0.295923
Si Si4 0.452275 0.252859 0.208670
Si Si5 0.785323 0.008669 0.811031
Si Si6 0.457009 0.069254 0.795651
Si Si7 0.746037 0.794110 0.291037
Si Si8 0.838022 0.165935 0.695333
O O1 0.022162 0.084459 0.500000
O O2 0.087090 0.103391 0.771034
O O3 0.988983 0.168828 0.760067
O O4 0.000000 0.000000 0.766760
O O5 0.313667 0.554113 0.817165
O O6 0.310621 0.694919 0.731530
O O7 0.368764 0.660323 0.000000
O O8 0.671512 0.957904 0.500000
O O9 0.718970 0.019445 0.230209
O O10 0.608981 0.953847 0.232362
O O11 0.705409 0.870027 0.246479
O O12 0.466038 0.161804 0.270088
O O13 0.388790 0.278049 0.259668
O O14 0.454379 0.249408 0.000000
O O15 0.823637 0.087214 0.800700
O O16 0.789514 0.973072 0.000000
O O17 0.500000 0.000000 0.728516
O O18 0.466059 0.073153 0.000000
O O19 0.745749 0.787443 0.500000
O O20 0.718048 0.718152 0.205139
O O21 0.851676 0.141891 0.500000
#
# Coordination Sequence:
#
# PCOD9443400 Si02
#       8
#     8   8   8   8   8   8   8   8
#     4   9  16  29  53  82 112 147 189 234 279 333
#     4   9  18  34  54  78 110 145 183 225 277 338
#     4  10  20  37  59  81 110 145 188 234 289 348
#     4   9  18  32  54  84 113 147 193 241 284 334
#     4  11  22  35  55  82 112 143 182 232 291 348
#     4  10  20  36  57  84 116 152 198 245 290 341
#     4   9  18  32  51  77 107 140 178 227 281 335
#     4  11  20  33  55  80 109 143 186 234 282 341
#
# _framework density 20.922533999999999
#
# number of rings (size 3 to 8) (size 9 to 14) (size 15 to 20)
#    0.000    2.250    1.250    3.375    0.000    4.250 
#    2.250    0.000    0.000    4.875    0.000    0.000 
#    0.000    0.000    0.000    0.000    0.000    0.000 
#
# Total GULP energy -356538.231463 kJ/mol
# GULP energy per Si atom -5570.909867 kJ/mol
# Density = 2.087491 g / cm^3
# Si number density = 20.922534 Si / 1000 Ang^3
#
#
#
# Elastic Constant Matrix: (Units=GPa)
#
#
# Indices 1 2 3 4 5 6 
#
# 1 134.7344 49.5396 -6.2055 0.0000 0.0000 0.0000
# 2 49.5396 90.5428 5.7002 0.0000 0.0000 0.0000
# 3 -6.2055 5.7002 39.7865 0.0000 0.0000 0.0000
# 4 0.0000 0.0000 0.0000 13.2148 0.0000 0.0000
# 5 0.0000 0.0000 0.0000 0.0000 18.8291 0.0000
# 6 0.0000 0.0000 0.0000 0.0000 0.0000 30.9677
#
#
#
# Elastic Compliance Matrix: (Units=1/GPa)
#
#
# Indices 1 2 3 4 5 6 
#
# 1 0.009485 -0.005331 0.002243 0.000000 0.000000 0.000000
# 2 -0.005331 0.014141 -0.002858 0.000000 0.000000 0.000000
# 3 0.002243 -0.002858 0.025893 0.000000 0.000000 0.000000
# 4 0.000000 0.000000 0.000000 0.075673 0.000000 0.000000
# 5 0.000000 0.000000 0.000000 0.000000 0.053109 0.000000
# 6 0.000000 0.000000 0.000000 0.000000 0.000000 0.032292
#
#
# Mechanical properties :
#
#
# Convention : Reuss Voigt Hill
#
# Bulk Modulus (GPa) = 26.57495 40.34803 33.46149
# Shear Modulus (GPa) = 21.27409 27.00429 24.13919
#
# Velocity S-wave (km/s) = 3.19219 3.59650 3.40036
# Velocity P-wave (km/s) = 5.12991 6.04754 5.60753
#
# Compressibility (1/GPa) = 0.03762942
#
# Stress axis : x y z
#
# Youngs Moduli (GPa) = 105.42412 70.71500 38.61981
#
# Poissons Ratio (x) = 0.37699 -0.08663
# Poissons Ratio (y) = 0.56203 0.11036
# Poissons Ratio (z) = -0.23649 0.20207
#
# Static dielectric constant tensor:
#      x y z
#    x 1.773360 0.000000 0.000000 
#    y 0.000000 1.785560 0.000000 
#    z 0.000000 0.000000 1.800430 
# 
# From -- ./inp_files/10156.got.cif
#   From: 2010.05.17/outbox.cif.g08.bks.cpg/sg58_6_cif.got.tgz:10156.got - 2010.06.03 14:20:14.
