data_PCOD9443994
_publ_section_title
;
Structure prediction by ZEFSAII (Michael W. Deem and Ramdas Pophale) SiO2 
 PCOD9443994
Probable space group: P N N M
;
_chemical_formula_sum "Si O2"
_cell_formula_units_Z 48
_cell_length_a 8.897887
_cell_length_b 9.298837
_cell_length_c 28.541875
_cell_angle_alpha 90.000000
_cell_angle_beta 90.000000
_cell_angle_gamma 90.000000
_cell_volume 2361.554762
_symmetry_space_group_name_H-M "P N N M"
_symmetry_group_IT_number 58
_symmetry_cell_setting 'orthorhombic'
loop_
_space_group_symop_operation_xyz
x,y,z
-x,-y,z
1/2+x,1/2-y,1/2-z
1/2-x,1/2+y,1/2-z
-x,-y,-z
x,y,-z
1/2-x,1/2+y,1/2+z
1/2+x,1/2-y,1/2+z
loop_
_atom_site_type_symbol
_atom_site_label
_atom_site_fract_x
_atom_site_fract_y
_atom_site_fract_z
Si Si1 0.000000 0.500000 0.832624
Si Si2 0.500000 0.500000 0.830620
Si Si3 0.655059 0.092359 0.500000
Si Si4 0.247187 0.368440 0.103225
Si Si5 0.757999 0.831203 0.273886
Si Si6 0.318991 0.978817 0.194887
Si Si7 0.664168 0.442829 0.500000
Si Si8 0.175398 0.533643 0.406623
O O1 0.095686 0.397925 0.867325
O O2 0.116708 0.592495 0.800675
O O3 0.623054 0.565889 0.864922
O O4 0.589779 0.387489 0.798436
O O5 0.733318 0.064675 0.449292
O O6 0.649390 0.268244 0.500000
O O7 0.500000 0.000000 0.500000
O O8 0.289005 0.201774 0.099158
O O9 0.763728 0.660372 0.277238
O O10 0.749473 0.883681 0.220596
O O11 0.500000 0.000000 0.195344
O O12 0.271187 0.959846 0.141174
O O13 0.500000 0.500000 0.500000
O O14 0.745392 0.504787 0.454480
O O15 0.000000 0.500000 0.411079
#
# Coordination Sequence:
#
# PCOD9443994 Si02
#       8
#     4   4   4   8   8   8   4   8
#     4  10  22  41  64  90 134 169 216 262 330 388
#     4  10  22  39  60  94 132 173 222 262 328 384
#     4  10  20  40  63  94 125 166 210 271 334 382
#     4  10  21  40  65  92 130 169 215 270 329 391
#     4  11  25  41  66  93 134 176 218 272 322 395
#     4  11  25  42  65  96 133 171 224 265 331 387
#     4  10  23  43  65  96 124 164 216 271 326 390
#     4  10  22  42  66  89 130 168 216 264 328 388
#
# _framework density 20.325592
#
# number of rings (size 3 to 8) (size 9 to 14) (size 15 to 20)
#    0.000    1.667    1.667    2.250    7.000    3.000 
#    4.500    0.000    0.000    0.000    0.000    0.000 
#    0.000    0.000    0.000    0.000    0.000    0.000 
#
# Total GULP energy -268019.418097 kJ/mol
# GULP energy per Si atom -5583.737877 kJ/mol
# Density = 2.027933 g / cm^3
# Si number density = 20.325592 Si / 1000 Ang^3
#
#
#
# Elastic Constant Matrix: (Units=GPa)
#
#
# Indices 1 2 3 4 5 6 
#
# 1 90.1705 18.2093 43.3333 0.0000 0.0000 0.0000
# 2 18.2093 49.8943 12.5888 0.0000 0.0000 0.0000
# 3 43.3333 12.5888 139.2130 0.0000 0.0000 0.0000
# 4 0.0000 0.0000 0.0000 22.7459 0.0000 0.0000
# 5 0.0000 0.0000 0.0000 0.0000 23.9371 0.0000
# 6 0.0000 0.0000 0.0000 0.0000 0.0000 23.6587
#
#
#
# Elastic Compliance Matrix: (Units=1/GPa)
#
#
# Indices 1 2 3 4 5 6 
#
# 1 0.013794 -0.004043 -0.003928 0.000000 0.000000 0.000000
# 2 -0.004043 0.021695 -0.000703 0.000000 0.000000 0.000000
# 3 -0.003928 -0.000703 0.008470 0.000000 0.000000 0.000000
# 4 0.000000 0.000000 0.000000 0.043964 0.000000 0.000000
# 5 0.000000 0.000000 0.000000 0.000000 0.041776 0.000000
# 6 0.000000 0.000000 0.000000 0.000000 0.000000 0.042268
#
#
# Mechanical properties :
#
#
# Convention : Reuss Voigt Hill
#
# Bulk Modulus (GPa) = 37.58007 47.50451 42.54229
# Shear Modulus (GPa) = 25.22873 27.74477 26.48675
#
# Velocity S-wave (km/s) = 3.52693 3.69862 3.61380
# Velocity P-wave (km/s) = 5.92578 6.45463 6.19585
#
# Compressibility (1/GPa) = 0.02660985
#
# Stress axis : x y z
#
# Youngs Moduli (GPa) = 72.49324 46.09268 118.06952
#
# Poissons Ratio (x) = 0.18636 0.46380
# Poissons Ratio (y) = 0.29311 0.08304
# Poissons Ratio (z) = 0.28477 0.03242
#
# Static dielectric constant tensor:
#      x y z
#    x 1.751930 0.000000 0.000000 
#    y 0.000000 1.720870 0.000000 
#    z 0.000000 0.000000 1.736120 
# 
# From -- ./inp_files/34661.got.cif
#   From: 2010.05.17/outbox.cif.g08.bks.cpg/sg58_18_cif.got.tgz:34661.got - 2010.06.03 14:20:14.
