data_PCOD9443712
_publ_section_title
;
Structure prediction by ZEFSAII (Michael W. Deem and Ramdas Pophale) SiO2 
 PCOD9443712
Probable space group: P N N M
;
_chemical_formula_sum "Si O2"
_cell_formula_units_Z 64
_cell_length_a 14.849649
_cell_length_b 13.031894
_cell_length_c 18.232899
_cell_angle_alpha 90.000000
_cell_angle_beta 90.000000
_cell_angle_gamma 90.000000
_cell_volume 3528.413324
_symmetry_space_group_name_H-M "P N N M"
_symmetry_group_IT_number 58
_symmetry_cell_setting 'orthorhombic'
loop_
_space_group_symop_operation_xyz
x,y,z
-x,-y,z
1/2+x,1/2-y,1/2-z
1/2-x,1/2+y,1/2-z
-x,-y,-z
x,y,-z
1/2-x,1/2+y,1/2+z
1/2+x,1/2-y,1/2+z
loop_
_atom_site_type_symbol
_atom_site_label
_atom_site_fract_x
_atom_site_fract_y
_atom_site_fract_z
Si Si1 0.304131 0.142857 0.413805
Si Si2 0.189357 0.031642 0.916131
Si Si3 0.176332 0.339853 0.416243
Si Si4 0.585118 0.558604 0.716396
Si Si5 0.066423 0.410291 0.285908
Si Si6 0.983449 0.274990 0.843124
Si Si7 0.262846 0.949357 0.313777
Si Si8 0.677519 0.237785 0.414327
O O1 0.301881 0.116941 0.500000
O O2 0.243955 0.245052 0.402812
O O3 0.405554 0.169495 0.389242
O O4 0.268470 0.049780 0.364480
O O5 0.267037 0.945949 0.910577
O O6 0.115539 0.002570 0.856361
O O7 0.218832 0.148811 0.902506
O O8 0.154653 0.027513 0.000000
O O9 0.142989 0.331531 0.500000
O O10 0.100446 0.344344 0.354589
O O11 0.500000 0.500000 0.749959
O O12 0.556529 0.670769 0.689865
O O13 0.669752 0.559342 0.770401
O O14 0.155461 0.452965 0.244828
O O15 0.000000 0.500000 0.310690
O O16 0.014955 0.344789 0.224580
O O17 0.072166 0.255170 0.891892
O O18 0.279129 0.848986 0.363603
O O19 0.685490 0.211448 0.500000
#
# Coordination Sequence:
#
# PCOD9443712 Si02
#       8
#     8   8   8   8   8   8   8   8
#     4  11  22  39  63  88 122 163 207 250 300 362
#     4  10  20  37  62  89 119 155 198 248 304 362
#     4  10  22  39  61  88 119 164 205 245 298 358
#     4  12  24  39  60  92 124 162 201 250 307 364
#     4  11  22  39  60  90 125 157 202 249 307 368
#     4  11  22  36  59  95 122 155 193 259 313 365
#     4  11  24  40  60  88 125 166 201 247 299 363
#     4  10  22  38  60  89 124 159 199 250 308 363
#
# _framework density 18.138466000000001
#
# number of rings (size 3 to 8) (size 9 to 14) (size 15 to 20)
#    0.000    1.250    5.000    0.750    1.750    3.000 
#    0.000    1.875    0.000    3.000    0.000    0.000 
#    0.000    0.000    0.000    0.000    0.000    0.000 
#
# Total GULP energy -357487.174906 kJ/mol
# GULP energy per Si atom -5585.737108 kJ/mol
# Density = 1.809718 g / cm^3
# Si number density = 18.138466 Si / 1000 Ang^3
#
#
#
# Elastic Constant Matrix: (Units=GPa)
#
#
# Indices 1 2 3 4 5 6 
#
# 1 80.7793 34.9068 51.3561 0.0000 0.0000 0.0000
# 2 34.9068 89.7326 45.8950 0.0000 0.0000 0.0000
# 3 51.3561 45.8950 106.3657 0.0000 0.0000 0.0000
# 4 0.0000 0.0000 0.0000 8.3684 0.0000 0.0000
# 5 0.0000 0.0000 0.0000 0.0000 24.5119 0.0000
# 6 0.0000 0.0000 0.0000 0.0000 0.0000 21.1518
#
#
#
# Elastic Compliance Matrix: (Units=1/GPa)
#
#
# Indices 1 2 3 4 5 6 
#
# 1 0.018636 -0.003397 -0.007532 0.000000 0.000000 0.000000
# 2 -0.003397 0.014919 -0.004797 0.000000 0.000000 0.000000
# 3 -0.007532 -0.004797 0.015108 0.000000 0.000000 0.000000
# 4 0.000000 0.000000 0.000000 0.119497 0.000000 0.000000
# 5 0.000000 0.000000 0.000000 0.000000 0.040796 0.000000
# 6 0.000000 0.000000 0.000000 0.000000 0.000000 0.047277
#
#
# Mechanical properties :
#
#
# Convention : Reuss Voigt Hill
#
# Bulk Modulus (GPa) = 58.10403 60.13259 59.11831
# Shear Modulus (GPa) = 17.04020 20.45441 18.74730
#
# Velocity S-wave (km/s) = 3.06837 3.36174 3.21840
# Velocity P-wave (km/s) = 6.68254 6.94927 6.81721
#
# Compressibility (1/GPa) = 0.01721051
#
# Stress axis : x y z
#
# Youngs Moduli (GPa) = 53.65948 67.02702 66.18951
#
# Poissons Ratio (x) = 0.22770 0.49855
# Poissons Ratio (y) = 0.18229 0.31752
# Poissons Ratio (z) = 0.40417 0.32154
#
# Static dielectric constant tensor:
#      x y z
#    x 1.602720 0.000000 0.000000 
#    y 0.000000 1.623730 0.000000 
#    z 0.000000 0.000000 1.606230 
# 
# From -- ./inp_files/26995.got.cif
#   From: 2010.05.17/outbox.cif.g08.bks.cpg/sg58_14_cif.got.tgz:26995.got - 2010.06.03 14:20:14.
