data_PCOD9443121
_publ_section_title
;
Structure prediction by ZEFSAII (Michael W. Deem and Ramdas Pophale) SiO2 
 PCOD9443121
Probable space group: P N N M
;
_chemical_formula_sum "Si O2"
_cell_formula_units_Z 64
_cell_length_a 10.074086
_cell_length_b 31.252866
_cell_length_c 13.398811
_cell_angle_alpha 90.000000
_cell_angle_beta 90.000000
_cell_angle_gamma 90.000000
_cell_volume 4218.536052
_symmetry_space_group_name_H-M "P N N M"
_symmetry_group_IT_number 58
_symmetry_cell_setting 'orthorhombic'
loop_
_space_group_symop_operation_xyz
x,y,z
-x,-y,z
1/2+x,1/2-y,1/2-z
1/2-x,1/2+y,1/2-z
-x,-y,-z
x,y,-z
1/2-x,1/2+y,1/2+z
1/2+x,1/2-y,1/2+z
loop_
_atom_site_type_symbol
_atom_site_label
_atom_site_fract_x
_atom_site_fract_y
_atom_site_fract_z
Si Si1 0.099694 0.963428 0.120764
Si Si2 0.270368 0.172915 0.191075
Si Si3 0.713635 0.691977 0.304767
Si Si4 0.820807 0.734266 0.883682
Si Si5 0.865307 0.282009 0.115487
Si Si6 0.984710 0.869600 0.879224
Si Si7 0.545346 0.135141 0.118200
Si Si8 0.596442 0.038101 0.121698
O O1 0.251452 0.968396 0.154754
O O2 0.043902 0.916325 0.142268
O O3 0.103477 0.966753 0.000000
O O4 0.000000 0.000000 0.157746
O O5 0.216178 0.216668 0.140930
O O6 0.304255 0.184890 0.305382
O O7 0.157747 0.138002 0.170138
O O8 0.405671 0.156865 0.141620
O O9 0.732033 0.705633 0.189926
O O10 0.706500 0.736541 0.365173
O O11 0.583652 0.665520 0.333736
O O12 0.838123 0.662879 0.333741
O O13 0.977376 0.725661 0.863102
O O14 0.797333 0.725914 0.000000
O O15 0.851801 0.294478 0.000000
O O16 0.976589 0.864367 0.000000
O O17 0.550185 0.085630 0.152020
O O18 0.569443 0.134980 0.000000
O O19 0.500000 0.000000 0.155254
O O20 0.595490 0.037437 0.000000
#
# Coordination Sequence:
#
# PCOD9443121 Si02
#       8
#     8   8   8   8   8   8   8   8
#     4   9  18  30  45  67  95 132 166 192 238 296
#     4  11  22  33  49  75  95 131 172 205 241 292
#     4  11  20  33  51  71  93 133 170 199 240 295
#     4  10  20  35  51  70  99 129 163 211 254 284
#     4  10  20  35  52  69  98 132 163 208 257 288
#     4  11  20  33  51  70 102 136 164 201 242 290
#     4  11  20  31  47  72 101 129 168 204 237 287
#     4   9  18  30  44  66  99 132 160 198 242 285
#
# _framework density 15.171139
#
# number of rings (size 3 to 8) (size 9 to 14) (size 15 to 20)
#    0.000    1.750    3.750    2.250    1.750    0.000 
#    0.000    1.875    0.000    0.000    0.000    0.000 
#    0.000    6.000    0.000    0.000    0.000    0.000 
#
# Total GULP energy -356905.645362 kJ/mol
# GULP energy per Si atom -5576.650709 kJ/mol
# Density = 1.513661 g / cm^3
# Si number density = 15.171139 Si / 1000 Ang^3
#
#
#
# Elastic Constant Matrix: (Units=GPa)
#
#
# Indices 1 2 3 4 5 6 
#
# 1 73.4333 20.4734 19.3495 0.0000 0.0000 0.0000
# 2 20.4734 63.9386 23.5446 0.0000 0.0000 0.0000
# 3 19.3495 23.5446 62.6466 0.0000 0.0000 0.0000
# 4 0.0000 0.0000 0.0000 10.3253 0.0000 0.0000
# 5 0.0000 0.0000 0.0000 0.0000 21.9545 0.0000
# 6 0.0000 0.0000 0.0000 0.0000 0.0000 23.3883
#
#
#
# Elastic Compliance Matrix: (Units=1/GPa)
#
#
# Indices 1 2 3 4 5 6 
#
# 1 0.015554 -0.003727 -0.003403 0.000000 0.000000 0.000000
# 2 -0.003727 0.019045 -0.006007 0.000000 0.000000 0.000000
# 3 -0.003403 -0.006007 0.019271 0.000000 0.000000 0.000000
# 4 0.000000 0.000000 0.000000 0.096850 0.000000 0.000000
# 5 0.000000 0.000000 0.000000 0.000000 0.045549 0.000000
# 6 0.000000 0.000000 0.000000 0.000000 0.000000 0.042756
#
#
# Mechanical properties :
#
#
# Convention : Reuss Voigt Hill
#
# Bulk Modulus (GPa) = 36.23698 36.30595 36.27146
# Shear Modulus (GPa) = 18.21509 20.24369 19.22939
#
# Velocity S-wave (km/s) = 3.46879 3.65685 3.56406
# Velocity P-wave (km/s) = 6.32302 6.46629 6.39506
#
# Compressibility (1/GPa) = 0.02759612
#
# Stress axis : x y z
#
# Youngs Moduli (GPa) = 64.29340 52.50637 51.89093
#
# Poissons Ratio (x) = 0.19570 0.17660
# Poissons Ratio (y) = 0.23963 0.31169
# Poissons Ratio (z) = 0.21881 0.31539
#
# Static dielectric constant tensor:
#      x y z
#    x 1.520940 0.000000 0.000000 
#    y 0.000000 1.502310 0.000000 
#    z 0.000000 0.000000 1.484000 
# 
# From -- ./inp_files/20394.got.cif
#   From: 2010.05.17/outbox.cif.g08.bks.cpg/sg58_11_cif.got.tgz:20394.got - 2010.06.03 14:20:14.
