data_PCOD9443447
_publ_section_title
;
Structure prediction by ZEFSAII (Michael W. Deem and Ramdas Pophale) SiO2 
 PCOD9443447
Probable space group: P N N M
;
_chemical_formula_sum "Si O2"
_cell_formula_units_Z 56
_cell_length_a 19.203933
_cell_length_b 17.171687
_cell_length_c 7.460921
_cell_angle_alpha 90.000000
_cell_angle_beta 90.000000
_cell_angle_gamma 90.000000
_cell_volume 2460.342605
_symmetry_space_group_name_H-M "P N N M"
_symmetry_group_IT_number 58
_symmetry_cell_setting 'orthorhombic'
loop_
_space_group_symop_operation_xyz
x,y,z
-x,-y,z
1/2+x,1/2-y,1/2-z
1/2-x,1/2+y,1/2-z
-x,-y,-z
x,y,-z
1/2-x,1/2+y,1/2+z
1/2+x,1/2-y,1/2+z
loop_
_atom_site_type_symbol
_atom_site_label
_atom_site_fract_x
_atom_site_fract_y
_atom_site_fract_z
Si Si1 0.148205 0.682771 0.280373
Si Si2 0.577646 0.339425 0.294111
Si Si3 0.919854 0.158071 0.295703
Si Si4 0.150903 0.999514 0.717830
Si Si5 0.293504 0.929320 0.284020
Si Si6 0.925984 0.472950 0.709738
Si Si7 0.291294 0.751695 0.281230
O O1 0.147884 0.679741 0.500000
O O2 0.108256 0.760903 0.220197
O O3 0.109765 0.605260 0.215104
O O4 0.228299 0.695473 0.225183
O O5 0.563452 0.318426 0.500000
O O6 0.502951 0.342620 0.203512
O O7 0.615211 0.422891 0.287361
O O8 0.633990 0.278957 0.219112
O O9 0.892893 0.157828 0.500000
O O10 0.890619 0.077516 0.219462
O O11 0.147758 0.004101 0.500000
O O12 0.230857 0.986014 0.773244
O O13 0.293425 0.929089 0.500000
O O14 0.278667 0.840759 0.226392
O O15 0.368053 0.960093 0.223685
O O16 0.938798 0.456222 0.500000
O O17 0.000000 0.500000 0.787297
O O18 0.292433 0.750126 0.500000
#
# Coordination Sequence:
#
# PCOD9443447 Si02
#       7
#     8   8   8   8   8   8   8
#     4   9  17  35  59  78 105 148 191 225 268 331
#     4  11  23  35  54  84 117 146 176 223 284 337
#     4  10  20  36  59  82 107 146 189 227 266 324
#     4  10  20  37  59  82 107 142 190 231 269 327
#     4  10  20  37  60  82 106 141 191 238 274 322
#     4  10  22  37  56  86 119 150 186 229 284 345
#     4   9  18  35  57  80 106 146 191 226 270 333
#
# _framework density 22.761057999999998
#
# number of rings (size 3 to 8) (size 9 to 14) (size 15 to 20)
#    0.000    2.143    1.429    1.714    2.000    4.286 
#    0.000    1.429    0.000    2.571    0.000    0.000 
#    0.000    0.000    0.000    0.000    0.000    0.000 
#
# Total GULP energy -312993.653102 kJ/mol
# GULP energy per Si atom -5589.172377 kJ/mol
# Density = 2.270925 g / cm^3
# Si number density = 22.761058 Si / 1000 Ang^3
#
#
#
# Elastic Constant Matrix: (Units=GPa)
#
#
# Indices 1 2 3 4 5 6 
#
# 1 118.4402 1.3111 -14.6451 0.0000 0.0000 0.0000
# 2 1.3111 54.0191 -13.1133 0.0000 0.0000 0.0000
# 3 -14.6451 -13.1133 64.3981 0.0000 0.0000 0.0000
# 4 0.0000 0.0000 0.0000 12.4987 0.0000 0.0000
# 5 0.0000 0.0000 0.0000 0.0000 7.1475 0.0000
# 6 0.0000 0.0000 0.0000 0.0000 0.0000 24.6515
#
#
#
# Elastic Compliance Matrix: (Units=1/GPa)
#
#
# Indices 1 2 3 4 5 6 
#
# 1 0.008691 0.000283 0.002034 0.000000 0.000000 0.000000
# 2 0.000283 0.019484 0.004032 0.000000 0.000000 0.000000
# 3 0.002034 0.004032 0.016812 0.000000 0.000000 0.000000
# 4 0.000000 0.000000 0.000000 0.080008 0.000000 0.000000
# 5 0.000000 0.000000 0.000000 0.000000 0.139909 0.000000
# 6 0.000000 0.000000 0.000000 0.000000 0.000000 0.040566
#
#
# Mechanical properties :
#
#
# Convention : Reuss Voigt Hill
#
# Bulk Modulus (GPa) = 17.33557 20.44033 18.88795
# Shear Modulus (GPa) = 16.02561 26.41318 21.21939
#
# Velocity S-wave (km/s) = 2.65633 3.41024 3.05662
# Velocity P-wave (km/s) = 4.12807 4.95038 4.55781
#
# Compressibility (1/GPa) = 0.05768488
#
# Stress axis : x y z
#
# Youngs Moduli (GPa) = 115.05535 51.32462 59.48134
#
# Poissons Ratio (x) = -0.01452 -0.12099
# Poissons Ratio (y) = -0.03254 -0.23982
# Poissons Ratio (z) = -0.23404 -0.20693
#
# Static dielectric constant tensor:
#      x y z
#    x 1.803250 0.000000 0.000000 
#    y 0.000000 1.817160 0.000000 
#    z 0.000000 0.000000 1.888630 
# 
# From -- ./inp_files/8993.got.cif
#   From: 2010.05.17/outbox.cif.g08.bks.cpg/sg58_5_cif.got.tgz:8993.got - 2010.06.03 14:20:14.
