data_PCOD9443288
_publ_section_title
;
Structure prediction by ZEFSAII (Michael W. Deem and Ramdas Pophale) SiO2 
 PCOD9443288
Probable space group: P N N M
;
_chemical_formula_sum "Si O2"
_cell_formula_units_Z 64
_cell_length_a 33.583828
_cell_length_b 10.747940
_cell_length_c 9.403071
_cell_angle_alpha 90.000000
_cell_angle_beta 90.000000
_cell_angle_gamma 90.000000
_cell_volume 3394.104001
_symmetry_space_group_name_H-M "P N N M"
_symmetry_group_IT_number 58
_symmetry_cell_setting 'orthorhombic'
loop_
_space_group_symop_operation_xyz
x,y,z
-x,-y,z
1/2+x,1/2-y,1/2-z
1/2-x,1/2+y,1/2-z
-x,-y,-z
x,y,-z
1/2-x,1/2+y,1/2+z
1/2+x,1/2-y,1/2+z
loop_
_atom_site_type_symbol
_atom_site_label
_atom_site_fract_x
_atom_site_fract_y
_atom_site_fract_z
Si Si1 0.160469 0.800492 0.172429
Si Si2 0.784161 0.967230 0.829383
Si Si3 0.799864 0.463861 0.828304
Si Si4 0.418533 0.733798 0.838227
Si Si5 0.453904 0.010060 0.837369
Si Si6 0.008881 0.144269 0.840306
Si Si7 0.426275 0.234817 0.671624
Si Si8 0.838453 0.728875 0.169052
O O1 0.186970 0.918656 0.216778
O O2 0.178880 0.666200 0.213475
O O3 0.114160 0.803609 0.217820
O O4 0.160342 0.803265 0.000000
O O5 0.742717 0.972467 0.747061
O O6 0.805050 0.833912 0.804264
O O7 0.777785 0.979081 0.000000
O O8 0.824253 0.589486 0.792385
O O9 0.795281 0.462342 0.000000
O O10 0.453096 0.661440 0.757072
O O11 0.377430 0.732334 0.754388
O O12 0.434640 0.874983 0.839569
O O13 0.413562 0.691151 0.000000
O O14 0.428255 0.097858 0.736581
O O15 0.500000 0.000000 0.788992
O O16 0.454688 0.059164 0.000000
O O17 0.968294 0.205643 0.783537
O O18 0.016863 0.195197 0.000000
O O19 0.000000 0.000000 0.852776
O O20 0.426066 0.231588 0.500000
O O21 0.846854 0.729980 0.000000
#
# Coordination Sequence:
#
# PCOD9443288 Si02
#       8
#     8   8   8   8   8   8   8   8
#     4   9  19  35  56  82 112 146 182 227 279 332
#     4  10  21  37  60  85 112 148 184 228 286 343
#     4  10  20  37  59  84 115 147 183 231 282 338
#     4  11  23  38  58  83 114 153 192 235 288 344
#     4  10  20  36  54  76 111 147 181 229 286 334
#     4  10  22  37  57  83 112 151 194 240 284 334
#     4  10  20  35  58  84 109 144 193 234 275 333
#     4  10  22  38  59  86 116 150 192 241 286 336
#
# _framework density 18.856228999999999
#
# number of rings (size 3 to 8) (size 9 to 14) (size 15 to 20)
#    0.000    2.000    1.250    1.875    1.750    3.500 
#    0.000    1.250    0.000    0.000    0.000    0.000 
#    0.000    0.000    0.000    0.000    0.000    0.000 
#
# Total GULP energy -357138.638476 kJ/mol
# GULP energy per Si atom -5580.291226 kJ/mol
# Density = 1.881331 g / cm^3
# Si number density = 18.856229 Si / 1000 Ang^3
#
#
#
# Elastic Constant Matrix: (Units=GPa)
#
#
# Indices 1 2 3 4 5 6 
#
# 1 98.4294 2.9960 40.1641 0.0000 0.0000 0.0000
# 2 2.9960 58.7102 13.1627 0.0000 0.0000 0.0000
# 3 40.1641 13.1627 28.4209 0.0000 0.0000 0.0000
# 4 0.0000 0.0000 0.0000 18.8397 0.0000 0.0000
# 5 0.0000 0.0000 0.0000 0.0000 23.7121 0.0000
# 6 0.0000 0.0000 0.0000 0.0000 0.0000 14.8727
#
#
#
# Elastic Compliance Matrix: (Units=1/GPa)
#
#
# Indices 1 2 3 4 5 6 
#
# 1 0.026997 0.008007 -0.041860 0.000000 0.000000 0.000000
# 2 0.008007 0.021381 -0.021218 0.000000 0.000000 0.000000
# 3 -0.041860 -0.021218 0.104168 0.000000 0.000000 0.000000
# 4 0.000000 0.000000 0.000000 0.053079 0.000000 0.000000
# 5 0.000000 0.000000 0.000000 0.000000 0.042172 0.000000
# 6 0.000000 0.000000 0.000000 0.000000 0.000000 0.067237
#
#
# Mechanical properties :
#
#
# Convention : Reuss Voigt Hill
#
# Bulk Modulus (GPa) = 23.58237 33.13401 28.35819
# Shear Modulus (GPa) = 11.38142 20.10074 15.74108
#
# Velocity S-wave (km/s) = 2.45947 3.26851 2.89242
# Velocity P-wave (km/s) = 4.53860 5.64396 5.12119
#
# Compressibility (1/GPa) = 0.04240455
#
# Stress axis : x y z
#
# Youngs Moduli (GPa) = 37.04143 46.76987 9.59984
#
# Poissons Ratio (x) = -0.37450 0.40185
# Poissons Ratio (y) = -0.29660 0.20369
# Poissons Ratio (z) = 1.55055 0.99237
#
# Static dielectric constant tensor:
#      x y z
#    x 1.656190 0.000000 0.000000 
#    y 0.000000 1.676400 0.000000 
#    z 0.000000 0.000000 1.657700 
# 
# From -- ./inp_files/11029.got.cif
#   From: 2010.05.17/outbox.cif.g08.bks.cpg/sg58_6_cif.got.tgz:11029.got - 2010.06.03 14:20:14.
