data_PCOD9443761
_publ_section_title
;
Structure prediction by ZEFSAII (Michael W. Deem and Ramdas Pophale) SiO2 
 PCOD9443761
Probable space group: P N N M
;
_chemical_formula_sum "Si O2"
_cell_formula_units_Z 40
_cell_length_a 26.419224
_cell_length_b 10.410436
_cell_length_c 8.214683
_cell_angle_alpha 90.000000
_cell_angle_beta 90.000000
_cell_angle_gamma 90.000000
_cell_volume 2259.330601
_symmetry_space_group_name_H-M "P N N M"
_symmetry_group_IT_number 58
_symmetry_cell_setting 'orthorhombic'
loop_
_space_group_symop_operation_xyz
x,y,z
-x,-y,z
1/2+x,1/2-y,1/2-z
1/2-x,1/2+y,1/2-z
-x,-y,-z
x,y,-z
1/2-x,1/2+y,1/2+z
1/2+x,1/2-y,1/2+z
loop_
_atom_site_type_symbol
_atom_site_label
_atom_site_fract_x
_atom_site_fract_y
_atom_site_fract_z
Si Si1 0.350656 0.758795 0.821191
Si Si2 0.708019 0.011978 0.314491
Si Si3 0.129711 0.717841 0.804069
Si Si4 0.319030 0.491700 0.686840
Si Si5 0.557849 0.154906 0.000000
Si Si6 0.440358 0.154445 0.000000
O O1 0.322671 0.855331 0.701543
O O2 0.341118 0.610962 0.785971
O O3 0.328395 0.790243 0.000000
O O4 0.409860 0.791619 0.846606
O O5 0.724579 0.992738 0.500000
O O6 0.758797 0.013895 0.210614
O O7 0.670024 0.896279 0.272838
O O8 0.156675 0.854272 0.773874
O O9 0.086509 0.700907 0.667086
O O10 0.115870 0.710944 0.000000
O O11 0.330833 0.519209 0.500000
O O12 0.499459 0.191374 0.000000
O O13 0.562381 0.000950 0.000000
#
# Coordination Sequence:
#
# PCOD9443761 Si02
#       6
#     8   8   8   8   4   4
#     4  10  20  38  56  85 120 149 198 247 291 362
#     4  11  21  36  58  86 119 163 201 244 295 354
#     4  10  23  39  58  91 122 155 205 253 295 368
#     4  11  23  36  56  86 124 164 198 240 301 362
#     4   9  22  39  67  93 111 153 209 253 308 360
#     4  11  20  43  71  87 117 161 201 261 318 342
#
# _framework density 17.704359
#
# number of rings (size 3 to 8) (size 9 to 14) (size 15 to 20)
#    0.600    1.000    2.000    3.000    4.200    1.600 
#    0.000    6.000    0.000    2.400    0.000    0.000 
#    0.000    0.000    0.000    0.000    0.000    0.000 
#
# Total GULP energy -222935.631113 kJ/mol
# GULP energy per Si atom -5573.390778 kJ/mol
# Density = 1.766406 g / cm^3
# Si number density = 17.704359 Si / 1000 Ang^3
#
#
#
# Elastic Constant Matrix: (Units=GPa)
#
#
# Indices 1 2 3 4 5 6 
#
# 1 115.3740 48.1882 47.0161 0.0000 0.0000 0.0000
# 2 48.1882 94.1121 23.0930 0.0000 0.0000 0.0000
# 3 47.0161 23.0930 48.3986 0.0000 0.0000 0.0000
# 4 0.0000 0.0000 0.0000 -39.7978 0.0000 0.0000
# 5 0.0000 0.0000 0.0000 0.0000 7.7805 0.0000
# 6 0.0000 0.0000 0.0000 0.0000 0.0000 -20.2704
#
#
#
# Elastic Compliance Matrix: (Units=1/GPa)
#
#
# Indices 1 2 3 4 5 6 
#
# 1 0.016203 -0.005022 -0.013344 0.000000 0.000000 0.000000
# 2 -0.005022 0.013591 -0.001606 0.000000 0.000000 0.000000
# 3 -0.013344 -0.001606 0.034391 0.000000 0.000000 0.000000
# 4 0.000000 0.000000 0.000000 -0.025127 0.000000 0.000000
# 5 0.000000 0.000000 0.000000 0.000000 0.128527 0.000000
# 6 0.000000 0.000000 0.000000 0.000000 0.000000 -0.049333
#
#
# Mechanical properties :
#
#
# Convention : Reuss Voigt Hill
#
# Bulk Modulus (GPa) = 41.25320 54.94214 48.09767
# Shear Modulus (GPa) = 30.07054 -1.15171 14.45942
#
# Velocity S-wave (km/s) = 4.12574 -0.80743 2.86092
# Velocity P-wave (km/s) = 6.78582 5.49829 6.17570
#
# Compressibility (1/GPa) = 0.02424054
#
# Stress axis : x y z
#
# Youngs Moduli (GPa) = 61.71819 73.57693 29.07764
#
# Poissons Ratio (x) = 0.36951 0.38800
# Poissons Ratio (y) = 0.30995 0.04671
# Poissons Ratio (z) = 0.82354 0.11819
#
# Static dielectric constant tensor:
#      x y z
#    x 1.583000 0.000000 0.000000 
#    y 0.000000 1.591500 0.000000 
#    z 0.000000 0.000000 1.621200 
# 
# From -- ./inp_files/2653.got.cif
#   From: 2010.05.17/outbox.cif.g08.bks.cpg/sg58_2_cif.got.tgz:2653.got - 2010.06.03 14:20:14.
