data_PCOD9443953
_publ_section_title
;
Structure prediction by ZEFSAII (Michael W. Deem and Ramdas Pophale) SiO2 
 PCOD9443953
Probable space group: P N N M
;
_chemical_formula_sum "Si O2"
_cell_formula_units_Z 64
_cell_length_a 11.380940
_cell_length_b 9.502608
_cell_length_c 26.961219
_cell_angle_alpha 90.000000
_cell_angle_beta 90.000000
_cell_angle_gamma 90.000000
_cell_volume 2915.818399
_symmetry_space_group_name_H-M "P N N M"
_symmetry_group_IT_number 58
_symmetry_cell_setting 'orthorhombic'
loop_
_space_group_symop_operation_xyz
x,y,z
-x,-y,z
1/2+x,1/2-y,1/2-z
1/2-x,1/2+y,1/2-z
-x,-y,-z
x,y,-z
1/2-x,1/2+y,1/2+z
1/2+x,1/2-y,1/2+z
loop_
_atom_site_type_symbol
_atom_site_label
_atom_site_fract_x
_atom_site_fract_y
_atom_site_fract_z
Si Si1 0.834412 0.596615 0.125936
Si Si2 0.262422 0.924386 0.101481
Si Si3 0.861982 0.507853 0.707711
Si Si4 0.931577 0.795597 0.557673
Si Si5 0.374047 0.542180 0.840354
Si Si6 0.234452 0.737041 0.763871
Si Si7 0.424397 0.221706 0.353469
Si Si8 0.794389 0.276030 0.557573
O O1 0.711570 0.590370 0.154881
O O2 0.877757 0.434718 0.130756
O O3 0.790452 0.647977 0.072543
O O4 0.936488 0.701387 0.143079
O O5 0.332862 0.936237 0.153244
O O6 0.345721 0.838228 0.063989
O O7 0.143298 0.836647 0.112815
O O8 0.249173 0.083828 0.084420
O O9 0.800298 0.360316 0.718510
O O10 0.801552 0.618597 0.744746
O O11 0.000000 0.500000 0.715949
O O12 0.924105 0.847586 0.500000
O O13 0.891303 0.895295 0.603570
O O14 0.067625 0.755411 0.568075
O O15 0.500000 0.500000 0.821242
O O16 0.317596 0.651091 0.802196
O O17 0.117474 0.755978 0.797637
O O18 0.787935 0.302875 0.500000
#
# Coordination Sequence:
#
# PCOD9443953 Si02
#       8
#     8   8   8   8   8   8   8   8
#     4  10  20  39  65  89 126 173 210 270 323 383
#     4  11  22  44  65  96 133 171 218 273 336 405
#     4  11  24  42  70  98 136 176 222 277 340 405
#     4  11  21  38  66  97 131 173 218 277 338 398
#     4  11  21  39  68  98 134 170 223 283 331 397
#     4  10  24  43  66 101 132 170 226 273 336 405
#     4   9  21  42  66  88 125 174 215 262 327 397
#     4  11  24  38  63  99 130 167 225 277 335 397
#
# _framework density 21.949241000000001
#
# number of rings (size 3 to 8) (size 9 to 14) (size 15 to 20)
#    0.000    1.500    5.000    1.500    3.500    5.250 
#    0.000    3.125    0.000    0.000    0.000    0.000 
#    0.000    0.000    0.000    0.000    0.000    0.000 
#
# Total GULP energy -357432.370475 kJ/mol
# GULP energy per Si atom -5584.880789 kJ/mol
# Density = 2.189928 g / cm^3
# Si number density = 21.949241 Si / 1000 Ang^3
#
#
#
# Elastic Constant Matrix: (Units=GPa)
#
#
# Indices 1 2 3 4 5 6 
#
# 1 128.8212 42.2022 21.7300 0.0000 0.0000 0.0000
# 2 42.2022 89.2890 25.4053 0.0000 0.0000 0.0000
# 3 21.7300 25.4053 65.4683 0.0000 0.0000 0.0000
# 4 0.0000 0.0000 0.0000 31.5561 0.0000 0.0000
# 5 0.0000 0.0000 0.0000 0.0000 120.7557 0.0000
# 6 0.0000 0.0000 0.0000 0.0000 0.0000 32.4777
#
#
#
# Elastic Compliance Matrix: (Units=1/GPa)
#
#
# Indices 1 2 3 4 5 6 
#
# 1 0.009324 -0.003964 -0.001556 0.000000 0.000000 0.000000
# 2 -0.003964 0.014275 -0.004224 0.000000 0.000000 0.000000
# 3 -0.001556 -0.004224 0.017430 0.000000 0.000000 0.000000
# 4 0.000000 0.000000 0.000000 0.031690 0.000000 0.000000
# 5 0.000000 0.000000 0.000000 0.000000 0.008281 0.000000
# 6 0.000000 0.000000 0.000000 0.000000 0.000000 0.030790
#
#
# Mechanical properties :
#
#
# Convention : Reuss Voigt Hill
#
# Bulk Modulus (GPa) = 46.42409 51.36152 48.89281
# Shear Modulus (GPa) = 36.11179 49.90730 43.00955
#
# Velocity S-wave (km/s) = 4.06056 4.77357 4.43143
# Velocity P-wave (km/s) = 6.57121 7.33713 6.96471
#
# Compressibility (1/GPa) = 0.02154054
#
# Stress axis : x y z
#
# Youngs Moduli (GPa) = 107.25145 70.05272 57.37155
#
# Poissons Ratio (x) = 0.27769 0.08930
# Poissons Ratio (y) = 0.42515 0.24232
# Poissons Ratio (z) = 0.16693 0.29588
#
# Static dielectric constant tensor:
#      x y z
#    x 1.823740 0.000000 0.000000 
#    y 0.000000 1.869450 0.000000 
#    z 0.000000 0.000000 1.803460 
# 
# From -- ./inp_files/34935.got.cif
#   From: 2010.05.17/outbox.cif.g08.bks.cpg/sg58_18_cif.got.tgz:34935.got - 2010.06.03 14:20:14.
