data_PCOD9443539
_publ_section_title
;
Structure prediction by ZEFSAII (Michael W. Deem and Ramdas Pophale) SiO2 
 PCOD9443539
Probable space group: P N N M
;
_chemical_formula_sum "Si O2"
_cell_formula_units_Z 48
_cell_length_a 23.841954
_cell_length_b 9.799893
_cell_length_c 10.419881
_cell_angle_alpha 90.000000
_cell_angle_beta 90.000000
_cell_angle_gamma 90.000000
_cell_volume 2434.590588
_symmetry_space_group_name_H-M "P N N M"
_symmetry_group_IT_number 58
_symmetry_cell_setting 'orthorhombic'
loop_
_space_group_symop_operation_xyz
x,y,z
-x,-y,z
1/2+x,1/2-y,1/2-z
1/2-x,1/2+y,1/2-z
-x,-y,-z
x,y,-z
1/2-x,1/2+y,1/2+z
1/2+x,1/2-y,1/2+z
loop_
_atom_site_type_symbol
_atom_site_label
_atom_site_fract_x
_atom_site_fract_y
_atom_site_fract_z
Si Si1 0.572873 0.638256 0.654542
Si Si2 0.318971 0.215378 0.647842
Si Si3 0.018427 0.349749 0.746490
Si Si4 0.364996 0.913366 0.640062
Si Si5 0.192029 0.232144 0.649870
Si Si6 0.922298 0.910655 0.642393
O O1 0.571103 0.614080 0.500000
O O2 0.635650 0.679732 0.701070
O O3 0.531857 0.764899 0.687885
O O4 0.559425 0.506354 0.740442
O O5 0.312585 0.257558 0.500000
O O6 0.255296 0.199178 0.694341
O O7 0.350383 0.071533 0.647840
O O8 0.069230 0.384885 0.843055
O O9 0.046897 0.236839 0.653105
O O10 0.000000 0.500000 0.695026
O O11 0.346854 0.861476 0.500000
O O12 0.331802 0.844668 0.755087
O O13 0.192581 0.274670 0.500000
O O14 0.144530 0.115544 0.655820
O O15 0.933206 0.968436 0.500000
#
# Coordination Sequence:
#
# PCOD9443539 Si02
#       6
#     8   8   8   8   8   8
#     4  11  23  39  62  91 122 159 202 249 304 364
#     4   9  19  36  59  86 117 154 195 245 301 357
#     4  11  22  39  64  92 122 157 202 255 306 356
#     4  10  20  36  61  89 115 149 198 250 302 354
#     4   9  20  39  59  81 118 158 196 244 300 358
#     4  10  24  43  62  88 124 164 204 249 301 359
#
# _framework density 19.715841000000001
#
# number of rings (size 3 to 8) (size 9 to 14) (size 15 to 20)
#    0.000    2.000    1.667    1.000    2.333    6.333 
#    0.000    1.667    0.000    0.000    0.000    0.000 
#    0.000    0.000    0.000    0.000    0.000    0.000 
#
# Total GULP energy -267249.632273 kJ/mol
# GULP energy per Si atom -5567.700672 kJ/mol
# Density = 1.967097 g / cm^3
# Si number density = 19.715841 Si / 1000 Ang^3
#
#
#
# Elastic Constant Matrix: (Units=GPa)
#
#
# Indices 1 2 3 4 5 6 
#
# 1 146.4013 48.8946 41.7072 0.0000 0.0000 0.0000
# 2 48.8946 90.7699 43.1884 0.0000 0.0000 0.0000
# 3 41.7072 43.1884 82.1836 0.0000 0.0000 0.0000
# 4 0.0000 0.0000 0.0000 5.9318 0.0000 0.0000
# 5 0.0000 0.0000 0.0000 0.0000 4.7189 0.0000
# 6 0.0000 0.0000 0.0000 0.0000 0.0000 19.9572
#
#
#
# Elastic Compliance Matrix: (Units=1/GPa)
#
#
# Indices 1 2 3 4 5 6 
#
# 1 0.008730 -0.003460 -0.002612 0.000000 0.000000 0.000000
# 2 -0.003460 0.016061 -0.006684 0.000000 0.000000 0.000000
# 3 -0.002612 -0.006684 0.017006 0.000000 0.000000 0.000000
# 4 0.000000 0.000000 0.000000 0.168584 0.000000 0.000000
# 5 0.000000 0.000000 0.000000 0.000000 0.211914 0.000000
# 6 0.000000 0.000000 0.000000 0.000000 0.000000 0.050107
#
#
# Mechanical properties :
#
#
# Convention : Reuss Voigt Hill
#
# Bulk Modulus (GPa) = 61.40808 65.21502 63.31155
# Shear Modulus (GPa) = 9.93355 18.49255 14.21305
#
# Velocity S-wave (km/s) = 2.24706 3.06593 2.68786
# Velocity P-wave (km/s) = 6.16008 6.75888 6.46642
#
# Compressibility (1/GPa) = 0.01628450
#
# Stress axis : x y z
#
# Youngs Moduli (GPa) = 114.54472 62.26278 58.80141
#
# Poissons Ratio (x) = 0.21541 0.15361
# Poissons Ratio (y) = 0.39629 0.39306
# Poissons Ratio (z) = 0.29923 0.41619
#
# Static dielectric constant tensor:
#      x y z
#    x 1.760670 0.000000 0.000000 
#    y 0.000000 1.693110 0.000000 
#    z 0.000000 0.000000 1.677280 
# 
# From -- ./inp_files/13083.got.cif
#   From: 2010.05.17/outbox.cif.g08.bks.cpg/sg58_7_cif.got.tgz:13083.got - 2010.06.03 14:20:14.
