data_PCOD9443854
_publ_section_title
;
Structure prediction by ZEFSAII (Michael W. Deem and Ramdas Pophale) SiO2 
 PCOD9443854
Probable space group: P N N M
;
_chemical_formula_sum "Si O2"
_cell_formula_units_Z 48
_cell_length_a 22.715531
_cell_length_b 12.238750
_cell_length_c 8.177159
_cell_angle_alpha 90.000000
_cell_angle_beta 90.000000
_cell_angle_gamma 90.000000
_cell_volume 2273.329562
_symmetry_space_group_name_H-M "P N N M"
_symmetry_group_IT_number 58
_symmetry_cell_setting 'orthorhombic'
loop_
_space_group_symop_operation_xyz
x,y,z
-x,-y,z
1/2+x,1/2-y,1/2-z
1/2-x,1/2+y,1/2-z
-x,-y,-z
x,y,-z
1/2-x,1/2+y,1/2+z
1/2+x,1/2-y,1/2+z
loop_
_atom_site_type_symbol
_atom_site_label
_atom_site_fract_x
_atom_site_fract_y
_atom_site_fract_z
Si Si1 0.924581 0.294394 0.807257
Si Si2 0.553586 0.157321 0.807955
Si Si3 0.354084 0.006276 0.689636
Si Si4 0.238634 0.334820 0.308181
Si Si5 0.145519 0.158565 0.301638
Si Si6 0.862372 0.088034 0.691184
O O1 0.870844 0.372809 0.751892
O O2 0.907863 0.169607 0.775343
O O3 0.984970 0.328292 0.722060
O O4 0.931459 0.313712 0.000000
O O5 0.585163 0.061790 0.707460
O O6 0.588545 0.268204 0.763247
O O7 0.564484 0.135344 0.000000
O O8 0.335285 0.010001 0.500000
O O9 0.305779 0.937235 0.786789
O O10 0.252590 0.320218 0.500000
O O11 0.202285 0.228798 0.247986
O O12 0.297823 0.360975 0.213824
O O13 0.149861 0.153801 0.500000
O O14 0.140414 0.035313 0.241173
O O15 0.877634 0.082765 0.500000
#
# Coordination Sequence:
#
# PCOD9443854 Si02
#       6
#     8   8   8   8   8   8
#     4  11  24  39  56  85 123 157 192 242 294 342
#     4  10  20  38  63  88 115 152 196 244 293 348
#     4  10  21  38  60  86 118 157 194 236 295 348
#     4  10  21  39  61  86 116 150 192 242 294 346
#     4   8  19  39  60  81 113 152 187 233 294 349
#     4  11  23  39  59  85 115 155 198 236 289 351
#
# _framework density 21.114402999999999
#
# number of rings (size 3 to 8) (size 9 to 14) (size 15 to 20)
#    0.000    2.000    0.000    4.000    2.333    5.333 
#    0.000   12.500    0.000    0.000    0.000    0.000 
#    0.000    0.000    0.000    0.000    0.000    0.000 
#
# Total GULP energy -268225.754983 kJ/mol
# GULP energy per Si atom -5588.036562 kJ/mol
# Density = 2.106635 g / cm^3
# Si number density = 21.114403 Si / 1000 Ang^3
#
#
#
# Elastic Constant Matrix: (Units=GPa)
#
#
# Indices 1 2 3 4 5 6 
#
# 1 29.0956 -9.1701 -8.0046 0.0000 0.0000 0.0000
# 2 -9.1701 95.9750 -0.9060 0.0000 0.0000 0.0000
# 3 -8.0046 -0.9060 24.4461 0.0000 0.0000 0.0000
# 4 0.0000 0.0000 0.0000 22.4009 0.0000 0.0000
# 5 0.0000 0.0000 0.0000 0.0000 46.3902 0.0000
# 6 0.0000 0.0000 0.0000 0.0000 0.0000 0.9584
#
#
#
# Elastic Compliance Matrix: (Units=1/GPa)
#
#
# Indices 1 2 3 4 5 6 
#
# 1 0.039154 0.003863 0.012964 0.000000 0.000000 0.000000
# 2 0.003863 0.010804 0.001665 0.000000 0.000000 0.000000
# 3 0.012964 0.001665 0.045213 0.000000 0.000000 0.000000
# 4 0.000000 0.000000 0.000000 0.044641 0.000000 0.000000
# 5 0.000000 0.000000 0.000000 0.000000 0.021556 0.000000
# 6 0.000000 0.000000 0.000000 0.000000 0.000000 1.043423
#
#
# Mechanical properties :
#
#
# Convention : Reuss Voigt Hill
#
# Bulk Modulus (GPa) = 7.56685 12.59502 10.08094
# Shear Modulus (GPa) = 4.12590 25.12306 14.62448
#
# Velocity S-wave (km/s) = 1.39940 3.45317 2.63464
# Velocity P-wave (km/s) = 2.49050 4.67731 3.74699
#
# Compressibility (1/GPa) = 0.13215532
#
# Stress axis : x y z
#
# Youngs Moduli (GPa) = 25.54045 92.55627 22.11767
#
# Poissons Ratio (x) = -0.35758 -0.28672
# Poissons Ratio (y) = -0.09867 -0.03684
# Poissons Ratio (z) = -0.33109 -0.15415
#
# Static dielectric constant tensor:
#      x y z
#    x 1.728940 0.000000 0.000000 
#    y 0.000000 1.781380 0.000000 
#    z 0.000000 0.000000 1.723560 
# 
# From -- ./inp_files/9709.got.cif
#   From: 2010.05.17/outbox.cif.g08.bks.cpg/sg58_5_cif.got.tgz:9709.got - 2010.06.03 14:20:14.
