data_PCOD9443918
_publ_section_title
;
Structure prediction by ZEFSAII (Michael W. Deem and Ramdas Pophale) SiO2 
 PCOD9443918
Probable space group: P N N M
;
_chemical_formula_sum "Si O2"
_cell_formula_units_Z 48
_cell_length_a 14.499341
_cell_length_b 8.849744
_cell_length_c 18.967440
_cell_angle_alpha 90.000000
_cell_angle_beta 90.000000
_cell_angle_gamma 90.000000
_cell_volume 2433.815713
_symmetry_space_group_name_H-M "P N N M"
_symmetry_group_IT_number 58
_symmetry_cell_setting 'orthorhombic'
loop_
_space_group_symop_operation_xyz
x,y,z
-x,-y,z
1/2+x,1/2-y,1/2-z
1/2-x,1/2+y,1/2-z
-x,-y,-z
x,y,-z
1/2-x,1/2+y,1/2+z
1/2+x,1/2-y,1/2+z
loop_
_atom_site_type_symbol
_atom_site_label
_atom_site_fract_x
_atom_site_fract_y
_atom_site_fract_z
Si Si1 0.458635 0.842394 0.867750
Si Si2 0.229362 0.765161 0.673872
Si Si3 0.922717 0.803617 0.781116
Si Si4 0.232247 0.457044 0.582149
Si Si5 0.123477 0.846391 0.811524
Si Si6 0.914042 0.103814 0.420393
O O1 0.439594 0.742323 0.799248
O O2 0.364169 0.869973 0.908750
O O3 0.537341 0.767130 0.915294
O O4 0.500000 0.000000 0.842002
O O5 0.336947 0.791228 0.688851
O O6 0.224422 0.611154 0.628170
O O7 0.177200 0.759102 0.749119
O O8 0.173782 0.890754 0.629813
O O9 0.020294 0.783482 0.820416
O O10 0.893226 0.979565 0.786222
O O11 0.250044 0.488746 0.500000
O O12 0.313315 0.361070 0.619561
O O13 0.888191 0.065475 0.500000
O O14 0.000000 0.000000 0.398808
#
# Coordination Sequence:
#
# PCOD9443918 Si02
#       6
#     8   8   8   8   8   8
#     4  12  21  35  59  88 122 154 193 256 310 360
#     4  11  20  36  59  83 117 160 200 249 299 366
#     4  10  21  36  58  89 116 155 211 251 300 366
#     4  11  23  37  58  91 123 156 201 256 315 366
#     4  10  20  39  59  83 122 163 201 252 301 374
#     4  11  23  37  55  84 119 158 196 242 307 370
#
# _framework density 19.722118999999999
#
# number of rings (size 3 to 8) (size 9 to 14) (size 15 to 20)
#    0.000    1.167    5.000    2.000    0.000    0.667 
#    0.000    7.500    0.000    0.000    0.000    0.000 
#    0.000   24.000    0.000    0.000    0.000    0.000 
#
# Total GULP energy -267946.252460 kJ/mol
# GULP energy per Si atom -5582.213593 kJ/mol
# Density = 1.967723 g / cm^3
# Si number density = 19.722119 Si / 1000 Ang^3
#
#
#
# Elastic Constant Matrix: (Units=GPa)
#
#
# Indices 1 2 3 4 5 6 
#
# 1 166.1625 8.7804 56.2200 0.0000 0.0000 0.0000
# 2 8.7804 7.6291 8.8066 0.0000 0.0000 0.0000
# 3 56.2200 8.8066 95.0044 0.0000 0.0000 0.0000
# 4 0.0000 0.0000 0.0000 4.9780 0.0000 0.0000
# 5 0.0000 0.0000 0.0000 0.0000 23.2845 0.0000
# 6 0.0000 0.0000 0.0000 0.0000 0.0000 30.1716
#
#
#
# Elastic Compliance Matrix: (Units=1/GPa)
#
#
# Indices 1 2 3 4 5 6 
#
# 1 0.007632 -0.003998 -0.004146 0.000000 0.000000 0.000000
# 2 -0.003998 0.148878 -0.011435 0.000000 0.000000 0.000000
# 3 -0.004146 -0.011435 0.014039 0.000000 0.000000 0.000000
# 4 0.000000 0.000000 0.000000 0.200884 0.000000 0.000000
# 5 0.000000 0.000000 0.000000 0.000000 0.042947 0.000000
# 6 0.000000 0.000000 0.000000 0.000000 0.000000 0.033144
#
#
# Mechanical properties :
#
#
# Convention : Reuss Voigt Hill
#
# Bulk Modulus (GPa) = 7.61082 46.26778 26.93930
# Shear Modulus (GPa) = 9.42546 24.68608 17.05577
#
# Velocity S-wave (km/s) = 2.18849 3.54177 2.94395
# Velocity P-wave (km/s) = 3.20210 6.34321 5.02442
#
# Compressibility (1/GPa) = 0.13139185
#
# Stress axis : x y z
#
# Youngs Moduli (GPa) = 131.02395 6.71692 71.22960
#
# Poissons Ratio (x) = 0.02686 0.29530
# Poissons Ratio (y) = 0.52387 0.81448
# Poissons Ratio (z) = 0.54320 0.07680
#
# Static dielectric constant tensor:
#      x y z
#    x 1.717550 0.000000 0.000000 
#    y 0.000000 1.800530 0.000000 
#    z 0.000000 0.000000 1.672500 
# 
# From -- ./inp_files/26803.got.cif
#   From: 2010.05.17/outbox.cif.g08.bks.cpg/sg58_14_cif.got.tgz:26803.got - 2010.06.03 14:20:14.
