data_PCOD9443872
_publ_section_title
;
Structure prediction by ZEFSAII (Michael W. Deem and Ramdas Pophale) SiO2 
 PCOD9443872
Probable space group: P N N M
;
_chemical_formula_sum "Si O2"
_cell_formula_units_Z 58
_cell_length_a 17.096412
_cell_length_b 16.382112
_cell_length_c 9.953160
_cell_angle_alpha 90.000000
_cell_angle_beta 90.000000
_cell_angle_gamma 90.000000
_cell_volume 2787.634633
_symmetry_space_group_name_H-M "P N N M"
_symmetry_group_IT_number 58
_symmetry_cell_setting 'orthorhombic'
loop_
_space_group_symop_operation_xyz
x,y,z
-x,-y,z
1/2+x,1/2-y,1/2-z
1/2-x,1/2+y,1/2-z
-x,-y,-z
x,y,-z
1/2-x,1/2+y,1/2+z
1/2+x,1/2-y,1/2+z
loop_
_atom_site_type_symbol
_atom_site_label
_atom_site_fract_x
_atom_site_fract_y
_atom_site_fract_z
Si Si1 0.294486 0.549687 0.845171
Si Si2 0.341551 0.050419 0.147840
Si Si3 0.559207 0.424604 0.345037
Si Si4 0.000000 0.500000 0.000000
Si Si5 0.652137 0.147127 0.850263
Si Si6 0.509706 0.870868 0.269167
Si Si7 0.576064 0.703768 0.350887
Si Si8 0.788870 0.148570 0.345808
O O1 0.217072 0.577553 0.765471
O O2 0.370133 0.574634 0.759386
O O3 0.291698 0.450473 0.846377
O O4 0.296102 0.577177 0.000000
O O5 0.428203 0.082724 0.175730
O O6 0.342675 0.951949 0.148241
O O7 0.314614 0.077281 0.000000
O O8 0.500000 0.500000 0.319372
O O9 0.587556 0.433049 0.500000
O O10 0.504745 0.345463 0.335208
O O11 0.979573 0.567263 0.117722
O O12 0.563130 0.165049 0.811828
O O13 0.712651 0.175802 0.737459
O O14 0.671747 0.176674 0.000000
O O15 0.556810 0.798416 0.339530
O O16 0.607367 0.682697 0.500000
O O17 0.636218 0.678588 0.236179
O O18 0.787773 0.176273 0.500000
#
# Coordination Sequence:
#
# PCOD9443872 Si02
#       8
#     8   8   8   2   8   8   8   8
#     4  10  21  36  62  95 126 165 212 263 315 380
#     4  10  21  38  63  92 124 162 213 265 317 381
#     4  10  20  38  64  89 121 167 214 258 314 383
#     4  12  24  40  66 100 126 168 208 284 326 394
#     4  10  21  39  65  93 124 164 214 262 317 391
#     4  12  24  40  68  94 127 165 218 269 328 385
#     4  11  24  41  63  92 125 166 211 264 319 380
#     4  10  22  38  62  93 128 165 210 261 319 380
#
# _framework density 20.806170000000002
#
# number of rings (size 3 to 8) (size 9 to 14) (size 15 to 20)
#    0.000    1.517    3.448    1.241    1.931    4.138 
#    2.483    0.000    0.000    0.000    0.000    0.000 
#    0.000    0.000    0.000    0.000    0.000    0.000 
#
# Total GULP energy -323578.707285 kJ/mol
# GULP energy per Si atom -5578.943229 kJ/mol
# Density = 2.075881 g / cm^3
# Si number density = 20.806170 Si / 1000 Ang^3
#
#
#
# Elastic Constant Matrix: (Units=GPa)
#
#
# Indices 1 2 3 4 5 6 
#
# 1 104.3795 -17.1723 84.4020 0.0000 0.0000 0.0000
# 2 -17.1723 12.7976 3.7081 0.0000 0.0000 0.0000
# 3 84.4020 3.7081 198.7121 0.0000 0.0000 0.0000
# 4 0.0000 0.0000 0.0000 2.4782 0.0000 0.0000
# 5 0.0000 0.0000 0.0000 0.0000 123.8980 0.0000
# 6 0.0000 0.0000 0.0000 0.0000 0.0000 7.4686
#
#
#
# Elastic Compliance Matrix: (Units=1/GPa)
#
#
# Indices 1 2 3 4 5 6 
#
# 1 0.024439 0.035996 -0.011052 0.000000 0.000000 0.000000
# 2 0.035996 0.131582 -0.017745 0.000000 0.000000 0.000000
# 3 -0.011052 -0.017745 0.010058 0.000000 0.000000 0.000000
# 4 0.000000 0.000000 0.000000 0.403520 0.000000 0.000000
# 5 0.000000 0.000000 0.000000 0.000000 0.008071 0.000000
# 6 0.000000 0.000000 0.000000 0.000000 0.000000 0.133893
#
#
# Mechanical properties :
#
#
# Convention : Reuss Voigt Hill
#
# Bulk Modulus (GPa) = 5.54085 50.86275 28.20180
# Shear Modulus (GPa) = 6.60219 43.09905 24.85062
#
# Velocity S-wave (km/s) = 1.78328 4.55626 3.45974
# Velocity P-wave (km/s) = 2.62849 7.22346 5.43541
#
# Compressibility (1/GPa) = 0.18047775
#
# Stress axis : x y z
#
# Youngs Moduli (GPa) = 40.91767 7.59982 99.42428
#
# Poissons Ratio (x) = -0.27356 1.09886
# Poissons Ratio (y) = -1.47287 1.76424
# Poissons Ratio (z) = 0.45223 0.13486
#
# Static dielectric constant tensor:
#      x y z
#    x 1.727060 0.000000 0.000000 
#    y 0.000000 1.747300 0.000000 
#    z 0.000000 0.000000 1.732110 
# 
# From -- ./inp_files/7984.got.cif
#   From: 2010.05.17/outbox.cif.g08.bks.cpg/sg58_4_cif.got.tgz:7984.got - 2010.06.03 14:20:14.
