data_PCOD9443002
_publ_section_title
;
Structure prediction by ZEFSAII (Michael W. Deem and Ramdas Pophale) SiO2 
 PCOD9443002
Probable space group: P N N M
;
_chemical_formula_sum "Si O2"
_cell_formula_units_Z 48
_cell_length_a 30.738206
_cell_length_b 10.256227
_cell_length_c 8.744646
_cell_angle_alpha 90.000000
_cell_angle_beta 90.000000
_cell_angle_gamma 90.000000
_cell_volume 2756.819769
_symmetry_space_group_name_H-M "P N N M"
_symmetry_group_IT_number 58
_symmetry_cell_setting 'orthorhombic'
loop_
_space_group_symop_operation_xyz
x,y,z
-x,-y,z
1/2+x,1/2-y,1/2-z
1/2-x,1/2+y,1/2-z
-x,-y,-z
x,y,-z
1/2-x,1/2+y,1/2+z
1/2+x,1/2-y,1/2+z
loop_
_atom_site_type_symbol
_atom_site_label
_atom_site_fract_x
_atom_site_fract_y
_atom_site_fract_z
Si Si1 0.714641 0.639821 0.316828
Si Si2 0.784521 0.854809 0.684298
Si Si3 0.952271 0.641636 0.817764
Si Si4 0.380145 0.353404 0.183926
Si Si5 0.884937 0.845619 0.683635
Si Si6 0.952674 0.357690 0.684063
O O1 0.714552 0.636006 0.500000
O O2 0.750213 0.745805 0.266335
O O3 0.725084 0.496168 0.253867
O O4 0.666489 0.674910 0.258109
O O5 0.782863 0.866295 0.500000
O O6 0.834408 0.819103 0.723323
O O7 0.917531 0.748790 0.766617
O O8 0.940701 0.500318 0.747580
O O9 0.999963 0.675058 0.751517
O O10 0.954636 0.631466 0.000000
O O11 0.392918 0.502350 0.222837
O O12 0.416902 0.249780 0.227024
O O13 0.374806 0.349467 0.000000
O O14 0.889929 0.830995 0.500000
O O15 0.955630 0.363402 0.500000
#
# Coordination Sequence:
#
# PCOD9443002 Si02
#       6
#     8   8   8   8   8   8
#     4  10  20  34  55  81 107 137 174 217 263 307
#     4   9  20  37  54  76 107 141 177 215 256 309
#     4  11  22  35  52  79 110 136 169 217 265 304
#     4   9  20  37  57  79 104 136 175 217 259 309
#     4   9  18  36  56  74 102 139 177 213 253 310
#     4  10  20  37  58  77 101 139 179 211 254 313
#
# _framework density 17.411366000000001
#
# number of rings (size 3 to 8) (size 9 to 14) (size 15 to 20)
#    0.000    2.333    0.000    4.500    0.000    7.333 
#    0.000    8.333    0.000    0.000    0.000    0.000 
#    0.000    0.000    0.000    0.000    0.000    0.000 
#
# Total GULP energy -267898.639231 kJ/mol
# GULP energy per Si atom -5581.221651 kJ/mol
# Density = 1.737174 g / cm^3
# Si number density = 17.411366 Si / 1000 Ang^3
#
#
#
# Elastic Constant Matrix: (Units=GPa)
#
#
# Indices 1 2 3 4 5 6 
#
# 1 144.5748 137.9650 57.7151 0.0000 0.0000 0.0000
# 2 137.9650 147.1307 57.3866 0.0000 0.0000 0.0000
# 3 57.7151 57.3866 55.5669 0.0000 0.0000 0.0000
# 4 0.0000 0.0000 0.0000 19.6586 0.0000 0.0000
# 5 0.0000 0.0000 0.0000 0.0000 23.0264 0.0000
# 6 0.0000 0.0000 0.0000 0.0000 0.0000 42.9961
#
#
#
# Elastic Compliance Matrix: (Units=1/GPa)
#
#
# Indices 1 2 3 4 5 6 
#
# 1 0.067818 -0.060482 -0.007977 0.000000 0.000000 0.000000
# 2 -0.060482 0.065320 -0.004639 0.000000 0.000000 0.000000
# 3 -0.007977 -0.004639 0.031073 0.000000 0.000000 0.000000
# 4 0.000000 0.000000 0.000000 0.050868 0.000000 0.000000
# 5 0.000000 0.000000 0.000000 0.000000 0.043428 0.000000
# 6 0.000000 0.000000 0.000000 0.000000 0.000000 0.023258
#
#
# Mechanical properties :
#
#
# Convention : Reuss Voigt Hill
#
# Bulk Modulus (GPa) = 55.51058 94.82288 75.16673
# Shear Modulus (GPa) = 11.52158 23.41659 17.46908
#
# Velocity S-wave (km/s) = 2.57520 3.67127 3.17095
# Velocity P-wave (km/s) = 6.38696 8.51760 7.52804
#
# Compressibility (1/GPa) = 0.01801458
#
# Stress axis : x y z
#
# Youngs Moduli (GPa) = 14.74534 15.30920 32.18182
#
# Poissons Ratio (x) = 0.92593 0.25673
# Poissons Ratio (y) = 0.89182 0.14930
# Poissons Ratio (z) = 0.11763 0.07103
#
# Static dielectric constant tensor:
#      x y z
#    x 1.571960 0.000000 0.000000 
#    y 0.000000 1.572140 0.000000 
#    z 0.000000 0.000000 1.585760 
# 
# From -- ./inp_files/10826.got.cif
#   From: 2010.05.17/outbox.cif.g08.bks.cpg/sg58_6_cif.got.tgz:10826.got - 2010.06.03 14:20:14.
