data_PCOD9443837
_publ_section_title
;
Structure prediction by ZEFSAII (Michael W. Deem and Ramdas Pophale) SiO2 
 PCOD9443837
Probable space group: P N N M
;
_chemical_formula_sum "Si O2"
_cell_formula_units_Z 48
_cell_length_a 8.807694
_cell_length_b 8.034542
_cell_length_c 33.018885
_cell_angle_alpha 90.000000
_cell_angle_beta 90.000000
_cell_angle_gamma 90.000000
_cell_volume 2336.607395
_symmetry_space_group_name_H-M "P N N M"
_symmetry_group_IT_number 58
_symmetry_cell_setting 'orthorhombic'
loop_
_space_group_symop_operation_xyz
x,y,z
-x,-y,z
1/2+x,1/2-y,1/2-z
1/2-x,1/2+y,1/2-z
-x,-y,-z
x,y,-z
1/2-x,1/2+y,1/2+z
1/2+x,1/2-y,1/2+z
loop_
_atom_site_type_symbol
_atom_site_label
_atom_site_fract_x
_atom_site_fract_y
_atom_site_fract_z
Si Si1 0.077115 0.730694 0.225584
Si Si2 0.802681 0.344602 0.623750
Si Si3 0.681054 0.038054 0.044609
Si Si4 0.264425 0.572843 0.708922
Si Si5 0.407227 0.666422 0.908391
Si Si6 0.336070 0.009276 0.352073
O O1 0.117948 0.644090 0.267939
O O2 0.133029 0.600343 0.190994
O O3 0.906932 0.798762 0.216677
O O4 0.177593 0.897551 0.225489
O O5 0.749857 0.429678 0.581631
O O6 0.774512 0.460487 0.662063
O O7 0.972884 0.288976 0.613133
O O8 0.727203 0.176581 0.641674
O O9 0.677680 0.232098 0.056615
O O10 0.500000 0.000000 0.042511
O O11 0.745564 0.005064 0.000000
O O12 0.500000 0.500000 0.921285
O O13 0.284547 0.617544 0.875594
O O14 0.500000 0.000000 0.372500
#
# Coordination Sequence:
#
# PCOD9443837 Si02
#       6
#     8   8   8   8   8   8
#     4  11  25  40  59  86 117 163 202 253 301 361
#     4  10  20  38  62  88 119 159 199 252 308 363
#     4   9  18  36  62  94 124 153 201 256 311 367
#     4  11  24  41  59  88 122 156 206 249 305 364
#     4   9  20  35  59  91 118 158 203 249 306 364
#     4  11  21  39  59  84 120 161 205 245 307 364
#
# _framework density 20.542604000000001
#
# number of rings (size 3 to 8) (size 9 to 14) (size 15 to 20)
#    0.000    1.833    1.667    2.000    2.333    0.333 
#    0.000    2.500    0.000    3.000    0.000    0.000 
#    0.000    0.000    0.000    0.000    0.000    0.000 
#
# Total GULP energy -267411.880195 kJ/mol
# GULP energy per Si atom -5571.080837 kJ/mol
# Density = 2.049585 g / cm^3
# Si number density = 20.542604 Si / 1000 Ang^3
#
#
#
# Elastic Constant Matrix: (Units=GPa)
#
#
# Indices 1 2 3 4 5 6 
#
# 1 40.4797 14.6405 21.7798 0.0000 0.0000 0.0000
# 2 14.6405 80.3783 49.8802 0.0000 0.0000 0.0000
# 3 21.7798 49.8802 139.5213 0.0000 0.0000 0.0000
# 4 0.0000 0.0000 0.0000 -5.1052 0.0000 0.0000
# 5 0.0000 0.0000 0.0000 0.0000 21.1252 0.0000
# 6 0.0000 0.0000 0.0000 0.0000 0.0000 22.2288
#
#
#
# Elastic Compliance Matrix: (Units=1/GPa)
#
#
# Indices 1 2 3 4 5 6 
#
# 1 0.027526 -0.003016 -0.003219 0.000000 0.000000 0.000000
# 2 -0.003016 0.016319 -0.005363 0.000000 0.000000 0.000000
# 3 -0.003219 -0.005363 0.009587 0.000000 0.000000 0.000000
# 4 0.000000 0.000000 0.000000 -0.195878 0.000000 0.000000
# 5 0.000000 0.000000 0.000000 0.000000 0.047337 0.000000
# 6 0.000000 0.000000 0.000000 0.000000 0.000000 0.044987
#
#
# Mechanical properties :
#
#
# Convention : Reuss Voigt Hill
#
# Bulk Modulus (GPa) = 33.07321 48.10891 40.59106
# Shear Modulus (GPa) = -296.78694 19.25501 -138.76596
#
# Velocity S-wave (km/s) = -12.03277 3.06489 -8.22782
# Velocity P-wave (km/s) = 13.30095 5.99956 8.39406
#
# Compressibility (1/GPa) = 0.03023595
#
# Stress axis : x y z
#
# Youngs Moduli (GPa) = 36.32866 61.27870 104.30548
#
# Poissons Ratio (x) = 0.18484 0.33572
# Poissons Ratio (y) = 0.10958 0.55942
# Poissons Ratio (z) = 0.11693 0.32865
#
# Static dielectric constant tensor:
#      x y z
#    x 1.410330 0.000000 0.000000 
#    y 0.000000 38.258020 0.000000 
#    z 0.000000 0.000000 1.757940 
# 
# From -- ./inp_files/34541.got.cif
#   From: 2010.05.17/outbox.cif.g08.bks.cpg/sg58_18_cif.got.tgz:34541.got - 2010.06.03 14:20:14.
