data_PCOD9443000
_publ_section_title
;
Structure prediction by ZEFSAII (Michael W. Deem and Ramdas Pophale) SiO2 
 PCOD9443000
Probable space group: P N N M
;
_chemical_formula_sum "Si O2"
_cell_formula_units_Z 64
_cell_length_a 32.197479
_cell_length_b 10.458019
_cell_length_c 9.596450
_cell_angle_alpha 90.000000
_cell_angle_beta 90.000000
_cell_angle_gamma 90.000000
_cell_volume 3231.334370
_symmetry_space_group_name_H-M "P N N M"
_symmetry_group_IT_number 58
_symmetry_cell_setting 'orthorhombic'
loop_
_space_group_symop_operation_xyz
x,y,z
-x,-y,z
1/2+x,1/2-y,1/2-z
1/2-x,1/2+y,1/2-z
-x,-y,-z
x,y,-z
1/2-x,1/2+y,1/2+z
1/2+x,1/2-y,1/2+z
loop_
_atom_site_type_symbol
_atom_site_label
_atom_site_fract_x
_atom_site_fract_y
_atom_site_fract_z
Si Si1 0.630124 0.836467 0.162328
Si Si2 0.240525 0.040759 0.163421
Si Si3 0.464668 0.255269 0.162416
Si Si4 0.153963 0.897924 0.841924
Si Si5 0.216567 0.318971 0.165854
Si Si6 0.959291 0.709875 0.163062
Si Si7 0.061345 0.991675 0.841012
Si Si8 0.628903 0.089277 0.334696
O O1 0.580639 0.808836 0.175449
O O2 0.653127 0.716565 0.232008
O O3 0.638996 0.964012 0.246937
O O4 0.640486 0.848020 0.000000
O O5 0.239239 0.188288 0.210621
O O6 0.193427 0.988299 0.172254
O O7 0.267166 0.942732 0.253533
O O8 0.252796 0.036797 0.000000
O O9 0.500708 0.180891 0.243969
O O10 0.459422 0.393905 0.234350
O O11 0.474914 0.267033 0.000000
O O12 0.110908 0.974774 0.826709
O O13 0.154124 0.844339 0.000000
O O14 0.166734 0.311821 0.186660
O O15 0.223433 0.333483 0.000000
O O16 0.916502 0.641145 0.204249
O O17 0.950703 0.861714 0.176792
O O18 0.967453 0.682629 0.000000
O O19 0.050229 0.952514 0.000000
O O20 0.627911 0.060111 0.500000
#
# Coordination Sequence:
#
# PCOD9443000 Si02
#       8
#     8   8   8   8   8   8   8   8
#     4  10  22  38  56  81 115 153 193 239 291 346
#     4  10  22  40  63  92 123 157 195 240 294 353
#     4  10  21  35  51  78 114 149 185 232 291 348
#     4   9  18  35  60  84 111 148 192 236 285 344
#     4  10  23  42  63  90 124 157 194 243 297 354
#     4  10  20  34  55  80 107 144 191 240 286 339
#     4   9  17  32  55  81 108 142 186 235 284 339
#     4  10  22  40  60  81 110 150 195 241 292 347
#
# _framework density 19.806059999999999
#
# number of rings (size 3 to 8) (size 9 to 14) (size 15 to 20)
#    0.000    2.250    0.000    1.875    1.750    9.000 
#    0.000    2.500    0.000    4.500    0.000    0.000 
#    0.000    0.000    0.000    0.000    0.000    0.000 
#
# Total GULP energy -357511.644979 kJ/mol
# GULP energy per Si atom -5586.119453 kJ/mol
# Density = 1.976098 g / cm^3
# Si number density = 19.806060 Si / 1000 Ang^3
#
#
#
# Elastic Constant Matrix: (Units=GPa)
#
#
# Indices 1 2 3 4 5 6 
#
# 1 53.6695 13.2173 26.2792 0.0000 0.0000 0.0000
# 2 13.2173 75.5220 34.3873 0.0000 0.0000 0.0000
# 3 26.2792 34.3873 50.6283 0.0000 0.0000 0.0000
# 4 0.0000 0.0000 0.0000 16.1548 0.0000 0.0000
# 5 0.0000 0.0000 0.0000 0.0000 26.9010 0.0000
# 6 0.0000 0.0000 0.0000 0.0000 0.0000 14.4187
#
#
#
# Elastic Compliance Matrix: (Units=1/GPa)
#
#
# Indices 1 2 3 4 5 6 
#
# 1 0.025241 0.002241 -0.014624 0.000000 0.000000 0.000000
# 2 0.002241 0.019369 -0.014319 0.000000 0.000000 0.000000
# 3 -0.014624 -0.014319 0.037068 0.000000 0.000000 0.000000
# 4 0.000000 0.000000 0.000000 0.061901 0.000000 0.000000
# 5 0.000000 0.000000 0.000000 0.000000 0.037173 0.000000
# 6 0.000000 0.000000 0.000000 0.000000 0.000000 0.069354
#
#
# Mechanical properties :
#
#
# Convention : Reuss Voigt Hill
#
# Bulk Modulus (GPa) = 35.36718 36.39862 35.88290
# Shear Modulus (GPa) = 15.97777 18.55731 17.26754
#
# Velocity S-wave (km/s) = 2.84335 3.06429 2.95588
# Velocity P-wave (km/s) = 5.35491 5.56212 5.45950
#
# Compressibility (1/GPa) = 0.02827480
#
# Stress axis : x y z
#
# Youngs Moduli (GPa) = 39.61769 51.62972 26.97736
#
# Poissons Ratio (x) = -0.11571 0.39452
# Poissons Ratio (y) = -0.08879 0.38628
# Poissons Ratio (z) = 0.57937 0.73928
#
# Static dielectric constant tensor:
#      x y z
#    x 1.733090 0.000000 0.000000 
#    y 0.000000 1.667370 0.000000 
#    z 0.000000 0.000000 1.663880 
# 
# From -- ./inp_files/11013.got.cif
#   From: 2010.05.17/outbox.cif.g08.bks.cpg/sg58_6_cif.got.tgz:11013.got - 2010.06.03 14:20:14.
