data_PCOD9443236
_publ_section_title
;
Structure prediction by ZEFSAII (Michael W. Deem and Ramdas Pophale) SiO2 
 PCOD9443236
Probable space group: P N N M
;
_chemical_formula_sum "Si O2"
_cell_formula_units_Z 64
_cell_length_a 15.963814
_cell_length_b 24.294572
_cell_length_c 7.583083
_cell_angle_alpha 90.000000
_cell_angle_beta 90.000000
_cell_angle_gamma 90.000000
_cell_volume 2940.977629
_symmetry_space_group_name_H-M "P N N M"
_symmetry_group_IT_number 58
_symmetry_cell_setting 'orthorhombic'
loop_
_space_group_symop_operation_xyz
x,y,z
-x,-y,z
1/2+x,1/2-y,1/2-z
1/2-x,1/2+y,1/2-z
-x,-y,-z
x,y,-z
1/2-x,1/2+y,1/2+z
1/2+x,1/2-y,1/2+z
loop_
_atom_site_type_symbol
_atom_site_label
_atom_site_fract_x
_atom_site_fract_y
_atom_site_fract_z
Si Si1 0.675702 0.869391 0.288925
Si Si2 0.142942 0.363369 0.287694
Si Si3 0.141664 0.123808 0.701719
Si Si4 0.172315 0.866351 0.216024
Si Si5 0.914104 0.757962 0.791587
Si Si6 0.107141 0.747716 0.215234
Si Si7 0.978933 0.059239 0.203922
Si Si8 0.010719 0.562351 0.287486
O O1 0.685784 0.864193 0.500000
O O2 0.766509 0.887832 0.220668
O O3 0.648886 0.808890 0.222116
O O4 0.600035 0.911041 0.255766
O O5 0.141836 0.366894 0.500000
O O6 0.234464 0.382839 0.228119
O O7 0.131251 0.299580 0.240651
O O8 0.064385 0.398633 0.220623
O O9 0.138652 0.104258 0.500000
O O10 0.129415 0.189657 0.705301
O O11 0.062075 0.096352 0.792725
O O12 0.152864 0.803605 0.270213
O O13 0.098588 0.906304 0.280021
O O14 0.170140 0.866054 0.000000
O O15 0.010098 0.751250 0.729505
O O16 0.916406 0.769263 0.000000
O O17 0.107428 0.746186 0.000000
O O18 0.955321 0.048872 0.000000
O O19 0.000000 0.000000 0.284700
O O20 0.004705 0.561182 0.500000
O O21 0.000000 0.500000 0.223327
#
# Coordination Sequence:
#
# PCOD9443236 Si02
#       8
#     8   8   8   8   8   8   8   8
#     4  10  21  38  59  83 111 153 195 229 280 345
#     4  10  20  35  57  82 111 148 187 229 284 342
#     4  11  23  38  59  86 117 151 188 233 287 340
#     4   9  17  33  56  81 110 146 184 223 275 340
#     4  11  20  34  59  86 113 145 185 233 284 342
#     4   9  16  30  55  80 106 140 182 228 273 331
#     4  10  21  38  61  86 112 151 198 236 277 333
#     4  10  22  38  56  83 117 150 189 242 290 326
#
# _framework density 21.761472999999999
#
# number of rings (size 3 to 8) (size 9 to 14) (size 15 to 20)
#    0.000    2.000    2.500    1.500    0.000    4.500 
#    0.000    3.125    0.000    0.000    0.000    0.000 
#    0.000    0.000    0.000    0.000    0.000    0.000 
#
# Total GULP energy -357635.583610 kJ/mol
# GULP energy per Si atom -5588.055994 kJ/mol
# Density = 2.171194 g / cm^3
# Si number density = 21.761473 Si / 1000 Ang^3
#
#
#
# Elastic Constant Matrix: (Units=GPa)
#
#
# Indices 1 2 3 4 5 6 
#
# 1 163.9613 45.9665 -3.2395 0.0000 0.0000 0.0000
# 2 45.9665 111.7085 -9.5841 0.0000 0.0000 0.0000
# 3 -3.2395 -9.5841 50.0799 0.0000 0.0000 0.0000
# 4 0.0000 0.0000 0.0000 -14.1022 0.0000 0.0000
# 5 0.0000 0.0000 0.0000 0.0000 10.2485 0.0000
# 6 0.0000 0.0000 0.0000 0.0000 0.0000 -4.8357
#
#
#
# Elastic Compliance Matrix: (Units=1/GPa)
#
#
# Indices 1 2 3 4 5 6 
#
# 1 0.006895 -0.002846 -0.000099 0.000000 0.000000 0.000000
# 2 -0.002846 0.010276 0.001782 0.000000 0.000000 0.000000
# 3 -0.000099 0.001782 0.020303 0.000000 0.000000 0.000000
# 4 0.000000 0.000000 0.000000 -0.070911 0.000000 0.000000
# 5 0.000000 0.000000 0.000000 0.000000 0.097575 0.000000
# 6 0.000000 0.000000 0.000000 0.000000 0.000000 -0.206797
#
#
# Mechanical properties :
#
#
# Convention : Reuss Voigt Hill
#
# Bulk Modulus (GPa) = 28.44953 43.55950 36.00452
# Shear Modulus (GPa) = -38.87442 17.76926 -10.55258
#
# Velocity S-wave (km/s) = -4.23115 2.86063 -2.20448
# Velocity P-wave (km/s) = 3.28154 5.56518 3.17826
#
# Compressibility (1/GPa) = 0.03514996
#
# Stress axis : x y z
#
# Youngs Moduli (GPa) = 145.03667 97.31688 49.25423
#
# Poissons Ratio (x) = 0.27692 0.00486
# Poissons Ratio (y) = 0.41271 -0.08779
# Poissons Ratio (z) = 0.01430 -0.17346
#
# Static dielectric constant tensor:
#      x y z
#    x 1.791900 0.000000 0.000000 
#    y 0.000000 1.753310 0.000000 
#    z 0.000000 0.000000 1.823080 
# 
# From -- ./inp_files/6952.got.cif
#   From: 2010.05.17/outbox.cif.g08.bks.cpg/sg58_4_cif.got.tgz:6952.got - 2010.06.03 14:20:14.
