data_PCOD9443296
_publ_section_title
;
Structure prediction by ZEFSAII (Michael W. Deem and Ramdas Pophale) SiO2 
 PCOD9443296
Probable space group: P N N M
;
_chemical_formula_sum "Si O2"
_cell_formula_units_Z 32
_cell_length_a 7.398995
_cell_length_b 5.050841
_cell_length_c 37.321636
_cell_angle_alpha 90.000000
_cell_angle_beta 90.000000
_cell_angle_gamma 90.000000
_cell_volume 1394.752357
_symmetry_space_group_name_H-M "P N N M"
_symmetry_group_IT_number 58
_symmetry_cell_setting 'orthorhombic'
loop_
_space_group_symop_operation_xyz
x,y,z
-x,-y,z
1/2+x,1/2-y,1/2-z
1/2-x,1/2+y,1/2-z
-x,-y,-z
x,y,-z
1/2-x,1/2+y,1/2+z
1/2+x,1/2-y,1/2+z
loop_
_atom_site_type_symbol
_atom_site_label
_atom_site_fract_x
_atom_site_fract_y
_atom_site_fract_z
Si Si1 0.782102 0.507220 0.416893
Si Si2 0.779640 0.005649 0.459817
Si Si3 0.621323 0.741394 0.655766
Si Si4 0.202202 0.607960 0.771878
O O1 0.722394 0.219045 0.430155
O O2 0.708726 0.616888 0.379578
O O3 0.000000 0.500000 0.414674
O O4 0.725590 0.714974 0.447404
O O5 0.720777 0.072705 0.500000
O O6 0.000000 0.000000 0.460186
O O7 0.500000 0.500000 0.670948
O O8 0.240938 0.179472 0.687570
O O9 0.500000 0.000000 0.647163
O O10 0.197911 0.867775 0.747419
O O11 0.000000 0.500000 0.776026
#
# Coordination Sequence:
#
# PCOD9443296 Si02
#       4
#     8   8   8   8
#     4  10  20  35  58  86 113 148 199 245 285 343
#     4   9  17  31  54  84 115 147 189 245 298 339
#     4  11  23  41  61  84 120 161 193 233 300 363
#     4  11  23  42  65  91 120 156 200 245 297 356
#
# _framework density 22.943142000000002
#
# number of rings (size 3 to 8) (size 9 to 14) (size 15 to 20)
#    0.000    1.750    0.000    6.000    0.000    4.000 
#    0.000   10.000    0.000   15.000    0.000    0.000 
#    0.000    0.000    0.000    0.000    0.000    0.000 
#
# Total GULP energy -178896.988540 kJ/mol
# GULP energy per Si atom -5590.530892 kJ/mol
# Density = 2.289092 g / cm^3
# Si number density = 22.943142 Si / 1000 Ang^3
#
#
#
# Elastic Constant Matrix: (Units=GPa)
#
#
# Indices 1 2 3 4 5 6 
#
# 1 38.5878 14.6422 16.7004 0.0000 0.0000 0.0000
# 2 14.6422 157.4548 57.0202 0.0000 0.0000 0.0000
# 3 16.7004 57.0202 173.7582 0.0000 0.0000 0.0000
# 4 0.0000 0.0000 0.0000 43.2744 0.0000 0.0000
# 5 0.0000 0.0000 0.0000 0.0000 12.5225 0.0000
# 6 0.0000 0.0000 0.0000 0.0000 0.0000 27.2688
#
#
#
# Elastic Compliance Matrix: (Units=1/GPa)
#
#
# Indices 1 2 3 4 5 6 
#
# 1 0.027489 -0.001815 -0.002046 0.000000 0.000000 0.000000
# 2 -0.001815 0.007327 -0.002230 0.000000 0.000000 0.000000
# 3 -0.002046 -0.002230 0.006684 0.000000 0.000000 0.000000
# 4 0.000000 0.000000 0.000000 0.023108 0.000000 0.000000
# 5 0.000000 0.000000 0.000000 0.000000 0.079856 0.000000
# 6 0.000000 0.000000 0.000000 0.000000 0.000000 0.036672
#
#
# Mechanical properties :
#
#
# Convention : Reuss Voigt Hill
#
# Bulk Modulus (GPa) = 34.10994 60.72515 47.41755
# Shear Modulus (GPa) = 24.61930 35.37568 29.99749
#
# Velocity S-wave (km/s) = 3.27931 3.93094 3.61982
# Velocity P-wave (km/s) = 5.40721 6.86500 6.17925
#
# Compressibility (1/GPa) = 0.02931697
#
# Stress axis : x y z
#
# Youngs Moduli (GPa) = 36.37771 136.47345 149.61936
#
# Poissons Ratio (x) = 0.24773 0.30618
# Poissons Ratio (y) = 0.06603 0.33366
# Poissons Ratio (z) = 0.07444 0.30435
#
# Static dielectric constant tensor:
#      x y z
#    x 1.892040 0.000000 0.000000 
#    y 0.000000 1.825970 0.000000 
#    z 0.000000 0.000000 1.861330 
# 
# From -- ./inp_files/34007.got.cif
#   From: 2010.05.17/outbox.cif.g08.bks.cpg/sg58_18_cif.got.tgz:34007.got - 2010.06.03 14:20:14.
