data_PCOD9443609
_publ_section_title
;
Structure prediction by ZEFSAII (Michael W. Deem and Ramdas Pophale) SiO2 
 PCOD9443609
Probable space group: P N N M
;
_chemical_formula_sum "Si O2"
_cell_formula_units_Z 58
_cell_length_a 25.593593
_cell_length_b 14.711551
_cell_length_c 7.649261
_cell_angle_alpha 90.000000
_cell_angle_beta 90.000000
_cell_angle_gamma 90.000000
_cell_volume 2880.110833
_symmetry_space_group_name_H-M "P N N M"
_symmetry_group_IT_number 58
_symmetry_cell_setting 'orthorhombic'
loop_
_space_group_symop_operation_xyz
x,y,z
-x,-y,z
1/2+x,1/2-y,1/2-z
1/2-x,1/2+y,1/2-z
-x,-y,-z
x,y,-z
1/2-x,1/2+y,1/2+z
1/2+x,1/2-y,1/2+z
loop_
_atom_site_type_symbol
_atom_site_label
_atom_site_fract_x
_atom_site_fract_y
_atom_site_fract_z
Si Si1 0.234447 0.935703 0.712554
Si Si2 0.099737 0.258943 0.287634
Si Si3 0.118628 0.649112 0.801571
Si Si4 0.355015 0.952549 0.794996
Si Si5 0.000000 0.500000 0.500000
Si Si6 0.821932 0.890802 0.701138
Si Si7 0.997715 0.346714 0.205622
Si Si8 0.773840 0.270290 0.300019
O O1 0.233628 0.938557 0.500000
O O2 0.292968 0.960127 0.770172
O O3 0.223379 0.832631 0.768360
O O4 0.194393 0.012155 0.778958
O O5 0.101937 0.257982 0.500000
O O6 0.127127 0.353769 0.230455
O O7 0.132867 0.172988 0.222332
O O8 0.040384 0.267785 0.226743
O O9 0.118501 0.539482 0.792073
O O10 0.061496 0.680468 0.743891
O O11 0.169138 0.684915 0.702219
O O12 0.126738 0.678137 0.000000
O O13 0.367888 0.959903 0.000000
O O14 0.987287 0.575678 0.344545
O O15 0.836869 0.908047 0.500000
O O16 0.768813 0.830933 0.702565
O O17 0.996728 0.375068 0.000000
O O18 0.755153 0.266139 0.500000
#
# Coordination Sequence:
#
# PCOD9443609 Si02
#       8
#     8   8   8   8   2   8   8   8
#     4  10  21  36  54  83 119 152 190 238 290 349
#     4  10  21  37  58  83 117 161 200 244 293 352
#     4  11  24  39  56  80 114 158 200 241 292 351
#     4  11  21  31  53  85 116 151 190 231 285 346
#     4  12  22  40  64  86 132 154 206 244 304 356
#     4  10  20  37  58  81 115 156 194 239 298 354
#     4  11  25  40  59  87 120 164 204 247 300 360
#     4  11  22  35  56  85 115 152 196 242 292 348
#
# _framework density 20.138113000000001
#
# number of rings (size 3 to 8) (size 9 to 14) (size 15 to 20)
#    0.000    1.379    3.448    2.276    3.862    3.310 
#    0.000    0.000    0.000    0.828    0.000    5.793 
#    0.000    0.000    0.000    0.000    0.000    0.000 
#
# Total GULP energy -323457.473534 kJ/mol
# GULP energy per Si atom -5576.852992 kJ/mol
# Density = 2.009228 g / cm^3
# Si number density = 20.138113 Si / 1000 Ang^3
#
#
#
# Elastic Constant Matrix: (Units=GPa)
#
#
# Indices 1 2 3 4 5 6 
#
# 1 51.2199 -3.8590 5.3522 0.0000 0.0000 0.0000
# 2 -3.8590 56.7725 -0.4626 0.0000 0.0000 0.0000
# 3 5.3522 -0.4626 59.4490 0.0000 0.0000 0.0000
# 4 0.0000 0.0000 0.0000 12.4522 0.0000 0.0000
# 5 0.0000 0.0000 0.0000 0.0000 22.5489 0.0000
# 6 0.0000 0.0000 0.0000 0.0000 0.0000 24.8143
#
#
#
# Elastic Compliance Matrix: (Units=1/GPa)
#
#
# Indices 1 2 3 4 5 6 
#
# 1 0.019809 0.001332 -0.001773 0.000000 0.000000 0.000000
# 2 0.001332 0.017705 0.000018 0.000000 0.000000 0.000000
# 3 -0.001773 0.000018 0.016981 0.000000 0.000000 0.000000
# 4 0.000000 0.000000 0.000000 0.080307 0.000000 0.000000
# 5 0.000000 0.000000 0.000000 0.000000 0.044348 0.000000
# 6 0.000000 0.000000 0.000000 0.000000 0.000000 0.040299
#
#
# Mechanical properties :
#
#
# Convention : Reuss Voigt Hill
#
# Bulk Modulus (GPa) = 18.63976 18.83360 18.73668
# Shear Modulus (GPa) = 20.99265 23.05714 22.02489
#
# Velocity S-wave (km/s) = 3.23218 3.38738 3.31069
# Velocity P-wave (km/s) = 4.81719 4.96706 4.89270
#
# Compressibility (1/GPa) = 0.05364877
#
# Stress axis : x y z
#
# Youngs Moduli (GPa) = 50.48138 56.48170 58.88965
#
# Poissons Ratio (x) = -0.07524 0.10441
# Poissons Ratio (y) = -0.06724 -0.00105
# Poissons Ratio (z) = 0.08951 -0.00101
#
# Static dielectric constant tensor:
#      x y z
#    x 1.736610 0.000000 0.000000 
#    y 0.000000 1.712910 0.000000 
#    z 0.000000 0.000000 1.726510 
# 
# From -- ./inp_files/9854.got.cif
#   From: 2010.05.17/outbox.cif.g08.bks.cpg/sg58_5_cif.got.tgz:9854.got - 2010.06.03 14:20:14.
