data_PCOD9443764
_publ_section_title
;
Structure prediction by ZEFSAII (Michael W. Deem and Ramdas Pophale) SiO2 
 PCOD9443764
Probable space group: P N N M
;
_chemical_formula_sum "Si O2"
_cell_formula_units_Z 48
_cell_length_a 8.961998
_cell_length_b 8.103152
_cell_length_c 32.663243
_cell_angle_alpha 90.000000
_cell_angle_beta 90.000000
_cell_angle_gamma 90.000000
_cell_volume 2372.018818
_symmetry_space_group_name_H-M "P N N M"
_symmetry_group_IT_number 58
_symmetry_cell_setting 'orthorhombic'
loop_
_space_group_symop_operation_xyz
x,y,z
-x,-y,z
1/2+x,1/2-y,1/2-z
1/2-x,1/2+y,1/2-z
-x,-y,-z
x,y,-z
1/2-x,1/2+y,1/2+z
1/2+x,1/2-y,1/2+z
loop_
_atom_site_type_symbol
_atom_site_label
_atom_site_fract_x
_atom_site_fract_y
_atom_site_fract_z
Si Si1 0.262231 0.401630 0.877331
Si Si2 0.500000 0.000000 0.568474
Si Si3 0.142198 0.416640 0.206270
Si Si4 0.439764 0.246671 0.500000
Si Si5 0.418997 0.741678 0.870760
Si Si6 0.105600 0.161683 0.721864
Si Si7 0.500000 0.000000 0.931493
Si Si8 0.238034 0.575162 0.500000
O O1 0.230355 0.338812 0.831357
O O2 0.299746 0.596547 0.875987
O O3 0.419944 0.320110 0.887216
O O4 0.118511 0.393212 0.905598
O O5 0.583341 0.870232 0.539153
O O6 0.097483 0.288323 0.240983
O O7 0.235036 0.570987 0.223499
O O8 0.000000 0.500000 0.186016
O O9 0.323623 0.397653 0.500000
O O10 0.616358 0.303871 0.500000
O O11 0.421531 0.755771 0.821256
O O12 0.396468 0.896326 0.899826
O O13 0.000000 0.000000 0.723721
O O14 0.377508 0.085530 0.961642
#
# Coordination Sequence:
#
# PCOD9443764 Si02
#       8
#     8   4   8   4   8   8   4   4
#     4  10  20  38  57  81 120 147 190 242 282 328
#     4  11  20  36  63  88 106 152 195 222 284 345
#     4  11  22  36  59  83 114 160 193 241 287 338
#     4  10  22  38  62  84 118 150 178 230 288 349
#     4  10  21  38  57  85 114 152 189 242 287 328
#     4  11  22  40  58  82 118 156 194 242 290 339
#     4  11  22  36  65  86 110 152 193 228 282 353
#     4  10  22  42  56  86 122 146 178 234 287 340
#
# _framework density 20.235927
#
# number of rings (size 3 to 8) (size 9 to 14) (size 15 to 20)
#    0.000    1.500    4.167    3.000    1.167    0.000 
#    0.000    0.000    3.667    8.000    0.000    0.000 
#    0.000    0.000    0.000    0.000    0.000    0.000 
#
# Total GULP energy -267260.346080 kJ/mol
# GULP energy per Si atom -5567.923877 kJ/mol
# Density = 2.018987 g / cm^3
# Si number density = 20.235927 Si / 1000 Ang^3
#
#
#
# Elastic Constant Matrix: (Units=GPa)
#
#
# Indices 1 2 3 4 5 6 
#
# 1 62.5642 -10.9233 11.5693 0.0000 0.0000 0.0000
# 2 -10.9233 35.6267 41.7444 0.0000 0.0000 0.0000
# 3 11.5693 41.7444 134.0016 0.0000 0.0000 0.0000
# 4 0.0000 0.0000 0.0000 27.3650 0.0000 0.0000
# 5 0.0000 0.0000 0.0000 0.0000 11.8176 0.0000
# 6 0.0000 0.0000 0.0000 0.0000 0.0000 21.9289
#
#
#
# Elastic Compliance Matrix: (Units=1/GPa)
#
#
# Indices 1 2 3 4 5 6 
#
# 1 0.019144 0.012294 -0.005483 0.000000 0.000000 0.000000
# 2 0.012294 0.052099 -0.017291 0.000000 0.000000 0.000000
# 3 -0.005483 -0.017291 0.013323 0.000000 0.000000 0.000000
# 4 0.000000 0.000000 0.000000 0.036543 0.000000 0.000000
# 5 0.000000 0.000000 0.000000 0.000000 0.084619 0.000000
# 6 0.000000 0.000000 0.000000 0.000000 0.000000 0.045602
#
#
# Mechanical properties :
#
#
# Convention : Reuss Voigt Hill
#
# Bulk Modulus (GPa) = 15.72215 35.21925 25.47070
# Shear Modulus (GPa) = 17.03630 24.87578 20.95604
#
# Velocity S-wave (km/s) = 2.90467 3.50992 3.22154
# Velocity P-wave (km/s) = 4.36300 5.81964 5.14315
#
# Compressibility (1/GPa) = 0.06360452
#
# Stress axis : x y z
#
# Youngs Moduli (GPa) = 52.23624 19.19440 75.06084
#
# Poissons Ratio (x) = -0.23597 0.41152
# Poissons Ratio (y) = -0.64217 1.29789
# Poissons Ratio (z) = 0.28639 0.33189
#
# Static dielectric constant tensor:
#      x y z
#    x 1.839650 0.000000 0.000000 
#    y 0.000000 1.729240 0.000000 
#    z 0.000000 0.000000 1.735360 
# 
# From -- ./inp_files/34656.got.cif
#   From: 2010.05.17/outbox.cif.g08.bks.cpg/sg58_18_cif.got.tgz:34656.got - 2010.06.03 14:20:14.
