data_PCOD9443643
_publ_section_title
;
Structure prediction by ZEFSAII (Michael W. Deem and Ramdas Pophale) SiO2 
 PCOD9443643
Probable space group: P N N M
;
_chemical_formula_sum "Si O2"
_cell_formula_units_Z 64
_cell_length_a 18.805101
_cell_length_b 18.833711
_cell_length_c 7.624109
_cell_angle_alpha 90.000000
_cell_angle_beta 90.000000
_cell_angle_gamma 90.000000
_cell_volume 2700.229446
_symmetry_space_group_name_H-M "P N N M"
_symmetry_group_IT_number 58
_symmetry_cell_setting 'orthorhombic'
loop_
_space_group_symop_operation_xyz
x,y,z
-x,-y,z
1/2+x,1/2-y,1/2-z
1/2-x,1/2+y,1/2-z
-x,-y,-z
x,y,-z
1/2-x,1/2+y,1/2+z
1/2+x,1/2-y,1/2+z
loop_
_atom_site_type_symbol
_atom_site_label
_atom_site_fract_x
_atom_site_fract_y
_atom_site_fract_z
Si Si1 0.760397 0.183800 0.299276
Si Si2 0.550769 0.224822 0.215238
Si Si3 0.320411 0.106814 0.210539
Si Si4 0.483417 0.082019 0.214392
Si Si5 0.425295 0.469999 0.787867
Si Si6 0.086066 0.807762 0.286686
Si Si7 0.819891 0.802931 0.309770
Si Si8 0.770169 0.023248 0.794252
O O1 0.748431 0.206346 0.500000
O O2 0.835456 0.213122 0.231951
O O3 0.701143 0.219298 0.183868
O O4 0.764825 0.099521 0.294522
O O5 0.543106 0.141433 0.266397
O O6 0.474626 0.255889 0.268301
O O7 0.605188 0.286567 0.282792
O O8 0.555461 0.227026 0.000000
O O9 0.403276 0.107901 0.270148
O O10 0.252302 0.158889 0.246833
O O11 0.287675 0.031792 0.271321
O O12 0.325757 0.108515 0.000000
O O13 0.500000 0.000000 0.267765
O O14 0.483276 0.082038 0.000000
O O15 0.500000 0.500000 0.726433
O O16 0.424163 0.388341 0.729958
O O17 0.351108 0.504583 0.728489
O O18 0.424459 0.472438 0.000000
O O19 0.087691 0.808351 0.500000
O O20 0.834914 0.834900 0.500000
O O21 0.758156 0.034321 0.000000
#
# Coordination Sequence:
#
# PCOD9443643 Si02
#       8
#     8   8   8   8   8   8   8   8
#     4  10  20  37  60  81 109 150 195 238 290 356
#     4   9  18  31  52  83 112 141 188 245 294 340
#     4  10  22  39  60  87 121 159 197 244 301 364
#     4   9  18  34  60  88 113 150 201 253 295 342
#     4   9  18  31  52  78 109 152 200 237 277 341
#     4   8  15  30  51  75 101 138 186 236 275 324
#     4  11  23  35  57  88 118 149 188 245 304 361
#     4  10  21  35  55  85 119 150 189 241 300 356
#
# _framework density 23.701689999999999
#
# number of rings (size 3 to 8) (size 9 to 14) (size 15 to 20)
#    0.000    2.500    0.000    2.625    3.500    3.250 
#    0.000    0.000    0.000    7.125    0.000    0.000 
#    0.000    0.000    0.000    0.000    0.000    0.000 
#
# Total GULP energy -356457.738426 kJ/mol
# GULP energy per Si atom -5569.652163 kJ/mol
# Density = 2.364774 g / cm^3
# Si number density = 23.701690 Si / 1000 Ang^3
#
#
#
# Elastic Constant Matrix: (Units=GPa)
#
#
# Indices 1 2 3 4 5 6 
#
# 1 73.7997 30.5105 -0.4806 0.0000 0.0000 0.0000
# 2 30.5105 53.1989 0.5540 0.0000 0.0000 0.0000
# 3 -0.4806 0.5540 49.5413 0.0000 0.0000 0.0000
# 4 0.0000 0.0000 0.0000 13.1782 0.0000 0.0000
# 5 0.0000 0.0000 0.0000 0.0000 7.9695 0.0000
# 6 0.0000 0.0000 0.0000 0.0000 0.0000 44.2998
#
#
#
# Elastic Compliance Matrix: (Units=1/GPa)
#
#
# Indices 1 2 3 4 5 6 
#
# 1 0.017766 -0.010192 0.000286 0.000000 0.000000 0.000000
# 2 -0.010192 0.024646 -0.000374 0.000000 0.000000 0.000000
# 3 0.000286 -0.000374 0.020192 0.000000 0.000000 0.000000
# 4 0.000000 0.000000 0.000000 0.075883 0.000000 0.000000
# 5 0.000000 0.000000 0.000000 0.000000 0.125479 0.000000
# 6 0.000000 0.000000 0.000000 0.000000 0.000000 0.022573
#
#
# Mechanical properties :
#
#
# Convention : Reuss Voigt Hill
#
# Bulk Modulus (GPa) = 23.78449 26.41195 25.09822
# Shear Modulus (GPa) = 15.57076 22.81988 19.19532
#
# Velocity S-wave (km/s) = 2.56588 3.10626 2.84891
# Velocity P-wave (km/s) = 4.33993 4.90233 4.62968
#
# Compressibility (1/GPa) = 0.04204421
#
# Stress axis : x y z
#
# Youngs Moduli (GPa) = 56.28850 40.57371 49.52420
#
# Poissons Ratio (x) = 0.41352 -0.01418
# Poissons Ratio (y) = 0.57369 0.01855
# Poissons Ratio (z) = -0.01612 0.01519
#
# Static dielectric constant tensor:
#      x y z
#    x 1.931580 0.000000 0.000000 
#    y 0.000000 1.929070 0.000000 
#    z 0.000000 0.000000 1.919350 
# 
# From -- ./inp_files/8327.got.cif
#   From: 2010.05.17/outbox.cif.g08.bks.cpg/sg58_5_cif.got.tgz:8327.got - 2010.06.03 14:20:14.
