data_PCOD9443033
_publ_section_title
;
Structure prediction by ZEFSAII (Michael W. Deem and Ramdas Pophale) SiO2 
 PCOD9443033
Probable space group: P N N M
;
_chemical_formula_sum "Si O2"
_cell_formula_units_Z 64
_cell_length_a 25.304665
_cell_length_b 14.760819
_cell_length_c 8.892221
_cell_angle_alpha 90.000000
_cell_angle_beta 90.000000
_cell_angle_gamma 90.000000
_cell_volume 3321.400868
_symmetry_space_group_name_H-M "P N N M"
_symmetry_group_IT_number 58
_symmetry_cell_setting 'orthorhombic'
loop_
_space_group_symop_operation_xyz
x,y,z
-x,-y,z
1/2+x,1/2-y,1/2-z
1/2-x,1/2+y,1/2-z
-x,-y,-z
x,y,-z
1/2-x,1/2+y,1/2+z
1/2+x,1/2-y,1/2+z
loop_
_atom_site_type_symbol
_atom_site_label
_atom_site_fract_x
_atom_site_fract_y
_atom_site_fract_z
Si Si1 0.437675 0.357162 0.179020
Si Si2 0.782305 0.936197 0.821244
Si Si3 0.900255 0.964120 0.178389
Si Si4 0.878405 0.636755 0.821236
Si Si5 0.220644 0.262625 0.679662
Si Si6 0.174664 0.541483 0.179638
Si Si7 0.840285 0.247209 0.179651
Si Si8 0.552060 0.285141 0.179708
O O1 0.435069 0.456161 0.252705
O O2 0.386609 0.302915 0.234629
O O3 0.491330 0.304862 0.220795
O O4 0.436853 0.367494 0.000000
O O5 0.838141 0.984878 0.793733
O O6 0.728786 0.983079 0.765455
O O7 0.784311 0.841640 0.731344
O O8 0.778774 0.918962 0.000000
O O9 0.914428 0.867868 0.250802
O O10 0.908054 0.958726 0.000000
O O11 0.823773 0.682377 0.766725
O O12 0.870880 0.530742 0.785181
O O13 0.925047 0.691318 0.741584
O O14 0.883726 0.647367 0.000000
O O15 0.212771 0.269673 0.500000
O O16 0.281312 0.288798 0.714000
O O17 0.160250 0.645247 0.215378
O O18 0.184883 0.537304 0.000000
O O19 0.848207 0.237153 0.000000
O O20 0.557329 0.287237 0.000000
#
# Coordination Sequence:
#
# PCOD9443033 Si02
#       8
#     8   8   8   8   8   8   8   8
#     4  11  25  41  60  86 116 156 203 248 298 354
#     4  10  20  34  55  86 120 153 194 235 284 349
#     4  11  23  38  59  89 120 155 198 242 292 354
#     4  11  22  37  60  90 119 153 199 244 293 352
#     4  10  20  35  57  84 119 157 191 235 292 349
#     4   9  21  39  59  86 121 157 195 242 296 352
#     4   9  20  40  61  84 117 156 198 244 296 349
#     4  11  24  42  61  85 119 157 199 246 298 353
#
# _framework density 19.268979000000002
#
# number of rings (size 3 to 8) (size 9 to 14) (size 15 to 20)
#    0.000    1.750    1.250    3.375    1.750    8.500 
#    0.000    0.625    0.000    3.750    0.000    0.000 
#    0.000    0.000    0.000    0.000    0.000    0.000 
#
# Total GULP energy -357600.248104 kJ/mol
# GULP energy per Si atom -5587.503877 kJ/mol
# Density = 1.922512 g / cm^3
# Si number density = 19.268979 Si / 1000 Ang^3
#
#
#
# Elastic Constant Matrix: (Units=GPa)
#
#
# Indices 1 2 3 4 5 6 
#
# 1 63.2877 -1.7341 24.9765 0.0000 0.0000 0.0000
# 2 -1.7341 25.4318 5.4734 0.0000 0.0000 0.0000
# 3 24.9765 5.4734 36.8831 0.0000 0.0000 0.0000
# 4 0.0000 0.0000 0.0000 32.2308 0.0000 0.0000
# 5 0.0000 0.0000 0.0000 0.0000 -23.7057 0.0000
# 6 0.0000 0.0000 0.0000 0.0000 0.0000 30.4137
#
#
#
# Elastic Compliance Matrix: (Units=1/GPa)
#
#
# Indices 1 2 3 4 5 6 
#
# 1 0.022138 0.004892 -0.015717 0.000000 0.000000 0.000000
# 2 0.004892 0.041699 -0.009501 0.000000 0.000000 0.000000
# 3 -0.015717 -0.009501 0.039166 0.000000 0.000000 0.000000
# 4 0.000000 0.000000 0.000000 0.031026 0.000000 0.000000
# 5 0.000000 0.000000 0.000000 0.000000 -0.042184 0.000000
# 6 0.000000 0.000000 0.000000 0.000000 0.000000 0.032880
#
#
# Mechanical properties :
#
#
# Convention : Reuss Voigt Hill
#
# Bulk Modulus (GPa) = 16.03829 20.33714 18.18772
# Shear Modulus (GPa) = 26.85856 14.24689 20.55272
#
# Velocity S-wave (km/s) = 3.73751 2.72208 3.26946
# Velocity P-wave (km/s) = 5.19296 4.52293 4.86948
#
# Compressibility (1/GPa) = 0.06235079
#
# Stress axis : x y z
#
# Youngs Moduli (GPa) = 45.17186 23.98133 25.53241
#
# Poissons Ratio (x) = -0.11732 0.40130
# Poissons Ratio (y) = -0.22098 0.24258
# Poissons Ratio (z) = 0.70997 0.22784
#
# Static dielectric constant tensor:
#      x y z
#    x 1.676030 0.000000 0.000000 
#    y 0.000000 1.680470 0.000000 
#    z 0.000000 0.000000 1.639890 
# 
# From -- ./inp_files/9986.got.cif
#   From: 2010.05.17/outbox.cif.g08.bks.cpg/sg58_5_cif.got.tgz:9986.got - 2010.06.03 14:20:14.
