data_PCOD9443191
_publ_section_title
;
Structure prediction by ZEFSAII (Michael W. Deem and Ramdas Pophale) SiO2 
 PCOD9443191
Probable space group: P N N M
;
_chemical_formula_sum "Si O2"
_cell_formula_units_Z 56
_cell_length_a 13.121076
_cell_length_b 15.831308
_cell_length_c 14.716352
_cell_angle_alpha 90.000000
_cell_angle_beta 90.000000
_cell_angle_gamma 90.000000
_cell_volume 3056.936493
_symmetry_space_group_name_H-M "P N N M"
_symmetry_group_IT_number 58
_symmetry_cell_setting 'orthorhombic'
loop_
_space_group_symop_operation_xyz
x,y,z
-x,-y,z
1/2+x,1/2-y,1/2-z
1/2-x,1/2+y,1/2-z
-x,-y,-z
x,y,-z
1/2-x,1/2+y,1/2+z
1/2+x,1/2-y,1/2+z
loop_
_atom_site_type_symbol
_atom_site_label
_atom_site_fract_x
_atom_site_fract_y
_atom_site_fract_z
Si Si1 0.387805 0.152595 0.813502
Si Si2 0.821826 0.856884 0.724176
Si Si3 0.379093 0.488660 0.102377
Si Si4 0.723568 0.689123 0.894144
Si Si5 0.677446 0.022334 0.104040
Si Si6 0.400971 0.557031 0.604085
Si Si7 0.617969 0.179233 0.771121
O O1 0.297946 0.150591 0.740235
O O2 0.347908 0.229107 0.877164
O O3 0.381951 0.062517 0.864816
O O4 0.496592 0.168015 0.768496
O O5 0.837455 0.941485 0.669003
O O6 0.880795 0.872037 0.820251
O O7 0.861772 0.770118 0.682208
O O8 0.500000 0.500000 0.104607
O O9 0.343631 0.394350 0.124927
O O10 0.343193 0.505745 0.000000
O O11 0.817733 0.685307 0.822991
O O12 0.755552 0.688747 0.000000
O O13 0.797331 0.997937 0.107346
O O14 0.657432 0.100324 0.170240
O O15 0.650552 0.042858 0.000000
O O16 0.500000 0.500000 0.624495
O O17 0.410963 0.588937 0.500000
#
# Coordination Sequence:
#
# PCOD9443191 Si02
#       7
#     8   8   8   8   8   8   8
#     4  10  21  37  57  80 109 144 185 231 281 336
#     4  10  21  35  54  78 110 142 176 224 273 329
#     4  10  20  35  56  80 107 142 183 226 270 321
#     4  10  21  38  60  85 112 146 191 235 281 343
#     4  10  21  36  55  81 112 146 187 235 282 332
#     4   9  18  34  58  83 106 137 178 228 286 337
#     4  11  23  36  55  83 113 147 188 232 280 333
#
# _framework density 18.318994
#
# number of rings (size 3 to 8) (size 9 to 14) (size 15 to 20)
#    0.000    2.000    0.000    3.857    0.000    8.000 
#    0.000    0.714    0.000    4.286    0.000    0.000 
#    0.000    0.000    0.000    0.000    0.000    0.000 
#
# Total GULP energy -312333.217625 kJ/mol
# GULP energy per Si atom -5577.378886 kJ/mol
# Density = 1.827730 g / cm^3
# Si number density = 18.318994 Si / 1000 Ang^3
#
#
#
# Elastic Constant Matrix: (Units=GPa)
#
#
# Indices 1 2 3 4 5 6 
#
# 1 85.6568 28.0329 37.3591 0.0000 0.0000 0.0000
# 2 28.0329 145.1535 61.2332 0.0000 0.0000 0.0000
# 3 37.3591 61.2332 60.8334 0.0000 0.0000 0.0000
# 4 0.0000 0.0000 0.0000 57.6898 0.0000 0.0000
# 5 0.0000 0.0000 0.0000 0.0000 12.3604 0.0000
# 6 0.0000 0.0000 0.0000 0.0000 0.0000 21.7357
#
#
#
# Elastic Compliance Matrix: (Units=1/GPa)
#
#
# Indices 1 2 3 4 5 6 
#
# 1 0.016229 0.001860 -0.011839 0.000000 0.000000 0.000000
# 2 0.001860 0.012187 -0.013409 0.000000 0.000000 0.000000
# 3 -0.011839 -0.013409 0.037206 0.000000 0.000000 0.000000
# 4 0.000000 0.000000 0.000000 0.017334 0.000000 0.000000
# 5 0.000000 0.000000 0.000000 0.000000 0.080903 0.000000
# 6 0.000000 0.000000 0.000000 0.000000 0.000000 0.046007
#
#
# Mechanical properties :
#
#
# Convention : Reuss Voigt Hill
#
# Bulk Modulus (GPa) = 53.06164 60.54379 56.80272
# Shear Modulus (GPa) = 19.01685 29.35842 24.18764
#
# Velocity S-wave (km/s) = 3.22544 4.00762 3.63762
# Velocity P-wave (km/s) = 6.54978 7.38486 6.97982
#
# Compressibility (1/GPa) = 0.01884601
#
# Stress axis : x y z
#
# Youngs Moduli (GPa) = 61.61684 82.05707 26.87739
#
# Poissons Ratio (x) = -0.15263 0.31820
# Poissons Ratio (y) = -0.11461 0.36040
# Poissons Ratio (z) = 0.72948 1.10030
#
# Static dielectric constant tensor:
#      x y z
#    x 1.603250 0.000000 0.000000 
#    y 0.000000 1.658090 0.000000 
#    z 0.000000 0.000000 1.675030 
# 
# From -- ./inp_files/21254.got.cif
#   From: 2010.05.17/outbox.cif.g08.bks.cpg/sg58_11_cif.got.tgz:21254.got - 2010.06.03 14:20:14.
