data_PCOD9443658
_publ_section_title
;
Structure prediction by ZEFSAII (Michael W. Deem and Ramdas Pophale) SiO2 
 PCOD9443658
Probable space group: P N N M
;
_chemical_formula_sum "Si O2"
_cell_formula_units_Z 56
_cell_length_a 14.277575
_cell_length_b 19.700189
_cell_length_c 9.004686
_cell_angle_alpha 90.000000
_cell_angle_beta 90.000000
_cell_angle_gamma 90.000000
_cell_volume 2532.756369
_symmetry_space_group_name_H-M "P N N M"
_symmetry_group_IT_number 58
_symmetry_cell_setting 'orthorhombic'
loop_
_space_group_symop_operation_xyz
x,y,z
-x,-y,z
1/2+x,1/2-y,1/2-z
1/2-x,1/2+y,1/2-z
-x,-y,-z
x,y,-z
1/2-x,1/2+y,1/2+z
1/2+x,1/2-y,1/2+z
loop_
_atom_site_type_symbol
_atom_site_label
_atom_site_fract_x
_atom_site_fract_y
_atom_site_fract_z
Si Si1 0.724785 0.648505 0.173882
Si Si2 0.883923 0.412672 0.675285
Si Si3 0.956355 0.929289 0.674935
Si Si4 0.429905 0.705150 0.676981
Si Si5 0.735847 0.499696 0.174055
Si Si6 0.450333 0.856954 0.671829
Si Si7 0.224326 0.713112 0.177140
O O1 0.692997 0.572872 0.215636
O O2 0.838212 0.641546 0.186563
O O3 0.692785 0.711761 0.271295
O O4 0.703333 0.661888 0.000000
O O5 0.876035 0.408769 0.500000
O O6 0.825789 0.476637 0.735277
O O7 0.834980 0.347106 0.750444
O O8 0.991225 0.407324 0.726539
O O9 0.979575 0.921477 0.500000
O O10 0.981067 0.861266 0.761633
O O11 0.845049 0.943558 0.687899
O O12 0.000000 0.000000 0.727872
O O13 0.414690 0.700061 0.500000
O O14 0.476432 0.778265 0.704813
O O15 0.330046 0.707453 0.760172
O O16 0.761120 0.504868 0.000000
O O17 0.473630 0.871061 0.500000
O O18 0.222694 0.707063 0.000000
#
# Coordination Sequence:
#
# PCOD9443658 Si02
#       7
#     8   8   8   8   8   8   8
#     4   9  20  39  61  86 118 157 200 244 295 357
#     4  12  24  37  58  87 118 154 202 249 295 356
#     4  10  21  36  57  87 121 159 199 240 292 356
#     4  10  20  37  60  85 114 150 194 243 296 351
#     4  10  21  39  61  85 119 161 198 241 299 357
#     4   9  20  38  58  83 115 152 196 246 298 351
#     4  11  21  36  60  85 114 154 197 245 299 353
#
# _framework density 22.110298
#
# number of rings (size 3 to 8) (size 9 to 14) (size 15 to 20)
#    0.000    1.857    1.429    3.857    0.000    5.429 
#    0.000    4.286    0.000    0.000    0.000    0.000 
#    0.000    0.000    0.000    0.000    0.000    0.000 
#
# Total GULP energy -313163.538726 kJ/mol
# GULP energy per Si atom -5592.206049 kJ/mol
# Density = 2.205997 g / cm^3
# Si number density = 22.110298 Si / 1000 Ang^3
#
#
#
# Elastic Constant Matrix: (Units=GPa)
#
#
# Indices 1 2 3 4 5 6 
#
# 1 45.8029 5.4533 12.5237 0.0000 0.0000 0.0000
# 2 5.4533 94.4606 33.6358 0.0000 0.0000 0.0000
# 3 12.5237 33.6358 73.0154 0.0000 0.0000 0.0000
# 4 0.0000 0.0000 0.0000 37.3756 0.0000 0.0000
# 5 0.0000 0.0000 0.0000 0.0000 3.2050 0.0000
# 6 0.0000 0.0000 0.0000 0.0000 0.0000 35.1690
#
#
#
# Elastic Compliance Matrix: (Units=1/GPa)
#
#
# Indices 1 2 3 4 5 6 
#
# 1 0.022908 0.000092 -0.003971 0.000000 0.000000 0.000000
# 2 0.000092 0.012664 -0.005850 0.000000 0.000000 0.000000
# 3 -0.003971 -0.005850 0.017072 0.000000 0.000000 0.000000
# 4 0.000000 0.000000 0.000000 0.026755 0.000000 0.000000
# 5 0.000000 0.000000 0.000000 0.000000 0.312012 0.000000
# 6 0.000000 0.000000 0.000000 0.000000 0.000000 0.028434
#
#
# Mechanical properties :
#
#
# Convention : Reuss Voigt Hill
#
# Bulk Modulus (GPa) = 30.13441 35.16716 32.65078
# Shear Modulus (GPa) = 11.10211 25.92766 18.51488
#
# Velocity S-wave (km/s) = 2.24324 3.42811 2.89690
# Velocity P-wave (km/s) = 4.51312 5.62220 5.09791
#
# Compressibility (1/GPa) = 0.03318466
#
# Stress axis : x y z
#
# Youngs Moduli (GPa) = 43.65360 78.96349 58.57669
#
# Poissons Ratio (x) = -0.00724 0.23263
# Poissons Ratio (y) = -0.00400 0.34265
# Poissons Ratio (z) = 0.17336 0.46191
#
# Static dielectric constant tensor:
#      x y z
#    x 1.881150 0.000000 0.000000 
#    y 0.000000 1.839250 0.000000 
#    z 0.000000 0.000000 1.728560 
# 
# From -- ./inp_files/6336.got.cif
#   From: 2010.05.17/outbox.cif.g08.bks.cpg/sg58_4_cif.got.tgz:6336.got - 2010.06.03 14:20:14.
