data_PCOD9443199
_publ_section_title
;
Structure prediction by ZEFSAII (Michael W. Deem and Ramdas Pophale) SiO2 
 PCOD9443199
Probable space group: P N N M
;
_chemical_formula_sum "Si O2"
_cell_formula_units_Z 56
_cell_length_a 20.670554
_cell_length_b 15.861680
_cell_length_c 7.683685
_cell_angle_alpha 90.000000
_cell_angle_beta 90.000000
_cell_angle_gamma 90.000000
_cell_volume 2519.247596
_symmetry_space_group_name_H-M "P N N M"
_symmetry_group_IT_number 58
_symmetry_cell_setting 'orthorhombic'
loop_
_space_group_symop_operation_xyz
x,y,z
-x,-y,z
1/2+x,1/2-y,1/2-z
1/2-x,1/2+y,1/2-z
-x,-y,-z
x,y,-z
1/2-x,1/2+y,1/2+z
1/2+x,1/2-y,1/2+z
loop_
_atom_site_type_symbol
_atom_site_label
_atom_site_fract_x
_atom_site_fract_y
_atom_site_fract_z
Si Si1 0.035797 0.082299 0.799668
Si Si2 0.185001 0.521023 0.290734
Si Si3 0.670384 0.487667 0.792963
Si Si4 0.090243 0.666786 0.285326
Si Si5 0.042017 0.268838 0.297938
Si Si6 0.822623 0.179751 0.705216
Si Si7 0.678791 0.173253 0.210793
O O1 0.112091 0.063847 0.789075
O O2 0.021960 0.171189 0.711558
O O3 0.015203 0.090380 0.000000
O O4 0.000000 0.000000 0.724214
O O5 0.182522 0.520358 0.500000
O O6 0.257719 0.546710 0.239629
O O7 0.130242 0.585107 0.228908
O O8 0.175119 0.424701 0.232691
O O9 0.669392 0.584598 0.724645
O O10 0.659500 0.487659 0.000000
O O11 0.089940 0.666908 0.500000
O O12 0.129360 0.749614 0.225800
O O13 0.016418 0.675464 0.224854
O O14 0.047625 0.293096 0.500000
O O15 0.113924 0.281307 0.224567
O O16 0.835251 0.173082 0.500000
O O17 0.748053 0.206624 0.727903
O O18 0.681290 0.176738 0.000000
#
# Coordination Sequence:
#
# PCOD9443199 Si02
#       7
#     8   8   8   8   8   8   8
#     4  11  24  39  56  80 111 145 183 228 284 339
#     4   9  18  34  55  81 112 145 184 226 274 323
#     4  10  20  35  56  81 109 143 184 227 274 327
#     4   9  18  33  55  80 106 143 187 227 270 323
#     4  10  21  37  56  81 112 146 188 228 274 331
#     4   9  18  33  54  78 106 143 183 224 272 327
#     4   9  19  34  53  80 111 143 180 229 276 320
#
# _framework density 22.228860999999998
#
# number of rings (size 3 to 8) (size 9 to 14) (size 15 to 20)
#    0.000    2.429    0.000    1.714    2.000    4.000 
#    0.000    4.286    0.000    0.000    0.000    5.000 
#    0.000    0.000    0.000    0.000    0.000    0.000 
#
# Total GULP energy -312783.270199 kJ/mol
# GULP energy per Si atom -5585.415539 kJ/mol
# Density = 2.217827 g / cm^3
# Si number density = 22.228861 Si / 1000 Ang^3
#
#
#
# Elastic Constant Matrix: (Units=GPa)
#
#
# Indices 1 2 3 4 5 6 
#
# 1 74.4745 10.3827 -9.0336 0.0000 0.0000 0.0000
# 2 10.3827 25.9653 -5.1810 0.0000 0.0000 0.0000
# 3 -9.0336 -5.1810 35.5374 0.0000 0.0000 0.0000
# 4 0.0000 0.0000 0.0000 6.2696 0.0000 0.0000
# 5 0.0000 0.0000 0.0000 0.0000 15.1084 0.0000
# 6 0.0000 0.0000 0.0000 0.0000 0.0000 36.5398
#
#
#
# Elastic Compliance Matrix: (Units=1/GPa)
#
#
# Indices 1 2 3 4 5 6 
#
# 1 0.014510 -0.005218 0.002928 0.000000 0.000000 0.000000
# 2 -0.005218 0.041543 0.004730 0.000000 0.000000 0.000000
# 3 0.002928 0.004730 0.029573 0.000000 0.000000 0.000000
# 4 0.000000 0.000000 0.000000 0.159501 0.000000 0.000000
# 5 0.000000 0.000000 0.000000 0.000000 0.066188 0.000000
# 6 0.000000 0.000000 0.000000 0.000000 0.000000 0.027367
#
#
# Mechanical properties :
#
#
# Convention : Reuss Voigt Hill
#
# Bulk Modulus (GPa) = 11.04893 14.25705 12.65299
# Shear Modulus (GPa) = 13.73734 20.90416 17.32075
#
# Velocity S-wave (km/s) = 2.48865 3.06993 2.79445
# Velocity P-wave (km/s) = 3.63856 4.35817 4.01452
#
# Compressibility (1/GPa) = 0.09050648
#
# Stress axis : x y z
#
# Youngs Moduli (GPa) = 68.91805 24.07127 33.81437
#
# Poissons Ratio (x) = 0.12560 -0.09900
# Poissons Ratio (y) = 0.35961 -0.15995
# Poissons Ratio (z) = -0.20177 -0.11386
#
# Static dielectric constant tensor:
#      x y z
#    x 1.814080 0.000000 0.000000 
#    y 0.000000 1.812130 0.000000 
#    z 0.000000 0.000000 1.830270 
# 
# From -- ./inp_files/9023.got.cif
#   From: 2010.05.17/outbox.cif.g08.bks.cpg/sg58_5_cif.got.tgz:9023.got - 2010.06.03 14:20:14.
