data_PCOD9443938
_publ_section_title
;
Structure prediction by ZEFSAII (Michael W. Deem and Ramdas Pophale) SiO2 
 PCOD9443938
Probable space group: P N N M
;
_chemical_formula_sum "Si O2"
_cell_formula_units_Z 48
_cell_length_a 9.466677
_cell_length_b 17.647365
_cell_length_c 15.935245
_cell_angle_alpha 90.000000
_cell_angle_beta 90.000000
_cell_angle_gamma 90.000000
_cell_volume 2662.172376
_symmetry_space_group_name_H-M "P N N M"
_symmetry_group_IT_number 58
_symmetry_cell_setting 'orthorhombic'
loop_
_space_group_symop_operation_xyz
x,y,z
-x,-y,z
1/2+x,1/2-y,1/2-z
1/2-x,1/2+y,1/2-z
-x,-y,-z
x,y,-z
1/2-x,1/2+y,1/2+z
1/2+x,1/2-y,1/2+z
loop_
_atom_site_type_symbol
_atom_site_label
_atom_site_fract_x
_atom_site_fract_y
_atom_site_fract_z
Si Si1 0.601204 0.073274 0.097530
Si Si2 0.286289 0.550873 0.000000
Si Si3 0.841082 0.022524 0.789041
Si Si4 0.374524 0.062934 0.674423
Si Si5 0.905853 0.120218 0.500000
Si Si6 0.160633 0.824735 0.317630
Si Si7 0.038833 0.305596 0.742136
O O1 0.755110 0.047613 0.129080
O O2 0.559112 0.141562 0.159485
O O3 0.500000 0.000000 0.109611
O O4 0.597010 0.094542 0.000000
O O5 0.194863 0.563473 0.083149
O O6 0.336289 0.463373 0.000000
O O7 0.425958 0.603442 0.000000
O O8 0.847217 0.092703 0.724592
O O9 0.746453 0.959980 0.741141
O O10 0.000000 0.000000 0.807532
O O11 0.442563 0.142929 0.697485
O O12 0.500000 0.000000 0.678942
O O13 0.857868 0.163676 0.416619
O O14 0.038593 0.770907 0.282877
O O15 0.311908 0.792962 0.287843
#
# Coordination Sequence:
#
# PCOD9443938 Si02
#       7
#     8   4   8   8   4   8   8
#     4  10  20  39  63  87 113 157 211 254 301 362
#     4  11  23  34  70  98 128 156 206 272 312 373
#     4  11  21  38  65  90 123 159 205 259 309 373
#     4  12  20  41  62  94 124 167 212 256 315 375
#     4  11  22  42  60 102 129 159 206 261 322 371
#     4  11  25  40  64  90 127 166 204 251 315 377
#     4  11  24  41  62  88 125 169 205 255 311 379
#
# _framework density 18.030389
#
# number of rings (size 3 to 8) (size 9 to 14) (size 15 to 20)
#    0.000    1.000    6.667    1.250    5.833    1.000 
#    0.000    0.000    7.333    0.000    0.000    0.000 
#    0.000    0.000    0.000    0.000    0.000    0.000 
#
# Total GULP energy -268197.518023 kJ/mol
# GULP energy per Si atom -5587.448292 kJ/mol
# Density = 1.798935 g / cm^3
# Si number density = 18.030389 Si / 1000 Ang^3
#
#
#
# Elastic Constant Matrix: (Units=GPa)
#
#
# Indices 1 2 3 4 5 6 
#
# 1 118.5900 19.4069 36.5640 0.0000 0.0000 0.0000
# 2 19.4069 21.8800 8.6336 0.0000 0.0000 0.0000
# 3 36.5640 8.6336 97.5632 0.0000 0.0000 0.0000
# 4 0.0000 0.0000 0.0000 6.3581 0.0000 0.0000
# 5 0.0000 0.0000 0.0000 0.0000 14.2861 0.0000
# 6 0.0000 0.0000 0.0000 0.0000 0.0000 39.1654
#
#
#
# Elastic Compliance Matrix: (Units=1/GPa)
#
#
# Indices 1 2 3 4 5 6 
#
# 1 0.010811 -0.008279 -0.003319 0.000000 0.000000 0.000000
# 2 -0.008279 0.053698 -0.001649 0.000000 0.000000 0.000000
# 3 -0.003319 -0.001649 0.011640 0.000000 0.000000 0.000000
# 4 0.000000 0.000000 0.000000 0.157280 0.000000 0.000000
# 5 0.000000 0.000000 0.000000 0.000000 0.069998 0.000000
# 6 0.000000 0.000000 0.000000 0.000000 0.000000 0.025533
#
#
# Mechanical properties :
#
#
# Convention : Reuss Voigt Hill
#
# Bulk Modulus (GPa) = 20.13937 40.80467 30.47202
# Shear Modulus (GPa) = 13.44070 23.52384 18.48227
#
# Velocity S-wave (km/s) = 2.73325 3.61595 3.20513
# Velocity P-wave (km/s) = 4.59944 6.33353 5.53482
#
# Compressibility (1/GPa) = 0.04965397
#
# Stress axis : x y z
#
# Youngs Moduli (GPa) = 92.50242 18.62272 85.91426
#
# Poissons Ratio (x) = 0.15418 0.28514
# Poissons Ratio (y) = 0.76583 0.14168
# Poissons Ratio (z) = 0.30700 0.03071
#
# Static dielectric constant tensor:
#      x y z
#    x 1.632550 0.000000 0.000000 
#    y 0.000000 1.603520 0.000000 
#    z 0.000000 0.000000 1.597600 
# 
# From -- ./inp_files/19867.got.cif
#   From: 2010.05.17/outbox.cif.g08.bks.cpg/sg58_10_cif.got.tgz:19867.got - 2010.06.03 14:20:14.
