data_PCOD9443903
_publ_section_title
;
Structure prediction by ZEFSAII (Michael W. Deem and Ramdas Pophale) SiO2 
 PCOD9443903
Probable space group: P N N M
;
_chemical_formula_sum "Si O2"
_cell_formula_units_Z 34
_cell_length_a 8.781892
_cell_length_b 20.209538
_cell_length_c 9.592419
_cell_angle_alpha 90.000000
_cell_angle_beta 90.000000
_cell_angle_gamma 90.000000
_cell_volume 1702.443148
_symmetry_space_group_name_H-M "P N N M"
_symmetry_group_IT_number 58
_symmetry_cell_setting 'orthorhombic'
loop_
_space_group_symop_operation_xyz
x,y,z
-x,-y,z
1/2+x,1/2-y,1/2-z
1/2-x,1/2+y,1/2-z
-x,-y,-z
x,y,-z
1/2-x,1/2+y,1/2+z
1/2+x,1/2-y,1/2+z
loop_
_atom_site_type_symbol
_atom_site_label
_atom_site_fract_x
_atom_site_fract_y
_atom_site_fract_z
Si Si1 0.576360 0.309175 0.163089
Si Si2 0.058308 0.686831 0.835029
Si Si3 0.943143 0.074670 0.156460
Si Si4 0.900127 0.555149 0.727008
Si Si5 0.000000 0.500000 0.000000
O O1 0.759309 0.310296 0.172142
O O2 0.512278 0.248954 0.255068
O O3 0.509691 0.375825 0.229722
O O4 0.534324 0.302109 0.000000
O O5 0.996608 0.620477 0.762403
O O6 0.016380 0.684693 0.000000
O O7 0.760305 0.073870 0.163370
O O8 0.990827 0.095960 0.000000
O O9 0.000000 0.000000 0.177712
O O10 0.000000 0.500000 0.648520
O O11 0.878249 0.519412 0.876616
#
# Coordination Sequence:
#
# PCOD9443903 Si02
#       5
#     8   8   8   8   2
#     4  11  26  40  64  92 119 164 207 250 305 366
#     4  11  22  42  63  90 128 160 203 254 306 362
#     4  11  25  43  62  91 127 161 203 255 309 363
#     4  10  20  38  66  91 124 163 202 248 304 361
#     4   8  20  36  64 100 120 164 198 256 304 356
#
# _framework density 19.971299999999999
#
# number of rings (size 3 to 8) (size 9 to 14) (size 15 to 20)
#    0.706    0.706    1.176    3.529    1.647    7.529 
#    0.000    0.000    0.000    0.000    0.000    0.000 
#    0.000    0.000    0.000    0.000    0.000    0.000 
#
# Total GULP energy -189278.219774 kJ/mol
# GULP energy per Si atom -5567.006464 kJ/mol
# Density = 1.992584 g / cm^3
# Si number density = 19.971300 Si / 1000 Ang^3
#
#
#
# Elastic Constant Matrix: (Units=GPa)
#
#
# Indices 1 2 3 4 5 6 
#
# 1 91.1172 54.9826 46.2749 0.0000 0.0000 0.0000
# 2 54.9826 123.0849 66.3746 0.0000 0.0000 0.0000
# 3 46.2749 66.3746 112.7171 0.0000 0.0000 0.0000
# 4 0.0000 0.0000 0.0000 1.8537 0.0000 0.0000
# 5 0.0000 0.0000 0.0000 0.0000 40.2054 0.0000
# 6 0.0000 0.0000 0.0000 0.0000 0.0000 40.3579
#
#
#
# Elastic Compliance Matrix: (Units=1/GPa)
#
#
# Indices 1 2 3 4 5 6 
#
# 1 0.015882 -0.005244 -0.003433 0.000000 0.000000 0.000000
# 2 -0.005244 0.013636 -0.005877 0.000000 0.000000 0.000000
# 3 -0.003433 -0.005877 0.013742 0.000000 0.000000 0.000000
# 4 0.000000 0.000000 0.000000 0.539456 0.000000 0.000000
# 5 0.000000 0.000000 0.000000 0.000000 0.024872 0.000000
# 6 0.000000 0.000000 0.000000 0.000000 0.000000 0.024778
#
#
# Mechanical properties :
#
#
# Convention : Reuss Voigt Hill
#
# Bulk Modulus (GPa) = 70.65316 73.57595 72.11455
# Shear Modulus (GPa) = 7.50536 27.10253 17.30394
#
# Velocity S-wave (km/s) = 1.94068 3.68784 2.94673
# Velocity P-wave (km/s) = 6.36206 7.41987 6.91123
#
# Compressibility (1/GPa) = 0.01415365
#
# Stress axis : x y z
#
# Youngs Moduli (GPa) = 62.96311 73.33480 72.77122
#
# Poissons Ratio (x) = 0.38455 0.24979
# Poissons Ratio (y) = 0.33016 0.42768
# Poissons Ratio (z) = 0.21612 0.43099
#
# Static dielectric constant tensor:
#      x y z
#    x 1.704520 0.000000 0.000000 
#    y 0.000000 1.730370 0.000000 
#    z 0.000000 0.000000 1.684730 
# 
# From -- ./inp_files/2287.got.cif
#   From: 2010.05.17/outbox.cif.g08.bks.cpg/sg58_2_cif.got.tgz:2287.got - 2010.06.03 14:20:14.
