data_PCOD9443432
_publ_section_title
;
Structure prediction by ZEFSAII (Michael W. Deem and Ramdas Pophale) SiO2 
 PCOD9443432
Probable space group: P N N M
;
_chemical_formula_sum "Si O2"
_cell_formula_units_Z 64
_cell_length_a 15.044022
_cell_length_b 25.026458
_cell_length_c 9.027047
_cell_angle_alpha 90.000000
_cell_angle_beta 90.000000
_cell_angle_gamma 90.000000
_cell_volume 3398.670420
_symmetry_space_group_name_H-M "P N N M"
_symmetry_group_IT_number 58
_symmetry_cell_setting 'orthorhombic'
loop_
_space_group_symop_operation_xyz
x,y,z
-x,-y,z
1/2+x,1/2-y,1/2-z
1/2-x,1/2+y,1/2-z
-x,-y,-z
x,y,-z
1/2-x,1/2+y,1/2+z
1/2+x,1/2-y,1/2+z
loop_
_atom_site_type_symbol
_atom_site_label
_atom_site_fract_x
_atom_site_fract_y
_atom_site_fract_z
Si Si1 0.673102 0.233605 0.172966
Si Si2 0.251529 0.054098 0.325347
Si Si3 0.998024 0.669258 0.319417
Si Si4 0.864373 0.238979 0.323015
Si Si5 0.600490 0.516861 0.676787
Si Si6 0.619983 0.355913 0.169561
Si Si7 0.942267 0.448719 0.321073
Si Si8 0.943596 0.135328 0.173126
O O1 0.597854 0.192428 0.228106
O O2 0.765160 0.236623 0.259423
O O3 0.630637 0.292579 0.179419
O O4 0.692208 0.221474 0.000000
O O5 0.264221 0.045857 0.500000
O O6 0.212123 0.113722 0.302594
O O7 0.343209 0.046731 0.240864
O O8 0.174880 0.015301 0.264242
O O9 0.996927 0.670611 0.500000
O O10 0.076396 0.710111 0.272219
O O11 0.017008 0.608506 0.273376
O O12 0.861573 0.240692 0.500000
O O13 0.911657 0.184949 0.269294
O O14 0.500000 0.500000 0.719109
O O15 0.609446 0.506905 0.500000
O O16 0.608208 0.580378 0.702024
O O17 0.545885 0.374790 0.283740
O O18 0.592799 0.369370 0.000000
O O19 0.939261 0.448407 0.500000
O O20 0.000000 0.500000 0.274603
O O21 0.935734 0.148213 0.000000
#
# Coordination Sequence:
#
# PCOD9443432 Si02
#       8
#     8   8   8   8   8   8   8   8
#     4  10  20  37  59  84 117 158 200 241 290 352
#     4  11  23  37  60  91 121 157 196 245 308 359
#     4   9  19  38  62  84 115 157 197 244 298 348
#     4  11  22  38  58  86 121 156 195 242 299 357
#     4  10  21  38  58  84 118 156 198 241 285 347
#     4  10  20  36  58  85 120 157 193 240 299 353
#     4  10  22  41  64  87 113 155 208 254 294 346
#     4  11  22  36  58  85 116 154 195 241 293 348
#
# _framework density 18.830894000000001
#
# number of rings (size 3 to 8) (size 9 to 14) (size 15 to 20)
#    0.000    1.750    2.500    1.875    0.000    3.500 
#    0.000    3.750    0.000    0.000    0.000    0.000 
#    0.000    0.000    0.000    0.000    0.000    0.000 
#
# Total GULP energy -357345.775649 kJ/mol
# GULP energy per Si atom -5583.527745 kJ/mol
# Density = 1.878803 g / cm^3
# Si number density = 18.830894 Si / 1000 Ang^3
#
#
#
# Elastic Constant Matrix: (Units=GPa)
#
#
# Indices 1 2 3 4 5 6 
#
# 1 110.1157 63.7737 30.8586 0.0000 0.0000 0.0000
# 2 63.7737 120.4106 34.8763 0.0000 0.0000 0.0000
# 3 30.8586 34.8763 27.8551 0.0000 0.0000 0.0000
# 4 0.0000 0.0000 0.0000 24.2912 0.0000 0.0000
# 5 0.0000 0.0000 0.0000 0.0000 34.6771 0.0000
# 6 0.0000 0.0000 0.0000 0.0000 0.0000 25.6762
#
#
#
# Elastic Compliance Matrix: (Units=1/GPa)
#
#
# Indices 1 2 3 4 5 6 
#
# 1 0.014772 -0.004838 -0.010307 0.000000 0.000000 0.000000
# 2 -0.004838 0.014615 -0.012939 0.000000 0.000000 0.000000
# 3 -0.010307 -0.012939 0.063518 0.000000 0.000000 0.000000
# 4 0.000000 0.000000 0.000000 0.041167 0.000000 0.000000
# 5 0.000000 0.000000 0.000000 0.000000 0.028837 0.000000
# 6 0.000000 0.000000 0.000000 0.000000 0.000000 0.038947
#
#
# Mechanical properties :
#
#
# Convention : Reuss Voigt Hill
#
# Bulk Modulus (GPa) = 27.22024 57.48874 42.35449
# Shear Modulus (GPa) = 18.49996 25.52041 22.01018
#
# Velocity S-wave (km/s) = 3.13777 3.68535 3.42253
# Velocity P-wave (km/s) = 5.25490 6.97885 6.17731
#
# Compressibility (1/GPa) = 0.03673737
#
# Stress axis : x y z
#
# Youngs Moduli (GPa) = 67.69635 68.42164 15.74346
#
# Poissons Ratio (x) = 0.33105 0.16226
# Poissons Ratio (y) = 0.32754 0.20371
# Poissons Ratio (z) = 0.69772 0.88531
#
# Static dielectric constant tensor:
#      x y z
#    x 1.644580 0.000000 0.000000 
#    y 0.000000 1.662400 0.000000 
#    z 0.000000 0.000000 1.633600 
# 
# From -- ./inp_files/6914.got.cif
#   From: 2010.05.17/outbox.cif.g08.bks.cpg/sg58_4_cif.got.tgz:6914.got - 2010.06.03 14:20:14.
