data_PCOD9443794
_publ_section_title
;
Structure prediction by ZEFSAII (Michael W. Deem and Ramdas Pophale) SiO2 
 PCOD9443794
Probable space group: P N N M
;
_chemical_formula_sum "Si O2"
_cell_formula_units_Z 64
_cell_length_a 31.714409
_cell_length_b 12.084067
_cell_length_c 7.803934
_cell_angle_alpha 90.000000
_cell_angle_beta 90.000000
_cell_angle_gamma 90.000000
_cell_volume 2990.772200
_symmetry_space_group_name_H-M "P N N M"
_symmetry_group_IT_number 58
_symmetry_cell_setting 'orthorhombic'
loop_
_space_group_symop_operation_xyz
x,y,z
-x,-y,z
1/2+x,1/2-y,1/2-z
1/2-x,1/2+y,1/2-z
-x,-y,-z
x,y,-z
1/2-x,1/2+y,1/2+z
1/2+x,1/2-y,1/2+z
loop_
_atom_site_type_symbol
_atom_site_label
_atom_site_fract_x
_atom_site_fract_y
_atom_site_fract_z
Si Si1 0.923901 0.791360 0.197854
Si Si2 0.454475 0.478800 0.803992
Si Si3 0.697657 0.524211 0.200169
Si Si4 0.670848 0.282585 0.705351
Si Si5 0.376156 0.068829 0.295450
Si Si6 0.791549 0.555159 0.790135
Si Si7 0.959693 0.566486 0.701652
Si Si8 0.879176 0.172827 0.292082
O O1 0.877214 0.749523 0.242540
O O2 0.954582 0.688114 0.220017
O O3 0.933639 0.900306 0.304237
O O4 0.923551 0.826647 0.000000
O O5 0.500000 0.500000 0.719863
O O6 0.421006 0.392020 0.729038
O O7 0.462529 0.441037 0.000000
O O8 0.680217 0.400529 0.214785
O O9 0.745034 0.523770 0.272527
O O10 0.662753 0.608817 0.272289
O O11 0.701979 0.553848 0.000000
O O12 0.674986 0.294425 0.500000
O O13 0.700084 0.181972 0.760426
O O14 0.377136 0.053619 0.500000
O O15 0.378927 0.198673 0.254180
O O16 0.331404 0.018559 0.232597
O O17 0.416895 0.003596 0.226571
O O18 0.792040 0.549205 0.000000
O O19 0.966222 0.583507 0.500000
O O20 0.000000 0.500000 0.770836
O O21 0.879418 0.163144 0.500000
#
# Coordination Sequence:
#
# PCOD9443794 Si02
#       8
#     8   8   8   8   8   8   8   8
#     4  11  22  39  64  90 118 153 198 249 298 350
#     4  10  22  40  61  85 119 160 199 244 299 354
#     4  10  21  38  61  86 116 156 202 245 290 350
#     4  10  20  38  61  84 117 153 192 245 300 346
#     4  11  23  41  62  86 122 160 195 241 298 355
#     4   9  20  39  59  84 120 157 191 242 301 349
#     4  11  25  43  64  89 119 156 198 243 294 352
#     4  10  22  39  58  85 120 158 201 246 293 349
#
# _framework density 21.399156000000001
#
# number of rings (size 3 to 8) (size 9 to 14) (size 15 to 20)
#    0.000    1.750    2.500    1.125    3.500    2.750 
#    0.000    1.250    0.000    0.000    0.000    0.000 
#    0.000    0.000    0.000    0.000    0.000    0.000 
#
# Total GULP energy -357420.635931 kJ/mol
# GULP energy per Si atom -5584.697436 kJ/mol
# Density = 2.135045 g / cm^3
# Si number density = 21.399156 Si / 1000 Ang^3
#
#
#
# Elastic Constant Matrix: (Units=GPa)
#
#
# Indices 1 2 3 4 5 6 
#
# 1 83.8692 -0.5864 3.1955 0.0000 0.0000 0.0000
# 2 -0.5864 78.4931 -12.8854 0.0000 0.0000 0.0000
# 3 3.1955 -12.8854 25.4586 0.0000 0.0000 0.0000
# 4 0.0000 0.0000 0.0000 25.0917 0.0000 0.0000
# 5 0.0000 0.0000 0.0000 0.0000 8.2841 0.0000
# 6 0.0000 0.0000 0.0000 0.0000 0.0000 33.3598
#
#
#
# Elastic Compliance Matrix: (Units=1/GPa)
#
#
# Indices 1 2 3 4 5 6 
#
# 1 0.011983 -0.000172 -0.001591 0.000000 0.000000 0.000000
# 2 -0.000172 0.013897 0.007055 0.000000 0.000000 0.000000
# 3 -0.001591 0.007055 0.043050 0.000000 0.000000 0.000000
# 4 0.000000 0.000000 0.000000 0.039854 0.000000 0.000000
# 5 0.000000 0.000000 0.000000 0.000000 0.120713 0.000000
# 6 0.000000 0.000000 0.000000 0.000000 0.000000 0.029976
#
#
# Mechanical properties :
#
#
# Convention : Reuss Voigt Hill
#
# Bulk Modulus (GPa) = 12.57627 18.58536 15.58082
# Shear Modulus (GPa) = 18.15593 26.55361 22.35477
#
# Velocity S-wave (km/s) = 2.91596 3.52642 3.23562
# Velocity P-wave (km/s) = 4.15053 5.02840 4.61041
#
# Compressibility (1/GPa) = 0.07951480
#
# Stress axis : x y z
#
# Youngs Moduli (GPa) = 83.45339 71.95867 23.22885
#
# Poissons Ratio (x) = 0.01235 0.03695
# Poissons Ratio (y) = 0.01432 -0.16388
# Poissons Ratio (z) = 0.13277 -0.50768
#
# Static dielectric constant tensor:
#      x y z
#    x 1.818990 0.000000 0.000000 
#    y 0.000000 1.720120 0.000000 
#    z 0.000000 0.000000 1.795330 
# 
# From -- ./inp_files/10975.got.cif
#   From: 2010.05.17/outbox.cif.g08.bks.cpg/sg58_6_cif.got.tgz:10975.got - 2010.06.03 14:20:14.
