data_PCOD9443228
_publ_section_title
;
Structure prediction by ZEFSAII (Michael W. Deem and Ramdas Pophale) SiO2 
 PCOD9443228
Probable space group: P N N M
;
_chemical_formula_sum "Si O2"
_cell_formula_units_Z 64
_cell_length_a 15.951919
_cell_length_b 24.494757
_cell_length_c 8.531037
_cell_angle_alpha 90.000000
_cell_angle_beta 90.000000
_cell_angle_gamma 90.000000
_cell_volume 3333.403574
_symmetry_space_group_name_H-M "P N N M"
_symmetry_group_IT_number 58
_symmetry_cell_setting 'orthorhombic'
loop_
_space_group_symop_operation_xyz
x,y,z
-x,-y,z
1/2+x,1/2-y,1/2-z
1/2-x,1/2+y,1/2-z
-x,-y,-z
x,y,-z
1/2-x,1/2+y,1/2+z
1/2+x,1/2-y,1/2+z
loop_
_atom_site_type_symbol
_atom_site_label
_atom_site_fract_x
_atom_site_fract_y
_atom_site_fract_z
Si Si1 0.157600 0.865766 0.689404
Si Si2 0.157956 0.634140 0.312495
Si Si3 0.500351 0.062596 0.189302
Si Si4 0.661363 0.367114 0.187207
Si Si5 0.598343 0.252479 0.688748
Si Si6 0.655624 0.131984 0.689313
Si Si7 0.000843 0.062852 0.308502
Si Si8 0.598644 0.749920 0.312420
O O1 0.156186 0.865116 0.500000
O O2 0.250481 0.884023 0.738494
O O3 0.140824 0.804566 0.747163
O O4 0.082020 0.904575 0.743480
O O5 0.157777 0.634507 0.500000
O O6 0.248880 0.615955 0.253960
O O7 0.139693 0.695267 0.253355
O O8 0.082183 0.595402 0.256580
O O9 0.583033 0.094039 0.244198
O O10 0.500000 0.000000 0.243587
O O11 0.499285 0.062570 0.000000
O O12 0.641547 0.305111 0.237388
O O13 0.584190 0.404923 0.242223
O O14 0.664563 0.369861 0.000000
O O15 0.604746 0.256961 0.500000
O O16 0.638455 0.194835 0.736506
O O17 0.499934 0.251385 0.731266
O O18 0.650960 0.130145 0.500000
O O19 0.000610 0.063242 0.500000
O O20 0.000000 0.000000 0.258082
O O21 0.604317 0.750649 0.500000
#
# Coordination Sequence:
#
# PCOD9443228 Si02
#       8
#     8   8   8   8   8   8   8   8
#     4  10  20  36  59  86 116 153 193 233 290 346
#     4  11  23  39  60  84 116 154 190 237 294 346
#     4  10  23  42  61  82 112 152 194 237 288 345
#     4  11  22  36  60  89 117 153 196 238 284 344
#     4  10  20  35  56  85 122 152 184 235 292 344
#     4  10  21  37  59  86 114 148 188 237 287 339
#     4   9  19  36  56  81 115 153 195 239 281 336
#     4  11  21  35  59  88 118 150 190 237 284 343
#
# _framework density 19.199594999999999
#
# number of rings (size 3 to 8) (size 9 to 14) (size 15 to 20)
#    0.000    1.750    2.500    1.875    0.000    4.250 
#    0.000    1.250    0.000    3.375    0.000    0.000 
#    0.000    0.000    0.000    0.000    0.000    0.000 
#
# Total GULP energy -357613.194386 kJ/mol
# GULP energy per Si atom -5587.706162 kJ/mol
# Density = 1.915590 g / cm^3
# Si number density = 19.199595 Si / 1000 Ang^3
#
#
#
# Elastic Constant Matrix: (Units=GPa)
#
#
# Indices 1 2 3 4 5 6 
#
# 1 204.1776 95.8171 30.1399 0.0000 0.0000 0.0000
# 2 95.8171 160.7036 16.7189 0.0000 0.0000 0.0000
# 3 30.1399 16.7189 8.7753 0.0000 0.0000 0.0000
# 4 0.0000 0.0000 0.0000 1.3033 0.0000 0.0000
# 5 0.0000 0.0000 0.0000 0.0000 24.1636 0.0000
# 6 0.0000 0.0000 0.0000 0.0000 0.0000 -2.4395
#
#
#
# Elastic Compliance Matrix: (Units=1/GPa)
#
#
# Indices 1 2 3 4 5 6 
#
# 1 0.011209 -0.003340 -0.032134 0.000000 0.000000 0.000000
# 2 -0.003340 0.008756 -0.005211 0.000000 0.000000 0.000000
# 3 -0.032134 -0.005211 0.234255 0.000000 0.000000 0.000000
# 4 0.000000 0.000000 0.000000 0.767261 0.000000 0.000000
# 5 0.000000 0.000000 0.000000 0.000000 0.041385 0.000000
# 6 0.000000 0.000000 0.000000 0.000000 0.000000 -0.409915
#
#
# Mechanical properties :
#
#
# Convention : Reuss Voigt Hill
#
# Bulk Modulus (GPa) = 5.78541 73.22316 39.50428
# Shear Modulus (GPa) = 6.31364 20.00418 13.15891
#
# Velocity S-wave (km/s) = 1.81537 3.23136 2.62081
# Velocity P-wave (km/s) = 2.72285 7.22100 5.45696
#
# Compressibility (1/GPa) = 0.17284867
#
# Stress axis : x y z
#
# Youngs Moduli (GPa) = 89.21753 114.20584 4.26886
#
# Poissons Ratio (x) = 0.38143 0.13718
# Poissons Ratio (y) = 0.29797 0.02225
# Poissons Ratio (z) = 2.86694 0.59517
#
# Static dielectric constant tensor:
#      x y z
#    x 1.672440 0.000000 0.000000 
#    y 0.000000 1.633420 0.000000 
#    z 0.000000 0.000000 1.653810 
# 
# From -- ./inp_files/6904.got.cif
#   From: 2010.05.17/outbox.cif.g08.bks.cpg/sg58_4_cif.got.tgz:6904.got - 2010.06.03 14:20:14.
