data_PCOD9443130
_publ_section_title
;
Structure prediction by ZEFSAII (Michael W. Deem and Ramdas Pophale) SiO2 
 PCOD9443130
Probable space group: P N N M
;
_chemical_formula_sum "Si O2"
_cell_formula_units_Z 64
_cell_length_a 19.354140
_cell_length_b 23.690478
_cell_length_c 8.817996
_cell_angle_alpha 90.000000
_cell_angle_beta 90.000000
_cell_angle_gamma 90.000000
_cell_volume 4043.129010
_symmetry_space_group_name_H-M "P N N M"
_symmetry_group_IT_number 58
_symmetry_cell_setting 'orthorhombic'
loop_
_space_group_symop_operation_xyz
x,y,z
-x,-y,z
1/2+x,1/2-y,1/2-z
1/2-x,1/2+y,1/2-z
-x,-y,-z
x,y,-z
1/2-x,1/2+y,1/2+z
1/2+x,1/2-y,1/2+z
loop_
_atom_site_type_symbol
_atom_site_label
_atom_site_fract_x
_atom_site_fract_y
_atom_site_fract_z
Si Si1 0.628568 0.718710 0.680288
Si Si2 0.350819 0.936178 0.818398
Si Si3 0.488390 0.880603 0.680836
Si Si4 0.292096 0.175880 0.819205
Si Si5 0.747305 0.152865 0.319221
Si Si6 0.154501 0.236079 0.820093
Si Si7 0.990679 0.744671 0.320018
Si Si8 0.876687 0.434504 0.319095
O O1 0.625243 0.715029 0.500000
O O2 0.662355 0.778597 0.729745
O O3 0.680506 0.672009 0.746878
O O4 0.552629 0.718376 0.751855
O O5 0.419319 0.908302 0.747740
O O6 0.285686 0.902891 0.751453
O O7 0.352000 0.002632 0.782420
O O8 0.352584 0.929444 0.000000
O O9 0.483406 0.876838 0.500000
O O10 0.496583 0.818040 0.749215
O O11 0.554198 0.917427 0.730757
O O12 0.212067 0.188742 0.785572
O O13 0.319509 0.113430 0.788292
O O14 0.301307 0.187468 0.000000
O O15 0.754128 0.148180 0.500000
O O16 0.693264 0.204356 0.289336
O O17 0.084454 0.232710 0.727029
O O18 0.138707 0.234627 0.000000
O O19 0.997681 0.740693 0.500000
O O20 0.892062 0.432601 0.500000
#
# Coordination Sequence:
#
# PCOD9443130 Si02
#       8
#     8   8   8   8   8   8   8   8
#     4  11  21  33  52  76 102 130 167 212 256 307
#     4  11  22  35  52  74 101 138 180 216 251 300
#     4  12  23  34  48  71 102 139 180 216 253 298
#     4   9  18  34  53  72 100 135 168 208 255 305
#     4  10  20  35  53  73 101 135 170 211 257 303
#     4   9  18  32  51  74  99 129 167 207 252 303
#     4  12  22  33  51  74 103 137 170 207 257 308
#     4  10  21  36  53  73 101 139 178 213 255 302
#
# _framework density 15.829325000000001
#
# number of rings (size 3 to 8) (size 9 to 14) (size 15 to 20)
#    0.000    1.500    2.500    5.250    0.000    4.500 
#    0.000    0.000    0.000    0.000    0.000    0.875 
#    0.000    7.000    0.000    0.000    0.000    0.000 
#
# Total GULP energy -357488.840273 kJ/mol
# GULP energy per Si atom -5585.763129 kJ/mol
# Density = 1.579330 g / cm^3
# Si number density = 15.829325 Si / 1000 Ang^3
#
#
#
# Elastic Constant Matrix: (Units=GPa)
#
#
# Indices 1 2 3 4 5 6 
#
# 1 66.4109 14.1134 37.6986 0.0000 0.0000 0.0000
# 2 14.1134 42.6149 20.6039 0.0000 0.0000 0.0000
# 3 37.6986 20.6039 74.8729 0.0000 0.0000 0.0000
# 4 0.0000 0.0000 0.0000 19.9119 0.0000 0.0000
# 5 0.0000 0.0000 0.0000 0.0000 20.1517 0.0000
# 6 0.0000 0.0000 0.0000 0.0000 0.0000 17.6183
#
#
#
# Elastic Compliance Matrix: (Units=1/GPa)
#
#
# Indices 1 2 3 4 5 6 
#
# 1 0.021253 -0.002151 -0.010109 0.000000 0.000000 0.000000
# 2 -0.002151 0.027285 -0.006425 0.000000 0.000000 0.000000
# 3 -0.010109 -0.006425 0.020214 0.000000 0.000000 0.000000
# 4 0.000000 0.000000 0.000000 0.050221 0.000000 0.000000
# 5 0.000000 0.000000 0.000000 0.000000 0.049624 0.000000
# 6 0.000000 0.000000 0.000000 0.000000 0.000000 0.056759
#
#
# Mechanical properties :
#
#
# Convention : Reuss Voigt Hill
#
# Bulk Modulus (GPa) = 31.86614 36.52563 34.19589
# Shear Modulus (GPa) = 18.30241 18.96858 18.63550
#
# Velocity S-wave (km/s) = 3.40403 3.46543 3.43487
# Velocity P-wave (km/s) = 5.96864 6.25596 6.11399
#
# Compressibility (1/GPa) = 0.03138127
#
# Stress axis : x y z
#
# Youngs Moduli (GPa) = 47.05115 36.65016 49.47037
#
# Poissons Ratio (x) = 0.07884 0.50011
# Poissons Ratio (y) = 0.10121 0.31786
# Poissons Ratio (z) = 0.47565 0.23549
#
# Static dielectric constant tensor:
#      x y z
#    x 1.526360 0.000000 0.000000 
#    y 0.000000 1.512990 0.000000 
#    z 0.000000 0.000000 1.528170 
# 
# From -- ./inp_files/8479.got.cif
#   From: 2010.05.17/outbox.cif.g08.bks.cpg/sg58_5_cif.got.tgz:8479.got - 2010.06.03 14:20:14.
