data_PCOD9443354
_publ_section_title
;
Structure prediction by ZEFSAII (Michael W. Deem and Ramdas Pophale) SiO2 
 PCOD9443354
Probable space group: P N N M
;
_chemical_formula_sum "Si O2"
_cell_formula_units_Z 48
_cell_length_a 12.586431
_cell_length_b 22.082160
_cell_length_c 7.649702
_cell_angle_alpha 90.000000
_cell_angle_beta 90.000000
_cell_angle_gamma 90.000000
_cell_volume 2126.124386
_symmetry_space_group_name_H-M "P N N M"
_symmetry_group_IT_number 58
_symmetry_cell_setting 'orthorhombic'
loop_
_space_group_symop_operation_xyz
x,y,z
-x,-y,z
1/2+x,1/2-y,1/2-z
1/2-x,1/2+y,1/2-z
-x,-y,-z
x,y,-z
1/2-x,1/2+y,1/2+z
1/2+x,1/2-y,1/2+z
loop_
_atom_site_type_symbol
_atom_site_label
_atom_site_fract_x
_atom_site_fract_y
_atom_site_fract_z
Si Si1 0.362492 0.182576 0.202993
Si Si2 0.378313 0.505869 0.287611
Si Si3 0.858118 0.858881 0.214515
Si Si4 0.233848 0.392820 0.288027
Si Si5 0.001205 0.568969 0.202646
Si Si6 0.419099 0.309685 0.701615
O O1 0.242732 0.179250 0.273960
O O2 0.417635 0.117238 0.216597
O O3 0.423631 0.237528 0.291953
O O4 0.358631 0.199178 0.000000
O O5 0.500000 0.500000 0.228868
O O6 0.380233 0.503975 0.500000
O O7 0.339040 0.571747 0.234738
O O8 0.303024 0.451360 0.233952
O O9 0.972956 0.837176 0.278709
O O10 0.858185 0.856594 0.000000
O O11 0.222505 0.391608 0.500000
O O12 0.115731 0.401610 0.217513
O O13 0.307319 0.336242 0.229675
O O14 0.000000 0.500000 0.276179
O O15 0.031405 0.563611 0.000000
O O16 0.419960 0.330355 0.500000
#
# Coordination Sequence:
#
# PCOD9443354 Si02
#       6
#     8   8   8   8   8   8
#     4  11  24  40  61  89 119 157 207 251 295 361
#     4   9  14  27  54  88 118 145 186 239 292 345
#     4   9  18  34  57  85 117 151 191 242 295 351
#     4  10  20  35  62  94 125 159 200 249 300 364
#     4  11  25  44  64  87 121 163 205 255 317 370
#     4  10  21  38  59  89 125 160 196 243 306 363
#
# _framework density 22.576288999999999
#
# number of rings (size 3 to 8) (size 9 to 14) (size 15 to 20)
#    0.000    2.000    1.667    2.000    2.333    3.333 
#    0.000    0.833    0.000    1.500    0.000    0.000 
#    0.000    0.000    0.000    0.000    0.000    0.000 
#
# Total GULP energy -268097.617121 kJ/mol
# GULP energy per Si atom -5585.367023 kJ/mol
# Density = 2.252490 g / cm^3
# Si number density = 22.576289 Si / 1000 Ang^3
#
#
#
# Elastic Constant Matrix: (Units=GPa)
#
#
# Indices 1 2 3 4 5 6 
#
# 1 102.0693 19.9896 -5.0452 0.0000 0.0000 0.0000
# 2 19.9896 100.5744 -6.0528 0.0000 0.0000 0.0000
# 3 -5.0452 -6.0528 42.9309 0.0000 0.0000 0.0000
# 4 0.0000 0.0000 0.0000 12.9296 0.0000 0.0000
# 5 0.0000 0.0000 0.0000 0.0000 -656.7282 0.0000
# 6 0.0000 0.0000 0.0000 0.0000 0.0000 28.8557
#
#
#
# Elastic Compliance Matrix: (Units=1/GPa)
#
#
# Indices 1 2 3 4 5 6 
#
# 1 0.010230 -0.001978 0.000923 0.000000 0.000000 0.000000
# 2 -0.001978 0.010410 0.001235 0.000000 0.000000 0.000000
# 3 0.000923 0.001235 0.023576 0.000000 0.000000 0.000000
# 4 0.000000 0.000000 0.000000 0.077342 0.000000 0.000000
# 5 0.000000 0.000000 0.000000 0.000000 -0.001523 0.000000
# 6 0.000000 0.000000 0.000000 0.000000 0.000000 0.034655
#
#
# Mechanical properties :
#
#
# Convention : Reuss Voigt Hill
#
# Bulk Modulus (GPa) = 22.43233 29.26195 25.84714
# Shear Modulus (GPa) = 29.55290 -107.20972 -38.82841
#
# Velocity S-wave (km/s) = 3.62197 -6.89861 -4.15164
# Velocity P-wave (km/s) = 5.23921 7.10387 3.39232
#
# Compressibility (1/GPa) = 0.04457852
#
# Stress axis : x y z
#
# Youngs Moduli (GPa) = 97.74944 96.05857 42.41614
#
# Poissons Ratio (x) = 0.18998 -0.03917
# Poissons Ratio (y) = 0.19332 -0.05240
# Poissons Ratio (z) = -0.09026 -0.11866
#
# Static dielectric constant tensor:
#      x y z
#    x 1.827650 0.000000 0.000000 
#    y 0.000000 1.826360 0.000000 
#    z 0.000000 0.000000 1.849640 
# 
# From -- ./inp_files/4199.got.cif
#   From: 2010.05.17/outbox.cif.g08.bks.cpg/sg58_3_cif.got.tgz:4199.got - 2010.06.03 14:20:14.
