data_PCOD9443006
_publ_section_title
;
Structure prediction by ZEFSAII (Michael W. Deem and Ramdas Pophale) SiO2 
 PCOD9443006
Probable space group: P N N M
;
_chemical_formula_sum "Si O2"
_cell_formula_units_Z 40
_cell_length_a 5.066182
_cell_length_b 24.479626
_cell_length_c 15.149399
_cell_angle_alpha 90.000000
_cell_angle_beta 90.000000
_cell_angle_gamma 90.000000
_cell_volume 1878.801810
_symmetry_space_group_name_H-M "P N N M"
_symmetry_group_IT_number 58
_symmetry_cell_setting 'orthorhombic'
loop_
_space_group_symop_operation_xyz
x,y,z
-x,-y,z
1/2+x,1/2-y,1/2-z
1/2-x,1/2+y,1/2-z
-x,-y,-z
x,y,-z
1/2-x,1/2+y,1/2+z
1/2+x,1/2-y,1/2+z
loop_
_atom_site_type_symbol
_atom_site_label
_atom_site_fract_x
_atom_site_fract_y
_atom_site_fract_z
Si Si1 0.883153 0.761344 0.807618
Si Si2 0.184832 0.332521 0.500000
Si Si3 0.647872 0.879668 0.149942
Si Si4 0.753813 0.459606 0.191245
Si Si5 0.247256 0.039732 0.500000
Si Si6 0.258138 0.538865 0.500000
Si Si7 0.681029 0.257545 0.500000
O O1 0.669953 0.738923 0.737244
O O2 0.786797 0.822571 0.829166
O O3 0.870179 0.731124 0.903508
O O4 0.111899 0.364902 0.409842
O O5 0.976486 0.281928 0.500000
O O6 0.473503 0.308006 0.500000
O O7 0.659046 0.913839 0.239408
O O8 0.781326 0.921682 0.083074
O O9 0.500000 0.500000 0.209522
O O10 0.000000 0.500000 0.187583
O O11 0.728458 0.431584 0.094590
O O12 0.500000 0.000000 0.500000
O O13 0.000000 0.000000 0.500000
O O14 0.500000 0.500000 0.500000
O O15 0.000000 0.500000 0.500000
#
# Coordination Sequence:
#
# PCOD9443006 Si02
#       7
#     8   4   8   8   4   4   4
#     4  11  24  41  64  92 121 168 221 261 325 398
#     4   9  20  34  58  84 114 162 195 233 321 388
#     4  10  22  38  60  88 126 159 201 266 316 376
#     4  10  20  34  55  81 112 152 196 247 311 376
#     4   8  16  32  50  70 100 142 185 222 279 354
#     4  11  24  39  62  98 130 166 212 254 324 414
#     4  10  20  41  62  84 120 158 202 263 312 370
#
# _framework density 21.290163
#
# number of rings (size 3 to 8) (size 9 to 14) (size 15 to 20)
#    0.000    2.000    0.000    4.200    0.000   12.800 
#    0.000    2.000    0.000    2.400    0.000    0.000 
#    0.000    0.000    0.000    0.000    0.000    0.000 
#
# Total GULP energy -222853.097862 kJ/mol
# GULP energy per Si atom -5571.327447 kJ/mol
# Density = 2.124171 g / cm^3
# Si number density = 21.290163 Si / 1000 Ang^3
#
#
#
# Elastic Constant Matrix: (Units=GPa)
#
#
# Indices 1 2 3 4 5 6 
#
# 1 98.0853 7.4601 -0.9073 0.0000 0.0000 0.0000
# 2 7.4601 52.6379 13.9210 0.0000 0.0000 0.0000
# 3 -0.9073 13.9210 184.8269 0.0000 0.0000 0.0000
# 4 0.0000 0.0000 0.0000 41.8950 0.0000 0.0000
# 5 0.0000 0.0000 0.0000 0.0000 22.1944 0.0000
# 6 0.0000 0.0000 0.0000 0.0000 0.0000 23.6651
#
#
#
# Elastic Compliance Matrix: (Units=1/GPa)
#
#
# Indices 1 2 3 4 5 6 
#
# 1 0.010311 -0.001505 0.000164 0.000000 0.000000 0.000000
# 2 -0.001505 0.019603 -0.001484 0.000000 0.000000 0.000000
# 3 0.000164 -0.001484 0.005523 0.000000 0.000000 0.000000
# 4 0.000000 0.000000 0.000000 0.023869 0.000000 0.000000
# 5 0.000000 0.000000 0.000000 0.000000 0.045056 0.000000
# 6 0.000000 0.000000 0.000000 0.000000 0.000000 0.042256
#
#
# Mechanical properties :
#
#
# Convention : Reuss Voigt Hill
#
# Bulk Modulus (GPa) = 33.57024 41.83308 37.70166
# Shear Modulus (GPa) = 30.82648 38.55600 34.69124
#
# Velocity S-wave (km/s) = 3.80928 4.26017 4.04102
# Velocity P-wave (km/s) = 5.92872 6.62499 6.28650
#
# Compressibility (1/GPa) = 0.02978829
#
# Stress axis : x y z
#
# Youngs Moduli (GPa) = 96.98220 51.01155 181.05975
#
# Poissons Ratio (x) = 0.07676 -0.02969
# Poissons Ratio (y) = 0.14593 0.26867
# Poissons Ratio (z) = -0.01590 0.07570
#
# Static dielectric constant tensor:
#      x y z
#    x 1.785450 0.000000 0.000000 
#    y 0.000000 1.743400 0.000000 
#    z 0.000000 0.000000 1.918150 
# 
# From -- ./inp_files/18493.got.cif
#   From: 2010.05.17/outbox.cif.g08.bks.cpg/sg58_10_cif.got.tgz:18493.got - 2010.06.03 14:20:14.
