data_PCOD9443942
_publ_section_title
;
Structure prediction by ZEFSAII (Michael W. Deem and Ramdas Pophale) SiO2 
 PCOD9443942
Probable space group: P N N M
;
_chemical_formula_sum "Si O2"
_cell_formula_units_Z 48
_cell_length_a 13.477396
_cell_length_b 8.649600
_cell_length_c 21.673263
_cell_angle_alpha 90.000000
_cell_angle_beta 90.000000
_cell_angle_gamma 90.000000
_cell_volume 2526.540791
_symmetry_space_group_name_H-M "P N N M"
_symmetry_group_IT_number 58
_symmetry_cell_setting 'orthorhombic'
loop_
_space_group_symop_operation_xyz
x,y,z
-x,-y,z
1/2+x,1/2-y,1/2-z
1/2-x,1/2+y,1/2-z
-x,-y,-z
x,y,-z
1/2-x,1/2+y,1/2+z
1/2+x,1/2-y,1/2+z
loop_
_atom_site_type_symbol
_atom_site_label
_atom_site_fract_x
_atom_site_fract_y
_atom_site_fract_z
Si Si1 0.058654 0.351213 0.605645
Si Si2 0.594406 0.581957 0.714585
Si Si3 0.310293 0.024113 0.797217
Si Si4 0.622570 0.650347 0.848655
Si Si5 0.774073 0.890967 0.571390
Si Si6 0.102642 0.583282 0.830442
O O1 0.107978 0.426525 0.666265
O O2 0.149546 0.255048 0.575529
O O3 0.000000 0.500000 0.575775
O O4 0.976205 0.225477 0.623129
O O5 0.500000 0.500000 0.686268
O O6 0.700825 0.536550 0.688534
O O7 0.601762 0.549903 0.787642
O O8 0.573670 0.760476 0.704362
O O9 0.317279 0.200354 0.822246
O O10 0.334140 0.002528 0.724529
O O11 0.673435 0.542130 0.899077
O O12 0.749750 0.915051 0.500000
O O13 0.675268 0.875956 0.613192
O O14 0.000000 0.500000 0.847473
#
# Coordination Sequence:
#
# PCOD9443942 Si02
#       6
#     8   8   8   8   8   8
#     4  10  21  41  63  91 124 155 201 253 313 370
#     4  11  21  34  64  95 122 152 195 251 318 371
#     4  10  20  39  63  94 124 156 193 252 319 369
#     4  10  22  35  62  92 126 153 192 250 308 374
#     4  12  25  41  61  87 123 168 210 249 300 361
#     4  11  24  39  63  91 124 161 201 250 307 369
#
# _framework density 18.998308000000002
#
# number of rings (size 3 to 8) (size 9 to 14) (size 15 to 20)
#    0.000    1.333    3.333    4.000    2.333    2.000 
#    0.000    2.500    0.000    0.500    0.000    0.000 
#    0.000    0.000    0.000    0.000    0.000    0.000 
#
# Total GULP energy -267606.529403 kJ/mol
# GULP energy per Si atom -5575.136029 kJ/mol
# Density = 1.895507 g / cm^3
# Si number density = 18.998308 Si / 1000 Ang^3
#
#
#
# Elastic Constant Matrix: (Units=GPa)
#
#
# Indices 1 2 3 4 5 6 
#
# 1 115.5520 25.8375 16.3305 0.0000 0.0000 0.0000
# 2 25.8375 44.6905 16.2008 0.0000 0.0000 0.0000
# 3 16.3305 16.2008 103.3029 0.0000 0.0000 0.0000
# 4 0.0000 0.0000 0.0000 11.5482 0.0000 0.0000
# 5 0.0000 0.0000 0.0000 0.0000 4.7384 0.0000
# 6 0.0000 0.0000 0.0000 0.0000 0.0000 41.7418
#
#
#
# Elastic Compliance Matrix: (Units=1/GPa)
#
#
# Indices 1 2 3 4 5 6 
#
# 1 0.009988 -0.005516 -0.000714 0.000000 0.000000 0.000000
# 2 -0.005516 0.026771 -0.003326 0.000000 0.000000 0.000000
# 3 -0.000714 -0.003326 0.010315 0.000000 0.000000 0.000000
# 4 0.000000 0.000000 0.000000 0.086594 0.000000 0.000000
# 5 0.000000 0.000000 0.000000 0.000000 0.211043 0.000000
# 6 0.000000 0.000000 0.000000 0.000000 0.000000 0.023957
#
#
# Mechanical properties :
#
#
# Convention : Reuss Voigt Hill
#
# Bulk Modulus (GPa) = 35.76340 42.25365 39.00852
# Shear Modulus (GPa) = 12.59127 25.28413 18.93770
#
# Velocity S-wave (km/s) = 2.57720 3.65206 3.16065
# Velocity P-wave (km/s) = 5.26511 6.33027 5.82210
#
# Compressibility (1/GPa) = 0.02796155
#
# Stress axis : x y z
#
# Youngs Moduli (GPa) = 100.11650 37.35390 96.94791
#
# Poissons Ratio (x) = 0.20604 0.06922
# Poissons Ratio (y) = 0.55223 0.32249
# Poissons Ratio (z) = 0.07148 0.12426
#
# Static dielectric constant tensor:
#      x y z
#    x 1.686680 0.000000 0.000000 
#    y 0.000000 1.698870 0.000000 
#    z 0.000000 0.000000 1.639150 
# 
# From -- ./inp_files/31887.got.cif
#   From: 2010.05.17/outbox.cif.g08.bks.cpg/sg58_16_cif.got.tgz:31887.got - 2010.06.03 14:20:14.
