data_PCOD9443289
_publ_section_title
;
Structure prediction by ZEFSAII (Michael W. Deem and Ramdas Pophale) SiO2 
 PCOD9443289
Probable space group: P N N M
;
_chemical_formula_sum "Si O2"
_cell_formula_units_Z 56
_cell_length_a 8.848310
_cell_length_b 13.480942
_cell_length_c 23.818550
_cell_angle_alpha 90.000000
_cell_angle_beta 90.000000
_cell_angle_gamma 90.000000
_cell_volume 2841.161293
_symmetry_space_group_name_H-M "P N N M"
_symmetry_group_IT_number 58
_symmetry_cell_setting 'orthorhombic'
loop_
_space_group_symop_operation_xyz
x,y,z
-x,-y,z
1/2+x,1/2-y,1/2-z
1/2-x,1/2+y,1/2-z
-x,-y,-z
x,y,-z
1/2-x,1/2+y,1/2+z
1/2+x,1/2-y,1/2+z
loop_
_atom_site_type_symbol
_atom_site_label
_atom_site_fract_x
_atom_site_fract_y
_atom_site_fract_z
Si Si1 0.430220 0.797830 0.130988
Si Si2 0.628178 0.180532 0.436764
Si Si3 0.562366 0.609615 0.932699
Si Si4 0.309803 0.107615 0.063660
Si Si5 0.080169 0.605982 0.259931
Si Si6 0.407802 0.241579 0.651291
Si Si7 0.627940 0.423841 0.668227
O O1 0.480493 0.690283 0.106697
O O2 0.523096 0.871468 0.088945
O O3 0.491938 0.829421 0.192431
O O4 0.249329 0.794516 0.135219
O O5 0.588016 0.156097 0.500000
O O6 0.760939 0.108944 0.416440
O O7 0.718823 0.286708 0.437368
O O8 0.478563 0.182606 0.400633
O O9 0.500000 0.500000 0.926553
O O10 0.551814 0.637505 0.000000
O O11 0.211407 0.048452 0.109424
O O12 0.314348 0.069808 0.000000
O O13 0.104027 0.670114 0.204419
O O14 0.241739 0.583363 0.286734
O O15 0.000000 0.500000 0.250467
O O16 0.539270 0.320873 0.663588
O O17 0.500000 0.500000 0.683569
#
# Coordination Sequence:
#
# PCOD9443289 Si02
#       7
#     8   8   8   8   8   8   8
#     4  10  20  35  58  84 115 152 192 237 291 350
#     4   8  16  32  54  80 112 148 185 230 280 333
#     4   9  18  35  59  86 119 159 197 234 284 348
#     4   8  16  33  56  83 117 154 188 226 279 344
#     4  11  24  42  60  80 112 152 196 246 297 352
#     4  11  22  37  58  87 116 149 193 241 296 354
#     4  10  21  38  61  85 115 153 194 245 296 345
#
# _framework density 19.710251
#
# number of rings (size 3 to 8) (size 9 to 14) (size 15 to 20)
#    0.000    2.429    0.000    3.857    0.000    2.571 
#    0.000    5.714    0.000   24.857    0.000    0.000 
#    0.000    0.000    0.000    0.000    0.000    0.000 
#
# Total GULP energy -312254.521954 kJ/mol
# GULP energy per Si atom -5575.973606 kJ/mol
# Density = 1.966539 g / cm^3
# Si number density = 19.710251 Si / 1000 Ang^3
#
#
#
# Elastic Constant Matrix: (Units=GPa)
#
#
# Indices 1 2 3 4 5 6 
#
# 1 155.1255 24.8316 56.6631 0.0000 0.0000 0.0000
# 2 24.8316 51.7415 14.0951 0.0000 0.0000 0.0000
# 3 56.6631 14.0951 76.9650 0.0000 0.0000 0.0000
# 4 0.0000 0.0000 0.0000 -35.0829 0.0000 0.0000
# 5 0.0000 0.0000 0.0000 0.0000 0.7668 0.0000
# 6 0.0000 0.0000 0.0000 0.0000 0.0000 25.3026
#
#
#
# Elastic Compliance Matrix: (Units=1/GPa)
#
#
# Indices 1 2 3 4 5 6 
#
# 1 0.009161 -0.002694 -0.006251 0.000000 0.000000 0.000000
# 2 -0.002694 0.021134 -0.001887 0.000000 0.000000 0.000000
# 3 -0.006251 -0.001887 0.017941 0.000000 0.000000 0.000000
# 4 0.000000 0.000000 0.000000 -0.028504 0.000000 0.000000
# 5 0.000000 0.000000 0.000000 0.000000 1.304169 0.000000
# 6 0.000000 0.000000 0.000000 0.000000 0.000000 0.039522
#
#
# Mechanical properties :
#
#
# Convention : Reuss Voigt Hill
#
# Bulk Modulus (GPa) = 37.63456 52.77907 45.20681
# Shear Modulus (GPa) = 3.58695 10.74678 7.16686
#
# Velocity S-wave (km/s) = 1.35048 2.33757 1.90893
# Velocity P-wave (km/s) = 4.64404 5.84134 5.27676
#
# Compressibility (1/GPa) = 0.02657132
#
# Stress axis : x y z
#
# Youngs Moduli (GPa) = 109.15905 47.31782 55.73900
#
# Poissons Ratio (x) = 0.12745 0.34843
# Poissons Ratio (y) = 0.29403 0.10520
# Poissons Ratio (z) = 0.68237 0.08930
#
# Static dielectric constant tensor:
#      x y z
#    x 1.679680 0.000000 0.000000 
#    y 0.000000 1.781360 0.000000 
#    z 0.000000 0.000000 1.691650 
# 
# From -- ./inp_files/28957.got.cif
#   From: 2010.05.17/outbox.cif.g08.bks.cpg/sg58_15_cif.got.tgz:28957.got - 2010.06.03 14:20:14.
