data_PCOD9443249
_publ_section_title
;
Structure prediction by ZEFSAII (Michael W. Deem and Ramdas Pophale) SiO2 
 PCOD9443249
Probable space group: P N N M
;
_chemical_formula_sum "Si O2"
_cell_formula_units_Z 48
_cell_length_a 28.023991
_cell_length_b 9.709751
_cell_length_c 7.437683
_cell_angle_alpha 90.000000
_cell_angle_beta 90.000000
_cell_angle_gamma 90.000000
_cell_volume 2023.837982
_symmetry_space_group_name_H-M "P N N M"
_symmetry_group_IT_number 58
_symmetry_cell_setting 'orthorhombic'
loop_
_space_group_symop_operation_xyz
x,y,z
-x,-y,z
1/2+x,1/2-y,1/2-z
1/2-x,1/2+y,1/2-z
-x,-y,-z
x,y,-z
1/2-x,1/2+y,1/2+z
1/2+x,1/2-y,1/2+z
loop_
_atom_site_type_symbol
_atom_site_label
_atom_site_fract_x
_atom_site_fract_y
_atom_site_fract_z
Si Si1 0.396432 0.671211 0.781677
Si Si2 0.545140 0.582266 0.709216
Si Si3 0.041787 0.409956 0.707011
Si Si4 0.293105 0.131177 0.285922
Si Si5 0.898114 0.338962 0.781223
Si Si6 0.702952 0.195375 0.216304
O O1 0.409208 0.518264 0.722814
O O2 0.440160 0.767210 0.715036
O O3 0.346669 0.736478 0.719612
O O4 0.396771 0.674635 0.000000
O O5 0.500000 0.500000 0.789933
O O6 0.534007 0.605975 0.500000
O O7 0.562921 0.728070 0.783569
O O8 0.028281 0.383963 0.500000
O O9 0.086975 0.511130 0.713896
O O10 0.000000 0.500000 0.793818
O O11 0.293048 0.151728 0.500000
O O12 0.344161 0.187821 0.220672
O O13 0.247699 0.214963 0.215489
O O14 0.291680 0.966517 0.257059
O O15 0.898978 0.340074 0.000000
O O16 0.701765 0.206099 0.000000
#
# Coordination Sequence:
#
# PCOD9443249 Si02
#       6
#     8   8   8   8   8   8
#     4  10  21  37  56  82 114 147 187 233 281 336
#     4  10  22  38  56  83 117 152 192 235 281 334
#     4  10  20  35  57  84 112 145 187 232 280 335
#     4  10  22  39  59  85 113 145 188 233 282 341
#     4  10  21  37  56  81 113 147 187 232 279 336
#     4  10  22  40  60  85 116 147 186 236 285 339
#
# _framework density 23.717313999999998
#
# number of rings (size 3 to 8) (size 9 to 14) (size 15 to 20)
#    0.000    2.000    1.667    1.000    2.333    3.333 
#    0.000    0.000    0.000    0.000    0.000    0.000 
#    0.000    0.000    0.000    0.000    0.000    0.000 
#
# Total GULP energy -268285.159118 kJ/mol
# GULP energy per Si atom -5589.274148 kJ/mol
# Density = 2.366333 g / cm^3
# Si number density = 23.717314 Si / 1000 Ang^3
#
#
#
# Elastic Constant Matrix: (Units=GPa)
#
#
# Indices 1 2 3 4 5 6 
#
# 1 116.4426 20.8382 10.3633 0.0000 0.0000 0.0000
# 2 20.8382 102.7073 -6.0049 0.0000 0.0000 0.0000
# 3 10.3633 -6.0049 84.8364 0.0000 0.0000 0.0000
# 4 0.0000 0.0000 0.0000 15.5704 0.0000 0.0000
# 5 0.0000 0.0000 0.0000 0.0000 7.8083 0.0000
# 6 0.0000 0.0000 0.0000 0.0000 0.0000 49.9810
#
#
#
# Elastic Compliance Matrix: (Units=1/GPa)
#
#
# Indices 1 2 3 4 5 6 
#
# 1 0.009039 -0.001906 -0.001239 0.000000 0.000000 0.000000
# 2 -0.001906 0.010179 0.000953 0.000000 0.000000 0.000000
# 3 -0.001239 0.000953 0.012006 0.000000 0.000000 0.000000
# 4 0.000000 0.000000 0.000000 0.064225 0.000000 0.000000
# 5 0.000000 0.000000 0.000000 0.000000 0.128069 0.000000
# 6 0.000000 0.000000 0.000000 0.000000 0.000000 0.020008
#
#
# Mechanical properties :
#
#
# Convention : Reuss Voigt Hill
#
# Bulk Modulus (GPa) = 37.25769 39.37552 38.31661
# Shear Modulus (GPa) = 19.46610 33.25791 26.36201
#
# Velocity S-wave (km/s) = 2.86799 3.74874 3.33755
# Velocity P-wave (km/s) = 5.16820 5.94773 5.57162
#
# Compressibility (1/GPa) = 0.02684009
#
# Stress axis : x y z
#
# Youngs Moduli (GPa) = 110.62710 98.24203 83.29001
#
# Poissons Ratio (x) = 0.18729 0.10321
# Poissons Ratio (y) = 0.21090 -0.07941
# Poissons Ratio (z) = 0.13708 -0.09366
#
# Static dielectric constant tensor:
#      x y z
#    x 1.938070 0.000000 0.000000 
#    y 0.000000 1.832630 0.000000 
#    z 0.000000 0.000000 1.869590 
# 
# From -- ./inp_files/2867.got.cif
#   From: 2010.05.17/outbox.cif.g08.bks.cpg/sg58_2_cif.got.tgz:2867.got - 2010.06.03 14:20:14.
