data_PCOD9443059
_publ_section_title
;
Structure prediction by ZEFSAII (Michael W. Deem and Ramdas Pophale) SiO2 
 PCOD9443059
Probable space group: P N N M
;
_chemical_formula_sum "Si O2"
_cell_formula_units_Z 58
_cell_length_a 8.983090
_cell_length_b 19.524285
_cell_length_c 15.617017
_cell_angle_alpha 90.000000
_cell_angle_beta 90.000000
_cell_angle_gamma 90.000000
_cell_volume 2739.043770
_symmetry_space_group_name_H-M "P N N M"
_symmetry_group_IT_number 58
_symmetry_cell_setting 'orthorhombic'
loop_
_space_group_symop_operation_xyz
x,y,z
-x,-y,z
1/2+x,1/2-y,1/2-z
1/2-x,1/2+y,1/2-z
-x,-y,-z
x,y,-z
1/2-x,1/2+y,1/2+z
1/2+x,1/2-y,1/2+z
loop_
_atom_site_type_symbol
_atom_site_label
_atom_site_fract_x
_atom_site_fract_y
_atom_site_fract_z
Si Si1 0.860469 0.073987 0.148336
Si Si2 0.797155 0.931419 0.095618
Si Si3 0.194035 0.569972 0.902825
Si Si4 0.694627 0.338242 0.755448
Si Si5 0.409555 0.832762 0.404720
Si Si6 0.315674 0.434568 0.845378
Si Si7 0.500000 0.500000 0.000000
Si Si8 0.600233 0.717957 0.685591
O O1 0.873980 0.056019 0.249277
O O2 0.814271 0.153783 0.142596
O O3 0.022551 0.072320 0.104291
O O4 0.763251 0.012046 0.110367
O O5 0.749122 0.882561 0.173868
O O6 0.752472 0.910244 0.000000
O O7 0.289484 0.616563 0.840031
O O8 0.195149 0.495010 0.863290
O O9 0.037477 0.608617 0.907272
O O10 0.258740 0.562842 0.000000
O O11 0.524615 0.316805 0.744314
O O12 0.792383 0.270670 0.767910
O O13 0.351643 0.822615 0.500000
O O14 0.274289 0.863243 0.350208
O O15 0.496506 0.764901 0.375740
O O16 0.429677 0.449306 0.922274
#
# Coordination Sequence:
#
# PCOD9443059 Si02
#       8
#     8   8   8   8   8   8   2   8
#     4  10  20  34  56  86 118 152 203 255 311 364
#     4  10  20  37  62  87 118 158 208 270 314 368
#     4  10  20  37  61  83 118 161 203 251 303 377
#     4  10  21  40  58  91 121 163 210 260 321 382
#     4  10  21  38  57  85 119 164 213 241 297 387
#     4  12  21  35  55  90 125 156 192 254 308 368
#     4  12  24  28  54  92 126 156 180 248 314 364
#     4  10  22  37  60  82 126 166 203 264 314 376
#
# _framework density 21.175272
#
# number of rings (size 3 to 8) (size 9 to 14) (size 15 to 20)
#    0.000    1.655    2.759    2.897    1.931    3.862 
#    0.000    0.690    0.000    0.000    0.000   16.414 
#    0.000    0.000    0.000    0.000    0.000    0.000 
#
# Total GULP energy -323093.806985 kJ/mol
# GULP energy per Si atom -5570.582879 kJ/mol
# Density = 2.112708 g / cm^3
# Si number density = 21.175272 Si / 1000 Ang^3
#
#
#
# Elastic Constant Matrix: (Units=GPa)
#
#
# Indices 1 2 3 4 5 6 
#
# 1 22.8987 11.1540 16.2180 0.0000 0.0000 0.0000
# 2 11.1540 142.6950 33.2892 0.0000 0.0000 0.0000
# 3 16.2180 33.2892 107.0456 0.0000 0.0000 0.0000
# 4 0.0000 0.0000 0.0000 -4.3004 0.0000 0.0000
# 5 0.0000 0.0000 0.0000 0.0000 18.9422 0.0000
# 6 0.0000 0.0000 0.0000 0.0000 0.0000 33.8900
#
#
#
# Elastic Compliance Matrix: (Units=1/GPa)
#
#
# Indices 1 2 3 4 5 6 
#
# 1 0.049604 -0.002290 -0.006803 0.000000 0.000000 0.000000
# 2 -0.002290 0.007662 -0.002036 0.000000 0.000000 0.000000
# 3 -0.006803 -0.002036 0.011006 0.000000 0.000000 0.000000
# 4 0.000000 0.000000 0.000000 -0.232538 0.000000 0.000000
# 5 0.000000 0.000000 0.000000 0.000000 0.052792 0.000000
# 6 0.000000 0.000000 0.000000 0.000000 0.000000 0.029507
#
#
# Mechanical properties :
#
#
# Convention : Reuss Voigt Hill
#
# Bulk Modulus (GPa) = 21.73265 43.77351 32.75308
# Shear Modulus (GPa) = -112.68657 23.83826 -44.42416
#
# Velocity S-wave (km/s) = -7.30285 3.35887 -4.58528
# Velocity P-wave (km/s) = 7.79893 5.97993 3.54004
#
# Compressibility (1/GPa) = 0.04601371
#
# Stress axis : x y z
#
# Youngs Moduli (GPa) = 20.15947 130.51613 90.86297
#
# Poissons Ratio (x) = 0.29892 0.61815
# Poissons Ratio (y) = 0.04617 0.18497
# Poissons Ratio (z) = 0.13715 0.26569
#
# Static dielectric constant tensor:
#      x y z
#    x 1.474770 0.000000 0.000000 
#    y 0.000000 1.810640 0.000000 
#    z 0.000000 0.000000 1.778830 
# 
# From -- ./inp_files/21471.got.cif
#   From: 2010.05.17/outbox.cif.g08.bks.cpg/sg58_11_cif.got.tgz:21471.got - 2010.06.03 14:20:14.
