data_PCOD9443715
_publ_section_title
;
Structure prediction by ZEFSAII (Michael W. Deem and Ramdas Pophale) SiO2 
 PCOD9443715
Probable space group: P N N M
;
_chemical_formula_sum "Si O2"
_cell_formula_units_Z 64
_cell_length_a 16.705702
_cell_length_b 19.756120
_cell_length_c 7.939574
_cell_angle_alpha 90.000000
_cell_angle_beta 90.000000
_cell_angle_gamma 90.000000
_cell_volume 2620.375839
_symmetry_space_group_name_H-M "P N N M"
_symmetry_group_IT_number 58
_symmetry_cell_setting 'orthorhombic'
loop_
_space_group_symop_operation_xyz
x,y,z
-x,-y,z
1/2+x,1/2-y,1/2-z
1/2-x,1/2+y,1/2-z
-x,-y,-z
x,y,-z
1/2-x,1/2+y,1/2+z
1/2+x,1/2-y,1/2+z
loop_
_atom_site_type_symbol
_atom_site_label
_atom_site_fract_x
_atom_site_fract_y
_atom_site_fract_z
Si Si1 0.990892 0.793359 0.796337
Si Si2 0.594530 0.587520 0.700841
Si Si3 0.823595 0.458174 0.690676
Si Si4 0.843873 0.949603 0.309761
Si Si5 0.410739 0.915638 0.701016
Si Si6 0.680973 0.302306 0.804307
Si Si7 0.748326 0.166742 0.795706
Si Si8 0.926872 0.340785 0.202686
O O1 0.019683 0.867648 0.740313
O O2 0.059181 0.737920 0.759308
O O3 0.908844 0.773020 0.708086
O O4 0.978233 0.791271 0.000000
O O5 0.594136 0.594867 0.500000
O O6 0.601130 0.508327 0.736685
O O7 0.674369 0.625715 0.765029
O O8 0.797174 0.469167 0.500000
O O9 0.747747 0.475855 0.804643
O O10 0.895591 0.509323 0.729966
O O11 0.853805 0.382138 0.720176
O O12 0.870533 0.938576 0.500000
O O13 0.832200 0.876293 0.223454
O O14 0.415425 0.919712 0.500000
O O15 0.332189 0.873259 0.750235
O O16 0.491503 0.878696 0.757874
O O17 0.738301 0.244119 0.733847
O O18 0.704610 0.313134 0.000000
O O19 0.752836 0.169886 0.000000
O O20 0.919118 0.346739 0.000000
#
# Coordination Sequence:
#
# PCOD9443715 Si02
#       8
#     8   8   8   8   8   8   8   8
#     4  10  22  41  65  91 122 162 204 252 303 361
#     4  10  22  40  64  91 121 160 203 249 306 361
#     4  12  25  39  58  89 125 162 204 250 301 361
#     4  11  24  42  64  89 120 161 205 253 307 360
#     4  11  21  37  62  90 121 160 202 245 299 362
#     4  10  23  41  64  91 122 162 203 251 305 359
#     4  10  20  37  62  89 120 156 199 247 302 360
#     4  10  22  39  60  89 125 162 202 246 298 362
#
# _framework density 24.423978000000002
#
# number of rings (size 3 to 8) (size 9 to 14) (size 15 to 20)
#    0.000    1.500    2.500    2.250    1.750    5.000 
#    0.000    2.500    0.000    0.000    0.000    0.000 
#    0.000    0.000    0.000    0.000    0.000    0.000 
#
# Total GULP energy -357947.782926 kJ/mol
# GULP energy per Si atom -5592.934108 kJ/mol
# Density = 2.436839 g / cm^3
# Si number density = 24.423978 Si / 1000 Ang^3
#
#
#
# Elastic Constant Matrix: (Units=GPa)
#
#
# Indices 1 2 3 4 5 6 
#
# 1 54.5562 0.9981 -1.4079 0.0000 0.0000 0.0000
# 2 0.9981 134.8123 6.1625 0.0000 0.0000 0.0000
# 3 -1.4079 6.1625 37.0327 0.0000 0.0000 0.0000
# 4 0.0000 0.0000 0.0000 31.7531 0.0000 0.0000
# 5 0.0000 0.0000 0.0000 0.0000 -16.9292 0.0000
# 6 0.0000 0.0000 0.0000 0.0000 0.0000 43.0278
#
#
#
# Elastic Compliance Matrix: (Units=1/GPa)
#
#
# Indices 1 2 3 4 5 6 
#
# 1 0.018352 -0.000169 0.000726 0.000000 0.000000 0.000000
# 2 -0.000169 0.007476 -0.001251 0.000000 0.000000 0.000000
# 3 0.000726 -0.001251 0.027239 0.000000 0.000000 0.000000
# 4 0.000000 0.000000 0.000000 0.031493 0.000000 0.000000
# 5 0.000000 0.000000 0.000000 0.000000 -0.059069 0.000000
# 6 0.000000 0.000000 0.000000 0.000000 0.000000 0.023241
#
#
# Mechanical properties :
#
#
# Convention : Reuss Voigt Hill
#
# Bulk Modulus (GPa) = 19.35019 26.43407 22.89213
# Shear Modulus (GPa) = 74.24475 26.28023 50.26249
#
# Velocity S-wave (km/s) = 5.51945 3.28380 4.54135
# Velocity P-wave (km/s) = 6.96842 5.02238 6.07385
#
# Compressibility (1/GPa) = 0.05167909
#
# Stress axis : x y z
#
# Youngs Moduli (GPa) = 54.49130 133.75897 36.71222
#
# Poissons Ratio (x) = 0.02261 -0.02665
# Poissons Ratio (y) = 0.00921 0.04591
# Poissons Ratio (z) = -0.03955 0.16727
#
# Static dielectric constant tensor:
#      x y z
#    x 1.946450 0.000000 0.000000 
#    y 0.000000 2.024900 0.000000 
#    z 0.000000 0.000000 1.882580 
# 
# From -- ./inp_files/9278.got.cif
#   From: 2010.05.17/outbox.cif.g08.bks.cpg/sg58_5_cif.got.tgz:9278.got - 2010.06.03 14:20:14.
