data_PCOD9443726
_publ_section_title
;
Structure prediction by ZEFSAII (Michael W. Deem and Ramdas Pophale) SiO2 
 PCOD9443726
Probable space group: P N N M
;
_chemical_formula_sum "Si O2"
_cell_formula_units_Z 48
_cell_length_a 10.650227
_cell_length_b 13.738510
_cell_length_c 15.750781
_cell_angle_alpha 90.000000
_cell_angle_beta 90.000000
_cell_angle_gamma 90.000000
_cell_volume 2304.626714
_symmetry_space_group_name_H-M "P N N M"
_symmetry_group_IT_number 58
_symmetry_cell_setting 'orthorhombic'
loop_
_space_group_symop_operation_xyz
x,y,z
-x,-y,z
1/2+x,1/2-y,1/2-z
1/2-x,1/2+y,1/2-z
-x,-y,-z
x,y,-z
1/2-x,1/2+y,1/2+z
1/2+x,1/2-y,1/2+z
loop_
_atom_site_type_symbol
_atom_site_label
_atom_site_fract_x
_atom_site_fract_y
_atom_site_fract_z
Si Si1 0.774480 0.696299 0.403829
Si Si2 0.970528 0.386381 0.597611
Si Si3 0.779789 0.799882 0.168555
Si Si4 0.348378 0.392656 0.103061
Si Si5 0.978812 0.107695 0.899391
Si Si6 0.356348 0.614228 0.850836
O O1 0.782786 0.656437 0.500000
O O2 0.905920 0.663595 0.363348
O O3 0.648147 0.655032 0.363266
O O4 0.776004 0.812118 0.407882
O O5 0.952793 0.351363 0.500000
O O6 0.000000 0.500000 0.596128
O O7 0.842770 0.362426 0.644612
O O8 0.734418 0.689634 0.150169
O O9 0.899381 0.826573 0.111569
O O10 0.826321 0.839427 0.259303
O O11 0.496290 0.376512 0.124783
O O12 0.320641 0.501993 0.135602
O O13 0.333969 0.387283 0.000000
O O14 0.959608 0.096436 0.000000
O O15 0.000000 0.000000 0.861945
#
# Coordination Sequence:
#
# PCOD9443726 Si02
#       6
#     8   8   8   8   8   8
#     4  10  20  38  63  90 128 180 241 285 338 419
#     4  10  20  37  62  93 130 180 235 286 345 428
#     4  12  25  39  68 102 141 172 234 304 363 398
#     4  11  24  49  77 102 139 199 250 282 346 448
#     4  10  22  38  61  93 137 184 223 278 357 435
#     4  11  25  41  70 102 137 178 239 304 349 402
#
# _framework density 20.827667000000002
#
# number of rings (size 3 to 8) (size 9 to 14) (size 15 to 20)
#    0.000    1.333    1.667    4.500    4.667    4.000 
#    0.000    0.833    0.000    3.000    0.000    0.000 
#    0.000    0.000    0.000    0.000    0.000    0.000 
#
# Total GULP energy -267867.038006 kJ/mol
# GULP energy per Si atom -5580.563292 kJ/mol
# Density = 2.078026 g / cm^3
# Si number density = 20.827667 Si / 1000 Ang^3
#
#
#
# Elastic Constant Matrix: (Units=GPa)
#
#
# Indices 1 2 3 4 5 6 
#
# 1 123.7658 54.4821 23.5248 0.0000 0.0000 0.0000
# 2 54.4821 149.0081 38.0728 0.0000 0.0000 0.0000
# 3 23.5248 38.0728 84.0128 0.0000 0.0000 0.0000
# 4 0.0000 0.0000 0.0000 28.5531 0.0000 0.0000
# 5 0.0000 0.0000 0.0000 0.0000 -28.4948 0.0000
# 6 0.0000 0.0000 0.0000 0.0000 0.0000 40.1723
#
#
#
# Elastic Compliance Matrix: (Units=1/GPa)
#
#
# Indices 1 2 3 4 5 6 
#
# 1 0.009746 -0.003242 -0.001260 0.000000 0.000000 0.000000
# 2 -0.003242 0.008668 -0.003020 0.000000 0.000000 0.000000
# 3 -0.001260 -0.003020 0.013625 0.000000 0.000000 0.000000
# 4 0.000000 0.000000 0.000000 0.035022 0.000000 0.000000
# 5 0.000000 0.000000 0.000000 0.000000 -0.035094 0.000000
# 6 0.000000 0.000000 0.000000 0.000000 0.000000 0.024893
#
#
# Mechanical properties :
#
#
# Convention : Reuss Voigt Hill
#
# Bulk Modulus (GPa) = 58.84218 65.43845 62.14032
# Shear Modulus (GPa) = 64.45873 24.09327 44.27600
#
# Velocity S-wave (km/s) = 5.56918 3.40485 4.61567
# Velocity P-wave (km/s) = 8.34672 6.85161 7.63584
#
# Compressibility (1/GPa) = 0.01699461
#
# Stress axis : x y z
#
# Youngs Moduli (GPa) = 102.60377 115.36662 73.39668
#
# Poissons Ratio (x) = 0.37397 0.09249
# Poissons Ratio (y) = 0.33260 0.22169
# Poissons Ratio (z) = 0.12929 0.34846
#
# Static dielectric constant tensor:
#      x y z
#    x 1.726240 0.000000 0.000000 
#    y 0.000000 1.783700 0.000000 
#    z 0.000000 0.000000 1.933390 
# 
# From -- ./inp_files/25290.got.cif
#   From: 2010.05.17/outbox.cif.g08.bks.cpg/sg58_13_cif.got.tgz:25290.got - 2010.06.03 14:20:14.
