data_PCOD9443867
_publ_section_title
;
Structure prediction by ZEFSAII (Michael W. Deem and Ramdas Pophale) SiO2 
 PCOD9443867
Probable space group: P N N M
;
_chemical_formula_sum "Si O2"
_cell_formula_units_Z 64
_cell_length_a 14.492174
_cell_length_b 8.442874
_cell_length_c 22.564728
_cell_angle_alpha 90.000000
_cell_angle_beta 90.000000
_cell_angle_gamma 90.000000
_cell_volume 2760.920812
_symmetry_space_group_name_H-M "P N N M"
_symmetry_group_IT_number 58
_symmetry_cell_setting 'orthorhombic'
loop_
_space_group_symop_operation_xyz
x,y,z
-x,-y,z
1/2+x,1/2-y,1/2-z
1/2-x,1/2+y,1/2-z
-x,-y,-z
x,y,-z
1/2-x,1/2+y,1/2+z
1/2+x,1/2-y,1/2+z
loop_
_atom_site_type_symbol
_atom_site_label
_atom_site_fract_x
_atom_site_fract_y
_atom_site_fract_z
Si Si1 0.552506 0.667494 0.929089
Si Si2 0.609212 0.184613 0.862438
Si Si3 0.217927 0.639286 0.622545
Si Si4 0.396240 0.466352 0.430006
Si Si5 0.183049 0.824868 0.266619
Si Si6 0.439357 0.133865 0.382223
Si Si7 0.988479 0.687587 0.754659
Si Si8 0.745471 0.881074 0.333172
O O1 0.500000 0.500000 0.913632
O O2 0.484815 0.792503 0.897402
O O3 0.656392 0.719587 0.908286
O O4 0.550956 0.679522 0.000000
O O5 0.592601 0.219986 0.792077
O O6 0.682197 0.320230 0.881112
O O7 0.652698 0.014731 0.873977
O O8 0.314501 0.574532 0.596483
O O9 0.232029 0.704997 0.688278
O O10 0.500000 0.500000 0.407586
O O11 0.393840 0.495111 0.500000
O O12 0.393742 0.277998 0.417589
O O13 0.074396 0.789268 0.269488
O O14 0.211930 0.777417 0.200925
O O15 0.209695 0.995325 0.288827
O O16 0.500624 0.198443 0.326061
O O17 0.349629 0.045771 0.355671
O O18 0.500000 0.000000 0.414085
O O19 0.000000 0.500000 0.744329
#
# Coordination Sequence:
#
# PCOD9443867 Si02
#       8
#     8   8   8   8   8   8   8   8
#     4  11  25  44  67 102 141 182 233 284 349 432
#     4  12  22  41  66 103 141 183 223 276 353 434
#     4  12  23  44  75  99 139 186 233 299 362 431
#     4  11  27  50  73 102 135 182 253 311 364 424
#     4  11  23  39  63  96 139 184 230 274 347 424
#     4  10  24  45  68  97 134 180 235 296 363 424
#     4  10  20  38  63  99 141 179 218 277 349 432
#     4  11  25  39  63 102 140 184 230 285 346 436
#
# _framework density 23.180671
#
# number of rings (size 3 to 8) (size 9 to 14) (size 15 to 20)
#    0.000    1.000    3.750    2.250    7.000    1.750 
#    0.000    0.000    0.000    0.000    0.000    0.000 
#    0.000    0.000    0.000    0.000    0.000    0.000 
#
# Total GULP energy -356998.131632 kJ/mol
# GULP energy per Si atom -5578.095807 kJ/mol
# Density = 2.312791 g / cm^3
# Si number density = 23.180671 Si / 1000 Ang^3
#
#
#
# Elastic Constant Matrix: (Units=GPa)
#
#
# Indices 1 2 3 4 5 6 
#
# 1 139.1347 41.1605 24.6799 0.0000 0.0000 0.0000
# 2 41.1605 100.6805 2.9175 0.0000 0.0000 0.0000
# 3 24.6799 2.9175 27.1209 0.0000 0.0000 0.0000
# 4 0.0000 0.0000 0.0000 35.8882 0.0000 0.0000
# 5 0.0000 0.0000 0.0000 0.0000 14.8338 0.0000
# 6 0.0000 0.0000 0.0000 0.0000 0.0000 46.1609
#
#
#
# Elastic Compliance Matrix: (Units=1/GPa)
#
#
# Indices 1 2 3 4 5 6 
#
# 1 0.009813 -0.003765 -0.008525 0.000000 0.000000 0.000000
# 2 -0.003765 0.011408 0.002199 0.000000 0.000000 0.000000
# 3 -0.008525 0.002199 0.044393 0.000000 0.000000 0.000000
# 4 0.000000 0.000000 0.000000 0.027864 0.000000 0.000000
# 5 0.000000 0.000000 0.000000 0.000000 0.067414 0.000000
# 6 0.000000 0.000000 0.000000 0.000000 0.000000 0.021663
#
#
# Mechanical properties :
#
#
# Convention : Reuss Voigt Hill
#
# Bulk Modulus (GPa) = 22.01088 44.93911 33.47499
# Shear Modulus (GPa) = 22.94826 32.58846 27.76836
#
# Velocity S-wave (km/s) = 3.14980 3.75353 3.46484
# Velocity P-wave (km/s) = 4.76910 6.18174 5.52078
#
# Compressibility (1/GPa) = 0.04543209
#
# Stress axis : x y z
#
# Youngs Moduli (GPa) = 101.90356 87.65907 22.52603
#
# Poissons Ratio (x) = 0.33002 0.19203
# Poissons Ratio (y) = 0.38365 -0.04953
# Poissons Ratio (z) = 0.86872 -0.19274
#
# Static dielectric constant tensor:
#      x y z
#    x 1.968590 0.000000 0.000000 
#    y 0.000000 1.907370 0.000000 
#    z 0.000000 0.000000 1.873610 
# 
# From -- ./inp_files/32212.got.cif
#   From: 2010.05.17/outbox.cif.g08.bks.cpg/sg58_17_cif.got.tgz:32212.got - 2010.06.03 14:20:14.
