data_PCOD9443634
_publ_section_title
;
Structure prediction by ZEFSAII (Michael W. Deem and Ramdas Pophale) SiO2 
 PCOD9443634
Probable space group: P N N M
;
_chemical_formula_sum "Si O2"
_cell_formula_units_Z 64
_cell_length_a 25.058510
_cell_length_b 15.032398
_cell_length_c 8.745748
_cell_angle_alpha 90.000000
_cell_angle_beta 90.000000
_cell_angle_gamma 90.000000
_cell_volume 3294.431403
_symmetry_space_group_name_H-M "P N N M"
_symmetry_group_IT_number 58
_symmetry_cell_setting 'orthorhombic'
loop_
_space_group_symop_operation_xyz
x,y,z
-x,-y,z
1/2+x,1/2-y,1/2-z
1/2-x,1/2+y,1/2-z
-x,-y,-z
x,y,-z
1/2-x,1/2+y,1/2+z
1/2+x,1/2-y,1/2+z
loop_
_atom_site_type_symbol
_atom_site_label
_atom_site_fract_x
_atom_site_fract_y
_atom_site_fract_z
Si Si1 0.267159 0.668803 0.178333
Si Si2 0.561427 0.745879 0.181458
Si Si3 0.671513 0.497028 0.683975
Si Si4 0.356273 0.137658 0.678141
Si Si5 0.481224 0.902002 0.184197
Si Si6 0.052663 0.947928 0.815771
Si Si7 0.626693 0.058449 0.684057
Si Si8 0.242601 0.365321 0.816570
O O1 0.305890 0.596845 0.255061
O O2 0.207220 0.630134 0.184988
O O3 0.262134 0.764363 0.258401
O O4 0.281423 0.680364 0.000000
O O5 0.619818 0.781875 0.226306
O O6 0.520849 0.823601 0.233351
O O7 0.550071 0.653254 0.261144
O O8 0.557258 0.735977 0.000000
O O9 0.673723 0.497687 0.500000
O O10 0.610077 0.512428 0.733209
O O11 0.709540 0.576602 0.745033
O O12 0.370803 0.150996 0.500000
O O13 0.379098 0.043951 0.735018
O O14 0.421540 0.887029 0.244156
O O15 0.500000 0.000000 0.238382
O O16 0.481115 0.903544 0.000000
O O17 0.052431 0.950209 0.000000
O O18 0.000000 0.000000 0.761068
O O19 0.622768 0.060345 0.500000
O O20 0.685638 0.090814 0.724960
O O21 0.248349 0.367383 0.000000
#
# Coordination Sequence:
#
# PCOD9443634 Si02
#       8
#     8   8   8   8   8   8   8   8
#     4  11  23  40  62  91 126 164 204 253 307 364
#     4  11  23  38  61  92 122 158 202 252 307 358
#     4  11  23  41  66  94 122 160 206 255 311 368
#     4  10  20  37  59  85 119 158 203 246 293 357
#     4  10  21  37  55  84 125 158 192 243 298 356
#     4  10  24  46  67  87 117 158 205 255 303 357
#     4  10  21  37  58  84 117 159 201 244 293 353
#     4  11  23  41  61  91 129 163 204 253 303 364
#
# _framework density 19.426722000000002
#
# number of rings (size 3 to 8) (size 9 to 14) (size 15 to 20)
#    0.000    1.500    2.500    2.250    0.000    8.500 
#    0.000    3.750    0.000    0.000    0.000    0.000 
#    0.000    0.000    0.000    0.000    0.000    0.000 
#
# Total GULP energy -357514.426162 kJ/mol
# GULP energy per Si atom -5586.162909 kJ/mol
# Density = 1.938251 g / cm^3
# Si number density = 19.426722 Si / 1000 Ang^3
#
#
#
# Elastic Constant Matrix: (Units=GPa)
#
#
# Indices 1 2 3 4 5 6 
#
# 1 140.8908 64.2127 38.5377 0.0000 0.0000 0.0000
# 2 64.2127 115.1713 25.1583 0.0000 0.0000 0.0000
# 3 38.5377 25.1583 24.9586 0.0000 0.0000 0.0000
# 4 0.0000 0.0000 0.0000 38.2348 0.0000 0.0000
# 5 0.0000 0.0000 0.0000 0.0000 27.6734 0.0000
# 6 0.0000 0.0000 0.0000 0.0000 0.0000 30.6251
#
#
#
# Elastic Compliance Matrix: (Units=1/GPa)
#
#
# Indices 1 2 3 4 5 6 
#
# 1 0.013473 -0.003805 -0.016968 0.000000 0.000000 0.000000
# 2 -0.003805 0.012209 -0.006431 0.000000 0.000000 0.000000
# 3 -0.016968 -0.006431 0.072748 0.000000 0.000000 0.000000
# 4 0.000000 0.000000 0.000000 0.026154 0.000000 0.000000
# 5 0.000000 0.000000 0.000000 0.000000 0.036136 0.000000
# 6 0.000000 0.000000 0.000000 0.000000 0.000000 0.032653
#
#
# Mechanical properties :
#
#
# Convention : Reuss Voigt Hill
#
# Bulk Modulus (GPa) = 22.71580 59.64868 41.18224
# Shear Modulus (GPa) = 19.05081 29.51411 24.28246
#
# Velocity S-wave (km/s) = 3.13493 3.90199 3.53930
# Velocity P-wave (km/s) = 4.98218 7.14645 6.16011
#
# Compressibility (1/GPa) = 0.04402223
#
# Stress axis : x y z
#
# Youngs Moduli (GPa) = 74.22154 81.90531 13.74604
#
# Poissons Ratio (x) = 0.31168 0.23324
# Poissons Ratio (y) = 0.28244 0.08840
# Poissons Ratio (z) = 1.25936 0.52675
#
# Static dielectric constant tensor:
#      x y z
#    x 1.689800 0.000000 0.000000 
#    y 0.000000 1.676600 0.000000 
#    z 0.000000 0.000000 1.657910 
# 
# From -- ./inp_files/9922.got.cif
#   From: 2010.05.17/outbox.cif.g08.bks.cpg/sg58_5_cif.got.tgz:9922.got - 2010.06.03 14:20:14.
