data_PCOD9443795
_publ_section_title
;
Structure prediction by ZEFSAII (Michael W. Deem and Ramdas Pophale) SiO2 
 PCOD9443795
Probable space group: P N N M
;
_chemical_formula_sum "Si O2"
_cell_formula_units_Z 56
_cell_length_a 9.698217
_cell_length_b 18.602462
_cell_length_c 15.237056
_cell_angle_alpha 90.000000
_cell_angle_beta 90.000000
_cell_angle_gamma 90.000000
_cell_volume 2748.928140
_symmetry_space_group_name_H-M "P N N M"
_symmetry_group_IT_number 58
_symmetry_cell_setting 'orthorhombic'
loop_
_space_group_symop_operation_xyz
x,y,z
-x,-y,z
1/2+x,1/2-y,1/2-z
1/2-x,1/2+y,1/2-z
-x,-y,-z
x,y,-z
1/2-x,1/2+y,1/2+z
1/2+x,1/2-y,1/2+z
loop_
_atom_site_type_symbol
_atom_site_label
_atom_site_fract_x
_atom_site_fract_y
_atom_site_fract_z
Si Si1 0.208960 0.160541 0.099521
Si Si2 0.665349 0.485906 0.297293
Si Si3 0.000684 0.726348 0.643633
Si Si4 0.255632 0.675917 0.907736
Si Si5 0.335782 0.510479 0.097231
Si Si6 0.944419 0.225368 0.169915
Si Si7 0.213977 0.384542 0.604810
O O1 0.193616 0.096147 0.171131
O O2 0.354000 0.201751 0.105792
O O3 0.087729 0.217231 0.120035
O O4 0.191897 0.131941 0.000000
O O5 0.500000 0.500000 0.305469
O O6 0.706407 0.509768 0.197320
O O7 0.750438 0.536292 0.362998
O O8 0.024471 0.776351 0.727850
O O9 0.890926 0.774763 0.591979
O O10 0.914249 0.652404 0.654760
O O11 0.300235 0.594587 0.902140
O O12 0.146112 0.702435 0.837723
O O13 0.181084 0.688802 0.000000
O O14 0.500000 0.500000 0.095768
O O15 0.285420 0.482212 0.000000
O O16 0.845952 0.163517 0.132115
O O17 0.191258 0.381386 0.500000
#
# Coordination Sequence:
#
# PCOD9443795 Si02
#       7
#     8   8   8   8   8   8   8
#     4  12  23  37  59  93 125 156 206 259 299 356
#     4  11  22  37  62  88 119 160 206 250 299 364
#     4  11  23  38  58  87 124 159 199 253 303 363
#     4  10  20  38  61  84 117 159 197 245 315 370
#     4   9  19  36  60  90 119 153 204 258 306 363
#     4  11  21  37  60  86 118 158 207 247 300 361
#     4  11  23  41  62  87 125 168 202 242 307 373
#
# _framework density 20.371576000000001
#
# number of rings (size 3 to 8) (size 9 to 14) (size 15 to 20)
#    0.000    1.286    1.429    7.286    2.000    1.143 
#    0.000    1.429    0.000    1.714    0.000    3.000 
#    0.000    0.000    0.000    0.000    0.000    0.000 
#
# Total GULP energy -311961.503657 kJ/mol
# GULP energy per Si atom -5570.741137 kJ/mol
# Density = 2.032521 g / cm^3
# Si number density = 20.371576 Si / 1000 Ang^3
#
#
#
# Elastic Constant Matrix: (Units=GPa)
#
#
# Indices 1 2 3 4 5 6 
#
# 1 96.7713 8.0533 -7.5736 0.0000 0.0000 0.0000
# 2 8.0533 19.5041 -16.7299 0.0000 0.0000 0.0000
# 3 -7.5736 -16.7299 88.7882 0.0000 0.0000 0.0000
# 4 0.0000 0.0000 0.0000 22.6341 0.0000 0.0000
# 5 0.0000 0.0000 0.0000 0.0000 6.9409 0.0000
# 6 0.0000 0.0000 0.0000 0.0000 0.0000 16.6613
#
#
#
# Elastic Compliance Matrix: (Units=1/GPa)
#
#
# Indices 1 2 3 4 5 6 
#
# 1 0.010702 -0.004337 0.000096 0.000000 0.000000 0.000000
# 2 -0.004337 0.062913 0.011484 0.000000 0.000000 0.000000
# 3 0.000096 0.011484 0.013435 0.000000 0.000000 0.000000
# 4 0.000000 0.000000 0.000000 0.044181 0.000000 0.000000
# 5 0.000000 0.000000 0.000000 0.000000 0.144074 0.000000
# 6 0.000000 0.000000 0.000000 0.000000 0.000000 0.060019
#
#
# Mechanical properties :
#
#
# Convention : Reuss Voigt Hill
#
# Bulk Modulus (GPa) = 9.84867 19.17370 14.51119
# Shear Modulus (GPa) = 14.09708 24.00150 19.04929
#
# Velocity S-wave (km/s) = 2.63344 3.43619 3.06124
# Velocity P-wave (km/s) = 3.75389 5.01754 4.43099
#
# Compressibility (1/GPa) = 0.10153650
#
# Stress axis : x y z
#
# Youngs Moduli (GPa) = 93.44004 15.89496 74.43317
#
# Poissons Ratio (x) = 0.06893 -0.00712
# Poissons Ratio (y) = 0.40523 -0.85482
# Poissons Ratio (z) = -0.00894 -0.18254
#
# Static dielectric constant tensor:
#      x y z
#    x 1.704650 0.000000 0.000000 
#    y 0.000000 1.714900 0.000000 
#    z 0.000000 0.000000 1.744750 
# 
# From -- ./inp_files/20117.got.cif
#   From: 2010.05.17/outbox.cif.g08.bks.cpg/sg58_11_cif.got.tgz:20117.got - 2010.06.03 14:20:14.
