data_PCOD9443299
_publ_section_title
;
Structure prediction by ZEFSAII (Michael W. Deem and Ramdas Pophale) SiO2 
 PCOD9443299
Probable space group: P N N M
;
_chemical_formula_sum "Si O2"
_cell_formula_units_Z 56
_cell_length_a 12.173736
_cell_length_b 15.070545
_cell_length_c 13.837555
_cell_angle_alpha 90.000000
_cell_angle_beta 90.000000
_cell_angle_gamma 90.000000
_cell_volume 2538.704762
_symmetry_space_group_name_H-M "P N N M"
_symmetry_group_IT_number 58
_symmetry_cell_setting 'orthorhombic'
loop_
_space_group_symop_operation_xyz
x,y,z
-x,-y,z
1/2+x,1/2-y,1/2-z
1/2-x,1/2+y,1/2-z
-x,-y,-z
x,y,-z
1/2-x,1/2+y,1/2+z
1/2+x,1/2-y,1/2+z
loop_
_atom_site_type_symbol
_atom_site_label
_atom_site_fract_x
_atom_site_fract_y
_atom_site_fract_z
Si Si1 0.284791 0.643936 0.113835
Si Si2 0.104268 0.936739 0.894866
Si Si3 0.276641 0.444451 0.887200
Si Si4 0.381632 0.785220 0.616265
Si Si5 0.972892 0.137648 0.299867
Si Si6 0.599901 0.807652 0.255592
Si Si7 0.757879 0.398493 0.385850
O O1 0.234815 0.544487 0.123468
O O2 0.402780 0.640318 0.165904
O O3 0.201442 0.706634 0.170732
O O4 0.296782 0.663635 0.000000
O O5 0.060957 0.872208 0.812492
O O6 0.198589 0.007008 0.866247
O O7 0.129074 0.895889 0.000000
O O8 0.000000 0.000000 0.906614
O O9 0.200855 0.364338 0.852008
O O10 0.399058 0.438223 0.846042
O O11 0.287827 0.427998 0.000000
O O12 0.404558 0.792106 0.500000
O O13 0.489587 0.806041 0.680222
O O14 0.323879 0.687734 0.629519
O O15 0.919876 0.231792 0.324504
O O16 0.641387 0.887744 0.187727
O O17 0.785172 0.397143 0.500000
#
# Coordination Sequence:
#
# PCOD9443299 Si02
#       7
#     8   8   8   8   8   8   8
#     4  11  25  42  62  95 130 164 203 257 318 372
#     4  10  20  35  58  86 116 154 201 253 303 355
#     4  10  21  40  65  92 122 160 205 256 314 377
#     4  10  21  38  60  88 121 164 207 250 306 376
#     4  12  23  37  65  92 127 158 208 261 316 367
#     4  12  23  37  61  90 127 166 205 254 308 372
#     4  10  21  40  62  88 125 165 212 258 307 370
#
# _framework density 22.058492000000001
#
# number of rings (size 3 to 8) (size 9 to 14) (size 15 to 20)
#    0.000    1.286    1.429    5.571    0.000    4.571 
#    0.000    2.143    0.000    0.000    0.000    3.000 
#    0.000    0.000    0.000    0.000    0.000    0.000 
#
# Total GULP energy -312248.011294 kJ/mol
# GULP energy per Si atom -5575.857345 kJ/mol
# Density = 2.200829 g / cm^3
# Si number density = 22.058492 Si / 1000 Ang^3
#
#
#
# Elastic Constant Matrix: (Units=GPa)
#
#
# Indices 1 2 3 4 5 6 
#
# 1 111.9693 34.6352 41.5106 0.0000 0.0000 0.0000
# 2 34.6352 41.4005 19.8002 0.0000 0.0000 0.0000
# 3 41.5106 19.8002 84.3785 0.0000 0.0000 0.0000
# 4 0.0000 0.0000 0.0000 51.4715 0.0000 0.0000
# 5 0.0000 0.0000 0.0000 0.0000 33.9067 0.0000
# 6 0.0000 0.0000 0.0000 0.0000 0.0000 38.2624
#
#
#
# Elastic Compliance Matrix: (Units=1/GPa)
#
#
# Indices 1 2 3 4 5 6 
#
# 1 0.013389 -0.009069 -0.004459 0.000000 0.000000 0.000000
# 2 -0.009069 0.033350 -0.003364 0.000000 0.000000 0.000000
# 3 -0.004459 -0.003364 0.014834 0.000000 0.000000 0.000000
# 4 0.000000 0.000000 0.000000 0.019428 0.000000 0.000000
# 5 0.000000 0.000000 0.000000 0.000000 0.029493 0.000000
# 6 0.000000 0.000000 0.000000 0.000000 0.000000 0.026135
#
#
# Mechanical properties :
#
#
# Convention : Reuss Voigt Hill
#
# Bulk Modulus (GPa) = 35.98459 47.73778 41.86119
# Shear Modulus (GPa) = 27.82756 34.18161 31.00459
#
# Velocity S-wave (km/s) = 3.55566 3.94075 3.75315
# Velocity P-wave (km/s) = 5.76244 6.51110 6.14818
#
# Compressibility (1/GPa) = 0.02778967
#
# Stress axis : x y z
#
# Youngs Moduli (GPa) = 74.68642 29.98471 67.41070
#
# Poissons Ratio (x) = 0.27193 0.30058
# Poissons Ratio (y) = 0.67732 0.22680
# Poissons Ratio (z) = 0.33302 0.10088
#
# Static dielectric constant tensor:
#      x y z
#    x 1.837040 0.000000 0.000000 
#    y 0.000000 1.844980 0.000000 
#    z 0.000000 0.000000 1.901530 
# 
# From -- ./inp_files/21246.got.cif
#   From: 2010.05.17/outbox.cif.g08.bks.cpg/sg58_11_cif.got.tgz:21246.got - 2010.06.03 14:20:14.
