data_PCOD9443077
_publ_section_title
;
Structure prediction by ZEFSAII (Michael W. Deem and Ramdas Pophale) SiO2 
 PCOD9443077
Probable space group: P N N M
;
_chemical_formula_sum "Si O2"
_cell_formula_units_Z 56
_cell_length_a 14.655780
_cell_length_b 12.550082
_cell_length_c 14.084149
_cell_angle_alpha 90.000000
_cell_angle_beta 90.000000
_cell_angle_gamma 90.000000
_cell_volume 2590.515001
_symmetry_space_group_name_H-M "P N N M"
_symmetry_group_IT_number 58
_symmetry_cell_setting 'orthorhombic'
loop_
_space_group_symop_operation_xyz
x,y,z
-x,-y,z
1/2+x,1/2-y,1/2-z
1/2-x,1/2+y,1/2-z
-x,-y,-z
x,y,-z
1/2-x,1/2+y,1/2+z
1/2+x,1/2-y,1/2+z
loop_
_atom_site_type_symbol
_atom_site_label
_atom_site_fract_x
_atom_site_fract_y
_atom_site_fract_z
Si Si1 0.613883 0.942844 0.612073
Si Si2 0.760923 0.117863 0.614381
Si Si3 0.506060 0.840312 0.224958
Si Si4 0.342093 0.928237 0.888390
Si Si5 0.554492 0.609930 0.234317
Si Si6 0.820175 0.212934 0.108936
Si Si7 0.803111 0.346225 0.387120
O O1 0.592072 0.956585 0.500000
O O2 0.528954 0.895434 0.673417
O O3 0.678040 0.839038 0.620620
O O4 0.677213 0.041762 0.644944
O O5 0.766141 0.106279 0.500000
O O6 0.861610 0.096523 0.658491
O O7 0.743971 0.243069 0.639042
O O8 0.431695 0.910921 0.172301
O O9 0.487506 0.712876 0.220299
O O10 0.601087 0.841537 0.167092
O O11 0.279458 0.828106 0.869299
O O12 0.278101 0.031365 0.868653
O O13 0.366912 0.933210 0.000000
O O14 0.500000 0.500000 0.242070
O O15 0.608111 0.650764 0.327114
O O16 0.841038 0.188334 0.000000
O O17 0.817968 0.336211 0.500000
#
# Coordination Sequence:
#
# PCOD9443077 Si02
#       7
#     8   8   8   8   8   8   8
#     4   9  19  37  60  86 120 163 208 246 293 357
#     4   9  19  36  59  85 120 159 195 247 300 354
#     4  10  20  34  57  89 123 160 194 251 297 354
#     4  10  20  35  61  91 120 155 199 246 307 366
#     4  10  22  37  56  89 124 158 200 248 301 361
#     4   9  20  38  60  89 120 157 203 251 298 356
#     4   9  18  34  55  85 120 151 188 242 305 354
#
# _framework density 21.617322999999999
#
# number of rings (size 3 to 8) (size 9 to 14) (size 15 to 20)
#    0.000    2.571    0.000    0.857    4.000    2.286 
#    0.000    0.000    3.143    2.571    0.000    0.000 
#    0.000    0.000    0.000    0.000    0.000    0.000 
#
# Total GULP energy -312157.088885 kJ/mol
# GULP energy per Si atom -5574.233730 kJ/mol
# Density = 2.156812 g / cm^3
# Si number density = 21.617323 Si / 1000 Ang^3
#
#
#
# Elastic Constant Matrix: (Units=GPa)
#
#
# Indices 1 2 3 4 5 6 
#
# 1 69.0582 58.9602 31.7302 0.0000 0.0000 0.0000
# 2 58.9602 226.7812 84.5597 0.0000 0.0000 0.0000
# 3 31.7302 84.5597 86.6386 0.0000 0.0000 0.0000
# 4 0.0000 0.0000 0.0000 21.9362 0.0000 0.0000
# 5 0.0000 0.0000 0.0000 0.0000 16.2303 0.0000
# 6 0.0000 0.0000 0.0000 0.0000 0.0000 30.9690
#
#
#
# Elastic Compliance Matrix: (Units=1/GPa)
#
#
# Indices 1 2 3 4 5 6 
#
# 1 0.019229 -0.003731 -0.003401 0.000000 0.000000 0.000000
# 2 -0.003731 0.007656 -0.006106 0.000000 0.000000 0.000000
# 3 -0.003401 -0.006106 0.018747 0.000000 0.000000 0.000000
# 4 0.000000 0.000000 0.000000 0.045587 0.000000 0.000000
# 5 0.000000 0.000000 0.000000 0.000000 0.061613 0.000000
# 6 0.000000 0.000000 0.000000 0.000000 0.000000 0.032290
#
#
# Mechanical properties :
#
#
# Convention : Reuss Voigt Hill
#
# Bulk Modulus (GPa) = 52.20183 81.44203 66.82193
# Shear Modulus (GPa) = 22.93748 27.64230 25.28989
#
# Velocity S-wave (km/s) = 3.26094 3.57979 3.42408
# Velocity P-wave (km/s) = 6.19507 7.40559 6.82721
#
# Compressibility (1/GPa) = 0.01915642
#
# Stress axis : x y z
#
# Youngs Moduli (GPa) = 52.00576 130.60941 53.34117
#
# Poissons Ratio (x) = 0.48734 0.18139
# Poissons Ratio (y) = 0.19405 0.32571
# Poissons Ratio (z) = 0.17685 0.79752
#
# Static dielectric constant tensor:
#      x y z
#    x 1.735580 0.000000 0.000000 
#    y 0.000000 1.887330 0.000000 
#    z 0.000000 0.000000 1.840850 
# 
# From -- ./inp_files/22213.got.cif
#   From: 2010.05.17/outbox.cif.g08.bks.cpg/sg58_12_cif.got.tgz:22213.got - 2010.06.03 14:20:14.
