data_PCOD9443417
_publ_section_title
;
Structure prediction by ZEFSAII (Michael W. Deem and Ramdas Pophale) SiO2 
 PCOD9443417
Probable space group: P N N M
;
_chemical_formula_sum "Si O2"
_cell_formula_units_Z 32
_cell_length_a 17.322176
_cell_length_b 5.264121
_cell_length_c 14.542176
_cell_angle_alpha 90.000000
_cell_angle_beta 90.000000
_cell_angle_gamma 90.000000
_cell_volume 1326.043304
_symmetry_space_group_name_H-M "P N N M"
_symmetry_group_IT_number 58
_symmetry_cell_setting 'orthorhombic'
loop_
_space_group_symop_operation_xyz
x,y,z
-x,-y,z
1/2+x,1/2-y,1/2-z
1/2-x,1/2+y,1/2-z
-x,-y,-z
x,y,-z
1/2-x,1/2+y,1/2+z
1/2+x,1/2-y,1/2+z
loop_
_atom_site_type_symbol
_atom_site_label
_atom_site_fract_x
_atom_site_fract_y
_atom_site_fract_z
Si Si1 0.584736 0.412767 0.111673
Si Si2 0.214845 0.873101 0.200593
Si Si3 0.051611 0.747037 0.890857
Si Si4 0.345135 0.079323 0.895555
O O1 0.500000 0.500000 0.136741
O O2 0.602078 0.135395 0.150429
O O3 0.642279 0.638202 0.141873
O O4 0.588730 0.389073 0.000000
O O5 0.257187 0.628320 0.244861
O O6 0.129361 0.795821 0.167702
O O7 0.261664 0.952953 0.107489
O O8 0.000000 0.500000 0.864798
O O9 0.071137 0.715853 0.000000
O O10 0.000000 0.000000 0.881566
O O11 0.371570 0.108074 0.000000
#
# Coordination Sequence:
#
# PCOD9443417 Si02
#       4
#     8   8   8   8
#     4   9  17  31  53  81 112 146 192 244 284 337
#     4  12  25  42  62  93 134 167 204 267 345 410
#     4  10  22  44  74 101 128 172 232 289 333 388
#     4  10  20  36  58  82 112 158 209 253 304 375
#
# _framework density 24.13194
#
# number of rings (size 3 to 8) (size 9 to 14) (size 15 to 20)
#    0.000    1.750    0.000    4.500    0.000    3.000 
#    0.000   22.500    0.000    0.000    0.000    0.000 
#    0.000    3.000    0.000    0.000    0.000    0.000 
#
# Total GULP energy -178487.150154 kJ/mol
# GULP energy per Si atom -5577.723442 kJ/mol
# Density = 2.407701 g / cm^3
# Si number density = 24.131940 Si / 1000 Ang^3
#
#
#
# Elastic Constant Matrix: (Units=GPa)
#
#
# Indices 1 2 3 4 5 6 
#
# 1 103.1078 42.0074 30.4890 0.0000 0.0000 0.0000
# 2 42.0074 167.7904 39.4609 0.0000 0.0000 0.0000
# 3 30.4890 39.4609 82.0077 0.0000 0.0000 0.0000
# 4 0.0000 0.0000 0.0000 26.6234 0.0000 0.0000
# 5 0.0000 0.0000 0.0000 0.0000 16.4818 0.0000
# 6 0.0000 0.0000 0.0000 0.0000 0.0000 37.1316
#
#
#
# Elastic Compliance Matrix: (Units=1/GPa)
#
#
# Indices 1 2 3 4 5 6 
#
# 1 0.011527 -0.002118 -0.003267 0.000000 0.000000 0.000000
# 2 -0.002118 0.007109 -0.002634 0.000000 0.000000 0.000000
# 3 -0.003267 -0.002634 0.014676 0.000000 0.000000 0.000000
# 4 0.000000 0.000000 0.000000 0.037561 0.000000 0.000000
# 5 0.000000 0.000000 0.000000 0.000000 0.060673 0.000000
# 6 0.000000 0.000000 0.000000 0.000000 0.000000 0.026931
#
#
# Mechanical properties :
#
#
# Convention : Reuss Voigt Hill
#
# Bulk Modulus (GPa) = 57.88208 64.09117 60.98662
# Shear Modulus (GPa) = 27.73585 32.11061 29.92323
#
# Velocity S-wave (km/s) = 3.39387 3.65173 3.52516
# Velocity P-wave (km/s) = 6.27659 6.66307 6.47272
#
# Compressibility (1/GPa) = 0.01727650
#
# Stress axis : x y z
#
# Youngs Moduli (GPa) = 86.75052 140.65961 68.13980
#
# Poissons Ratio (x) = 0.29787 0.22259
# Poissons Ratio (y) = 0.18371 0.17945
# Poissons Ratio (z) = 0.28338 0.37044
#
# Static dielectric constant tensor:
#      x y z
#    x 1.966530 0.000000 0.000000 
#    y 0.000000 1.899890 0.000000 
#    z 0.000000 0.000000 2.002560 
# 
# From -- ./inp_files/26545.got.cif
#   From: 2010.05.17/outbox.cif.g08.bks.cpg/sg58_14_cif.got.tgz:26545.got - 2010.06.03 14:20:14.
