data_PCOD9443472
_publ_section_title
;
Structure prediction by ZEFSAII (Michael W. Deem and Ramdas Pophale) SiO2 
 PCOD9443472
Probable space group: P N N M
;
_chemical_formula_sum "Si O2"
_cell_formula_units_Z 64
_cell_length_a 28.830934
_cell_length_b 12.702833
_cell_length_c 8.922215
_cell_angle_alpha 90.000000
_cell_angle_beta 90.000000
_cell_angle_gamma 90.000000
_cell_volume 3267.623305
_symmetry_space_group_name_H-M "P N N M"
_symmetry_group_IT_number 58
_symmetry_cell_setting 'orthorhombic'
loop_
_space_group_symop_operation_xyz
x,y,z
-x,-y,z
1/2+x,1/2-y,1/2-z
1/2-x,1/2+y,1/2-z
-x,-y,-z
x,y,-z
1/2-x,1/2+y,1/2+z
1/2+x,1/2-y,1/2+z
loop_
_atom_site_type_symbol
_atom_site_label
_atom_site_fract_x
_atom_site_fract_y
_atom_site_fract_z
Si Si1 0.817545 0.138068 0.820174
Si Si2 0.714948 0.205223 0.182998
Si Si3 0.945784 0.006277 0.835822
Si Si4 0.913547 0.808843 0.336036
Si Si5 0.550479 0.949839 0.819827
Si Si6 0.910819 0.239681 0.180218
Si Si7 0.315325 0.580525 0.166591
Si Si8 0.879776 0.614974 0.177351
O O1 0.764670 0.158626 0.773973
O O2 0.856776 0.222578 0.772460
O O3 0.827912 0.021144 0.761055
O O4 0.819187 0.137908 0.000000
O O5 0.718043 0.329045 0.229778
O O6 0.671084 0.143298 0.253966
O O7 0.710787 0.202137 0.000000
O O8 0.931849 0.123790 0.790366
O O9 0.936782 0.914570 0.718969
O O10 0.923152 0.984804 0.000000
O O11 0.000000 0.000000 0.855596
O O12 0.929753 0.772072 0.500000
O O13 0.860856 0.847973 0.348528
O O14 0.912358 0.715293 0.217622
O O15 0.592981 0.018812 0.753490
O O16 0.500000 0.000000 0.775823
O O17 0.560630 0.831953 0.759929
O O18 0.552261 0.951048 0.000000
O O19 0.912525 0.257702 0.000000
O O20 0.300138 0.547007 0.000000
O O21 0.875716 0.600161 0.000000
#
# Coordination Sequence:
#
# PCOD9443472 Si02
#       8
#     8   8   8   8   8   8   8   8
#     4  10  20  36  60  87 121 159 198 249 307 365
#     4   9  20  38  58  86 122 160 202 253 310 369
#     4  10  21  36  57  90 126 158 196 247 303 361
#     4  10  20  36  59  86 118 154 194 244 301 357
#     4  11  26  46  66  90 124 167 215 265 317 377
#     4  10  22  40  61  91 129 164 205 254 307 369
#     4   9  18  33  53  79 114 151 191 241 297 357
#     4  11  23  40  64  90 119 158 207 259 312 369
#
# _framework density 19.586100999999999
#
# number of rings (size 3 to 8) (size 9 to 14) (size 15 to 20)
#    0.000    2.000    1.250    2.625    1.750    5.750 
#    0.000    1.250    0.000    0.000    0.000    0.000 
#    0.000    0.000    0.000    0.000    0.000    0.000 
#
# Total GULP energy -356466.156286 kJ/mol
# GULP energy per Si atom -5569.783692 kJ/mol
# Density = 1.954152 g / cm^3
# Si number density = 19.586101 Si / 1000 Ang^3
#
#
#
# Elastic Constant Matrix: (Units=GPa)
#
#
# Indices 1 2 3 4 5 6 
#
# 1 84.1987 16.2882 23.1163 0.0000 0.0000 0.0000
# 2 16.2882 35.7243 2.8346 0.0000 0.0000 0.0000
# 3 23.1163 2.8346 41.9420 0.0000 0.0000 0.0000
# 4 0.0000 0.0000 0.0000 30.7455 0.0000 0.0000
# 5 0.0000 0.0000 0.0000 0.0000 17.8073 0.0000
# 6 0.0000 0.0000 0.0000 0.0000 0.0000 21.9781
#
#
#
# Elastic Compliance Matrix: (Units=1/GPa)
#
#
# Indices 1 2 3 4 5 6 
#
# 1 0.015301 -0.006341 -0.008005 0.000000 0.000000 0.000000
# 2 -0.006341 0.030771 0.001415 0.000000 0.000000 0.000000
# 3 -0.008005 0.001415 0.028159 0.000000 0.000000 0.000000
# 4 0.000000 0.000000 0.000000 0.032525 0.000000 0.000000
# 5 0.000000 0.000000 0.000000 0.000000 0.056157 0.000000
# 6 0.000000 0.000000 0.000000 0.000000 0.000000 0.045500
#
#
# Mechanical properties :
#
#
# Convention : Reuss Voigt Hill
#
# Bulk Modulus (GPa) = 20.67414 27.37149 24.02281
# Shear Modulus (GPa) = 19.96833 22.08124 21.02478
#
# Velocity S-wave (km/s) = 3.19645 3.36131 3.27992
# Velocity P-wave (km/s) = 4.91950 5.39165 5.16097
#
# Compressibility (1/GPa) = 0.04836961
#
# Stress axis : x y z
#
# Youngs Moduli (GPa) = 65.35525 32.49809 35.51320
#
# Poissons Ratio (x) = 0.20608 0.28427
# Poissons Ratio (y) = 0.41443 -0.05026
# Poissons Ratio (z) = 0.52314 -0.04600
#
# Static dielectric constant tensor:
#      x y z
#    x 2.224980 0.000000 0.000000 
#    y 0.000000 1.219700 0.000000 
#    z 0.000000 0.000000 1.740470 
# 
# From -- ./inp_files/10956.got.cif
#   From: 2010.05.17/outbox.cif.g08.bks.cpg/sg58_6_cif.got.tgz:10956.got - 2010.06.03 14:20:14.
