data_PCOD9443045
_publ_section_title
;
Structure prediction by ZEFSAII (Michael W. Deem and Ramdas Pophale) SiO2 
 PCOD9443045
Probable space group: P N N M
;
_chemical_formula_sum "Si O2"
_cell_formula_units_Z 52
_cell_length_a 8.334284
_cell_length_b 11.985562
_cell_length_c 20.713617
_cell_angle_alpha 90.000000
_cell_angle_beta 90.000000
_cell_angle_gamma 90.000000
_cell_volume 2069.105523
_symmetry_space_group_name_H-M "P N N M"
_symmetry_group_IT_number 58
_symmetry_cell_setting 'orthorhombic'
loop_
_space_group_symop_operation_xyz
x,y,z
-x,-y,z
1/2+x,1/2-y,1/2-z
1/2-x,1/2+y,1/2-z
-x,-y,-z
x,y,-z
1/2-x,1/2+y,1/2+z
1/2+x,1/2-y,1/2+z
loop_
_atom_site_type_symbol
_atom_site_label
_atom_site_fract_x
_atom_site_fract_y
_atom_site_fract_z
Si Si1 0.307558 0.294776 0.885188
Si Si2 0.244201 0.094461 0.711560
Si Si3 0.681651 0.963706 0.845976
Si Si4 0.841408 0.875967 0.575018
Si Si5 0.103493 0.230314 0.000000
Si Si6 0.622839 0.658968 0.395777
Si Si7 0.438217 0.773060 0.717811
O O1 0.329508 0.161051 0.874089
O O2 0.474375 0.346672 0.908664
O O3 0.182155 0.308172 0.942968
O O4 0.217120 0.323305 0.818411
O O5 0.221358 0.028367 0.777991
O O6 0.216771 0.054077 0.638377
O O7 0.427017 0.133800 0.723598
O O8 0.128063 0.203997 0.721374
O O9 0.500000 0.000000 0.837212
O O10 0.767137 0.052018 0.891775
O O11 0.827609 0.914780 0.500000
O O12 0.729594 0.765503 0.581295
O O13 0.019994 0.152284 0.945232
O O14 0.534138 0.688553 0.328991
#
# Coordination Sequence:
#
# PCOD9443045 Si02
#       7
#     8   8   8   8   4   8   8
#     4  10  20  34  56  83 115 158 195 237 285 354
#     4  10  21  36  57  83 114 153 197 248 289 344
#     4  11  22  36  55  83 120 157 200 237 298 349
#     4  11  20  38  60  85 114 153 197 243 297 353
#     4  10  20  35  50  86 124 158 191 227 286 353
#     4  10  21  35  57  84 119 158 192 238 287 360
#     4   9  20  34  57  81 113 151 199 243 286 337
#
# _framework density 25.131630999999999
#
# number of rings (size 3 to 8) (size 9 to 14) (size 15 to 20)
#    0.000    1.846    3.077    1.846    2.154    6.769 
#    0.000    1.538    0.000    0.462    0.000    2.154 
#    0.000    0.000    0.000    0.000    0.000    0.000 
#
# Total GULP energy -289529.028887 kJ/mol
# GULP energy per Si atom -5567.865940 kJ/mol
# Density = 2.507443 g / cm^3
# Si number density = 25.131631 Si / 1000 Ang^3
#
#
#
# Elastic Constant Matrix: (Units=GPa)
#
#
# Indices 1 2 3 4 5 6 
#
# 1 104.7683 15.1033 13.5228 0.0000 0.0000 0.0000
# 2 15.1033 42.4692 -12.6765 0.0000 0.0000 0.0000
# 3 13.5228 -12.6765 107.6327 0.0000 0.0000 0.0000
# 4 0.0000 0.0000 0.0000 21.9342 0.0000 0.0000
# 5 0.0000 0.0000 0.0000 0.0000 -45.4306 0.0000
# 6 0.0000 0.0000 0.0000 0.0000 0.0000 16.9281
#
#
#
# Elastic Compliance Matrix: (Units=1/GPa)
#
#
# Indices 1 2 3 4 5 6 
#
# 1 0.010388 -0.004233 -0.001804 0.000000 0.000000 0.000000
# 2 -0.004233 0.026129 0.003609 0.000000 0.000000 0.000000
# 3 -0.001804 0.003609 0.009943 0.000000 0.000000 0.000000
# 4 0.000000 0.000000 0.000000 0.045591 0.000000 0.000000
# 5 0.000000 0.000000 0.000000 0.000000 -0.022012 0.000000
# 6 0.000000 0.000000 0.000000 0.000000 0.000000 0.059073
#
#
# Mechanical properties :
#
#
# Convention : Reuss Voigt Hill
#
# Bulk Modulus (GPa) = 24.03544 31.86328 27.94936
# Shear Modulus (GPa) = 33.82161 14.61438 24.21800
#
# Velocity S-wave (km/s) = 3.67247 2.41407 3.10763
# Velocity P-wave (km/s) = 5.25045 4.52509 4.90121
#
# Compressibility (1/GPa) = 0.04160523
#
# Stress axis : x y z
#
# Youngs Moduli (GPa) = 96.26650 38.27168 100.57812
#
# Poissons Ratio (x) = 0.16199 0.18140
# Poissons Ratio (y) = 0.40745 -0.36300
# Poissons Ratio (z) = 0.17363 -0.13813
#
# Static dielectric constant tensor:
#      x y z
#    x 2.003160 0.000000 0.000000 
#    y 0.000000 2.050220 0.000000 
#    z 0.000000 0.000000 1.722080 
# 
# From -- ./inp_files/28900.got.cif
#   From: 2010.05.17/outbox.cif.g08.bks.cpg/sg58_15_cif.got.tgz:28900.got - 2010.06.03 14:20:14.
