data_PCOD9443495
_publ_section_title
;
Structure prediction by ZEFSAII (Michael W. Deem and Ramdas Pophale) SiO2 
 PCOD9443495
Probable space group: P N N M
;
_chemical_formula_sum "Si O2"
_cell_formula_units_Z 64
_cell_length_a 29.799187
_cell_length_b 11.896042
_cell_length_c 9.119790
_cell_angle_alpha 90.000000
_cell_angle_beta 90.000000
_cell_angle_gamma 90.000000
_cell_volume 3232.896063
_symmetry_space_group_name_H-M "P N N M"
_symmetry_group_IT_number 58
_symmetry_cell_setting 'orthorhombic'
loop_
_space_group_symop_operation_xyz
x,y,z
-x,-y,z
1/2+x,1/2-y,1/2-z
1/2-x,1/2+y,1/2-z
-x,-y,-z
x,y,-z
1/2-x,1/2+y,1/2+z
1/2+x,1/2-y,1/2+z
loop_
_atom_site_type_symbol
_atom_site_label
_atom_site_fract_x
_atom_site_fract_y
_atom_site_fract_z
Si Si1 0.726809 0.507639 0.822474
Si Si2 0.016599 0.286271 0.329148
Si Si3 0.333530 0.305594 0.673041
Si Si4 0.065071 0.043803 0.670539
Si Si5 0.844243 0.835356 0.323008
Si Si6 0.675355 0.955190 0.673014
Si Si7 0.562412 0.682151 0.325711
Si Si8 0.892120 0.607297 0.322563
O O1 0.697378 0.609186 0.761365
O O2 0.702122 0.391496 0.774460
O O3 0.778451 0.512510 0.774888
O O4 0.726303 0.508995 0.000000
O O5 0.007462 0.309819 0.500000
O O6 0.039035 0.161725 0.320141
O O7 0.056352 0.369125 0.277422
O O8 0.970558 0.274919 0.242154
O O9 0.331934 0.335495 0.500000
O O10 0.317784 0.177652 0.688916
O O11 0.385677 0.306348 0.719733
O O12 0.063167 0.007686 0.500000
O O13 0.116081 0.076275 0.711232
O O14 0.048769 0.941666 0.768778
O O15 0.842922 0.827128 0.500000
O O16 0.861496 0.714026 0.271608
O O17 0.668947 0.978268 0.500000
O O18 0.632196 0.999292 0.758678
O O19 0.559762 0.687717 0.500000
O O20 0.892132 0.606242 0.500000
#
# Coordination Sequence:
#
# PCOD9443495 Si02
#       8
#     8   8   8   8   8   8   8   8
#     4  10  20  36  60  85 107 140 187 229 274 333
#     4   9  19  34  54  80 109 146 189 229 278 334
#     4  10  23  41  57  80 117 153 185 227 283 339
#     4   9  16  30  51  75 108 146 179 219 272 328
#     4   8  15  30  54  81 107 139 177 221 272 324
#     4  10  23  40  58  81 112 148 185 229 281 333
#     4  11  21  32  50  79 112 148 187 228 279 333
#     4   9  19  37  60  83 109 145 191 233 275 329
#
# _framework density 19.796491
#
# number of rings (size 3 to 8) (size 9 to 14) (size 15 to 20)
#    0.000    2.500    1.250    2.250    1.750    4.000 
#    0.000    3.125    0.000    3.750    0.000    0.000 
#    0.000    0.000    0.000    0.000    0.000    0.000 
#
# Total GULP energy -356989.858503 kJ/mol
# GULP energy per Si atom -5577.966539 kJ/mol
# Density = 1.975143 g / cm^3
# Si number density = 19.796491 Si / 1000 Ang^3
#
#
#
# Elastic Constant Matrix: (Units=GPa)
#
#
# Indices 1 2 3 4 5 6 
#
# 1 79.1314 -3.0268 21.5300 0.0000 0.0000 0.0000
# 2 -3.0268 8.3881 1.2103 0.0000 0.0000 0.0000
# 3 21.5300 1.2103 14.9997 0.0000 0.0000 0.0000
# 4 0.0000 0.0000 0.0000 18.2536 0.0000 0.0000
# 5 0.0000 0.0000 0.0000 0.0000 25.5766 0.0000
# 6 0.0000 0.0000 0.0000 0.0000 0.0000 18.4729
#
#
#
# Elastic Compliance Matrix: (Units=1/GPa)
#
#
# Indices 1 2 3 4 5 6 
#
# 1 0.021983 0.012632 -0.032573 0.000000 0.000000 0.000000
# 2 0.012632 0.127880 -0.028450 0.000000 0.000000 0.000000
# 3 -0.032573 -0.028450 0.115717 0.000000 0.000000 0.000000
# 4 0.000000 0.000000 0.000000 0.054784 0.000000 0.000000
# 5 0.000000 0.000000 0.000000 0.000000 0.039098 0.000000
# 6 0.000000 0.000000 0.000000 0.000000 0.000000 0.054133
#
#
# Mechanical properties :
#
#
# Convention : Reuss Voigt Hill
#
# Bulk Modulus (GPa) = 5.92424 15.77181 10.84802
# Shear Modulus (GPa) = 8.82390 17.98099 13.40245
#
# Velocity S-wave (km/s) = 2.11352 3.01706 2.60477
# Velocity P-wave (km/s) = 2.99250 4.48566 3.81288
#
# Compressibility (1/GPa) = 0.16879812
#
# Stress axis : x y z
#
# Youngs Moduli (GPa) = 45.49029 7.81985 8.64175
#
# Poissons Ratio (x) = -0.09878 0.28148
# Poissons Ratio (y) = -0.57464 0.24586
# Poissons Ratio (z) = 1.48173 0.22248
#
# Static dielectric constant tensor:
#      x y z
#    x 1.737600 0.000000 0.000000 
#    y 0.000000 1.699170 0.000000 
#    z 0.000000 0.000000 1.662310 
# 
# From -- ./inp_files/10963.got.cif
#   From: 2010.05.17/outbox.cif.g08.bks.cpg/sg58_6_cif.got.tgz:10963.got - 2010.06.03 14:20:14.
