data_PCOD9443931
_publ_section_title
;
Structure prediction by ZEFSAII (Michael W. Deem and Ramdas Pophale) SiO2 
 PCOD9443931
Probable space group: P N N M
;
_chemical_formula_sum "Si O2"
_cell_formula_units_Z 40
_cell_length_a 10.565122
_cell_length_b 23.671058
_cell_length_c 8.482738
_cell_angle_alpha 90.000000
_cell_angle_beta 90.000000
_cell_angle_gamma 90.000000
_cell_volume 2121.427721
_symmetry_space_group_name_H-M "P N N M"
_symmetry_group_IT_number 58
_symmetry_cell_setting 'orthorhombic'
loop_
_space_group_symop_operation_xyz
x,y,z
-x,-y,z
1/2+x,1/2-y,1/2-z
1/2-x,1/2+y,1/2-z
-x,-y,-z
x,y,-z
1/2-x,1/2+y,1/2+z
1/2+x,1/2-y,1/2+z
loop_
_atom_site_type_symbol
_atom_site_label
_atom_site_fract_x
_atom_site_fract_y
_atom_site_fract_z
Si Si1 0.000970 0.693157 0.809340
Si Si2 0.254844 0.121097 0.309466
Si Si3 0.501547 0.676550 0.309534
Si Si4 0.647652 0.001099 0.309440
Si Si5 0.764403 0.620819 0.688810
O O1 0.999188 0.758152 0.756382
O O2 0.879463 0.659126 0.750354
O O3 0.129009 0.661270 0.758352
O O4 0.999272 0.692278 0.000000
O O5 0.252413 0.121777 0.500000
O O6 0.122608 0.144257 0.247748
O O7 0.285990 0.057089 0.259243
O O8 0.501776 0.676805 0.500000
O O9 0.630442 0.646194 0.256063
O O10 0.649439 0.003384 0.500000
O O11 0.713453 0.057067 0.245444
O O12 0.500000 0.000000 0.260866
O O13 0.765910 0.622137 0.500000
#
# Coordination Sequence:
#
# PCOD9443931 Si02
#       5
#     8   8   8   8   8
#     4  10  20  39  62  83 113 155 197 235 279 340
#     4  10  21  38  62  86 112 150 196 240 281 336
#     4  10  23  39  56  84 122 155 186 233 292 342
#     4  10  20  39  63  84 111 151 195 238 284 340
#     4  11  23  38  59  88 119 151 189 238 289 339
#
# _framework density 18.855228
#
# number of rings (size 3 to 8) (size 9 to 14) (size 15 to 20)
#    0.000    1.800    2.000    1.800    0.000    6.800 
#    0.000    4.000    0.000    0.000    0.000    0.000 
#    0.000    0.000    0.000    0.000    0.000    0.000 
#
# Total GULP energy -223503.449201 kJ/mol
# GULP energy per Si atom -5587.586230 kJ/mol
# Density = 1.881231 g / cm^3
# Si number density = 18.855228 Si / 1000 Ang^3
#
#
#
# Elastic Constant Matrix: (Units=GPa)
#
#
# Indices 1 2 3 4 5 6 
#
# 1 200.6368 126.0405 23.9453 0.0000 0.0000 0.0000
# 2 126.0405 218.3837 28.9413 0.0000 0.0000 0.0000
# 3 23.9453 28.9413 7.4245 0.0000 0.0000 0.0000
# 4 0.0000 0.0000 0.0000 25.6499 0.0000 0.0000
# 5 0.0000 0.0000 0.0000 0.0000 44.3788 0.0000
# 6 0.0000 0.0000 0.0000 0.0000 0.0000 -0.4565
#
#
#
# Elastic Compliance Matrix: (Units=1/GPa)
#
#
# Indices 1 2 3 4 5 6 
#
# 1 0.008828 -0.002734 -0.017812 0.000000 0.000000 0.000000
# 2 -0.002734 0.010320 -0.031408 0.000000 0.000000 0.000000
# 3 -0.017812 -0.031408 0.314568 0.000000 0.000000 0.000000
# 4 0.000000 0.000000 0.000000 0.038986 0.000000 0.000000
# 5 0.000000 0.000000 0.000000 0.000000 0.022533 0.000000
# 6 0.000000 0.000000 0.000000 0.000000 0.000000 -2.190726
#
#
# Mechanical properties :
#
#
# Convention : Reuss Voigt Hill
#
# Bulk Modulus (GPa) = 4.35149 87.14435 45.74792
# Shear Modulus (GPa) = -3.09601 30.41564 13.65981
#
# Velocity S-wave (km/s) = -1.28279 4.02072 2.69450
# Velocity P-wave (km/s) = 0.34464 8.23850 5.83059
#
# Compressibility (1/GPa) = 0.22980631
#
# Stress axis : x y z
#
# Youngs Moduli (GPa) = 113.28008 96.90353 3.17897
#
# Poissons Ratio (x) = 0.26497 0.05662
# Poissons Ratio (y) = 0.30975 0.09984
# Poissons Ratio (z) = 2.01776 3.04352
#
# Static dielectric constant tensor:
#      x y z
#    x 1.615310 0.000000 0.000000 
#    y 0.000000 1.636380 0.000000 
#    z 0.000000 0.000000 1.653880 
# 
# From -- ./inp_files/2415.got.cif
#   From: 2010.05.17/outbox.cif.g08.bks.cpg/sg58_2_cif.got.tgz:2415.got - 2010.06.03 14:20:14.
