data_PCOD9443390
_publ_section_title
;
Structure prediction by ZEFSAII (Michael W. Deem and Ramdas Pophale) SiO2 
 PCOD9443390
Probable space group: P N N M
;
_chemical_formula_sum "Si O2"
_cell_formula_units_Z 58
_cell_length_a 23.638290
_cell_length_b 15.562601
_cell_length_c 8.743360
_cell_angle_alpha 90.000000
_cell_angle_beta 90.000000
_cell_angle_gamma 90.000000
_cell_volume 3216.448483
_symmetry_space_group_name_H-M "P N N M"
_symmetry_group_IT_number 58
_symmetry_cell_setting 'orthorhombic'
loop_
_space_group_symop_operation_xyz
x,y,z
-x,-y,z
1/2+x,1/2-y,1/2-z
1/2-x,1/2+y,1/2-z
-x,-y,-z
x,y,-z
1/2-x,1/2+y,1/2+z
1/2+x,1/2-y,1/2+z
loop_
_atom_site_type_symbol
_atom_site_label
_atom_site_fract_x
_atom_site_fract_y
_atom_site_fract_z
Si Si1 0.703248 0.587378 0.684251
Si Si2 0.500000 0.000000 0.500000
Si Si3 0.261596 0.732686 0.182340
Si Si4 0.618280 0.234957 0.684561
Si Si5 0.971038 0.875995 0.184247
Si Si6 0.290928 0.065088 0.818828
Si Si7 0.919164 0.050264 0.682458
Si Si8 0.386228 0.960637 0.330083
O O1 0.695013 0.588202 0.500000
O O2 0.733662 0.676447 0.728268
O O3 0.744303 0.507664 0.721055
O O4 0.643028 0.576606 0.764335
O O5 0.450208 0.986508 0.369174
O O6 0.323546 0.725256 0.255942
O O7 0.223745 0.653075 0.234559
O O8 0.267464 0.732930 0.000000
O O9 0.618591 0.234892 0.500000
O O10 0.564488 0.292117 0.730236
O O11 0.615252 0.135879 0.734989
O O12 0.032889 0.883953 0.257960
O O13 0.936432 0.959449 0.240990
O O14 0.975954 0.878903 0.000000
O O15 0.351152 0.026318 0.770901
O O16 0.288290 0.079080 0.000000
O O17 0.922480 0.042481 0.500000
O O18 0.357657 0.958267 0.500000
#
# Coordination Sequence:
#
# PCOD9443390 Si02
#       8
#     8   2   8   8   8   8   8   8
#     4  10  22  40  58  82 119 158 193 237 300 370
#     4   8  20  40  66  88 116 158 214 242 304 368
#     4  11  23  38  59  90 120 157 201 244 308 372
#     4  10  20  36  60  88 115 152 200 255 298 359
#     4  10  20  36  57  81 114 157 200 237 297 364
#     4  11  22  39  62  90 123 159 200 253 311 364
#     4  11  22  36  55  83 117 154 196 249 300 352
#     4   9  19  39  62  86 117 155 202 249 302 360
#
# _framework density 18.032312000000001
#
# number of rings (size 3 to 8) (size 9 to 14) (size 15 to 20)
#    0.414    1.379    1.379    4.138    0.000    6.621 
#    2.483    0.345    0.000    0.000    0.000    0.000 
#    0.000    0.000    0.000    0.000    0.000    0.000 
#
# Total GULP energy -323150.696027 kJ/mol
# GULP energy per Si atom -5571.563725 kJ/mol
# Density = 1.799127 g / cm^3
# Si number density = 18.032312 Si / 1000 Ang^3
#
#
#
# Elastic Constant Matrix: (Units=GPa)
#
#
# Indices 1 2 3 4 5 6 
#
# 1 91.7874 7.1361 10.6234 0.0000 0.0000 0.0000
# 2 7.1361 42.5290 3.5243 0.0000 0.0000 0.0000
# 3 10.6234 3.5243 22.7730 0.0000 0.0000 0.0000
# 4 0.0000 0.0000 0.0000 16.3742 0.0000 0.0000
# 5 0.0000 0.0000 0.0000 0.0000 17.9306 0.0000
# 6 0.0000 0.0000 0.0000 0.0000 0.0000 26.6290
#
#
#
# Elastic Compliance Matrix: (Units=1/GPa)
#
#
# Indices 1 2 3 4 5 6 
#
# 1 0.011613 -0.001519 -0.005182 0.000000 0.000000 0.000000
# 2 -0.001519 0.024018 -0.003008 0.000000 0.000000 0.000000
# 3 -0.005182 -0.003008 0.046795 0.000000 0.000000 0.000000
# 4 0.000000 0.000000 0.000000 0.061072 0.000000 0.000000
# 5 0.000000 0.000000 0.000000 0.000000 0.055771 0.000000
# 6 0.000000 0.000000 0.000000 0.000000 0.000000 0.037553
#
#
# Mechanical properties :
#
#
# Convention : Reuss Voigt Hill
#
# Bulk Modulus (GPa) = 15.87154 22.18411 19.02783
# Shear Modulus (GPa) = 18.03484 21.24046 19.63765
#
# Velocity S-wave (km/s) = 3.16593 3.43579 3.30362
# Velocity P-wave (km/s) = 4.71009 5.29799 5.01267
#
# Compressibility (1/GPa) = 0.06300584
#
# Stress axis : x y z
#
# Youngs Moduli (GPa) = 86.11319 41.63619 21.36996
#
# Poissons Ratio (x) = 0.06325 0.11074
# Poissons Ratio (y) = 0.13081 0.06429
# Poissons Ratio (z) = 0.44625 0.12525
#
# Static dielectric constant tensor:
#      x y z
#    x 1.593610 0.000000 0.000000 
#    y 0.000000 1.622280 0.000000 
#    z 0.000000 0.000000 1.614920 
# 
# From -- ./inp_files/9870.got.cif
#   From: 2010.05.17/outbox.cif.g08.bks.cpg/sg58_5_cif.got.tgz:9870.got - 2010.06.03 14:20:14.
