data_PCOD9443669
_publ_section_title
;
Structure prediction by ZEFSAII (Michael W. Deem and Ramdas Pophale) SiO2 
 PCOD9443669
Probable space group: P N N M
;
_chemical_formula_sum "Si O2"
_cell_formula_units_Z 58
_cell_length_a 17.855801
_cell_length_b 19.376534
_cell_length_c 7.849906
_cell_angle_alpha 90.000000
_cell_angle_beta 90.000000
_cell_angle_gamma 90.000000
_cell_volume 2715.938229
_symmetry_space_group_name_H-M "P N N M"
_symmetry_group_IT_number 58
_symmetry_cell_setting 'orthorhombic'
loop_
_space_group_symop_operation_xyz
x,y,z
-x,-y,z
1/2+x,1/2-y,1/2-z
1/2-x,1/2+y,1/2-z
-x,-y,-z
x,y,-z
1/2-x,1/2+y,1/2+z
1/2+x,1/2-y,1/2+z
loop_
_atom_site_type_symbol
_atom_site_label
_atom_site_fract_x
_atom_site_fract_y
_atom_site_fract_z
Si Si1 0.568578 0.092604 0.692617
Si Si2 0.484007 0.338852 0.705723
Si Si3 0.550892 0.808373 0.194443
Si Si4 0.112979 0.963261 0.802867
Si Si5 0.500000 0.000000 0.000000
Si Si6 0.807436 0.396073 0.199670
Si Si7 0.857625 0.881678 0.793379
Si Si8 0.273624 0.947874 0.298051
O O1 0.564048 0.061352 0.500000
O O2 0.515574 0.159063 0.695001
O O3 0.539284 0.046287 0.847183
O O4 0.656932 0.103171 0.723565
O O5 0.482112 0.341645 0.500000
O O6 0.439525 0.271433 0.761499
O O7 0.445893 0.409323 0.771269
O O8 0.571226 0.335995 0.757196
O O9 0.625833 0.853571 0.216195
O O10 0.527170 0.813778 0.000000
O O11 0.195978 0.931042 0.791434
O O12 0.122471 0.040343 0.731752
O O13 0.091737 0.973511 0.000000
O O14 0.724992 0.364489 0.227856
O O15 0.801089 0.475654 0.261447
O O16 0.824542 0.398295 0.000000
O O17 0.852681 0.882666 0.000000
O O18 0.257224 0.953564 0.500000
#
# Coordination Sequence:
#
# PCOD9443669 Si02
#       8
#     8   8   8   8   2   8   8   8
#     4  11  23  40  60  91 129 167 209 263 313 371
#     4  10  21  39  61  87 122 164 203 253 318 374
#     4  12  25  41  59  86 121 164 215 255 311 382
#     4   9  18  34  62  93 121 154 202 259 312 374
#     4  12  22  36  64  94 120 164 214 252 312 366
#     4  10  20  37  60  87 120 155 195 247 310 371
#     4   9  18  36  62  92 121 153 201 255 313 374
#     4   9  20  36  59  89 123 158 195 250 315 363
#
# _framework density 21.355419999999999
#
# number of rings (size 3 to 8) (size 9 to 14) (size 15 to 20)
#    0.000    1.931    0.690    3.103    0.966    4.414 
#    2.483    0.000    0.000    4.138    0.000    0.000 
#    0.000    0.000    0.000    0.000    0.000    0.000 
#
# Total GULP energy -323207.801024 kJ/mol
# GULP energy per Si atom -5572.548294 kJ/mol
# Density = 2.130681 g / cm^3
# Si number density = 21.355420 Si / 1000 Ang^3
#
#
#
# Elastic Constant Matrix: (Units=GPa)
#
#
# Indices 1 2 3 4 5 6 
#
# 1 20.8856 78.7219 -14.7023 0.0000 0.0000 0.0000
# 2 78.7219 -15.9407 8.5087 0.0000 0.0000 0.0000
# 3 -14.7023 8.5087 72.8549 0.0000 0.0000 0.0000
# 4 0.0000 0.0000 0.0000 15.0237 0.0000 0.0000
# 5 0.0000 0.0000 0.0000 0.0000 40.2461 0.0000
# 6 0.0000 0.0000 0.0000 0.0000 0.0000 20.3216
#
#
#
# Elastic Compliance Matrix: (Units=1/GPa)
#
#
# Indices 1 2 3 4 5 6 
#
# 1 0.002500 0.011875 -0.000882 0.000000 0.000000 0.000000
# 2 0.011875 -0.002645 0.002705 0.000000 0.000000 0.000000
# 3 -0.000882 0.002705 0.013232 0.000000 0.000000 0.000000
# 4 0.000000 0.000000 0.000000 0.066562 0.000000 0.000000
# 5 0.000000 0.000000 0.000000 0.000000 0.024847 0.000000
# 6 0.000000 0.000000 0.000000 0.000000 0.000000 0.049209
#
#
# Mechanical properties :
#
#
# Convention : Reuss Voigt Hill
#
# Bulk Modulus (GPa) = 24.70214 24.76181 24.73198
# Shear Modulus (GPa) = 35.76474 15.46970 25.61722
#
# Velocity S-wave (km/s) = 4.09680 2.69437 3.46723
# Velocity P-wave (km/s) = 5.82843 4.61517 5.25692
#
# Compressibility (1/GPa) = 0.04048232
#
# Stress axis : x y z
#
# Youngs Moduli (GPa) = 400.00547 -378.03604 75.57494
#
# Poissons Ratio (x) = 4.48914 0.06668
# Poissons Ratio (y) = -4.75002 -0.20445
# Poissons Ratio (z) = 0.35295 1.02271
#
# Static dielectric constant tensor:
#      x y z
#    x 1.783130 0.000000 0.000000 
#    y 0.000000 1.785980 0.000000 
#    z 0.000000 0.000000 1.773650 
# 
# From -- ./inp_files/8053.got.cif
#   From: 2010.05.17/outbox.cif.g08.bks.cpg/sg58_5_cif.got.tgz:8053.got - 2010.06.03 14:20:14.
