data_PCOD9443737
_publ_section_title
;
Structure prediction by ZEFSAII (Michael W. Deem and Ramdas Pophale) SiO2 
 PCOD9443737
Probable space group: P N N M
;
_chemical_formula_sum "Si O2"
_cell_formula_units_Z 64
_cell_length_a 34.869007
_cell_length_b 11.381174
_cell_length_c 8.256233
_cell_angle_alpha 90.000000
_cell_angle_beta 90.000000
_cell_angle_gamma 90.000000
_cell_volume 3276.488013
_symmetry_space_group_name_H-M "P N N M"
_symmetry_group_IT_number 58
_symmetry_cell_setting 'orthorhombic'
loop_
_space_group_symop_operation_xyz
x,y,z
-x,-y,z
1/2+x,1/2-y,1/2-z
1/2-x,1/2+y,1/2-z
-x,-y,-z
x,y,-z
1/2-x,1/2+y,1/2+z
1/2+x,1/2-y,1/2+z
loop_
_atom_site_type_symbol
_atom_site_label
_atom_site_fract_x
_atom_site_fract_y
_atom_site_fract_z
Si Si1 0.278967 0.166641 0.695288
Si Si2 0.085306 0.242978 0.688700
Si Si3 0.632908 0.876532 0.305815
Si Si4 0.544030 0.480458 0.688224
Si Si5 0.989321 0.629121 0.697610
Si Si6 0.063173 0.777966 0.308853
Si Si7 0.654174 0.134617 0.688803
Si Si8 0.262591 0.904799 0.188431
O O1 0.277126 0.168776 0.500000
O O2 0.323947 0.161390 0.742345
O O3 0.260779 0.290581 0.755262
O O4 0.260431 0.039490 0.743989
O O5 0.092223 0.267832 0.500000
O O6 0.065912 0.117090 0.710318
O O7 0.052206 0.329668 0.754075
O O8 0.125240 0.259794 0.779229
O O9 0.629372 0.861187 0.500000
O O10 0.599146 0.805943 0.221497
O O11 0.631302 0.015236 0.269522
O O12 0.500000 0.500000 0.743158
O O13 0.542912 0.444578 0.500000
O O14 0.565932 0.602452 0.710327
O O15 0.988150 0.629295 0.500000
O O16 0.000000 0.500000 0.753367
O O17 0.023662 0.715512 0.744084
O O18 0.060165 0.804112 0.500000
O O19 0.665033 0.127078 0.500000
O O20 0.693124 0.133163 0.788792
O O21 0.252655 0.914553 0.000000
#
# Coordination Sequence:
#
# PCOD9443737 Si02
#       8
#     8   8   8   8   8   8   8   8
#     4   9  20  39  61  88 123 157 194 242 292 349
#     4  11  21  36  58  81 110 145 190 238 280 334
#     4   9  19  37  58  81 115 152 185 229 284 338
#     4  11  23  39  57  76 108 151 192 233 287 346
#     4   9  18  31  50  78 109 138 173 225 280 325
#     4  11  21  35  56  81 110 144 189 236 282 333
#     4  10  21  38  59  85 119 154 186 231 288 341
#     4  10  20  37  63  91 119 157 200 242 292 351
#
# _framework density 19.533107999999999
#
# number of rings (size 3 to 8) (size 9 to 14) (size 15 to 20)
#    0.000    2.000    1.250    3.375    0.000    5.000 
#    2.250    0.000    0.000    3.000    0.000    0.000 
#    0.000    0.000    0.000    0.000    0.000    0.000 
#
# Total GULP energy -357040.898332 kJ/mol
# GULP energy per Si atom -5578.764036 kJ/mol
# Density = 1.948865 g / cm^3
# Si number density = 19.533108 Si / 1000 Ang^3
#
#
#
# Elastic Constant Matrix: (Units=GPa)
#
#
# Indices 1 2 3 4 5 6 
#
# 1 48.3990 6.8725 0.0793 0.0000 0.0000 0.0000
# 2 6.8725 41.6971 -2.3869 0.0000 0.0000 0.0000
# 3 0.0793 -2.3869 19.7512 0.0000 0.0000 0.0000
# 4 0.0000 0.0000 0.0000 24.1616 0.0000 0.0000
# 5 0.0000 0.0000 0.0000 0.0000 17.2259 0.0000
# 6 0.0000 0.0000 0.0000 0.0000 0.0000 34.7014
#
#
#
# Elastic Compliance Matrix: (Units=1/GPa)
#
#
# Indices 1 2 3 4 5 6 
#
# 1 0.021162 -0.003517 -0.000510 0.000000 0.000000 0.000000
# 2 -0.003517 0.024734 0.003003 0.000000 0.000000 0.000000
# 3 -0.000510 0.003003 0.050995 0.000000 0.000000 0.000000
# 4 0.000000 0.000000 0.000000 0.041388 0.000000 0.000000
# 5 0.000000 0.000000 0.000000 0.000000 0.058052 0.000000
# 6 0.000000 0.000000 0.000000 0.000000 0.000000 0.028817
#
#
# Mechanical properties :
#
#
# Convention : Reuss Voigt Hill
#
# Bulk Modulus (GPa) = 10.54374 13.21966 11.88170
# Shear Modulus (GPa) = 19.31919 22.23661 20.77790
#
# Velocity S-wave (km/s) = 3.14833 3.37769 3.26502
# Velocity P-wave (km/s) = 4.31573 4.68980 4.50665
#
# Compressibility (1/GPa) = 0.09484305
#
# Stress axis : x y z
#
# Youngs Moduli (GPa) = 47.25491 40.43002 19.60987
#
# Poissons Ratio (x) = 0.14219 0.01000
# Poissons Ratio (y) = 0.16620 -0.05889
# Poissons Ratio (z) = 0.02410 -0.12142
#
# Static dielectric constant tensor:
#      x y z
#    x 1.659240 0.000000 0.000000 
#    y 0.000000 1.713380 0.000000 
#    z 0.000000 0.000000 1.673480 
# 
# From -- ./inp_files/11039.got.cif
#   From: 2010.05.17/outbox.cif.g08.bks.cpg/sg58_6_cif.got.tgz:11039.got - 2010.06.03 14:20:14.
