data_PCOD9443280
_publ_section_title
;
Structure prediction by ZEFSAII (Michael W. Deem and Ramdas Pophale) SiO2 
 PCOD9443280
Probable space group: P N N M
;
_chemical_formula_sum "Si O2"
_cell_formula_units_Z 56
_cell_length_a 15.317476
_cell_length_b 9.156544
_cell_length_c 20.733203
_cell_angle_alpha 90.000000
_cell_angle_beta 90.000000
_cell_angle_gamma 90.000000
_cell_volume 2907.938351
_symmetry_space_group_name_H-M "P N N M"
_symmetry_group_IT_number 58
_symmetry_cell_setting 'orthorhombic'
loop_
_space_group_symop_operation_xyz
x,y,z
-x,-y,z
1/2+x,1/2-y,1/2-z
1/2-x,1/2+y,1/2-z
-x,-y,-z
x,y,-z
1/2-x,1/2+y,1/2+z
1/2+x,1/2-y,1/2+z
loop_
_atom_site_type_symbol
_atom_site_label
_atom_site_fract_x
_atom_site_fract_y
_atom_site_fract_z
Si Si1 0.991332 0.332532 0.576389
Si Si2 0.268045 0.050883 0.184476
Si Si3 0.408266 0.422842 0.733580
Si Si4 0.817799 0.669065 0.425709
Si Si5 0.593013 0.923747 0.295646
Si Si6 0.303998 0.053310 0.426081
Si Si7 0.167343 0.845357 0.636424
O O1 0.976758 0.339151 0.500000
O O2 0.912606 0.243485 0.605859
O O3 0.000000 0.500000 0.600323
O O4 0.086642 0.263500 0.587930
O O5 0.331851 0.023242 0.245597
O O6 0.272674 0.222623 0.170335
O O7 0.170450 0.996329 0.195050
O O8 0.302754 0.961581 0.123260
O O9 0.500000 0.500000 0.722557
O O10 0.414791 0.250616 0.716790
O O11 0.376634 0.439934 0.807448
O O12 0.820207 0.616682 0.500000
O O13 0.743104 0.789494 0.419851
O O14 0.625855 0.955248 0.368488
O O15 0.500000 0.000000 0.283338
O O16 0.335656 0.036719 0.500000
O O17 0.227231 0.937049 0.411437
#
# Coordination Sequence:
#
# PCOD9443280 Si02
#       7
#     8   8   8   8   8   8   8
#     4  10  20  35  57  92 128 163 207 250 307 384
#     4  11  23  43  66  93 127 168 219 256 314 383
#     4  11  26  42  66  94 127 165 213 271 317 382
#     4  10  22  39  64  89 129 174 209 260 316 383
#     4  11  26  42  68  98 126 170 217 265 320 374
#     4  11  24  43  64  92 130 171 213 266 327 379
#     4  11  24  37  63  96 125 168 205 267 321 383
#
# _framework density 19.257629999999999
#
# number of rings (size 3 to 8) (size 9 to 14) (size 15 to 20)
#    0.000    1.286    4.286    0.429    8.000    0.857 
#    0.000    2.143    0.000    0.857    0.000    0.000 
#    0.000    0.000    0.000    0.000    0.000    0.000 
#
# Total GULP energy -312803.222471 kJ/mol
# GULP energy per Si atom -5585.771830 kJ/mol
# Density = 1.921380 g / cm^3
# Si number density = 19.257630 Si / 1000 Ang^3
#
#
#
# Elastic Constant Matrix: (Units=GPa)
#
#
# Indices 1 2 3 4 5 6 
#
# 1 118.1624 39.4660 29.9674 0.0000 0.0000 0.0000
# 2 39.4660 46.4620 31.4431 0.0000 0.0000 0.0000
# 3 29.9674 31.4431 88.6019 0.0000 0.0000 0.0000
# 4 0.0000 0.0000 0.0000 9.9992 0.0000 0.0000
# 5 0.0000 0.0000 0.0000 0.0000 19.9426 0.0000
# 6 0.0000 0.0000 0.0000 0.0000 0.0000 32.7675
#
#
#
# Elastic Compliance Matrix: (Units=1/GPa)
#
#
# Indices 1 2 3 4 5 6 
#
# 1 0.011837 -0.009667 -0.000573 0.000000 0.000000 0.000000
# 2 -0.009667 0.036220 -0.009584 0.000000 0.000000 0.000000
# 3 -0.000573 -0.009584 0.014882 0.000000 0.000000 0.000000
# 4 0.000000 0.000000 0.000000 0.100008 0.000000 0.000000
# 5 0.000000 0.000000 0.000000 0.000000 0.050144 0.000000
# 6 0.000000 0.000000 0.000000 0.000000 0.000000 0.030518
#
#
# Mechanical properties :
#
#
# Convention : Reuss Voigt Hill
#
# Bulk Modulus (GPa) = 42.93586 50.55324 46.74455
# Shear Modulus (GPa) = 17.18088 22.69850 19.93969
#
# Velocity S-wave (km/s) = 2.99014 3.43691 3.22128
# Velocity P-wave (km/s) = 5.85365 6.48520 6.17750
#
# Compressibility (1/GPa) = 0.02329056
#
# Stress axis : x y z
#
# Youngs Moduli (GPa) = 84.48116 27.60873 67.19737
#
# Poissons Ratio (x) = 0.26689 0.03850
# Poissons Ratio (y) = 0.81667 0.64404
# Poissons Ratio (z) = 0.04841 0.26461
#
# Static dielectric constant tensor:
#      x y z
#    x 1.664410 0.000000 0.000000 
#    y 0.000000 1.675360 0.000000 
#    z 0.000000 0.000000 1.689420 
# 
# From -- ./inp_files/28959.got.cif
#   From: 2010.05.17/outbox.cif.g08.bks.cpg/sg58_15_cif.got.tgz:28959.got - 2010.06.03 14:20:14.
