data_PCOD9443639
_publ_section_title
;
Structure prediction by ZEFSAII (Michael W. Deem and Ramdas Pophale) SiO2 
 PCOD9443639
Probable space group: P N N M
;
_chemical_formula_sum "Si O2"
_cell_formula_units_Z 64
_cell_length_a 11.408690
_cell_length_b 8.247617
_cell_length_c 30.839382
_cell_angle_alpha 90.000000
_cell_angle_beta 90.000000
_cell_angle_gamma 90.000000
_cell_volume 2901.816402
_symmetry_space_group_name_H-M "P N N M"
_symmetry_group_IT_number 58
_symmetry_cell_setting 'orthorhombic'
loop_
_space_group_symop_operation_xyz
x,y,z
-x,-y,z
1/2+x,1/2-y,1/2-z
1/2-x,1/2+y,1/2-z
-x,-y,-z
x,y,-z
1/2-x,1/2+y,1/2+z
1/2+x,1/2-y,1/2+z
loop_
_atom_site_type_symbol
_atom_site_label
_atom_site_fract_x
_atom_site_fract_y
_atom_site_fract_z
Si Si1 0.138845 0.480413 0.203755
Si Si2 0.789244 0.869019 0.951122
Si Si3 0.569021 0.668384 0.067121
Si Si4 0.631771 0.494014 0.360980
Si Si5 0.506744 0.803157 0.841670
Si Si6 0.258796 0.674161 0.134690
Si Si7 0.221402 0.671477 0.713823
Si Si8 0.164727 0.282032 0.453805
O O1 0.198991 0.524636 0.158104
O O2 0.196639 0.592412 0.240263
O O3 0.179378 0.304936 0.218024
O O4 0.000000 0.500000 0.201902
O O5 0.697564 0.719758 0.948270
O O6 0.862697 0.889447 0.906064
O O7 0.717325 0.038968 0.948749
O O8 0.844538 0.864874 0.000000
O O9 0.500000 0.500000 0.056789
O O10 0.565010 0.707757 0.118206
O O11 0.474931 0.795453 0.048153
O O12 0.500000 0.500000 0.343680
O O13 0.666899 0.679957 0.367828
O O14 0.726794 0.433826 0.325944
O O15 0.375283 0.733846 0.839883
O O16 0.592842 0.771088 0.801858
O O17 0.500000 0.000000 0.848394
O O18 0.299018 0.662531 0.085032
O O19 0.203179 0.216008 0.500000
#
# Coordination Sequence:
#
# PCOD9443639 Si02
#       8
#     8   8   8   8   8   8   8   8
#     4  12  29  48  68 100 135 173 221 274 332 400
#     4  10  20  37  59  88 130 179 223 269 330 395
#     4  11  21  32  56  94 131 170 216 272 335 389
#     4  11  22  41  67  95 129 174 224 275 330 398
#     4  11  21  41  70  95 132 168 217 274 330 398
#     4  10  22  42  68  96 133 176 217 273 336 387
#     4  12  26  44  72  95 130 171 217 273 336 397
#     4   9  19  35  61  92 128 174 219 269 333 399
#
# _framework density 22.055150999999999
#
# number of rings (size 3 to 8) (size 9 to 14) (size 15 to 20)
#    0.000    1.250    2.500    4.125    5.250    2.250 
#    0.000    0.000    0.000    0.375    0.000    0.000 
#    0.000    0.000    0.000    0.000    0.000    0.000 
#
# Total GULP energy -357083.758335 kJ/mol
# GULP energy per Si atom -5579.433724 kJ/mol
# Density = 2.200495 g / cm^3
# Si number density = 22.055151 Si / 1000 Ang^3
#
#
#
# Elastic Constant Matrix: (Units=GPa)
#
#
# Indices 1 2 3 4 5 6 
#
# 1 78.3879 8.2985 14.8283 0.0000 0.0000 0.0000
# 2 8.2985 35.4968 7.6635 0.0000 0.0000 0.0000
# 3 14.8283 7.6635 73.4636 0.0000 0.0000 0.0000
# 4 0.0000 0.0000 0.0000 24.9067 0.0000 0.0000
# 5 0.0000 0.0000 0.0000 0.0000 -29.1892 0.0000
# 6 0.0000 0.0000 0.0000 0.0000 0.0000 20.7875
#
#
#
# Elastic Compliance Matrix: (Units=1/GPa)
#
#
# Indices 1 2 3 4 5 6 
#
# 1 0.013499 -0.002627 -0.002451 0.000000 0.000000 0.000000
# 2 -0.002627 0.029332 -0.002530 0.000000 0.000000 0.000000
# 3 -0.002451 -0.002530 0.014371 0.000000 0.000000 0.000000
# 4 0.000000 0.000000 0.000000 0.040150 0.000000 0.000000
# 5 0.000000 0.000000 0.000000 0.000000 -0.034259 0.000000
# 6 0.000000 0.000000 0.000000 0.000000 0.000000 0.048106
#
#
# Mechanical properties :
#
#
# Convention : Reuss Voigt Hill
#
# Bulk Modulus (GPa) = 23.81675 27.65878 25.73777
# Shear Modulus (GPa) = 35.61068 13.73819 24.67444
#
# Velocity S-wave (km/s) = 4.02259 2.49851 3.34842
# Velocity P-wave (km/s) = 5.69185 4.57071 5.16181
#
# Compressibility (1/GPa) = 0.04198725
#
# Stress axis : x y z
#
# Youngs Moduli (GPa) = 74.08107 34.09278 69.58595
#
# Poissons Ratio (x) = 0.08955 0.17053
# Poissons Ratio (y) = 0.19459 0.17603
# Poissons Ratio (z) = 0.18155 0.08624
#
# Static dielectric constant tensor:
#      x y z
#    x 1.778320 0.000000 0.000000 
#    y 0.000000 1.906010 0.000000 
#    z 0.000000 0.000000 1.899530 
# 
# From -- ./inp_files/34944.got.cif
#   From: 2010.05.17/outbox.cif.g08.bks.cpg/sg58_18_cif.got.tgz:34944.got - 2010.06.03 14:20:14.
