data_PCOD9443480
_publ_section_title
;
Structure prediction by ZEFSAII (Michael W. Deem and Ramdas Pophale) SiO2 
 PCOD9443480
Probable space group: P N N M
;
_chemical_formula_sum "Si O2"
_cell_formula_units_Z 64
_cell_length_a 9.092423
_cell_length_b 14.391675
_cell_length_c 25.140575
_cell_angle_alpha 90.000000
_cell_angle_beta 90.000000
_cell_angle_gamma 90.000000
_cell_volume 3289.774889
_symmetry_space_group_name_H-M "P N N M"
_symmetry_group_IT_number 58
_symmetry_cell_setting 'orthorhombic'
loop_
_space_group_symop_operation_xyz
x,y,z
-x,-y,z
1/2+x,1/2-y,1/2-z
1/2-x,1/2+y,1/2-z
-x,-y,-z
x,y,-z
1/2-x,1/2+y,1/2+z
1/2+x,1/2-y,1/2+z
loop_
_atom_site_type_symbol
_atom_site_label
_atom_site_fract_x
_atom_site_fract_y
_atom_site_fract_z
Si Si1 0.302626 0.836316 0.752588
Si Si2 0.175944 0.502753 0.668087
Si Si3 0.713533 0.242006 0.561369
Si Si4 0.945294 0.395523 0.937213
Si Si5 0.293096 0.573949 0.141800
Si Si6 0.122087 0.868553 0.644490
Si Si7 0.834681 0.961447 0.940276
Si Si8 0.153380 0.643172 0.757951
O O1 0.212593 0.854182 0.698484
O O2 0.242690 0.736361 0.770148
O O3 0.478841 0.837779 0.743583
O O4 0.272667 0.915866 0.796129
O O5 0.245684 0.501296 0.610067
O O6 0.205234 0.595883 0.702825
O O7 0.000000 0.500000 0.663538
O O8 0.755602 0.222000 0.500000
O O9 0.573196 0.177845 0.574559
O O10 0.838089 0.211152 0.602604
O O11 0.671189 0.349672 0.564617
O O12 0.801306 0.375785 0.903078
O O13 0.000000 0.500000 0.924086
O O14 0.914760 0.392636 0.000000
O O15 0.327441 0.469342 0.123061
O O16 0.448553 0.621968 0.153933
O O17 0.193834 0.572630 0.194743
O O18 0.778232 0.984983 0.000000
O O19 0.000000 0.000000 0.937158
#
# Coordination Sequence:
#
# PCOD9443480 Si02
#       8
#     8   8   8   8   8   8   8   8
#     4  11  23  40  62  87 125 162 207 250 309 366
#     4  10  23  41  63  90 121 157 200 247 303 365
#     4  10  21  39  64  90 121 165 210 255 315 376
#     4  10  20  36  59  87 120 162 206 246 301 368
#     4  11  23  35  57  87 126 163 207 252 307 363
#     4  11  22  37  57  88 125 165 206 257 303 368
#     4  10  23  43  66  92 120 154 203 258 307 360
#     4  11  23  40  61  91 124 163 202 255 304 368
#
# _framework density 19.454218000000001
#
# number of rings (size 3 to 8) (size 9 to 14) (size 15 to 20)
#    0.000    1.500    2.500    2.250    0.000    5.750 
#    0.000    1.250    0.000    3.000    0.000    0.000 
#    0.000    0.000    0.000    0.000    0.000    0.000 
#
# Total GULP energy -357458.156812 kJ/mol
# GULP energy per Si atom -5585.283700 kJ/mol
# Density = 1.940994 g / cm^3
# Si number density = 19.454218 Si / 1000 Ang^3
#
#
#
# Elastic Constant Matrix: (Units=GPa)
#
#
# Indices 1 2 3 4 5 6 
#
# 1 66.5302 19.9256 45.6246 0.0000 0.0000 0.0000
# 2 19.9256 75.0709 31.0511 0.0000 0.0000 0.0000
# 3 45.6246 31.0511 94.8176 0.0000 0.0000 0.0000
# 4 0.0000 0.0000 0.0000 24.0768 0.0000 0.0000
# 5 0.0000 0.0000 0.0000 0.0000 27.7840 0.0000
# 6 0.0000 0.0000 0.0000 0.0000 0.0000 27.2424
#
#
#
# Elastic Compliance Matrix: (Units=1/GPa)
#
#
# Indices 1 2 3 4 5 6 
#
# 1 0.022628 -0.001738 -0.010319 0.000000 0.000000 0.000000
# 2 -0.001738 0.015541 -0.004253 0.000000 0.000000 0.000000
# 3 -0.010319 -0.004253 0.016905 0.000000 0.000000 0.000000
# 4 0.000000 0.000000 0.000000 0.041534 0.000000 0.000000
# 5 0.000000 0.000000 0.000000 0.000000 0.035992 0.000000
# 6 0.000000 0.000000 0.000000 0.000000 0.000000 0.036707
#
#
# Mechanical properties :
#
#
# Convention : Reuss Voigt Hill
#
# Bulk Modulus (GPa) = 44.53623 47.73570 46.13596
# Shear Modulus (GPa) = 23.87642 25.14179 24.50911
#
# Velocity S-wave (km/s) = 3.50710 3.59884 3.55327
# Velocity P-wave (km/s) = 6.27234 6.46990 6.37188
#
# Compressibility (1/GPa) = 0.02245363
#
# Stress axis : x y z
#
# Youngs Moduli (GPa) = 44.19363 64.34488 59.15493
#
# Poissons Ratio (x) = 0.11182 0.61042
# Poissons Ratio (y) = 0.07680 0.25160
# Poissons Ratio (z) = 0.45603 0.27368
#
# Static dielectric constant tensor:
#      x y z
#    x 1.654590 0.000000 0.000000 
#    y 0.000000 1.720330 0.000000 
#    z 0.000000 0.000000 1.688200 
# 
# From -- ./inp_files/31618.got.cif
#   From: 2010.05.17/outbox.cif.g08.bks.cpg/sg58_16_cif.got.tgz:31618.got - 2010.06.03 14:20:14.
