data_PCOD9443235
_publ_section_title
;
Structure prediction by ZEFSAII (Michael W. Deem and Ramdas Pophale) SiO2 
 PCOD9443235
Probable space group: P N N M
;
_chemical_formula_sum "Si O2"
_cell_formula_units_Z 64
_cell_length_a 16.344287
_cell_length_b 23.031441
_cell_length_c 9.159245
_cell_angle_alpha 90.000000
_cell_angle_beta 90.000000
_cell_angle_gamma 90.000000
_cell_volume 3447.837326
_symmetry_space_group_name_H-M "P N N M"
_symmetry_group_IT_number 58
_symmetry_cell_setting 'orthorhombic'
loop_
_space_group_symop_operation_xyz
x,y,z
-x,-y,z
1/2+x,1/2-y,1/2-z
1/2-x,1/2+y,1/2-z
-x,-y,-z
x,y,-z
1/2-x,1/2+y,1/2+z
1/2+x,1/2-y,1/2+z
loop_
_atom_site_type_symbol
_atom_site_label
_atom_site_fract_x
_atom_site_fract_y
_atom_site_fract_z
Si Si1 0.682538 0.167310 0.673262
Si Si2 0.380766 0.153527 0.165142
Si Si3 0.303729 0.251157 0.666812
Si Si4 0.084321 0.534740 0.176005
Si Si5 0.243478 0.459141 0.176694
Si Si6 0.430036 0.452803 0.176640
Si Si7 0.456859 0.770508 0.835776
Si Si8 0.032453 0.830588 0.168257
O O1 0.672269 0.164943 0.500000
O O2 0.743368 0.217632 0.722297
O O3 0.719607 0.106013 0.723494
O O4 0.598671 0.184133 0.749638
O O5 0.319845 0.186643 0.274086
O O6 0.412484 0.094671 0.237161
O O7 0.455379 0.198799 0.154489
O O8 0.349398 0.144170 0.000000
O O9 0.274102 0.250299 0.500000
O O10 0.385338 0.291130 0.667368
O O11 0.167338 0.500038 0.218454
O O12 0.000000 0.500000 0.207135
O O13 0.085872 0.544236 0.000000
O O14 0.337358 0.471674 0.221678
O O15 0.244265 0.459825 0.000000
O O16 0.500000 0.500000 0.213013
O O17 0.450253 0.390922 0.249930
O O18 0.429934 0.445671 0.000000
O O19 0.466878 0.709893 0.751049
O O20 0.426489 0.760927 0.000000
O O21 0.009249 0.840895 0.000000
#
# Coordination Sequence:
#
# PCOD9443235 Si02
#       8
#     8   8   8   8   8   8   8   8
#     4  11  20  34  58  85 114 145 186 239 290 344
#     4  10  21  37  56  80 112 151 190 234 288 343
#     4  10  20  35  57  82 110 147 186 230 287 350
#     4  10  20  36  58  83 116 157 198 241 294 358
#     4   9  19  35  57  85 114 151 198 243 291 351
#     4  10  20  37  60  82 110 153 200 245 296 353
#     4  10  21  36  56  83 115 149 188 233 288 354
#     4  10  20  36  58  83 112 145 188 239 294 347
#
# _framework density 18.562360999999999
#
# number of rings (size 3 to 8) (size 9 to 14) (size 15 to 20)
#    0.000    2.000    1.250    2.625    0.000    4.000 
#    2.250    1.875    0.000    0.000    0.000    0.000 
#    0.000    0.000    0.000    0.000    0.000    0.000 
#
# Total GULP energy -356826.601376 kJ/mol
# GULP energy per Si atom -5575.415647 kJ/mol
# Density = 1.852011 g / cm^3
# Si number density = 18.562361 Si / 1000 Ang^3
#
#
#
# Elastic Constant Matrix: (Units=GPa)
#
#
# Indices 1 2 3 4 5 6 
#
# 1 75.6445 32.2483 27.3593 0.0000 0.0000 0.0000
# 2 32.2483 104.9610 36.3780 0.0000 0.0000 0.0000
# 3 27.3593 36.3780 70.0139 0.0000 0.0000 0.0000
# 4 0.0000 0.0000 0.0000 27.9358 0.0000 0.0000
# 5 0.0000 0.0000 0.0000 0.0000 18.8392 0.0000
# 6 0.0000 0.0000 0.0000 0.0000 0.0000 20.1004
#
#
#
# Elastic Compliance Matrix: (Units=1/GPa)
#
#
# Indices 1 2 3 4 5 6 
#
# 1 0.016347 -0.003425 -0.004608 0.000000 0.000000 0.000000
# 2 -0.003425 0.012338 -0.005072 0.000000 0.000000 0.000000
# 3 -0.004608 -0.005072 0.018719 0.000000 0.000000 0.000000
# 4 0.000000 0.000000 0.000000 0.035796 0.000000 0.000000
# 5 0.000000 0.000000 0.000000 0.000000 0.053081 0.000000
# 6 0.000000 0.000000 0.000000 0.000000 0.000000 0.049750
#
#
# Mechanical properties :
#
#
# Convention : Reuss Voigt Hill
#
# Bulk Modulus (GPa) = 47.18628 49.17673 48.18151
# Shear Modulus (GPa) = 22.79929 23.68401 23.24165
#
# Velocity S-wave (km/s) = 3.50845 3.57587 3.54232
# Velocity P-wave (km/s) = 6.47208 6.60298 6.53786
#
# Compressibility (1/GPa) = 0.02119260
#
# Stress axis : x y z
#
# Youngs Moduli (GPa) = 61.17473 81.05319 53.42214
#
# Poissons Ratio (x) = 0.27763 0.24617
# Poissons Ratio (y) = 0.20954 0.27095
# Poissons Ratio (z) = 0.28190 0.41109
#
# Static dielectric constant tensor:
#      x y z
#    x 1.696850 0.000000 0.000000 
#    y 0.000000 1.633120 0.000000 
#    z 0.000000 0.000000 1.639020 
# 
# From -- ./inp_files/8331.got.cif
#   From: 2010.05.17/outbox.cif.g08.bks.cpg/sg58_5_cif.got.tgz:8331.got - 2010.06.03 14:20:14.
