data_PCOD9443267
_publ_section_title
;
Structure prediction by ZEFSAII (Michael W. Deem and Ramdas Pophale) SiO2 
 PCOD9443267
Probable space group: P N N M
;
_chemical_formula_sum "Si O2"
_cell_formula_units_Z 56
_cell_length_a 16.298809
_cell_length_b 20.003311
_cell_length_c 9.630859
_cell_angle_alpha 90.000000
_cell_angle_beta 90.000000
_cell_angle_gamma 90.000000
_cell_volume 3139.950360
_symmetry_space_group_name_H-M "P N N M"
_symmetry_group_IT_number 58
_symmetry_cell_setting 'orthorhombic'
loop_
_space_group_symop_operation_xyz
x,y,z
-x,-y,z
1/2+x,1/2-y,1/2-z
1/2-x,1/2+y,1/2-z
-x,-y,-z
x,y,-z
1/2-x,1/2+y,1/2+z
1/2+x,1/2-y,1/2+z
loop_
_atom_site_type_symbol
_atom_site_label
_atom_site_fract_x
_atom_site_fract_y
_atom_site_fract_z
Si Si1 0.384770 0.529319 0.153748
Si Si2 0.116410 0.905113 0.841341
Si Si3 0.993567 0.838004 0.658277
Si Si4 0.811780 0.610705 0.338176
Si Si5 0.597302 0.995436 0.667523
Si Si6 0.330887 0.735964 0.830199
Si Si7 0.719938 0.884471 0.662953
O O1 0.402326 0.475688 0.269955
O O2 0.448487 0.589911 0.154408
O O3 0.295677 0.563167 0.171857
O O4 0.386986 0.497232 0.000000
O O5 0.071433 0.847103 0.755500
O O6 0.214243 0.899833 0.835133
O O7 0.089036 0.903101 0.000000
O O8 0.015500 0.819947 0.500000
O O9 0.920815 0.790405 0.710954
O O10 0.838500 0.604774 0.500000
O O11 0.857428 0.556333 0.244597
O O12 0.823646 0.687136 0.290809
O O13 0.609620 0.000353 0.500000
O O14 0.640704 0.925545 0.715312
O O15 0.500000 0.000000 0.694224
O O16 0.259038 0.684950 0.780272
O O17 0.328982 0.731936 0.000000
O O18 0.703870 0.871481 0.500000
#
# Coordination Sequence:
#
# PCOD9443267 Si02
#       7
#     8   8   8   8   8   8   8
#     4   9  16  29  51  74  96 130 171 207 245 299
#     4  11  21  30  45  76 110 136 162 202 265 321
#     4   9  18  32  52  74  95 130 179 216 248 302
#     4  10  21  37  55  76 107 146 180 214 268 331
#     4  10  20  35  57  86 109 134 180 233 277 314
#     4   8  16  34  56  74  97 139 187 220 256 317
#     4   8  14  29  54  77  99 131 175 223 259 301
#
# _framework density 17.834679000000001
#
# number of rings (size 3 to 8) (size 9 to 14) (size 15 to 20)
#    0.000    2.714    1.429    2.571    0.000    3.143 
#    2.571    0.714    0.000    1.714    0.000    0.000 
#    0.000    0.000    0.000    0.000    0.000    0.000 
#
# Total GULP energy -311874.256360 kJ/mol
# GULP energy per Si atom -5569.183149 kJ/mol
# Density = 1.779409 g / cm^3
# Si number density = 17.834679 Si / 1000 Ang^3
#
#
#
# Elastic Constant Matrix: (Units=GPa)
#
#
# Indices 1 2 3 4 5 6 
#
# 1 63.9246 16.3392 25.1187 0.0000 0.0000 0.0000
# 2 16.3392 77.1471 20.5131 0.0000 0.0000 0.0000
# 3 25.1187 20.5131 46.3813 0.0000 0.0000 0.0000
# 4 0.0000 0.0000 0.0000 17.3747 0.0000 0.0000
# 5 0.0000 0.0000 0.0000 0.0000 36.1532 0.0000
# 6 0.0000 0.0000 0.0000 0.0000 0.0000 2.5742
#
#
#
# Elastic Compliance Matrix: (Units=1/GPa)
#
#
# Indices 1 2 3 4 5 6 
#
# 1 0.020032 -0.001539 -0.010168 0.000000 0.000000 0.000000
# 2 -0.001539 0.014808 -0.005716 0.000000 0.000000 0.000000
# 3 -0.010168 -0.005716 0.029595 0.000000 0.000000 0.000000
# 4 0.000000 0.000000 0.000000 0.057555 0.000000 0.000000
# 5 0.000000 0.000000 0.000000 0.000000 0.027660 0.000000
# 6 0.000000 0.000000 0.000000 0.000000 0.000000 0.388472
#
#
# Mechanical properties :
#
#
# Convention : Reuss Voigt Hill
#
# Bulk Modulus (GPa) = 33.79569 34.59945 34.19757
# Shear Modulus (GPa) = 8.57881 19.58587 14.08234
#
# Velocity S-wave (km/s) = 2.19559 3.31749 2.81304
# Velocity P-wave (km/s) = 5.04163 5.84094 5.45594
#
# Compressibility (1/GPa) = 0.02958957
#
# Stress axis : x y z
#
# Youngs Moduli (GPa) = 49.91920 67.53123 33.78935
#
# Poissons Ratio (x) = 0.10393 0.34358
# Poissons Ratio (y) = 0.07683 0.19313
# Poissons Ratio (z) = 0.50759 0.38599
#
# Static dielectric constant tensor:
#      x y z
#    x 1.641960 0.000000 0.000000 
#    y 0.000000 1.613360 0.000000 
#    z 0.000000 0.000000 1.610650 
# 
# From -- ./inp_files/6467.got.cif
#   From: 2010.05.17/outbox.cif.g08.bks.cpg/sg58_4_cif.got.tgz:6467.got - 2010.06.03 14:20:14.
