data_PCOD9443793
_publ_section_title
;
Structure prediction by ZEFSAII (Michael W. Deem and Ramdas Pophale) SiO2 
 PCOD9443793
Probable space group: P N N M
;
_chemical_formula_sum "Si O2"
_cell_formula_units_Z 48
_cell_length_a 7.103969
_cell_length_b 28.310317
_cell_length_c 10.253178
_cell_angle_alpha 90.000000
_cell_angle_beta 90.000000
_cell_angle_gamma 90.000000
_cell_volume 2062.074192
_symmetry_space_group_name_H-M "P N N M"
_symmetry_group_IT_number 58
_symmetry_cell_setting 'orthorhombic'
loop_
_space_group_symop_operation_xyz
x,y,z
-x,-y,z
1/2+x,1/2-y,1/2-z
1/2-x,1/2+y,1/2-z
-x,-y,-z
x,y,-z
1/2-x,1/2+y,1/2+z
1/2+x,1/2-y,1/2+z
loop_
_atom_site_type_symbol
_atom_site_label
_atom_site_fract_x
_atom_site_fract_y
_atom_site_fract_z
Si Si1 0.239112 0.042530 0.000000
Si Si2 0.679958 0.125063 0.747917
Si Si3 0.855245 0.804714 0.851457
Si Si4 0.915778 0.722046 0.351143
Si Si5 0.242234 0.600463 0.247598
Si Si6 0.207089 0.934848 0.000000
Si Si7 0.790099 0.566021 0.000000
Si Si8 0.743852 0.957293 0.500000
O O1 0.307412 0.067450 0.869647
O O2 0.015696 0.054391 0.000000
O O3 0.286954 0.987736 0.000000
O O4 0.708103 0.179655 0.788674
O O5 0.457385 0.123356 0.710957
O O6 0.763607 0.097870 0.624133
O O7 0.729547 0.094225 0.874206
O O8 0.917748 0.765668 0.747880
O O9 0.629571 0.796493 0.862222
O O10 0.877295 0.857598 0.795471
O O11 0.929159 0.800879 0.000000
O O12 0.855702 0.733825 0.500000
O O13 0.313991 0.568639 0.129895
O O14 0.711152 0.512783 0.000000
O O15 0.016110 0.552983 0.000000
#
# Coordination Sequence:
#
# PCOD9443793 Si02
#       8
#     4   8   8   8   8   4   4   4
#     4  11  23  37  56  85 118 152 191 235 288 347
#     4  10  20  38  61  84 114 150 191 240 283 335
#     4  10  22  39  59  86 115 148 194 238 286 347
#     4  10  22  39  59  86 115 148 194 238 286 347
#     4  10  20  38  61  84 114 150 191 240 283 335
#     4  11  23  37  56  85 118 152 191 235 288 347
#     4   9  18  32  56  89 114 140 185 233 282 335
#     4   9  18  32  56  89 114 140 185 233 282 335
#
# _framework density 23.277531
#
# number of rings (size 3 to 8) (size 9 to 14) (size 15 to 20)
#    0.000    2.000    1.667    1.500    2.333    4.667 
#    0.000    0.833    0.000    3.000    0.000    0.000 
#    0.000    0.000    0.000    0.000    0.000    0.000 
#
# Total GULP energy -268316.369470 kJ/mol
# GULP energy per Si atom -5589.924364 kJ/mol
# Density = 2.322455 g / cm^3
# Si number density = 23.277531 Si / 1000 Ang^3
#
#
#
# Elastic Constant Matrix: (Units=GPa)
#
#
# Indices 1 2 3 4 5 6 
#
# 1 64.2162 -8.5140 -7.2226 0.0000 0.0000 0.0000
# 2 -8.5140 193.1273 119.7397 0.0000 0.0000 0.0000
# 3 -7.2226 119.7397 235.1865 0.0000 0.0000 0.0000
# 4 0.0000 0.0000 0.0000 37.3809 0.0000 0.0000
# 5 0.0000 0.0000 0.0000 0.0000 -6.1460 0.0000
# 6 0.0000 0.0000 0.0000 0.0000 0.0000 25.7943
#
#
#
# Elastic Compliance Matrix: (Units=1/GPa)
#
#
# Indices 1 2 3 4 5 6 
#
# 1 0.015670 0.000573 0.000189 0.000000 0.000000 0.000000
# 2 0.000573 0.007587 -0.003845 0.000000 0.000000 0.000000
# 3 0.000189 -0.003845 0.006215 0.000000 0.000000 0.000000
# 4 0.000000 0.000000 0.000000 0.026752 0.000000 0.000000
# 5 0.000000 0.000000 0.000000 0.000000 -0.162707 0.000000
# 6 0.000000 0.000000 0.000000 0.000000 0.000000 0.038768
#
#
# Mechanical properties :
#
#
# Convention : Reuss Voigt Hill
#
# Bulk Modulus (GPa) = 42.90490 77.83736 60.37113
# Shear Modulus (GPa) = -92.96991 37.30764 -27.83113
#
# Velocity S-wave (km/s) = -6.32665 4.00776 -3.46153
# Velocity P-wave (km/s) = 5.90734 7.41131 3.16472
#
# Compressibility (1/GPa) = 0.02330736
#
# Stress axis : x y z
#
# Youngs Moduli (GPa) = 63.81738 131.79907 160.88818
#
# Poissons Ratio (x) = -0.07558 -0.03045
# Poissons Ratio (y) = -0.03660 0.61866
# Poissons Ratio (z) = -0.01208 0.50681
#
# Static dielectric constant tensor:
#      x y z
#    x 1.982760 0.000000 0.000000 
#    y 0.000000 1.830270 0.000000 
#    z 0.000000 0.000000 1.820530 
# 
# From -- ./inp_files/3108.got.cif
#   From: 2010.05.17/outbox.cif.g08.bks.cpg/sg58_2_cif.got.tgz:3108.got - 2010.06.03 14:20:14.
