data_PCOD9443044
_publ_section_title
;
Structure prediction by ZEFSAII (Michael W. Deem and Ramdas Pophale) SiO2 
 PCOD9443044
Probable space group: P N N M
;
_chemical_formula_sum "Si O2"
_cell_formula_units_Z 48
_cell_length_a 30.795209
_cell_length_b 10.708866
_cell_length_c 7.670807
_cell_angle_alpha 90.000000
_cell_angle_beta 90.000000
_cell_angle_gamma 90.000000
_cell_volume 2529.692284
_symmetry_space_group_name_H-M "P N N M"
_symmetry_group_IT_number 58
_symmetry_cell_setting 'orthorhombic'
loop_
_space_group_symop_operation_xyz
x,y,z
-x,-y,z
1/2+x,1/2-y,1/2-z
1/2-x,1/2+y,1/2-z
-x,-y,-z
x,y,-z
1/2-x,1/2+y,1/2+z
1/2+x,1/2-y,1/2+z
loop_
_atom_site_type_symbol
_atom_site_label
_atom_site_fract_x
_atom_site_fract_y
_atom_site_fract_z
Si Si1 0.485337 0.802134 0.500000
Si Si2 0.374713 0.170480 0.211088
Si Si3 0.273831 0.212520 0.790433
Si Si4 0.034678 0.111846 0.298851
Si Si5 0.073082 0.537007 0.000000
Si Si6 0.612734 0.549667 0.203461
Si Si7 0.288473 0.492977 0.294069
O O1 0.481939 0.718114 0.328238
O O2 0.530324 0.876526 0.500000
O O3 0.445218 0.897931 0.500000
O O4 0.323272 0.173316 0.251543
O O5 0.399134 0.070000 0.328107
O O6 0.391486 0.308359 0.268410
O O7 0.379897 0.156696 0.000000
O O8 0.267460 0.355817 0.732719
O O9 0.240420 0.107603 0.724944
O O10 0.271312 0.214312 0.000000
O O11 0.040068 0.154876 0.500000
O O12 0.079417 0.051945 0.226005
O O13 0.000000 0.000000 0.299500
O O14 0.663034 0.512698 0.218427
O O15 0.601314 0.557739 0.000000
O O16 0.293469 0.510814 0.500000
#
# Coordination Sequence:
#
# PCOD9443044 Si02
#       7
#     4   8   8   8   4   8   8
#     4  11  25  40  56  86 127 143 196 252 282 353
#     4   9  19  38  61  82 112 150 197 238 278 349
#     4   9  20  38  54  81 116 149 194 242 289 351
#     4  10  21  39  62  87 115 152 191 238 301 350
#     4  11  24  40  58  86 112 162 198 230 297 344
#     4   9  19  35  57  85 112 141 185 238 293 346
#     4  10  20  34  56  83 111 150 191 236 294 345
#
# _framework density 18.974639
#
# number of rings (size 3 to 8) (size 9 to 14) (size 15 to 20)
#    0.000    2.333    0.000    2.750    5.833    4.000 
#    3.000    1.667    0.000    0.000    0.000    0.000 
#    0.000    0.000    0.000    0.000    0.000    0.000 
#
# Total GULP energy -267792.759683 kJ/mol
# GULP energy per Si atom -5579.015827 kJ/mol
# Density = 1.893145 g / cm^3
# Si number density = 18.974639 Si / 1000 Ang^3
#
#
#
# Elastic Constant Matrix: (Units=GPa)
#
#
# Indices 1 2 3 4 5 6 
#
# 1 45.2912 25.2325 4.3858 0.0000 0.0000 0.0000
# 2 25.2325 68.2249 17.1010 0.0000 0.0000 0.0000
# 3 4.3858 17.1010 60.8567 0.0000 0.0000 0.0000
# 4 0.0000 0.0000 0.0000 -3.2210 0.0000 0.0000
# 5 0.0000 0.0000 0.0000 0.0000 37.1103 0.0000
# 6 0.0000 0.0000 0.0000 0.0000 0.0000 38.1123
#
#
#
# Elastic Compliance Matrix: (Units=1/GPa)
#
#
# Indices 1 2 3 4 5 6 
#
# 1 0.027861 -0.010543 0.000955 0.000000 0.000000 0.000000
# 2 -0.010543 0.019758 -0.004792 0.000000 0.000000 0.000000
# 3 0.000955 -0.004792 0.017710 0.000000 0.000000 0.000000
# 4 0.000000 0.000000 0.000000 -0.310466 0.000000 0.000000
# 5 0.000000 0.000000 0.000000 0.000000 0.026947 0.000000
# 6 0.000000 0.000000 0.000000 0.000000 0.000000 0.026238
#
#
# Mechanical properties :
#
#
# Convention : Reuss Voigt Hill
#
# Bulk Modulus (GPa) = 27.34700 29.75681 28.55191
# Shear Modulus (GPa) = -33.11229 22.91055 -5.10087
#
# Velocity S-wave (km/s) = -4.18195 3.47858 -1.64137
# Velocity P-wave (km/s) = 2.97902 5.64362 3.38939
#
# Compressibility (1/GPa) = 0.03656708
#
# Stress axis : x y z
#
# Youngs Moduli (GPa) = 35.89272 50.61234 56.46565
#
# Poissons Ratio (x) = 0.53363 -0.05392
# Poissons Ratio (y) = 0.37843 0.27060
# Poissons Ratio (z) = -0.03427 0.24255
#
# Static dielectric constant tensor:
#      x y z
#    x 1.666690 0.000000 0.000000 
#    y 0.000000 1.651600 0.000000 
#    z 0.000000 0.000000 1.671430 
# 
# From -- ./inp_files/3043.got.cif
#   From: 2010.05.17/outbox.cif.g08.bks.cpg/sg58_2_cif.got.tgz:3043.got - 2010.06.03 14:20:14.
