data_PCOD9443065
_publ_section_title
;
Structure prediction by ZEFSAII (Michael W. Deem and Ramdas Pophale) SiO2 
 PCOD9443065
Probable space group: P N N M
;
_chemical_formula_sum "Si O2"
_cell_formula_units_Z 54
_cell_length_a 26.227902
_cell_length_b 5.033314
_cell_length_c 20.031218
_cell_angle_alpha 90.000000
_cell_angle_beta 90.000000
_cell_angle_gamma 90.000000
_cell_volume 2644.386517
_symmetry_space_group_name_H-M "P N N M"
_symmetry_group_IT_number 58
_symmetry_cell_setting 'orthorhombic'
loop_
_space_group_symop_operation_xyz
x,y,z
-x,-y,z
1/2+x,1/2-y,1/2-z
1/2-x,1/2+y,1/2-z
-x,-y,-z
x,y,-z
1/2-x,1/2+y,1/2+z
1/2+x,1/2-y,1/2+z
loop_
_atom_site_type_symbol
_atom_site_label
_atom_site_fract_x
_atom_site_fract_y
_atom_site_fract_z
Si Si1 0.048963 0.312311 0.118083
Si Si2 0.712215 0.371984 0.422989
Si Si3 0.384678 0.798400 0.880126
Si Si4 0.464870 0.737777 0.232010
Si Si5 0.644611 0.850769 0.423090
Si Si6 0.500000 0.500000 0.500000
Si Si7 0.677183 0.697466 0.081176
Si Si8 0.536702 0.253075 0.000000
O O1 0.048860 0.183089 0.190842
O O2 0.096456 0.511953 0.111358
O O3 0.000000 0.500000 0.110787
O O4 0.040553 0.103245 0.058711
O O5 0.719709 0.464257 0.500000
O O6 0.685887 0.086178 0.423927
O O7 0.768541 0.317345 0.395604
O O8 0.672714 0.589735 0.394200
O O9 0.413866 0.773678 0.810442
O O10 0.338880 0.588141 0.890193
O O11 0.426837 0.738900 0.936182
O O12 0.364686 0.092221 0.895154
O O13 0.500000 0.500000 0.205463
O O14 0.500000 0.000000 0.229551
O O15 0.629064 0.795917 0.500000
O O16 0.677976 0.678788 0.000000
O O17 0.500000 0.500000 0.000000
O O18 0.500000 0.000000 0.000000
#
# Coordination Sequence:
#
# PCOD9443065 Si02
#       8
#     8   8   8   8   8   2   8   4
#     4  11  25  38  64  92 128 162 205 252 308 382
#     4   9  20  34  56  86 122 155 188 255 307 358
#     4  12  22  37  61  85 121 165 213 258 306 370
#     4  11  24  43  59  86 125 169 207 246 309 381
#     4  10  20  34  56  88 122 154 192 239 314 364
#     4  12  22  40  64  92 126 154 202 264 306 356
#     4  11  20  38  60  90 120 155 216 264 312 359
#     4  12  22  34  52  83 119 156 202 262 309 347
#
# _framework density 20.420614
#
# number of rings (size 3 to 8) (size 9 to 14) (size 15 to 20)
#    0.000    1.185    2.963    3.778    2.074    2.370 
#    0.000    0.000    0.000    3.556    0.000    0.000 
#    0.000    0.000    0.000    0.000    0.000    0.000 
#
# Total GULP energy -301198.552482 kJ/mol
# GULP energy per Si atom -5577.750972 kJ/mol
# Density = 2.037414 g / cm^3
# Si number density = 20.420614 Si / 1000 Ang^3
#
#
#
# Elastic Constant Matrix: (Units=GPa)
#
#
# Indices 1 2 3 4 5 6 
#
# 1 85.8321 5.4464 21.8371 0.0000 0.0000 0.0000
# 2 5.4464 84.6084 8.8268 0.0000 0.0000 0.0000
# 3 21.8371 8.8268 79.9347 0.0000 0.0000 0.0000
# 4 0.0000 0.0000 0.0000 5.5435 0.0000 0.0000
# 5 0.0000 0.0000 0.0000 0.0000 12.4432 0.0000
# 6 0.0000 0.0000 0.0000 0.0000 0.0000 42.8044
#
#
#
# Elastic Compliance Matrix: (Units=1/GPa)
#
#
# Indices 1 2 3 4 5 6 
#
# 1 0.012538 -0.000455 -0.003375 0.000000 0.000000 0.000000
# 2 -0.000455 0.011973 -0.001198 0.000000 0.000000 0.000000
# 3 -0.003375 -0.001198 0.013564 0.000000 0.000000 0.000000
# 4 0.000000 0.000000 0.000000 0.180390 0.000000 0.000000
# 5 0.000000 0.000000 0.000000 0.000000 0.080365 0.000000
# 6 0.000000 0.000000 0.000000 0.000000 0.000000 0.023362
#
#
# Mechanical properties :
#
#
# Convention : Reuss Voigt Hill
#
# Bulk Modulus (GPa) = 35.68839 35.84398 35.76618
# Shear Modulus (GPa) = 14.63746 26.44254 20.54000
#
# Velocity S-wave (km/s) = 2.68021 3.60237 3.17495
# Velocity P-wave (km/s) = 5.20506 5.90709 5.56715
#
# Compressibility (1/GPa) = 0.02802031
#
# Stress axis : x y z
#
# Youngs Moduli (GPa) = 79.75633 83.51834 73.72186
#
# Poissons Ratio (x) = 0.03800 0.24881
# Poissons Ratio (y) = 0.03629 0.08831
# Poissons Ratio (z) = 0.26918 0.10004
#
# Static dielectric constant tensor:
#      x y z
#    x 1.753410 0.000000 0.000000 
#    y 0.000000 1.777470 0.000000 
#    z 0.000000 0.000000 1.607400 
# 
# From -- ./inp_files/30539.got.cif
#   From: 2010.05.17/outbox.cif.g08.bks.cpg/sg58_16_cif.got.tgz:30539.got - 2010.06.03 14:20:14.
