data_PCOD9443966
_publ_section_title
;
Structure prediction by ZEFSAII (Michael W. Deem and Ramdas Pophale) SiO2 
 PCOD9443966
Probable space group: P N N M
;
_chemical_formula_sum "Si O2"
_cell_formula_units_Z 58
_cell_length_a 25.441703
_cell_length_b 12.584531
_cell_length_c 7.652088
_cell_angle_alpha 90.000000
_cell_angle_beta 90.000000
_cell_angle_gamma 90.000000
_cell_volume 2449.983555
_symmetry_space_group_name_H-M "P N N M"
_symmetry_group_IT_number 58
_symmetry_cell_setting 'orthorhombic'
loop_
_space_group_symop_operation_xyz
x,y,z
-x,-y,z
1/2+x,1/2-y,1/2-z
1/2-x,1/2+y,1/2-z
-x,-y,-z
x,y,-z
1/2-x,1/2+y,1/2+z
1/2+x,1/2-y,1/2+z
loop_
_atom_site_type_symbol
_atom_site_label
_atom_site_fract_x
_atom_site_fract_y
_atom_site_fract_z
Si Si1 0.500000 0.000000 0.000000
Si Si2 0.633934 0.409391 0.287978
Si Si3 0.481125 0.674008 0.287312
Si Si4 0.595331 0.627930 0.294825
Si Si5 0.732353 0.260912 0.203992
Si Si6 0.664253 0.074953 0.787816
Si Si7 0.946789 0.600726 0.799511
Si Si8 0.344203 0.162853 0.198297
O O1 0.544031 0.011690 0.843835
O O2 0.637093 0.401290 0.500000
O O3 0.575364 0.370843 0.231693
O O4 0.633197 0.533461 0.231623
O O5 0.682707 0.340685 0.219824
O O6 0.480656 0.667515 0.500000
O O7 0.535664 0.624295 0.222258
O O8 0.481993 0.799187 0.243096
O O9 0.588839 0.605892 0.500000
O O10 0.620457 0.744175 0.278327
O O11 0.713861 0.144601 0.266588
O O12 0.783711 0.300955 0.299685
O O13 0.746678 0.252979 0.000000
O O14 0.613208 0.136323 0.719308
O O15 0.657674 0.955086 0.721201
O O16 0.664838 0.074461 0.000000
O O17 0.956464 0.573110 0.000000
O O18 0.362722 0.152960 0.000000
#
# Coordination Sequence:
#
# PCOD9443966 Si02
#       8
#     2   8   8   8   8   8   8   8
#     4  12  26  40  60  90 146 172 222 276 340 382
#     4  10  20  39  67  95 128 170 217 267 326 388
#     4   9  19  38  64  97 128 168 220 267 320 397
#     4  10  22  40  64  94 135 173 212 265 327 391
#     4  11  24  43  68  94 127 168 218 276 335 395
#     4  10  23  45  67  92 130 172 217 280 343 400
#     4  11  23  39  66  97 130 181 230 273 333 408
#     4  11  26  44  65  93 130 172 219 271 337 397
#
# _framework density 23.673628000000001
#
# number of rings (size 3 to 8) (size 9 to 14) (size 15 to 20)
#    0.000    1.655    2.069    1.448    3.862    3.862 
#    0.000    0.000    0.000    1.655    0.000    0.000 
#    0.000    0.000    0.000    0.000    0.000    0.000 
#
# Total GULP energy -323512.340428 kJ/mol
# GULP energy per Si atom -5577.798973 kJ/mol
# Density = 2.361975 g / cm^3
# Si number density = 23.673628 Si / 1000 Ang^3
#
#
#
# Elastic Constant Matrix: (Units=GPa)
#
#
# Indices 1 2 3 4 5 6 
#
# 1 69.6895 4.6478 -9.4196 0.0000 0.0000 0.0000
# 2 4.6478 89.7028 3.2411 0.0000 0.0000 0.0000
# 3 -9.4196 3.2411 69.7050 0.0000 0.0000 0.0000
# 4 0.0000 0.0000 0.0000 10.4481 0.0000 0.0000
# 5 0.0000 0.0000 0.0000 0.0000 24.5166 0.0000
# 6 0.0000 0.0000 0.0000 0.0000 0.0000 32.5677
#
#
#
# Elastic Compliance Matrix: (Units=1/GPa)
#
#
# Indices 1 2 3 4 5 6 
#
# 1 0.014678 -0.000834 0.002022 0.000000 0.000000 0.000000
# 2 -0.000834 0.011214 -0.000634 0.000000 0.000000 0.000000
# 3 0.002022 -0.000634 0.014649 0.000000 0.000000 0.000000
# 4 0.000000 0.000000 0.000000 0.095711 0.000000 0.000000
# 5 0.000000 0.000000 0.000000 0.000000 0.040789 0.000000
# 6 0.000000 0.000000 0.000000 0.000000 0.000000 0.030705
#
#
# Mechanical properties :
#
#
# Convention : Reuss Voigt Hill
#
# Bulk Modulus (GPa) = 24.00930 25.11512 24.56221
# Shear Modulus (GPa) = 22.67360 28.88168 25.77764
#
# Velocity S-wave (km/s) = 3.09812 3.49663 3.30339
# Velocity P-wave (km/s) = 4.79183 5.18978 4.99477
#
# Compressibility (1/GPa) = 0.04165052
#
# Stress axis : x y z
#
# Youngs Moduli (GPa) = 68.12776 89.17405 68.26437
#
# Poissons Ratio (x) = 0.07434 -0.13805
# Poissons Ratio (y) = 0.05679 0.04328
# Poissons Ratio (z) = -0.13778 0.05654
#
# Static dielectric constant tensor:
#      x y z
#    x 1.924310 0.000000 0.000000 
#    y 0.000000 1.979310 0.000000 
#    z 0.000000 0.000000 1.872230 
# 
# From -- ./inp_files/10427.got.cif
#   From: 2010.05.17/outbox.cif.g08.bks.cpg/sg58_6_cif.got.tgz:10427.got - 2010.06.03 14:20:14.
