data_PCOD9443470
_publ_section_title
;
Structure prediction by ZEFSAII (Michael W. Deem and Ramdas Pophale) SiO2 
 PCOD9443470
Probable space group: P N N M
;
_chemical_formula_sum "Si O2"
_cell_formula_units_Z 58
_cell_length_a 19.891710
_cell_length_b 17.843340
_cell_length_c 7.645684
_cell_angle_alpha 90.000000
_cell_angle_beta 90.000000
_cell_angle_gamma 90.000000
_cell_volume 2713.717370
_symmetry_space_group_name_H-M "P N N M"
_symmetry_group_IT_number 58
_symmetry_cell_setting 'orthorhombic'
loop_
_space_group_symop_operation_xyz
x,y,z
-x,-y,z
1/2+x,1/2-y,1/2-z
1/2-x,1/2+y,1/2-z
-x,-y,-z
x,y,-z
1/2-x,1/2+y,1/2+z
1/2+x,1/2-y,1/2+z
loop_
_atom_site_type_symbol
_atom_site_label
_atom_site_fract_x
_atom_site_fract_y
_atom_site_fract_z
Si Si1 0.164353 0.521415 0.788209
Si Si2 0.310800 0.557756 0.706055
Si Si3 0.000000 0.000000 0.000000
Si Si4 0.903411 0.069094 0.700136
Si Si5 0.398201 0.698749 0.288008
Si Si6 0.052199 0.775364 0.702975
Si Si7 0.613372 0.133455 0.286121
Si Si8 0.537277 0.888974 0.699266
O O1 0.231406 0.563081 0.730167
O O2 0.161765 0.434143 0.733907
O O3 0.096451 0.561445 0.722394
O O4 0.163460 0.523834 0.000000
O O5 0.325282 0.552664 0.500000
O O6 0.337080 0.481524 0.792763
O O7 0.353434 0.629072 0.773496
O O8 0.048388 0.965226 0.154358
O O9 0.930117 0.066028 0.500000
O O10 0.897348 0.157159 0.743082
O O11 0.397585 0.696999 0.500000
O O12 0.476456 0.693617 0.235397
O O13 0.373040 0.781095 0.230612
O O14 0.058249 0.755711 0.500000
O O15 0.059504 0.697810 0.803046
O O16 0.611842 0.135360 0.500000
O O17 0.537770 0.112365 0.224457
O O18 0.528907 0.915622 0.500000
#
# Coordination Sequence:
#
# PCOD9443470 Si02
#       8
#     8   8   2   8   8   8   8   8
#     4  10  20  36  59  85 117 157 200 251 304 366
#     4  11  23  39  57  82 120 164 205 247 306 368
#     4  12  22  36  64  90 120 160 202 256 308 342
#     4  11  24  39  58  90 124 164 207 251 303 365
#     4   9  19  35  58  82 109 149 192 240 293 359
#     4  10  21  35  57  88 119 150 191 247 301 353
#     4   8  15  33  60  87 110 144 200 251 301 360
#     4   9  18  34  60  88 116 152 197 251 308 364
#
# _framework density 21.372896999999998
#
# number of rings (size 3 to 8) (size 9 to 14) (size 15 to 20)
#    0.000    2.207    0.690    3.103    3.862    4.414 
#    2.483    2.759    0.000    4.138    0.000    0.000 
#    0.000    0.000    0.000    0.000    0.000    0.000 
#
# Total GULP energy -323148.289416 kJ/mol
# GULP energy per Si atom -5571.522231 kJ/mol
# Density = 2.132425 g / cm^3
# Si number density = 21.372897 Si / 1000 Ang^3
#
#
#
# Elastic Constant Matrix: (Units=GPa)
#
#
# Indices 1 2 3 4 5 6 
#
# 1 -68.2447 132.9258 8.6955 0.0000 0.0000 0.0000
# 2 132.9258 60.0786 -8.8442 0.0000 0.0000 0.0000
# 3 8.6955 -8.8442 66.4749 0.0000 0.0000 0.0000
# 4 0.0000 0.0000 0.0000 -6.4541 0.0000 0.0000
# 5 0.0000 0.0000 0.0000 0.0000 16.4682 0.0000
# 6 0.0000 0.0000 0.0000 0.0000 0.0000 58.3860
#
#
#
# Elastic Compliance Matrix: (Units=1/GPa)
#
#
# Indices 1 2 3 4 5 6 
#
# 1 -0.002669 0.006077 0.001158 0.000000 0.000000 0.000000
# 2 0.006077 0.003144 -0.000377 0.000000 0.000000 0.000000
# 3 0.001158 -0.000377 0.014842 0.000000 0.000000 0.000000
# 4 0.000000 0.000000 0.000000 -0.154940 0.000000 0.000000
# 5 0.000000 0.000000 0.000000 0.000000 0.060723 0.000000
# 6 0.000000 0.000000 0.000000 0.000000 0.000000 0.017127
#
#
# Mechanical properties :
#
#
# Convention : Reuss Voigt Hill
#
# Bulk Modulus (GPa) = 34.44418 35.98477 35.21448
# Shear Modulus (GPa) = -75.97553 8.71545 -33.63004
#
# Velocity S-wave (km/s) = -5.96865 2.02155 -3.97103
# Velocity P-wave (km/s) = 5.59901 4.72462 2.12448
#
# Compressibility (1/GPa) = 0.02903248
#
# Stress axis : x y z
#
# Youngs Moduli (GPa) = -374.60423 318.02000 67.37754
#
# Poissons Ratio (x) = -1.93252 -0.07800
# Poissons Ratio (y) = 2.27637 0.02537
# Poissons Ratio (z) = 0.43367 0.11974
#
# Static dielectric constant tensor:
#      x y z
#    x 1.752970 0.000000 0.000000 
#    y 0.000000 1.803930 0.000000 
#    z 0.000000 0.000000 1.834610 
# 
# From -- ./inp_files/8047.got.cif
#   From: 2010.05.17/outbox.cif.g08.bks.cpg/sg58_5_cif.got.tgz:8047.got - 2010.06.03 14:20:14.
