data_PCOD9443629
_publ_section_title
;
Structure prediction by ZEFSAII (Michael W. Deem and Ramdas Pophale) SiO2 
 PCOD9443629
Probable space group: P N N M
;
_chemical_formula_sum "Si O2"
_cell_formula_units_Z 52
_cell_length_a 13.413232
_cell_length_b 10.432343
_cell_length_c 18.630288
_cell_angle_alpha 90.000000
_cell_angle_beta 90.000000
_cell_angle_gamma 90.000000
_cell_volume 2606.962971
_symmetry_space_group_name_H-M "P N N M"
_symmetry_group_IT_number 58
_symmetry_cell_setting 'orthorhombic'
loop_
_space_group_symop_operation_xyz
x,y,z
-x,-y,z
1/2+x,1/2-y,1/2-z
1/2-x,1/2+y,1/2-z
-x,-y,-z
x,y,-z
1/2-x,1/2+y,1/2+z
1/2+x,1/2-y,1/2+z
loop_
_atom_site_type_symbol
_atom_site_label
_atom_site_fract_x
_atom_site_fract_y
_atom_site_fract_z
Si Si1 0.802251 0.536725 0.500000
Si Si2 0.321924 0.272088 0.000000
Si Si3 0.204525 0.293916 0.144184
Si Si4 0.940989 0.777167 0.500000
Si Si5 0.392994 0.932181 0.235862
Si Si6 0.703894 0.495906 0.647232
Si Si7 0.907855 0.839734 0.340444
Si Si8 0.877027 0.099742 0.276658
O O1 0.824550 0.384187 0.500000
O O2 0.899000 0.629743 0.500000
O O3 0.737876 0.555548 0.571962
O O4 0.261044 0.320398 0.930669
O O5 0.439690 0.301021 0.000000
O O6 0.128348 0.393487 0.180990
O O7 0.165084 0.149103 0.138271
O O8 0.294363 0.299545 0.201512
O O9 0.902071 0.836300 0.425980
O O10 0.385545 0.797343 0.193340
O O11 0.500000 0.000000 0.227037
O O12 0.304117 0.008913 0.196663
O O13 0.624743 0.578976 0.691783
O O14 0.020401 0.863589 0.313103
O O15 0.848595 0.960317 0.309334
#
# Coordination Sequence:
#
# PCOD9443629 Si02
#       8
#     4   4   8   4   8   8   8   8
#     4  10  21  32  57  89 119 147 181 249 286 348
#     4  10  21  35  59  83 121 148 183 242 300 355
#     4  10  20  38  56  82 111 155 192 234 294 342
#     4  12  21  34  54  92 122 147 182 229 306 362
#     4  11  22  35  57  84 114 153 199 241 279 342
#     4  10  20  37  59  83 117 150 196 237 294 344
#     4  11  22  36  56  84 120 149 186 237 293 347
#     4  10  21  36  56  79 115 159 188 232 280 357
#
# _framework density 19.946580999999998
#
# number of rings (size 3 to 8) (size 9 to 14) (size 15 to 20)
#    0.000    1.538    4.615    1.154    2.154    1.846 
#    0.000    0.385    0.000    2.769    0.000    0.000 
#    0.000    0.000    0.000    0.000    0.000    0.000 
#
# Total GULP energy -289830.661338 kJ/mol
# GULP energy per Si atom -5573.666564 kJ/mol
# Density = 1.990118 g / cm^3
# Si number density = 19.946581 Si / 1000 Ang^3
#
#
#
# Elastic Constant Matrix: (Units=GPa)
#
#
# Indices 1 2 3 4 5 6 
#
# 1 39.2256 11.8075 29.2035 0.0000 0.0000 0.0000
# 2 11.8075 62.7545 23.6691 0.0000 0.0000 0.0000
# 3 29.2035 23.6691 148.3660 0.0000 0.0000 0.0000
# 4 0.0000 0.0000 0.0000 12.3330 0.0000 0.0000
# 5 0.0000 0.0000 0.0000 0.0000 20.3780 0.0000
# 6 0.0000 0.0000 0.0000 0.0000 0.0000 16.0290
#
#
#
# Elastic Compliance Matrix: (Units=1/GPa)
#
#
# Indices 1 2 3 4 5 6 
#
# 1 0.030665 -0.003717 -0.005443 0.000000 0.000000 0.000000
# 2 -0.003717 0.017406 -0.002045 0.000000 0.000000 0.000000
# 3 -0.005443 -0.002045 0.008138 0.000000 0.000000 0.000000
# 4 0.000000 0.000000 0.000000 0.081083 0.000000 0.000000
# 5 0.000000 0.000000 0.000000 0.000000 0.049072 0.000000
# 6 0.000000 0.000000 0.000000 0.000000 0.000000 0.062387
#
#
# Mechanical properties :
#
#
# Convention : Reuss Voigt Hill
#
# Bulk Modulus (GPa) = 29.58720 42.18961 35.88840
# Shear Modulus (GPa) = 17.70374 22.12575 19.91474
#
# Velocity S-wave (km/s) = 2.98242 3.33415 3.16318
# Velocity P-wave (km/s) = 5.16964 6.00161 5.60110
#
# Compressibility (1/GPa) = 0.03379840
#
# Stress axis : x y z
#
# Youngs Moduli (GPa) = 32.61092 57.45207 122.88460
#
# Poissons Ratio (x) = 0.21353 0.66885
# Poissons Ratio (y) = 0.12121 0.25132
# Poissons Ratio (z) = 0.17750 0.11750
#
# Static dielectric constant tensor:
#      x y z
#    x 1.721470 0.000000 0.000000 
#    y 0.000000 1.750160 0.000000 
#    z 0.000000 0.000000 1.731190 
# 
# From -- ./inp_files/26298.got.cif
#   From: 2010.05.17/outbox.cif.g08.bks.cpg/sg58_14_cif.got.tgz:26298.got - 2010.06.03 14:20:14.
