data_PCOD9443441
_publ_section_title
;
Structure prediction by ZEFSAII (Michael W. Deem and Ramdas Pophale) SiO2 
 PCOD9443441
Probable space group: P N N M
;
_chemical_formula_sum "Si O2"
_cell_formula_units_Z 56
_cell_length_a 14.781132
_cell_length_b 21.287561
_cell_length_c 9.235820
_cell_angle_alpha 90.000000
_cell_angle_beta 90.000000
_cell_angle_gamma 90.000000
_cell_volume 2906.090007
_symmetry_space_group_name_H-M "P N N M"
_symmetry_group_IT_number 58
_symmetry_cell_setting 'orthorhombic'
loop_
_space_group_symop_operation_xyz
x,y,z
-x,-y,z
1/2+x,1/2-y,1/2-z
1/2-x,1/2+y,1/2-z
-x,-y,-z
x,y,-z
1/2-x,1/2+y,1/2+z
1/2+x,1/2-y,1/2+z
loop_
_atom_site_type_symbol
_atom_site_label
_atom_site_fract_x
_atom_site_fract_y
_atom_site_fract_z
Si Si1 0.391393 0.927855 0.671035
Si Si2 0.900831 0.969440 0.170891
Si Si3 0.789578 0.092960 0.827632
Si Si4 0.911457 0.195746 0.328012
Si Si5 0.902540 0.422013 0.828661
Si Si6 0.792788 0.317464 0.328508
Si Si7 0.113990 0.163273 0.327387
O O1 0.378077 0.915936 0.500000
O O2 0.309802 0.899117 0.761182
O O3 0.492990 0.906651 0.709738
O O4 0.390097 0.003440 0.691743
O O5 0.890013 0.907877 0.267125
O O6 0.827664 0.023158 0.205348
O O7 0.892912 0.952975 0.000000
O O8 0.000000 0.000000 0.191934
O O9 0.858819 0.142245 0.758881
O O10 0.788030 0.099927 0.000000
O O11 0.903225 0.182459 0.500000
O O12 0.863832 0.261964 0.299338
O O13 0.017523 0.194481 0.292411
O O14 0.834006 0.381308 0.735859
O O15 0.890115 0.409175 0.000000
O O16 0.779371 0.322950 0.500000
O O17 0.698178 0.304156 0.250362
O O18 0.126495 0.163111 0.500000
#
# Coordination Sequence:
#
# PCOD9443441 Si02
#       7
#     8   8   8   8   8   8   8
#     4   9  19  36  59  86 120 153 188 236 288 343
#     4  10  20  36  58  88 124 155 189 240 301 355
#     4  11  22  35  57  88 119 153 193 239 292 350
#     4  10  24  43  59  80 114 154 196 240 287 343
#     4   9  19  38  61  86 114 152 196 237 283 342
#     4  11  24  41  61  85 117 155 195 244 297 348
#     4  11  23  40  63  89 117 154 201 245 292 355
#
# _framework density 19.269879
#
# number of rings (size 3 to 8) (size 9 to 14) (size 15 to 20)
#    0.000    1.857    1.429    3.000    0.000    7.714 
#    0.000    4.286    0.000    0.000    0.000    0.000 
#    0.000    0.000    0.000    0.000    0.000    0.000 
#
# Total GULP energy -312978.709508 kJ/mol
# GULP energy per Si atom -5588.905527 kJ/mol
# Density = 1.922602 g / cm^3
# Si number density = 19.269879 Si / 1000 Ang^3
#
#
#
# Elastic Constant Matrix: (Units=GPa)
#
#
# Indices 1 2 3 4 5 6 
#
# 1 132.8779 27.3927 55.8289 0.0000 0.0000 0.0000
# 2 27.3927 37.3070 31.1986 0.0000 0.0000 0.0000
# 3 55.8289 31.1986 47.2053 0.0000 0.0000 0.0000
# 4 0.0000 0.0000 0.0000 17.5371 0.0000 0.0000
# 5 0.0000 0.0000 0.0000 0.0000 26.1746 0.0000
# 6 0.0000 0.0000 0.0000 0.0000 0.0000 18.9637
#
#
#
# Elastic Compliance Matrix: (Units=1/GPa)
#
#
# Indices 1 2 3 4 5 6 
#
# 1 0.016277 0.009272 -0.025379 0.000000 0.000000 0.000000
# 2 0.009272 0.065207 -0.054061 0.000000 0.000000 0.000000
# 3 -0.025379 -0.054061 0.086929 0.000000 0.000000 0.000000
# 4 0.000000 0.000000 0.000000 0.057022 0.000000 0.000000
# 5 0.000000 0.000000 0.000000 0.000000 0.038205 0.000000
# 6 0.000000 0.000000 0.000000 0.000000 0.000000 0.052732
#
#
# Mechanical properties :
#
#
# Convention : Reuss Voigt Hill
#
# Bulk Modulus (GPa) = 35.61751 49.58117 42.59934
# Shear Modulus (GPa) = 10.72806 19.39973 15.06389
#
# Velocity S-wave (km/s) = 2.36207 3.17636 2.79898
# Velocity P-wave (km/s) = 5.09537 6.26403 5.70968
#
# Compressibility (1/GPa) = 0.02807608
#
# Stress axis : x y z
#
# Youngs Moduli (GPa) = 61.43555 15.33584 11.50366
#
# Poissons Ratio (x) = -0.14219 0.29195
# Poissons Ratio (y) = -0.56961 0.62191
# Poissons Ratio (z) = 1.55915 0.82908
#
# Static dielectric constant tensor:
#      x y z
#    x 1.676520 0.000000 0.000000 
#    y 0.000000 1.647270 0.000000 
#    z 0.000000 0.000000 1.635090 
# 
# From -- ./inp_files/6458.got.cif
#   From: 2010.05.17/outbox.cif.g08.bks.cpg/sg58_4_cif.got.tgz:6458.got - 2010.06.03 14:20:14.
