data_PCOD9443102
_publ_section_title
;
Structure prediction by ZEFSAII (Michael W. Deem and Ramdas Pophale) SiO2 
 PCOD9443102
Probable space group: P N N M
;
_chemical_formula_sum "Si O2"
_cell_formula_units_Z 56
_cell_length_a 13.933316
_cell_length_b 9.455373
_cell_length_c 19.559015
_cell_angle_alpha 90.000000
_cell_angle_beta 90.000000
_cell_angle_gamma 90.000000
_cell_volume 2576.796562
_symmetry_space_group_name_H-M "P N N M"
_symmetry_group_IT_number 58
_symmetry_cell_setting 'orthorhombic'
loop_
_space_group_symop_operation_xyz
x,y,z
-x,-y,z
1/2+x,1/2-y,1/2-z
1/2-x,1/2+y,1/2-z
-x,-y,-z
x,y,-z
1/2-x,1/2+y,1/2+z
1/2+x,1/2-y,1/2+z
loop_
_atom_site_type_symbol
_atom_site_label
_atom_site_fract_x
_atom_site_fract_y
_atom_site_fract_z
Si Si1 0.376471 0.133787 0.500000
Si Si2 0.782674 0.139301 0.725335
Si Si3 0.871075 0.148668 0.424219
Si Si4 0.621455 0.345724 0.745869
Si Si5 0.715479 0.691712 0.620900
Si Si6 0.595400 0.426338 0.400073
Si Si7 0.104262 0.316818 0.000000
Si Si8 0.578572 0.325061 0.890846
O O1 0.336090 0.203266 0.568774
O O2 0.489926 0.156302 0.500000
O O3 0.350581 0.969770 0.500000
O O4 0.821604 0.182196 0.649697
O O5 0.674821 0.198727 0.730244
O O6 0.818214 0.202506 0.799421
O O7 0.802413 0.971493 0.734560
O O8 0.829204 0.182240 0.500000
O O9 0.978253 0.215175 0.423932
O O10 0.887855 0.977619 0.419551
O O11 0.571148 0.389908 0.677353
O O12 0.553470 0.341435 0.810644
O O13 0.682652 0.536101 0.598240
O O14 0.828672 0.723441 0.610860
O O15 0.500000 0.500000 0.429167
O O16 0.624096 0.282716 0.436178
#
# Coordination Sequence:
#
# PCOD9443102 Si02
#       8
#     4   8   8   8   8   8   4   8
#     4  11  23  38  61  85 128 159 203 274 322 380
#     4   9  20  39  59  90 122 160 209 256 307 373
#     4  10  20  34  58  92 134 161 207 264 318 372
#     4   9  20  35  61  86 119 157 208 259 306 363
#     4  10  21  37  63  89 124 166 216 259 311 381
#     4  11  21  37  60  85 120 167 208 250 316 384
#     4  11  24  39  52  91 127 154 209 257 320 389
#     4   9  19  34  57  93 122 160 213 262 304 370
#
# _framework density 21.732410000000002
#
# number of rings (size 3 to 8) (size 9 to 14) (size 15 to 20)
#    0.000    2.143    1.429    1.500    8.000    3.429 
#    1.286    0.000    0.000    7.714    0.000    9.000 
#    0.000    0.000    0.000    0.000    0.000    0.000 
#
# Total GULP energy -312065.939558 kJ/mol
# GULP energy per Si atom -5572.606064 kJ/mol
# Density = 2.168295 g / cm^3
# Si number density = 21.732410 Si / 1000 Ang^3
#
#
#
# Elastic Constant Matrix: (Units=GPa)
#
#
# Indices 1 2 3 4 5 6 
#
# 1 59.2768 10.2614 32.8575 0.0000 0.0000 0.0000
# 2 10.2614 74.5792 56.2433 0.0000 0.0000 0.0000
# 3 32.8575 56.2433 174.5567 0.0000 0.0000 0.0000
# 4 0.0000 0.0000 0.0000 3.4118 0.0000 0.0000
# 5 0.0000 0.0000 0.0000 0.0000 24.3319 0.0000
# 6 0.0000 0.0000 0.0000 0.0000 0.0000 32.1136
#
#
#
# Elastic Compliance Matrix: (Units=1/GPa)
#
#
# Indices 1 2 3 4 5 6 
#
# 1 0.018836 0.000109 -0.003581 0.000000 0.000000 0.000000
# 2 0.000109 0.017713 -0.005728 0.000000 0.000000 0.000000
# 3 -0.003581 -0.005728 0.008248 0.000000 0.000000 0.000000
# 4 0.000000 0.000000 0.000000 0.293104 0.000000 0.000000
# 5 0.000000 0.000000 0.000000 0.000000 0.041098 0.000000
# 6 0.000000 0.000000 0.000000 0.000000 0.000000 0.031139
#
#
# Mechanical properties :
#
#
# Convention : Reuss Voigt Hill
#
# Bulk Modulus (GPa) = 37.88164 56.34857 47.11511
# Shear Modulus (GPa) = 11.43282 25.90816 18.67049
#
# Velocity S-wave (km/s) = 2.29612 3.45649 2.93423
# Velocity P-wave (km/s) = 4.94958 6.47413 5.76250
#
# Compressibility (1/GPa) = 0.02639801
#
# Stress axis : x y z
#
# Youngs Moduli (GPa) = 53.08998 56.45524 121.23708
#
# Poissons Ratio (x) = -0.00613 0.43410
# Poissons Ratio (y) = -0.00577 0.69441
# Poissons Ratio (z) = 0.19009 0.32336
#
# Static dielectric constant tensor:
#      x y z
#    x 1.816330 0.000000 0.000000 
#    y 0.000000 1.768110 0.000000 
#    z 0.000000 0.000000 1.865850 
# 
# From -- ./inp_files/30057.got.cif
#   From: 2010.05.17/outbox.cif.g08.bks.cpg/sg58_16_cif.got.tgz:30057.got - 2010.06.03 14:20:14.
