data_PCOD9443802
_publ_section_title
;
Structure prediction by ZEFSAII (Michael W. Deem and Ramdas Pophale) SiO2 
 PCOD9443802
Probable space group: P N N M
;
_chemical_formula_sum "Si O2"
_cell_formula_units_Z 64
_cell_length_a 14.670815
_cell_length_b 25.132039
_cell_length_c 8.162620
_cell_angle_alpha 90.000000
_cell_angle_beta 90.000000
_cell_angle_gamma 90.000000
_cell_volume 3009.619171
_symmetry_space_group_name_H-M "P N N M"
_symmetry_group_IT_number 58
_symmetry_cell_setting 'orthorhombic'
loop_
_space_group_symop_operation_xyz
x,y,z
-x,-y,z
1/2+x,1/2-y,1/2-z
1/2-x,1/2+y,1/2-z
-x,-y,-z
x,y,-z
1/2-x,1/2+y,1/2+z
1/2+x,1/2-y,1/2+z
loop_
_atom_site_type_symbol
_atom_site_label
_atom_site_fract_x
_atom_site_fract_y
_atom_site_fract_z
Si Si1 0.685055 0.198317 0.198472
Si Si2 0.767710 0.473109 0.184394
Si Si3 0.046786 0.555798 0.307871
Si Si4 0.733811 0.585327 0.697862
Si Si5 0.026513 0.940228 0.799857
Si Si6 0.350123 0.613096 0.687220
Si Si7 0.505372 0.833274 0.303950
Si Si8 0.793297 0.300960 0.805136
O O1 0.726073 0.141565 0.252653
O O2 0.580572 0.202541 0.255433
O O3 0.748275 0.246538 0.258236
O O4 0.685369 0.198867 0.000000
O O5 0.861529 0.441406 0.203131
O O6 0.784846 0.533858 0.232454
O O7 0.696091 0.445308 0.303865
O O8 0.733114 0.469275 0.000000
O O9 0.071122 0.554770 0.500000
O O10 0.989141 0.608140 0.271402
O O11 0.000000 0.500000 0.268541
O O12 0.739251 0.583408 0.500000
O O13 0.628305 0.576460 0.746528
O O14 0.950778 0.897519 0.744015
O O15 0.022516 0.940586 0.000000
O O16 0.000000 0.000000 0.745046
O O17 0.356967 0.630966 0.500000
O O18 0.280477 0.652677 0.774350
O O19 0.508417 0.837753 0.500000
O O20 0.604939 0.813980 0.241966
O O21 0.803838 0.295120 0.000000
#
# Coordination Sequence:
#
# PCOD9443802 Si02
#       8
#     8   8   8   8   8   8   8   8
#     4  10  23  42  64  88 120 162 204 248 304 365
#     4  12  23  35  55  86 124 159 195 248 308 365
#     4  11  23  38  59  88 121 160 205 249 302 369
#     4  10  20  38  61  85 118 161 206 251 302 368
#     4   9  17  32  57  88 118 151 199 253 299 354
#     4  11  21  36  62  90 116 155 206 253 299 362
#     4  11  23  40  64  92 124 158 201 254 307 360
#     4  10  23  43  63  88 122 160 202 255 310 357
#
# _framework density 21.265148
#
# number of rings (size 3 to 8) (size 9 to 14) (size 15 to 20)
#    0.000    1.500    2.500    3.000    0.000    6.500 
#    0.000    4.375    0.000    0.000    0.000    0.000 
#    0.000    0.000    0.000    0.000    0.000    0.000 
#
# Total GULP energy -357573.479931 kJ/mol
# GULP energy per Si atom -5587.085624 kJ/mol
# Density = 2.121675 g / cm^3
# Si number density = 21.265148 Si / 1000 Ang^3
#
#
#
# Elastic Constant Matrix: (Units=GPa)
#
#
# Indices 1 2 3 4 5 6 
#
# 1 111.8021 39.1326 6.2016 0.0000 0.0000 0.0000
# 2 39.1326 101.0577 -3.0212 0.0000 0.0000 0.0000
# 3 6.2016 -3.0212 13.0091 0.0000 0.0000 0.0000
# 4 0.0000 0.0000 0.0000 9.9753 0.0000 0.0000
# 5 0.0000 0.0000 0.0000 0.0000 16.4606 0.0000
# 6 0.0000 0.0000 0.0000 0.0000 0.0000 30.5846
#
#
#
# Elastic Compliance Matrix: (Units=1/GPa)
#
#
# Indices 1 2 3 4 5 6 
#
# 1 0.010818 -0.004373 -0.006173 0.000000 0.000000 0.000000
# 2 -0.004373 0.011733 0.004810 0.000000 0.000000 0.000000
# 3 -0.006173 0.004810 0.080929 0.000000 0.000000 0.000000
# 4 0.000000 0.000000 0.000000 0.100247 0.000000 0.000000
# 5 0.000000 0.000000 0.000000 0.000000 0.060751 0.000000
# 6 0.000000 0.000000 0.000000 0.000000 0.000000 0.032696
#
#
# Mechanical properties :
#
#
# Convention : Reuss Voigt Hill
#
# Bulk Modulus (GPa) = 10.86884 34.49944 22.68414
# Shear Modulus (GPa) = 14.73559 23.64118 19.18839
#
# Velocity S-wave (km/s) = 2.63524 3.33788 3.00716
# Velocity P-wave (km/s) = 3.79230 5.57799 4.76946
#
# Compressibility (1/GPa) = 0.09200611
#
# Stress axis : x y z
#
# Youngs Moduli (GPa) = 92.44262 85.23239 12.35657
#
# Poissons Ratio (x) = 0.37276 0.07627
# Poissons Ratio (y) = 0.40429 -0.05943
# Poissons Ratio (z) = 0.57060 -0.40993
#
# Static dielectric constant tensor:
#      x y z
#    x 1.785460 0.000000 0.000000 
#    y 0.000000 1.761120 0.000000 
#    z 0.000000 0.000000 1.741830 
# 
# From -- ./inp_files/6963.got.cif
#   From: 2010.05.17/outbox.cif.g08.bks.cpg/sg58_4_cif.got.tgz:6963.got - 2010.06.03 14:20:14.
