data_PCOD9443308
_publ_section_title
;
Structure prediction by ZEFSAII (Michael W. Deem and Ramdas Pophale) SiO2 
 PCOD9443308
Probable space group: P N N M
;
_chemical_formula_sum "Si O2"
_cell_formula_units_Z 56
_cell_length_a 11.831803
_cell_length_b 15.653003
_cell_length_c 15.424325
_cell_angle_alpha 90.000000
_cell_angle_beta 90.000000
_cell_angle_gamma 90.000000
_cell_volume 2856.635086
_symmetry_space_group_name_H-M "P N N M"
_symmetry_group_IT_number 58
_symmetry_cell_setting 'orthorhombic'
loop_
_space_group_symop_operation_xyz
x,y,z
-x,-y,z
1/2+x,1/2-y,1/2-z
1/2-x,1/2+y,1/2-z
-x,-y,-z
x,y,-z
1/2-x,1/2+y,1/2+z
1/2+x,1/2-y,1/2+z
loop_
_atom_site_type_symbol
_atom_site_label
_atom_site_fract_x
_atom_site_fract_y
_atom_site_fract_z
Si Si1 0.848768 0.259014 0.403799
Si Si2 0.391815 0.562924 0.594095
Si Si3 0.534259 0.098471 0.904609
Si Si4 0.010754 0.136062 0.678608
Si Si5 0.091940 0.424778 0.213731
Si Si6 0.329543 0.498212 0.223779
Si Si7 0.390784 0.742047 0.669008
O O1 0.798605 0.257161 0.500000
O O2 0.745613 0.252741 0.337317
O O3 0.921739 0.344587 0.393069
O O4 0.939127 0.182847 0.394287
O O5 0.500000 0.500000 0.594915
O O6 0.334936 0.551797 0.500000
O O7 0.320726 0.538995 0.679863
O O8 0.423212 0.663014 0.605979
O O9 0.602864 0.104887 0.815037
O O10 0.500000 0.000000 0.909468
O O11 0.583542 0.122540 0.000000
O O12 0.063020 0.208254 0.739606
O O13 0.917987 0.079578 0.729659
O O14 0.110954 0.068866 0.662500
O O15 0.211920 0.464764 0.189397
O O16 0.066297 0.339024 0.159248
O O17 0.000000 0.500000 0.208298
#
# Coordination Sequence:
#
# PCOD9443308 Si02
#       7
#     8   8   8   8   8   8   8
#     4  11  22  38  61  89 123 165 211 257 313 381
#     4  10  20  35  58  89 120 156 201 253 317 384
#     4   9  20  35  51  83 123 153 192 246 315 378
#     4  10  20  37  60  87 116 161 201 258 306 367
#     4  11  23  36  60  90 120 167 213 259 319 374
#     4  10  20  39  57  84 124 154 206 254 313 381
#     4  11  21  36  59  89 126 162 206 257 316 381
#
# _framework density 19.603484999999999
#
# number of rings (size 3 to 8) (size 9 to 14) (size 15 to 20)
#    0.000    1.714    5.714    0.429    8.000    0.571 
#    0.000    1.429    0.000    1.714    0.000    2.000 
#    0.000    0.000    0.000    0.000    0.000    0.000 
#
# Total GULP energy -311831.856582 kJ/mol
# GULP energy per Si atom -5568.426010 kJ/mol
# Density = 1.955887 g / cm^3
# Si number density = 19.603485 Si / 1000 Ang^3
#
#
#
# Elastic Constant Matrix: (Units=GPa)
#
#
# Indices 1 2 3 4 5 6 
#
# 1 78.4639 48.0259 6.3374 0.0000 0.0000 0.0000
# 2 48.0259 152.5771 20.1395 0.0000 0.0000 0.0000
# 3 6.3374 20.1395 28.8799 0.0000 0.0000 0.0000
# 4 0.0000 0.0000 0.0000 13.9787 0.0000 0.0000
# 5 0.0000 0.0000 0.0000 0.0000 28.5810 0.0000
# 6 0.0000 0.0000 0.0000 0.0000 0.0000 34.1284
#
#
#
# Elastic Compliance Matrix: (Units=1/GPa)
#
#
# Indices 1 2 3 4 5 6 
#
# 1 0.015786 -0.004969 0.000001 0.000000 0.000000 0.000000
# 2 -0.004969 0.008783 -0.005034 0.000000 0.000000 0.000000
# 3 0.000001 -0.005034 0.038137 0.000000 0.000000 0.000000
# 4 0.000000 0.000000 0.000000 0.071538 0.000000 0.000000
# 5 0.000000 0.000000 0.000000 0.000000 0.034988 0.000000
# 6 0.000000 0.000000 0.000000 0.000000 0.000000 0.029301
#
#
# Mechanical properties :
#
#
# Convention : Reuss Voigt Hill
#
# Bulk Modulus (GPa) = 23.41870 45.43629 34.42750
# Shear Modulus (GPa) = 21.48042 27.69883 24.58963
#
# Velocity S-wave (km/s) = 3.31380 3.76301 3.54552
# Velocity P-wave (km/s) = 5.15885 6.48909 5.86183
#
# Compressibility (1/GPa) = 0.04270092
#
# Stress axis : x y z
#
# Youngs Moduli (GPa) = 63.34711 113.86113 26.22154
#
# Poissons Ratio (x) = 0.56578 -0.00003
# Poissons Ratio (y) = 0.31477 0.13200
# Poissons Ratio (z) = -0.00007 0.57320
#
# Static dielectric constant tensor:
#      x y z
#    x 1.669960 0.000000 0.000000 
#    y 0.000000 1.738460 0.000000 
#    z 0.000000 0.000000 1.712560 
# 
# From -- ./inp_files/21252.got.cif
#   From: 2010.05.17/outbox.cif.g08.bks.cpg/sg58_11_cif.got.tgz:21252.got - 2010.06.03 14:20:14.
