data_PCOD9443612
_publ_section_title
;
Structure prediction by ZEFSAII (Michael W. Deem and Ramdas Pophale) SiO2 
 PCOD9443612
Probable space group: P N N M
;
_chemical_formula_sum "Si O2"
_cell_formula_units_Z 54
_cell_length_a 27.745861
_cell_length_b 5.323872
_cell_length_c 16.447579
_cell_angle_alpha 90.000000
_cell_angle_beta 90.000000
_cell_angle_gamma 90.000000
_cell_volume 2429.560917
_symmetry_space_group_name_H-M "P N N M"
_symmetry_group_IT_number 58
_symmetry_cell_setting 'orthorhombic'
loop_
_space_group_symop_operation_xyz
x,y,z
-x,-y,z
1/2+x,1/2-y,1/2-z
1/2-x,1/2+y,1/2-z
-x,-y,-z
x,y,-z
1/2-x,1/2+y,1/2+z
1/2+x,1/2-y,1/2+z
loop_
_atom_site_type_symbol
_atom_site_label
_atom_site_fract_x
_atom_site_fract_y
_atom_site_fract_z
Si Si1 0.440865 0.642441 0.649703
Si Si2 0.500000 0.000000 0.250665
Si Si3 0.850537 0.551743 0.902553
Si Si4 0.445416 0.387905 0.815849
Si Si5 0.691883 0.549890 0.322222
Si Si6 0.500000 0.500000 0.500000
Si Si7 0.341845 0.443236 0.134657
Si Si8 0.711978 0.062679 0.089228
O O1 0.404096 0.860290 0.623352
O O2 0.425541 0.483624 0.727925
O O3 0.457918 0.499839 0.570527
O O4 0.486249 0.781221 0.689259
O O5 0.543843 0.907583 0.195814
O O6 0.835164 0.283485 0.866258
O O7 0.820254 0.782038 0.863953
O O8 0.846267 0.547410 0.000000
O O9 0.500000 0.500000 0.834164
O O10 0.400018 0.436961 0.872254
O O11 0.676520 0.549380 0.228520
O O12 0.748365 0.585696 0.340062
O O13 0.321507 0.694197 0.094741
O O14 0.318509 0.190696 0.099174
O O15 0.736371 0.059787 0.000000
#
# Coordination Sequence:
#
# PCOD9443612 Si02
#       8
#     8   4   8   8   8   2   8   8
#     4  11  22  37  52  87 130 185 231 284 323 402
#     4  10  20  37  58  82 123 168 222 282 332 376
#     4  12  24  39  63  95 142 187 232 282 344 396
#     4  10  22  40  65  97 133 175 228 290 336 406
#     4  12  25  46  71 103 135 181 236 286 339 416
#     4  12  20  38  48  84 138 188 238 262 348 398
#     4  12  25  45  76 106 138 181 235 285 342 421
#     4  12  27  48  73 105 142 179 223 290 366 426
#
# _framework density 22.226237000000001
#
# number of rings (size 3 to 8) (size 9 to 14) (size 15 to 20)
#    0.000    0.593    4.444    5.333    4.148    0.296 
#    2.667    0.000    0.000    2.667    0.000    0.000 
#    0.000    0.000    0.000    0.000    0.000    0.000 
#
# Total GULP energy -301000.381342 kJ/mol
# GULP energy per Si atom -5574.081136 kJ/mol
# Density = 2.217565 g / cm^3
# Si number density = 22.226237 Si / 1000 Ang^3
#
#
#
# Elastic Constant Matrix: (Units=GPa)
#
#
# Indices 1 2 3 4 5 6 
#
# 1 103.5951 9.9943 11.2882 0.0000 0.0000 0.0000
# 2 9.9943 84.7548 16.7050 0.0000 0.0000 0.0000
# 3 11.2882 16.7050 53.5101 0.0000 0.0000 0.0000
# 4 0.0000 0.0000 0.0000 33.6108 0.0000 0.0000
# 5 0.0000 0.0000 0.0000 0.0000 25.9419 0.0000
# 6 0.0000 0.0000 0.0000 0.0000 0.0000 34.3283
#
#
#
# Elastic Compliance Matrix: (Units=1/GPa)
#
#
# Indices 1 2 3 4 5 6 
#
# 1 0.009932 -0.000808 -0.001843 0.000000 0.000000 0.000000
# 2 -0.000808 0.012638 -0.003775 0.000000 0.000000 0.000000
# 3 -0.001843 -0.003775 0.020255 0.000000 0.000000 0.000000
# 4 0.000000 0.000000 0.000000 0.029752 0.000000 0.000000
# 5 0.000000 0.000000 0.000000 0.000000 0.038548 0.000000
# 6 0.000000 0.000000 0.000000 0.000000 0.000000 0.029130
#
#
# Mechanical properties :
#
#
# Convention : Reuss Voigt Hill
#
# Bulk Modulus (GPa) = 33.36284 35.31502 34.33893
# Shear Modulus (GPa) = 30.65635 32.36770 31.51202
#
# Velocity S-wave (km/s) = 3.71790 3.82027 3.76943
# Velocity P-wave (km/s) = 5.78563 5.94833 5.86755
#
# Compressibility (1/GPa) = 0.02997347
#
# Stress axis : x y z
#
# Youngs Moduli (GPa) = 100.68742 79.12618 49.36978
#
# Poissons Ratio (x) = 0.06393 0.09099
# Poissons Ratio (y) = 0.08135 0.18637
# Poissons Ratio (z) = 0.18556 0.29870
#
# Static dielectric constant tensor:
#      x y z
#    x 1.910230 0.000000 0.000000 
#    y 0.000000 1.880740 0.000000 
#    z 0.000000 0.000000 1.765000 
# 
# From -- ./inp_files/23775.got.cif
#   From: 2010.05.17/outbox.cif.g08.bks.cpg/sg58_12_cif.got.tgz:23775.got - 2010.06.03 14:20:14.
