data_PCOD9443463
_publ_section_title
;
Structure prediction by ZEFSAII (Michael W. Deem and Ramdas Pophale) SiO2 
 PCOD9443463
Probable space group: P N N M
;
_chemical_formula_sum "Si O2"
_cell_formula_units_Z 64
_cell_length_a 18.831197
_cell_length_b 8.153076
_cell_length_c 18.633507
_cell_angle_alpha 90.000000
_cell_angle_beta 90.000000
_cell_angle_gamma 90.000000
_cell_volume 2860.842957
_symmetry_space_group_name_H-M "P N N M"
_symmetry_group_IT_number 58
_symmetry_cell_setting 'orthorhombic'
loop_
_space_group_symop_operation_xyz
x,y,z
-x,-y,z
1/2+x,1/2-y,1/2-z
1/2-x,1/2+y,1/2-z
-x,-y,-z
x,y,-z
1/2-x,1/2+y,1/2+z
1/2+x,1/2-y,1/2+z
loop_
_atom_site_type_symbol
_atom_site_label
_atom_site_fract_x
_atom_site_fract_y
_atom_site_fract_z
Si Si1 0.796219 0.340959 0.324590
Si Si2 0.606159 0.684974 0.078952
Si Si3 0.626530 0.797467 0.414769
Si Si4 0.319052 0.419832 0.704601
Si Si5 0.172688 0.337743 0.086381
Si Si6 0.977831 0.818122 0.913287
Si Si7 0.420984 0.581389 0.810741
Si Si8 0.957019 0.668911 0.420136
O O1 0.861448 0.341455 0.379894
O O2 0.759327 0.506471 0.300431
O O3 0.735958 0.242002 0.368958
O O4 0.819962 0.238105 0.255856
O O5 0.617720 0.527817 0.127958
O O6 0.522016 0.702400 0.073207
O O7 0.636917 0.669711 0.000000
O O8 0.630452 0.770911 0.500000
O O9 0.658664 0.643740 0.373117
O O10 0.543241 0.800642 0.393933
O O11 0.664374 0.968774 0.398693
O O12 0.372735 0.549697 0.741168
O O13 0.098314 0.251738 0.107128
O O14 0.182323 0.317491 0.000000
O O15 0.975748 0.825868 0.000000
O O16 0.000000 0.000000 0.887768
O O17 0.500000 0.500000 0.797777
O O18 0.421917 0.761678 0.847195
O O19 0.920591 0.667185 0.500000
O O20 0.000000 0.500000 0.412730
#
# Coordination Sequence:
#
# PCOD9443463 Si02
#       8
#     8   8   8   8   8   8   8   8
#     4  11  23  38  55  78 112 151 190 230 275 343
#     4   9  18  34  57  82 108 142 182 224 272 332
#     4  10  21  38  59  83 111 144 191 249 298 337
#     4  11  24  39  57  79 112 155 197 240 288 346
#     4  10  20  36  59  85 114 149 188 235 291 347
#     4   9  17  31  55  86 114 141 180 231 285 338
#     4   9  19  36  57  81 111 148 186 228 281 342
#     4   9  17  32  58  91 119 141 176 231 288 340
#
# _framework density 22.371027999999999
#
# number of rings (size 3 to 8) (size 9 to 14) (size 15 to 20)
#    0.000    2.250    0.000    2.625    0.000    7.500 
#    0.000    1.250    0.000    6.750    0.000    0.000 
#    0.000    0.500    0.000    0.000    0.000    0.000 
#
# Total GULP energy -357125.363647 kJ/mol
# GULP energy per Si atom -5580.083807 kJ/mol
# Density = 2.232011 g / cm^3
# Si number density = 22.371028 Si / 1000 Ang^3
#
#
#
# Elastic Constant Matrix: (Units=GPa)
#
#
# Indices 1 2 3 4 5 6 
#
# 1 42.9373 -17.8698 -2.4151 0.0000 0.0000 0.0000
# 2 -17.8698 49.9496 18.5402 0.0000 0.0000 0.0000
# 3 -2.4151 18.5402 58.8013 0.0000 0.0000 0.0000
# 4 0.0000 0.0000 0.0000 27.5661 0.0000 0.0000
# 5 0.0000 0.0000 0.0000 0.0000 18.4634 0.0000
# 6 0.0000 0.0000 0.0000 0.0000 0.0000 34.5044
#
#
#
# Elastic Compliance Matrix: (Units=1/GPa)
#
#
# Indices 1 2 3 4 5 6 
#
# 1 0.027623 0.010715 -0.002244 0.000000 0.000000 0.000000
# 2 0.010715 0.026830 -0.008020 0.000000 0.000000 0.000000
# 3 -0.002244 -0.008020 0.019443 0.000000 0.000000 0.000000
# 4 0.000000 0.000000 0.000000 0.036276 0.000000 0.000000
# 5 0.000000 0.000000 0.000000 0.000000 0.054161 0.000000
# 6 0.000000 0.000000 0.000000 0.000000 0.000000 0.028982
#
#
# Mechanical properties :
#
#
# Convention : Reuss Voigt Hill
#
# Bulk Modulus (GPa) = 13.36906 16.46654 14.91780
# Shear Modulus (GPa) = 23.00486 26.33565 24.67025
#
# Velocity S-wave (km/s) = 3.21024 3.43479 3.32441
# Velocity P-wave (km/s) = 4.44184 4.80697 4.62801
#
# Compressibility (1/GPa) = 0.07479956
#
# Stress axis : x y z
#
# Youngs Moduli (GPa) = 36.20164 37.27132 51.43286
#
# Poissons Ratio (x) = -0.39937 0.11542
# Poissons Ratio (y) = -0.38791 0.41247
# Poissons Ratio (z) = 0.08124 0.29890
#
# Static dielectric constant tensor:
#      x y z
#    x 1.860590 0.000000 0.000000 
#    y 0.000000 1.842740 0.000000 
#    z 0.000000 0.000000 1.854750 
# 
# From -- ./inp_files/27557.got.cif
#   From: 2010.05.17/outbox.cif.g08.bks.cpg/sg58_14_cif.got.tgz:27557.got - 2010.06.03 14:20:14.
