data_PCOD9443954
_publ_section_title
;
Structure prediction by ZEFSAII (Michael W. Deem and Ramdas Pophale) SiO2 
 PCOD9443954
Probable space group: P N N M
;
_chemical_formula_sum "Si O2"
_cell_formula_units_Z 58
_cell_length_a 27.413334
_cell_length_b 10.294099
_cell_length_c 10.505336
_cell_angle_alpha 90.000000
_cell_angle_beta 90.000000
_cell_angle_gamma 90.000000
_cell_volume 2964.559324
_symmetry_space_group_name_H-M "P N N M"
_symmetry_group_IT_number 58
_symmetry_cell_setting 'orthorhombic'
loop_
_space_group_symop_operation_xyz
x,y,z
-x,-y,z
1/2+x,1/2-y,1/2-z
1/2-x,1/2+y,1/2-z
-x,-y,-z
x,y,-z
1/2-x,1/2+y,1/2+z
1/2+x,1/2-y,1/2+z
loop_
_atom_site_type_symbol
_atom_site_label
_atom_site_fract_x
_atom_site_fract_y
_atom_site_fract_z
Si Si1 0.815848 0.678109 0.144009
Si Si2 0.561901 0.848687 0.718930
Si Si3 0.145053 0.514136 0.643931
Si Si4 0.500000 0.000000 0.500000
Si Si5 0.202739 0.786394 0.358745
Si Si6 0.136802 0.866193 0.139536
Si Si7 0.591557 0.358214 0.641511
Si Si8 0.987527 0.845897 0.648982
O O1 0.830630 0.578623 0.252851
O O2 0.760502 0.724782 0.161016
O O3 0.855705 0.791887 0.149516
O O4 0.819582 0.621461 0.000000
O O5 0.530098 0.919514 0.612543
O O6 0.604320 0.762139 0.654330
O O7 0.530815 0.747864 0.804063
O O8 0.590836 0.949793 0.808346
O O9 0.144444 0.461905 0.500000
O O10 0.176655 0.646682 0.642662
O O11 0.194616 0.843160 0.500000
O O12 0.176619 0.868994 0.250060
O O13 0.100758 0.988466 0.148637
O O14 0.160128 0.870054 0.000000
O O15 0.570890 0.324972 0.500000
O O16 0.556908 0.316558 0.755415
O O17 0.976784 0.824167 0.500000
O O18 0.000000 0.000000 0.663514
#
# Coordination Sequence:
#
# PCOD9443954 Si02
#       8
#     8   8   8   2   8   8   8   8
#     4  10  23  41  62  91 127 161 210 259 317 375
#     4  11  24  42  64  93 129 167 216 261 322 385
#     4  10  23  42  65  89 129 171 208 260 324 389
#     4  12  28  40  68  96 128 172 222 274 316 388
#     4   9  21  40  63  89 121 163 202 255 318 382
#     4  10  20  39  65  92 120 160 214 260 309 376
#     4  10  23  39  63  91 125 165 207 270 315 371
#     4  11  24  42  66  94 127 166 213 269 326 384
#
# _framework density 19.564458999999999
#
# number of rings (size 3 to 8) (size 9 to 14) (size 15 to 20)
#    0.000    1.793    2.069    0.414    5.793    3.034 
#    0.000    0.690    0.000    0.000    0.000    0.000 
#    0.000    0.000    0.000    0.000    0.000    0.000 
#
# Total GULP energy -323269.925070 kJ/mol
# GULP energy per Si atom -5573.619398 kJ/mol
# Density = 1.951993 g / cm^3
# Si number density = 19.564459 Si / 1000 Ang^3
#
#
#
# Elastic Constant Matrix: (Units=GPa)
#
#
# Indices 1 2 3 4 5 6 
#
# 1 91.1306 18.6808 76.3038 0.0000 0.0000 0.0000
# 2 18.6808 26.4961 40.2873 0.0000 0.0000 0.0000
# 3 76.3038 40.2873 173.8159 0.0000 0.0000 0.0000
# 4 0.0000 0.0000 0.0000 14.3956 0.0000 0.0000
# 5 0.0000 0.0000 0.0000 0.0000 31.3128 0.0000
# 6 0.0000 0.0000 0.0000 0.0000 0.0000 20.8813
#
#
#
# Elastic Compliance Matrix: (Units=1/GPa)
#
#
# Indices 1 2 3 4 5 6 
#
# 1 0.017368 -0.001007 -0.007391 0.000000 0.000000 0.000000
# 2 -0.001007 0.058339 -0.013080 0.000000 0.000000 0.000000
# 3 -0.007391 -0.013080 0.012030 0.000000 0.000000 0.000000
# 4 0.000000 0.000000 0.000000 0.069466 0.000000 0.000000
# 5 0.000000 0.000000 0.000000 0.000000 0.031936 0.000000
# 6 0.000000 0.000000 0.000000 0.000000 0.000000 0.047890
#
#
# Mechanical properties :
#
#
# Convention : Reuss Voigt Hill
#
# Bulk Modulus (GPa) = 22.33094 62.44294 42.38694
# Shear Modulus (GPa) = 16.95423 23.72932 20.34178
#
# Velocity S-wave (km/s) = 2.94697 3.48642 3.22798
# Velocity P-wave (km/s) = 4.79774 6.94209 5.96703
#
# Compressibility (1/GPa) = 0.04478091
#
# Stress axis : x y z
#
# Youngs Moduli (GPa) = 57.57616 17.14109 83.12891
#
# Poissons Ratio (x) = 0.01726 0.61441
# Poissons Ratio (y) = 0.05799 1.08731
# Poissons Ratio (z) = 0.42555 0.22420
#
# Static dielectric constant tensor:
#      x y z
#    x 1.670670 0.000000 0.000000 
#    y 0.000000 1.688480 0.000000 
#    z 0.000000 0.000000 1.693220 
# 
# From -- ./inp_files/10894.got.cif
#   From: 2010.05.17/outbox.cif.g08.bks.cpg/sg58_6_cif.got.tgz:10894.got - 2010.06.03 14:20:14.
