data_PCOD9443827
_publ_section_title
;
Structure prediction by ZEFSAII (Michael W. Deem and Ramdas Pophale) SiO2 
 PCOD9443827
Probable space group: P N N M
;
_chemical_formula_sum "Si O2"
_cell_formula_units_Z 32
_cell_length_a 8.185146
_cell_length_b 19.128898
_cell_length_c 8.212968
_cell_angle_alpha 90.000000
_cell_angle_beta 90.000000
_cell_angle_gamma 90.000000
_cell_volume 1285.927585
_symmetry_space_group_name_H-M "P N N M"
_symmetry_group_IT_number 58
_symmetry_cell_setting 'orthorhombic'
loop_
_space_group_symop_operation_xyz
x,y,z
-x,-y,z
1/2+x,1/2-y,1/2-z
1/2-x,1/2+y,1/2-z
-x,-y,-z
x,y,-z
1/2-x,1/2+y,1/2+z
1/2+x,1/2-y,1/2+z
loop_
_atom_site_type_symbol
_atom_site_label
_atom_site_fract_x
_atom_site_fract_y
_atom_site_fract_z
Si Si1 0.246169 0.229778 0.803418
Si Si2 0.246761 0.983607 0.683512
Si Si3 0.933885 0.143345 0.808614
Si Si4 0.046547 0.599714 0.312264
O O1 0.283236 0.303642 0.722553
O O2 0.395623 0.176798 0.768499
O O3 0.088154 0.187142 0.744636
O O4 0.235027 0.238544 0.000000
O O5 0.230115 0.008600 0.500000
O O6 0.101395 0.931370 0.729728
O O7 0.407122 0.933729 0.701877
O O8 0.294899 0.048924 0.795920
O O9 0.954448 0.132595 0.000000
O O10 0.991025 0.597207 0.500000
#
# Coordination Sequence:
#
# PCOD9443827 Si02
#       4
#     8   8   8   8
#     4  10  23  40  59  85 114 147 189 236 283 337
#     4  11  22  37  58  86 118 150 190 234 279 334
#     4  11  23  39  59  83 114 150 188 233 284 336
#     4  10  20  38  62  86 115 151 190 231 283 339
#
# _framework density 24.884758000000001
#
# number of rings (size 3 to 8) (size 9 to 14) (size 15 to 20)
#    0.000    1.500    0.000    6.750    0.000    9.000 
#    0.000    5.000    0.000    0.000    0.000    0.000 
#    0.000    0.000    0.000    0.000    0.000    0.000 
#
# Total GULP energy -179239.362118 kJ/mol
# GULP energy per Si atom -5601.230066 kJ/mol
# Density = 2.482812 g / cm^3
# Si number density = 24.884758 Si / 1000 Ang^3
#
#
#
# Elastic Constant Matrix: (Units=GPa)
#
#
# Indices 1 2 3 4 5 6 
#
# 1 71.7706 -0.3980 -6.4989 0.0000 0.0000 0.0000
# 2 -0.3980 119.4958 5.9083 0.0000 0.0000 0.0000
# 3 -6.4989 5.9083 53.5579 0.0000 0.0000 0.0000
# 4 0.0000 0.0000 0.0000 249.6105 0.0000 0.0000
# 5 0.0000 0.0000 0.0000 0.0000 31.8941 0.0000
# 6 0.0000 0.0000 0.0000 0.0000 0.0000 45.1334
#
#
#
# Elastic Compliance Matrix: (Units=1/GPa)
#
#
# Indices 1 2 3 4 5 6 
#
# 1 0.014088 -0.000038 0.001714 0.000000 0.000000 0.000000
# 2 -0.000038 0.008414 -0.000933 0.000000 0.000000 0.000000
# 3 0.001714 -0.000933 0.018982 0.000000 0.000000 0.000000
# 4 0.000000 0.000000 0.000000 0.004006 0.000000 0.000000
# 5 0.000000 0.000000 0.000000 0.000000 0.031354 0.000000
# 6 0.000000 0.000000 0.000000 0.000000 0.000000 0.022157
#
#
# Mechanical properties :
#
#
# Convention : Reuss Voigt Hill
#
# Bulk Modulus (GPa) = 23.27149 26.98302 25.12726
# Shear Modulus (GPa) = 44.70710 81.71515 63.21112
#
# Velocity S-wave (km/s) = 4.24319 5.73661 5.04546
# Velocity P-wave (km/s) = 5.77739 7.39899 6.63789
#
# Compressibility (1/GPa) = 0.04297103
#
# Stress axis : x y z
#
# Youngs Moduli (GPa) = 70.98116 118.84261 52.68084
#
# Poissons Ratio (x) = 0.00449 -0.09028
# Poissons Ratio (y) = 0.00268 0.04914
# Poissons Ratio (z) = -0.12164 0.11086
#
# Static dielectric constant tensor:
#      x y z
#    x 2.128090 0.000000 0.000000 
#    y 0.000000 1.923030 0.000000 
#    z 0.000000 0.000000 1.826670 
# 
# From -- ./inp_files/2160.got.cif
#   From: 2010.05.17/outbox.cif.g08.bks.cpg/sg58_2_cif.got.tgz:2160.got - 2010.06.03 14:20:14.
