data_PCOD9443696
_publ_section_title
;
Structure prediction by ZEFSAII (Michael W. Deem and Ramdas Pophale) SiO2 
 PCOD9443696
Probable space group: P N N M
;
_chemical_formula_sum "Si O2"
_cell_formula_units_Z 58
_cell_length_a 26.322823
_cell_length_b 7.619967
_cell_length_c 13.064535
_cell_angle_alpha 90.000000
_cell_angle_beta 90.000000
_cell_angle_gamma 90.000000
_cell_volume 2620.471922
_symmetry_space_group_name_H-M "P N N M"
_symmetry_group_IT_number 58
_symmetry_cell_setting 'orthorhombic'
loop_
_space_group_symop_operation_xyz
x,y,z
-x,-y,z
1/2+x,1/2-y,1/2-z
1/2-x,1/2+y,1/2-z
-x,-y,-z
x,y,-z
1/2-x,1/2+y,1/2+z
1/2+x,1/2-y,1/2+z
loop_
_atom_site_type_symbol
_atom_site_label
_atom_site_fract_x
_atom_site_fract_y
_atom_site_fract_z
Si Si1 0.252346 0.271433 0.322307
Si Si2 0.650494 0.053573 0.117620
Si Si3 0.578359 0.899025 0.718348
Si Si4 0.500000 0.500000 0.500000
Si Si5 0.027026 0.232762 0.801298
Si Si6 0.358512 0.402738 0.388104
Si Si7 0.793669 0.104186 0.384602
Si Si8 0.387012 0.578323 0.188832
O O1 0.206330 0.405760 0.339611
O O2 0.301454 0.332799 0.384353
O O3 0.232093 0.085101 0.361614
O O4 0.270593 0.275706 0.204444
O O5 0.624320 0.244286 0.128568
O O6 0.617355 0.929515 0.189345
O O7 0.652246 0.999135 0.000000
O O8 0.525149 0.807784 0.745163
O O9 0.605743 0.761894 0.642280
O O10 0.563160 0.095311 0.681706
O O11 0.515531 0.359081 0.591493
O O12 0.054777 0.098415 0.723283
O O13 0.374152 0.465333 0.500000
O O14 0.362597 0.553525 0.302662
O O15 0.782373 0.158857 0.500000
O O16 0.854286 0.068849 0.370219
#
# Coordination Sequence:
#
# PCOD9443696 Si02
#       8
#     8   8   8   2   8   8   8   8
#     4  10  20  37  61  92 124 162 218 263 319 390
#     4  10  20  41  65  85 122 173 214 273 334 386
#     4  10  23  40  59  94 133 162 222 272 322 392
#     4  12  24  38  72  88 122 190 216 248 348 390
#     4  10  23  39  60  91 128 167 218 270 316 391
#     4  11  22  35  58  90 131 170 206 269 323 392
#     4  10  20  38  61  85 123 169 209 263 334 384
#     4   9  20  37  56  86 118 158 220 262 310 396
#
# _framework density 22.133417999999999
#
# number of rings (size 3 to 8) (size 9 to 14) (size 15 to 20)
#    0.000    1.931    0.000    4.138    4.828    0.552 
#    0.000   20.000    0.000    0.000    0.000   37.655 
#    0.000    0.000    0.000    0.000    0.000    0.000 
#
# Total GULP energy -323248.714087 kJ/mol
# GULP energy per Si atom -5573.253691 kJ/mol
# Density = 2.208304 g / cm^3
# Si number density = 22.133418 Si / 1000 Ang^3
#
#
#
# Elastic Constant Matrix: (Units=GPa)
#
#
# Indices 1 2 3 4 5 6 
#
# 1 121.3780 36.4699 21.1440 0.0000 0.0000 0.0000
# 2 36.4699 76.5322 22.9528 0.0000 0.0000 0.0000
# 3 21.1440 22.9528 137.0030 0.0000 0.0000 0.0000
# 4 0.0000 0.0000 0.0000 -26.4570 0.0000 0.0000
# 5 0.0000 0.0000 0.0000 0.0000 -1.3778 0.0000
# 6 0.0000 0.0000 0.0000 0.0000 0.0000 10.9969
#
#
#
# Elastic Compliance Matrix: (Units=1/GPa)
#
#
# Indices 1 2 3 4 5 6 
#
# 1 0.009690 -0.004390 -0.000760 0.000000 0.000000 0.000000
# 2 -0.004390 0.015746 -0.001961 0.000000 0.000000 0.000000
# 3 -0.000760 -0.001961 0.007745 0.000000 0.000000 0.000000
# 4 0.000000 0.000000 0.000000 -0.037797 0.000000 0.000000
# 5 0.000000 0.000000 0.000000 0.000000 -0.725812 0.000000
# 6 0.000000 0.000000 0.000000 0.000000 0.000000 0.090935
#
#
# Mechanical properties :
#
#
# Convention : Reuss Voigt Hill
#
# Bulk Modulus (GPa) = 52.74109 55.11628 53.92868
# Shear Modulus (GPa) = -8.07817 13.58886 2.75534
#
# Velocity S-wave (km/s) = -1.91251 2.48049 1.11695
# Velocity P-wave (km/s) = 4.35930 5.75845 5.10702
#
# Compressibility (1/GPa) = 0.01896055
#
# Stress axis : x y z
#
# Youngs Moduli (GPa) = 103.19851 63.50746 129.11757
#
# Poissons Ratio (x) = 0.27878 0.09814
# Poissons Ratio (y) = 0.45300 0.25314
# Poissons Ratio (z) = 0.07844 0.12451
#
# Static dielectric constant tensor:
#      x y z
#    x 1.863350 0.000000 0.000000 
#    y 0.000000 1.869950 0.000000 
#    z 0.000000 0.000000 1.763910 
# 
# From -- ./inp_files/17778.got.cif
#   From: 2010.05.17/outbox.cif.g08.bks.cpg/sg58_9_cif.got.tgz:17778.got - 2010.06.03 14:20:14.
