data_PCOD9443087
_publ_section_title
;
Structure prediction by ZEFSAII (Michael W. Deem and Ramdas Pophale) SiO2 
 PCOD9443087
Probable space group: P N N M
;
_chemical_formula_sum "Si O2"
_cell_formula_units_Z 48
_cell_length_a 23.428821
_cell_length_b 12.199480
_cell_length_c 8.459790
_cell_angle_alpha 90.000000
_cell_angle_beta 90.000000
_cell_angle_gamma 90.000000
_cell_volume 2417.972383
_symmetry_space_group_name_H-M "P N N M"
_symmetry_group_IT_number 58
_symmetry_cell_setting 'orthorhombic'
loop_
_space_group_symop_operation_xyz
x,y,z
-x,-y,z
1/2+x,1/2-y,1/2-z
1/2-x,1/2+y,1/2-z
-x,-y,-z
x,y,-z
1/2-x,1/2+y,1/2+z
1/2+x,1/2-y,1/2+z
loop_
_atom_site_type_symbol
_atom_site_label
_atom_site_fract_x
_atom_site_fract_y
_atom_site_fract_z
Si Si1 0.547223 0.919719 0.819126
Si Si2 0.566082 0.497799 0.306455
Si Si3 0.657980 0.073194 0.820790
Si Si4 0.882124 0.228518 0.187695
Si Si5 0.223432 0.629804 0.691795
Si Si6 0.650098 0.308856 0.311015
O O1 0.565716 0.810432 0.729912
O O2 0.500000 0.000000 0.746902
O O3 0.603689 0.993622 0.827585
O O4 0.529626 0.892081 0.000000
O O5 0.500000 0.500000 0.255048
O O6 0.565260 0.498063 0.500000
O O7 0.600375 0.607206 0.257220
O O8 0.600787 0.390430 0.252561
O O9 0.642248 0.182273 0.729879
O O10 0.706110 0.992384 0.751904
O O11 0.673970 0.104704 0.000000
O O12 0.824581 0.282082 0.258224
O O13 0.874717 0.225445 0.000000
O O14 0.222219 0.626018 0.500000
O O15 0.286626 0.659167 0.746875
O O16 0.651066 0.320693 0.500000
#
# Coordination Sequence:
#
# PCOD9443087 Si02
#       6
#     8   8   8   8   8   8
#     4   9  19  36  57  78 109 149 179 216 275 332
#     4   9  20  37  55  80 114 149 181 221 280 334
#     4   9  19  35  54  78 108 139 176 223 273 321
#     4  10  20  34  58  85 108 141 185 233 273 320
#     4   9  20  38  57  79 110 147 180 222 282 337
#     4  10  21  36  58  81 107 146 185 223 272 331
#
# _framework density 19.851341999999999
#
# number of rings (size 3 to 8) (size 9 to 14) (size 15 to 20)
#    0.000    2.667    0.000    1.500    4.667    3.667 
#    0.000    1.667    0.000    2.500    0.000    0.000 
#    0.000    0.000    0.000    0.000    0.000    0.000 
#
# Total GULP energy -267598.719263 kJ/mol
# GULP energy per Si atom -5574.973318 kJ/mol
# Density = 1.980616 g / cm^3
# Si number density = 19.851342 Si / 1000 Ang^3
#
#
#
# Elastic Constant Matrix: (Units=GPa)
#
#
# Indices 1 2 3 4 5 6 
#
# 1 64.2186 38.2359 11.0092 0.0000 0.0000 0.0000
# 2 38.2359 132.1958 11.9824 0.0000 0.0000 0.0000
# 3 11.0092 11.9824 7.3011 0.0000 0.0000 0.0000
# 4 0.0000 0.0000 0.0000 23.5038 0.0000 0.0000
# 5 0.0000 0.0000 0.0000 0.0000 9.6937 0.0000
# 6 0.0000 0.0000 0.0000 0.0000 0.0000 9.5978
#
#
#
# Elastic Compliance Matrix: (Units=1/GPa)
#
#
# Indices 1 2 3 4 5 6 
#
# 1 0.022726 -0.004073 -0.027583 0.000000 0.000000 0.000000
# 2 -0.004073 0.009616 -0.009641 0.000000 0.000000 0.000000
# 3 -0.027583 -0.009641 0.194381 0.000000 0.000000 0.000000
# 4 0.000000 0.000000 0.000000 0.042546 0.000000 0.000000
# 5 0.000000 0.000000 0.000000 0.000000 0.103159 0.000000
# 6 0.000000 0.000000 0.000000 0.000000 0.000000 0.104190
#
#
# Mechanical properties :
#
#
# Convention : Reuss Voigt Hill
#
# Bulk Modulus (GPa) = 6.93822 36.24116 21.58969
# Shear Modulus (GPa) = 8.23375 18.05828 13.14602
#
# Velocity S-wave (km/s) = 2.03880 3.01936 2.57616
# Velocity P-wave (km/s) = 3.00748 5.51827 4.44388
#
# Compressibility (1/GPa) = 0.14412917
#
# Stress axis : x y z
#
# Youngs Moduli (GPa) = 44.00334 103.98892 5.14452
#
# Poissons Ratio (x) = 0.42353 0.14190
# Poissons Ratio (y) = 0.17922 0.04960
# Poissons Ratio (z) = 1.21376 1.00254
#
# Static dielectric constant tensor:
#      x y z
#    x 1.725390 0.000000 0.000000 
#    y 0.000000 1.696690 0.000000 
#    z 0.000000 0.000000 1.705940 
# 
# From -- ./inp_files/4259.got.cif
#   From: 2010.05.17/outbox.cif.g08.bks.cpg/sg58_3_cif.got.tgz:4259.got - 2010.06.03 14:20:14.
