data_PCOD9443058
_publ_section_title
;
Structure prediction by ZEFSAII (Michael W. Deem and Ramdas Pophale) SiO2 
 PCOD9443058
Probable space group: P N N M
;
_chemical_formula_sum "Si O2"
_cell_formula_units_Z 64
_cell_length_a 24.272291
_cell_length_b 14.205922
_cell_length_c 9.433157
_cell_angle_alpha 90.000000
_cell_angle_beta 90.000000
_cell_angle_gamma 90.000000
_cell_volume 3252.649438
_symmetry_space_group_name_H-M "P N N M"
_symmetry_group_IT_number 58
_symmetry_cell_setting 'orthorhombic'
loop_
_space_group_symop_operation_xyz
x,y,z
-x,-y,z
1/2+x,1/2-y,1/2-z
1/2-x,1/2+y,1/2-z
-x,-y,-z
x,y,-z
1/2-x,1/2+y,1/2+z
1/2+x,1/2-y,1/2+z
loop_
_atom_site_type_symbol
_atom_site_label
_atom_site_fract_x
_atom_site_fract_y
_atom_site_fract_z
Si Si1 0.534550 0.227301 0.664495
Si Si2 0.442557 0.123181 0.163077
Si Si3 0.778996 0.792330 0.663393
Si Si4 0.604283 0.040471 0.335848
Si Si5 0.327837 0.232892 0.163743
Si Si6 0.119458 0.119179 0.831258
Si Si7 0.664067 0.576144 0.667069
Si Si8 0.788420 0.564600 0.339484
O O1 0.516273 0.230090 0.500000
O O2 0.485569 0.193126 0.763558
O O3 0.581780 0.146917 0.674466
O O4 0.563268 0.325838 0.701992
O O5 0.382143 0.169890 0.168275
O O6 0.436479 0.027022 0.249941
O O7 0.457568 0.106156 0.000000
O O8 0.774981 0.823289 0.500000
O O9 0.722890 0.810712 0.749167
O O10 0.831391 0.835841 0.741140
O O11 0.785862 0.678606 0.662628
O O12 0.604869 0.012942 0.500000
O O13 0.664653 0.034258 0.268000
O O14 0.341817 0.332865 0.236160
O O15 0.311208 0.246253 0.000000
O O16 0.121128 0.007355 0.806999
O O17 0.130071 0.133890 0.000000
O O18 0.662467 0.603202 0.500000
O O19 0.725774 0.534863 0.691772
O O20 0.802851 0.533844 0.500000
#
# Coordination Sequence:
#
# PCOD9443058 Si02
#       8
#     8   8   8   8   8   8   8   8
#     4  10  22  40  60  85 116 151 193 238 287 344
#     4  11  25  41  59  82 111 154 199 243 296 345
#     4  10  20  34  56  86 117 152 191 233 284 342
#     4  11  22  36  57  86 118 152 191 236 286 345
#     4  10  22  40  59  81 114 153 195 244 296 343
#     4  10  20  37  60  87 120 155 190 235 290 344
#     4   9  20  37  59  86 118 154 192 237 288 346
#     4   9  18  33  52  81 119 152 186 227 276 337
#
# _framework density 19.676268
#
# number of rings (size 3 to 8) (size 9 to 14) (size 15 to 20)
#    0.000    2.000    1.250    2.625    1.750    7.500 
#    0.000    0.625    0.000    3.750    0.000    0.000 
#    0.000    0.000    0.000    0.000    0.000    0.000 
#
# Total GULP energy -357621.140186 kJ/mol
# GULP energy per Si atom -5587.830315 kJ/mol
# Density = 1.963148 g / cm^3
# Si number density = 19.676268 Si / 1000 Ang^3
#
#
#
# Elastic Constant Matrix: (Units=GPa)
#
#
# Indices 1 2 3 4 5 6 
#
# 1 32.2091 -5.7791 25.6154 0.0000 0.0000 0.0000
# 2 -5.7791 30.1740 10.4847 0.0000 0.0000 0.0000
# 3 25.6154 10.4847 83.1198 0.0000 0.0000 0.0000
# 4 0.0000 0.0000 0.0000 -51.2169 0.0000 0.0000
# 5 0.0000 0.0000 0.0000 0.0000 34.8068 0.0000
# 6 0.0000 0.0000 0.0000 0.0000 0.0000 27.6375
#
#
#
# Elastic Compliance Matrix: (Units=1/GPa)
#
#
# Indices 1 2 3 4 5 6 
#
# 1 0.046509 0.014525 -0.016165 0.000000 0.000000 0.000000
# 2 0.014525 0.039196 -0.009420 0.000000 0.000000 0.000000
# 3 -0.016165 -0.009420 0.018201 0.000000 0.000000 0.000000
# 4 0.000000 0.000000 0.000000 -0.019525 0.000000 0.000000
# 5 0.000000 0.000000 0.000000 0.000000 0.028730 0.000000
# 6 0.000000 0.000000 0.000000 0.000000 0.000000 0.036183
#
#
# Mechanical properties :
#
#
# Convention : Reuss Voigt Hill
#
# Bulk Modulus (GPa) = 12.22727 22.90502 17.56614
# Shear Modulus (GPa) = 25.16648 9.92427 17.54538
#
# Velocity S-wave (km/s) = 3.58023 2.24827 2.98938
# Velocity P-wave (km/s) = 4.82892 4.29020 4.56751
#
# Compressibility (1/GPa) = 0.08178440
#
# Stress axis : x y z
#
# Youngs Moduli (GPa) = 21.50124 25.51264 54.94272
#
# Poissons Ratio (x) = -0.37056 0.88815
# Poissons Ratio (y) = -0.31230 0.51758
# Poissons Ratio (z) = 0.34757 0.24034
#
# Static dielectric constant tensor:
#      x y z
#    x 1.677420 0.000000 0.000000 
#    y 0.000000 1.712180 0.000000 
#    z 0.000000 0.000000 1.669920 
# 
# From -- ./inp_files/6825.got.cif
#   From: 2010.05.17/outbox.cif.g08.bks.cpg/sg58_4_cif.got.tgz:6825.got - 2010.06.03 14:20:14.
