data_PCOD9443579
_publ_section_title
;
Structure prediction by ZEFSAII (Michael W. Deem and Ramdas Pophale) SiO2 
 PCOD9443579
Probable space group: P N N M
;
_chemical_formula_sum "Si O2"
_cell_formula_units_Z 48
_cell_length_a 13.005174
_cell_length_b 8.803480
_cell_length_c 18.780552
_cell_angle_alpha 90.000000
_cell_angle_beta 90.000000
_cell_angle_gamma 90.000000
_cell_volume 2150.200220
_symmetry_space_group_name_H-M "P N N M"
_symmetry_group_IT_number 58
_symmetry_cell_setting 'orthorhombic'
loop_
_space_group_symop_operation_xyz
x,y,z
-x,-y,z
1/2+x,1/2-y,1/2-z
1/2-x,1/2+y,1/2-z
-x,-y,-z
x,y,-z
1/2-x,1/2+y,1/2+z
1/2+x,1/2-y,1/2+z
loop_
_atom_site_type_symbol
_atom_site_label
_atom_site_fract_x
_atom_site_fract_y
_atom_site_fract_z
Si Si1 0.921791 0.860052 0.421162
Si Si2 0.340271 0.271717 0.679831
Si Si3 0.300970 0.504520 0.802687
Si Si4 0.739917 0.752889 0.917150
Si Si5 0.670160 0.069378 0.081831
Si Si6 0.481169 0.680244 0.579718
O O1 0.865591 0.872031 0.500000
O O2 0.931377 0.675515 0.418136
O O3 0.882996 0.888991 0.340952
O O4 0.000000 0.000000 0.427409
O O5 0.341423 0.405371 0.737891
O O6 0.259119 0.333765 0.620790
O O7 0.447860 0.247306 0.640193
O O8 0.294207 0.116649 0.712410
O O9 0.275650 0.389836 0.866922
O O10 0.860065 0.794540 0.912024
O O11 0.673473 0.897245 0.891034
O O12 0.714475 0.719240 0.000000
O O13 0.702922 0.049344 0.000000
O O14 0.500000 0.500000 0.583191
O O15 0.510778 0.733420 0.500000
#
# Coordination Sequence:
#
# PCOD9443579 Si02
#       6
#     8   8   8   8   8   8
#     4   9  19  38  62  87 116 156 209 254 296 358
#     4  11  22  37  56  84 121 162 206 249 309 381
#     4  11  24  39  58  85 120 164 204 254 318 378
#     4  10  20  37  63  93 123 155 202 262 320 377
#     4   9  17  34  60  86 115 155 200 247 299 360
#     4  10  20  36  64  95 122 158 205 255 315 385
#
# _framework density 22.323502000000001
#
# number of rings (size 3 to 8) (size 9 to 14) (size 15 to 20)
#    0.000    2.000    1.667    2.000    0.000    3.333 
#    3.000    2.500    3.667    4.000    0.000    0.000 
#    0.000    0.000    0.000    0.000    0.000    0.000 
#
# Total GULP energy -267237.240107 kJ/mol
# GULP energy per Si atom -5567.442502 kJ/mol
# Density = 2.227269 g / cm^3
# Si number density = 22.323502 Si / 1000 Ang^3
#
#
#
# Elastic Constant Matrix: (Units=GPa)
#
#
# Indices 1 2 3 4 5 6 
#
# 1 44.9055 11.4816 19.5566 0.0000 0.0000 0.0000
# 2 11.4816 83.3648 27.4429 0.0000 0.0000 0.0000
# 3 19.5566 27.4429 97.1660 0.0000 0.0000 0.0000
# 4 0.0000 0.0000 0.0000 31.8526 0.0000 0.0000
# 5 0.0000 0.0000 0.0000 0.0000 -10.4725 0.0000
# 6 0.0000 0.0000 0.0000 0.0000 0.0000 25.2999
#
#
#
# Elastic Compliance Matrix: (Units=1/GPa)
#
#
# Indices 1 2 3 4 5 6 
#
# 1 0.024691 -0.001946 -0.004420 0.000000 0.000000 0.000000
# 2 -0.001946 0.013378 -0.003387 0.000000 0.000000 0.000000
# 3 -0.004420 -0.003387 0.012138 0.000000 0.000000 0.000000
# 4 0.000000 0.000000 0.000000 0.031395 0.000000 0.000000
# 5 0.000000 0.000000 0.000000 0.000000 -0.095488 0.000000
# 6 0.000000 0.000000 0.000000 0.000000 0.000000 0.039526
#
#
# Mechanical properties :
#
#
# Convention : Reuss Voigt Hill
#
# Bulk Modulus (GPa) = 32.57077 38.04428 35.30753
# Shear Modulus (GPa) = 90.28608 20.46635 55.37622
#
# Velocity S-wave (km/s) = 6.36649 3.03117 4.98599
# Velocity P-wave (km/s) = 8.28643 5.41571 6.99982
#
# Compressibility (1/GPa) = 0.03070238
#
# Stress axis : x y z
#
# Youngs Moduli (GPa) = 40.49986 74.74751 82.38672
#
# Poissons Ratio (x) = 0.14543 0.36416
# Poissons Ratio (y) = 0.07880 0.27904
# Poissons Ratio (z) = 0.17902 0.25316
#
# Static dielectric constant tensor:
#      x y z
#    x 1.959780 0.000000 0.000000 
#    y 0.000000 1.873400 0.000000 
#    z 0.000000 0.000000 1.828630 
# 
# From -- ./inp_files/26815.got.cif
#   From: 2010.05.17/outbox.cif.g08.bks.cpg/sg58_14_cif.got.tgz:26815.got - 2010.06.03 14:20:14.
