data_PCOD9443150
_publ_section_title
;
Structure prediction by ZEFSAII (Michael W. Deem and Ramdas Pophale) SiO2 
 PCOD9443150
Probable space group: P N N M
;
_chemical_formula_sum "Si O2"
_cell_formula_units_Z 52
_cell_length_a 22.577224
_cell_length_b 7.506096
_cell_length_c 14.310713
_cell_angle_alpha 90.000000
_cell_angle_beta 90.000000
_cell_angle_gamma 90.000000
_cell_volume 2425.190892
_symmetry_space_group_name_H-M "P N N M"
_symmetry_group_IT_number 58
_symmetry_cell_setting 'orthorhombic'
loop_
_space_group_symop_operation_xyz
x,y,z
-x,-y,z
1/2+x,1/2-y,1/2-z
1/2-x,1/2+y,1/2-z
-x,-y,-z
x,y,-z
1/2-x,1/2+y,1/2+z
1/2+x,1/2-y,1/2+z
loop_
_atom_site_type_symbol
_atom_site_label
_atom_site_fract_x
_atom_site_fract_y
_atom_site_fract_z
Si Si1 0.367367 0.873155 0.167773
Si Si2 0.836037 0.190641 0.807781
Si Si3 0.261180 0.440214 0.000000
Si Si4 0.450523 0.110666 0.276004
Si Si5 0.165961 0.614482 0.500000
Si Si6 0.519745 0.296387 0.894449
Si Si7 0.233661 0.441292 0.792057
Si Si8 0.725331 0.649216 0.500000
O O1 0.409586 0.724361 0.123223
O O2 0.303471 0.834596 0.212033
O O3 0.405566 0.952602 0.251522
O O4 0.363800 0.033179 0.091978
O O5 0.905827 0.232129 0.806599
O O6 0.799997 0.371634 0.784603
O O7 0.802963 0.059609 0.735850
O O8 0.815692 0.138249 0.910202
O O9 0.321828 0.324777 0.000000
O O10 0.230452 0.387301 0.098785
O O11 0.260177 0.657908 0.000000
O O12 0.484259 0.186548 0.184260
O O13 0.500000 0.000000 0.334207
O O14 0.228823 0.511613 0.500000
O O15 0.500000 0.500000 0.887788
O O16 0.506727 0.232259 0.000000
#
# Coordination Sequence:
#
# PCOD9443150 Si02
#       8
#     8   8   4   8   4   8   8   4
#     4  10  20  35  57  80 112 149 189 234 290 344
#     4  10  20  37  55  84 114 150 191 242 292 348
#     4  10  22  36  54  81 117 154 191 222 286 352
#     4   9  20  36  56  76 108 152 196 234 280 346
#     4  12  20  38  56  85 116 157 189 230 294 357
#     4  10  21  37  52  79 112 147 192 238 288 339
#     4  10  20  35  54  82 113 146 188 234 289 348
#     4  10  22  38  57  84 126 146 194 244 286 351
#
# _framework density 21.441610000000001
#
# number of rings (size 3 to 8) (size 9 to 14) (size 15 to 20)
#    0.000    2.000    2.308    1.846    1.077    2.154 
#    4.154    0.385    0.000    2.769    0.000    1.077 
#    0.000    0.000    0.000    0.000    0.000    0.000 
#
# Total GULP energy -289471.088179 kJ/mol
# GULP energy per Si atom -5566.751696 kJ/mol
# Density = 2.139281 g / cm^3
# Si number density = 21.441610 Si / 1000 Ang^3
#
#
#
# Elastic Constant Matrix: (Units=GPa)
#
#
# Indices 1 2 3 4 5 6 
#
# 1 69.5551 -6.3505 1.3430 0.0000 0.0000 0.0000
# 2 -6.3505 45.0021 -0.0290 0.0000 0.0000 0.0000
# 3 1.3430 -0.0290 66.5361 0.0000 0.0000 0.0000
# 4 0.0000 0.0000 0.0000 9.3917 0.0000 0.0000
# 5 0.0000 0.0000 0.0000 0.0000 28.3095 0.0000
# 6 0.0000 0.0000 0.0000 0.0000 0.0000 32.5882
#
#
#
# Elastic Compliance Matrix: (Units=1/GPa)
#
#
# Indices 1 2 3 4 5 6 
#
# 1 0.014570 0.002056 -0.000293 0.000000 0.000000 0.000000
# 2 0.002056 0.022511 -0.000032 0.000000 0.000000 0.000000
# 3 -0.000293 -0.000032 0.015035 0.000000 0.000000 0.000000
# 4 0.000000 0.000000 0.000000 0.106477 0.000000 0.000000
# 5 0.000000 0.000000 0.000000 0.000000 0.035324 0.000000
# 6 0.000000 0.000000 0.000000 0.000000 0.000000 0.030686
#
#
# Mechanical properties :
#
#
# Convention : Reuss Voigt Hill
#
# Bulk Modulus (GPa) = 17.99238 19.00228 18.49733
# Shear Modulus (GPa) = 20.86219 26.46652 23.66435
#
# Velocity S-wave (km/s) = 3.12264 3.51715 3.32575
# Velocity P-wave (km/s) = 4.62717 5.03740 4.83664
#
# Compressibility (1/GPa) = 0.05557908
#
# Stress axis : x y z
#
# Youngs Moduli (GPa) = 68.63200 44.42219 66.50996
#
# Poissons Ratio (x) = -0.09133 0.01950
# Poissons Ratio (y) = -0.14110 0.00211
# Poissons Ratio (z) = 0.02012 0.00141
#
# Static dielectric constant tensor:
#      x y z
#    x 1.869860 0.000000 0.000000 
#    y 0.000000 1.873960 0.000000 
#    z 0.000000 0.000000 1.803310 
# 
# From -- ./inp_files/23214.got.cif
#   From: 2010.05.17/outbox.cif.g08.bks.cpg/sg58_12_cif.got.tgz:23214.got - 2010.06.03 14:20:14.
