data_PCOD9443256
_publ_section_title
;
Structure prediction by ZEFSAII (Michael W. Deem and Ramdas Pophale) SiO2 
 PCOD9443256
Probable space group: P N N M
;
_chemical_formula_sum "Si O2"
_cell_formula_units_Z 64
_cell_length_a 25.472402
_cell_length_b 14.554858
_cell_length_c 9.038073
_cell_angle_alpha 90.000000
_cell_angle_beta 90.000000
_cell_angle_gamma 90.000000
_cell_volume 3350.840204
_symmetry_space_group_name_H-M "P N N M"
_symmetry_group_IT_number 58
_symmetry_cell_setting 'orthorhombic'
loop_
_space_group_symop_operation_xyz
x,y,z
-x,-y,z
1/2+x,1/2-y,1/2-z
1/2-x,1/2+y,1/2-z
-x,-y,-z
x,y,-z
1/2-x,1/2+y,1/2+z
1/2+x,1/2-y,1/2+z
loop_
_atom_site_type_symbol
_atom_site_label
_atom_site_fract_x
_atom_site_fract_y
_atom_site_fract_z
Si Si1 0.055844 0.453582 0.322472
Si Si2 0.642506 0.585142 0.174647
Si Si3 0.208256 0.225749 0.827930
Si Si4 0.182917 0.751428 0.828105
Si Si5 0.657469 0.963432 0.327167
Si Si6 0.736559 0.491094 0.670674
Si Si7 0.905037 0.749033 0.321665
Si Si8 0.551805 0.446173 0.819919
O O1 0.062995 0.464081 0.500000
O O2 0.102295 0.504503 0.236553
O O3 0.063312 0.344804 0.289273
O O4 0.000000 0.500000 0.284958
O O5 0.640434 0.683150 0.252319
O O6 0.698091 0.544464 0.221849
O O7 0.599993 0.510956 0.224631
O O8 0.637973 0.596250 0.000000
O O9 0.260048 0.263984 0.747128
O O10 0.152821 0.250036 0.752088
O O11 0.218481 0.115605 0.821577
O O12 0.207483 0.253464 0.000000
O O13 0.165217 0.646143 0.814338
O O14 0.187572 0.773380 0.000000
O O15 0.663196 0.988405 0.500000
O O16 0.704589 0.003389 0.228786
O O17 0.731901 0.519783 0.500000
O O18 0.897842 0.753979 0.500000
O O19 0.936354 0.841385 0.273811
O O20 0.500000 0.500000 0.768737
O O21 0.549684 0.443732 0.000000
#
# Coordination Sequence:
#
# PCOD9443256 Si02
#       8
#     8   8   8   8   8   8   8   8
#     4  10  23  41  62  88 118 158 205 254 306 359
#     4  11  21  34  57  88 121 158 200 245 293 354
#     4  10  20  35  57  86 118 154 200 246 294 354
#     4  10  22  38  57  84 122 163 199 243 306 364
#     4  10  22  40  61  85 116 157 202 251 303 357
#     4  10  20  35  57  84 120 157 192 243 300 357
#     4  10  20  37  60  85 117 155 196 247 302 354
#     4   9  19  36  59  88 119 156 200 243 293 354
#
# _framework density 19.099688
#
# number of rings (size 3 to 8) (size 9 to 14) (size 15 to 20)
#    0.000    2.000    1.250    1.875    1.750    4.250 
#    0.000    2.500    0.000    3.375    0.000    0.000 
#    0.000    0.000    0.000    0.000    0.000    0.000 
#
# Total GULP energy -357262.005436 kJ/mol
# GULP energy per Si atom -5582.218835 kJ/mol
# Density = 1.905622 g / cm^3
# Si number density = 19.099688 Si / 1000 Ang^3
#
#
#
# Elastic Constant Matrix: (Units=GPa)
#
#
# Indices 1 2 3 4 5 6 
#
# 1 122.2973 67.4429 34.5100 0.0000 0.0000 0.0000
# 2 67.4429 99.7615 44.0537 0.0000 0.0000 0.0000
# 3 34.5100 44.0537 48.8960 0.0000 0.0000 0.0000
# 4 0.0000 0.0000 0.0000 -1.8274 0.0000 0.0000
# 5 0.0000 0.0000 0.0000 0.0000 26.7925 0.0000
# 6 0.0000 0.0000 0.0000 0.0000 0.0000 24.0922
#
#
#
# Elastic Compliance Matrix: (Units=1/GPa)
#
#
# Indices 1 2 3 4 5 6 
#
# 1 0.013168 -0.007968 -0.002115 0.000000 0.000000 0.000000
# 2 -0.007968 0.021469 -0.013719 0.000000 0.000000 0.000000
# 3 -0.002115 -0.013719 0.034304 0.000000 0.000000 0.000000
# 4 0.000000 0.000000 0.000000 -0.547224 0.000000 0.000000
# 5 0.000000 0.000000 0.000000 0.000000 0.037324 0.000000
# 6 0.000000 0.000000 0.000000 0.000000 0.000000 0.041507
#
#
# Mechanical properties :
#
#
# Convention : Reuss Voigt Hill
#
# Bulk Modulus (GPa) = 46.86557 62.55200 54.70878
# Shear Modulus (GPa) = -14.50382 18.14134 1.81876
#
# Velocity S-wave (km/s) = -2.75867 3.08526 0.97689
# Velocity P-wave (km/s) = 3.80048 6.74635 5.47525
#
# Compressibility (1/GPa) = 0.02133763
#
# Stress axis : x y z
#
# Youngs Moduli (GPa) = 75.94385 46.57920 29.15090
#
# Poissons Ratio (x) = 0.37115 0.06164
# Poissons Ratio (y) = 0.60513 0.39992
# Poissons Ratio (z) = 0.16058 0.63902
#
# Static dielectric constant tensor:
#      x y z
#    x 1.635730 0.000000 0.000000 
#    y 0.000000 1.722470 0.000000 
#    z 0.000000 0.000000 1.639740 
# 
# From -- ./inp_files/10003.got.cif
#   From: 2010.05.17/outbox.cif.g08.bks.cpg/sg58_6_cif.got.tgz:10003.got - 2010.06.03 14:20:14.
