data_PCOD9443363
_publ_section_title
;
Structure prediction by ZEFSAII (Michael W. Deem and Ramdas Pophale) SiO2 
 PCOD9443363
Probable space group: P N N M
;
_chemical_formula_sum "Si O2"
_cell_formula_units_Z 34
_cell_length_a 6.818011
_cell_length_b 20.754154
_cell_length_c 9.895432
_cell_angle_alpha 90.000000
_cell_angle_beta 90.000000
_cell_angle_gamma 90.000000
_cell_volume 1400.223916
_symmetry_space_group_name_H-M "P N N M"
_symmetry_group_IT_number 58
_symmetry_cell_setting 'orthorhombic'
loop_
_space_group_symop_operation_xyz
x,y,z
-x,-y,z
1/2+x,1/2-y,1/2-z
1/2-x,1/2+y,1/2-z
-x,-y,-z
x,y,-z
1/2-x,1/2+y,1/2+z
1/2+x,1/2-y,1/2+z
loop_
_atom_site_type_symbol
_atom_site_label
_atom_site_fract_x
_atom_site_fract_y
_atom_site_fract_z
Si Si1 0.899641 0.432999 0.848386
Si Si2 0.273274 0.168426 0.847234
Si Si3 0.674835 0.621261 0.860241
Si Si4 0.778847 0.713349 0.649538
Si Si5 0.000000 0.000000 0.500000
O O1 0.089740 0.387994 0.866941
O O2 0.000000 0.500000 0.806789
O O3 0.765514 0.397161 0.741171
O O4 0.802719 0.443784 0.000000
O O5 0.208820 0.227776 0.753326
O O6 0.506192 0.183095 0.863387
O O7 0.194731 0.164682 0.000000
O O8 0.644129 0.659500 0.722753
O O9 0.586482 0.550917 0.883096
O O10 0.614278 0.658196 0.000000
O O11 0.711487 0.733350 0.500000
#
# Coordination Sequence:
#
# PCOD9443363 Si02
#       5
#     8   8   8   8   2
#     4   9  17  32  52  75 102 137 173 217 261 311
#     4  10  21  36  55  79 107 142 180 221 272 318
#     4   8  16  32  52  71 103 137 171 211 259 309
#     4  10  20  36  55  79 106 141 179 224 268 316
#     4   8  16  32  52  76  96 148 172 202 266 318
#
# _framework density 24.281828999999998
#
# number of rings (size 3 to 8) (size 9 to 14) (size 15 to 20)
#    0.706    2.118    0.000    1.412    0.000    3.294 
#    4.235    0.588    0.000    0.000    0.000    0.000 
#    0.000    0.000    0.000    0.000    0.000    0.000 
#
# Total GULP energy -189387.328214 kJ/mol
# GULP energy per Si atom -5570.215536 kJ/mol
# Density = 2.422656 g / cm^3
# Si number density = 24.281829 Si / 1000 Ang^3
#
#
#
# Elastic Constant Matrix: (Units=GPa)
#
#
# Indices 1 2 3 4 5 6 
#
# 1 62.0420 -0.2123 11.4350 0.0000 0.0000 0.0000
# 2 -0.2123 87.6100 89.8141 0.0000 0.0000 0.0000
# 3 11.4350 89.8141 226.2783 0.0000 0.0000 0.0000
# 4 0.0000 0.0000 0.0000 42.8935 0.0000 0.0000
# 5 0.0000 0.0000 0.0000 0.0000 33.3290 0.0000
# 6 0.0000 0.0000 0.0000 0.0000 0.0000 37.1306
#
#
#
# Elastic Compliance Matrix: (Units=1/GPa)
#
#
# Indices 1 2 3 4 5 6 
#
# 1 0.016385 0.001498 -0.001423 0.000000 0.000000 0.000000
# 2 0.001498 0.019382 -0.007769 0.000000 0.000000 0.000000
# 3 -0.001423 -0.007769 0.007575 0.000000 0.000000 0.000000
# 4 0.000000 0.000000 0.000000 0.023314 0.000000 0.000000
# 5 0.000000 0.000000 0.000000 0.000000 0.030004 0.000000
# 6 0.000000 0.000000 0.000000 0.000000 0.000000 0.026932
#
#
# Mechanical properties :
#
#
# Convention : Reuss Voigt Hill
#
# Bulk Modulus (GPa) = 35.77082 64.22264 49.99673
# Shear Modulus (GPa) = 33.71608 40.99685 37.35646
#
# Velocity S-wave (km/s) = 3.73034 4.11344 3.92657
# Velocity P-wave (km/s) = 5.77213 7.00477 6.41811
#
# Compressibility (1/GPa) = 0.02795575
#
# Stress axis : x y z
#
# Youngs Moduli (GPa) = 61.02974 51.59383 132.01610
#
# Poissons Ratio (x) = -0.07730 0.18782
# Poissons Ratio (y) = -0.09143 1.02561
# Poissons Ratio (z) = 0.08683 0.40082
#
# Static dielectric constant tensor:
#      x y z
#    x 1.986230 0.000000 0.000000 
#    y 0.000000 1.792630 0.000000 
#    z 0.000000 0.000000 1.940860 
# 
# From -- ./inp_files/2242.got.cif
#   From: 2010.05.17/outbox.cif.g08.bks.cpg/sg58_2_cif.got.tgz:2242.got - 2010.06.03 14:20:14.
