data_PCOD9443233
_publ_section_title
;
Structure prediction by ZEFSAII (Michael W. Deem and Ramdas Pophale) SiO2 
 PCOD9443233
Probable space group: P N N M
;
_chemical_formula_sum "Si O2"
_cell_formula_units_Z 56
_cell_length_a 15.945315
_cell_length_b 8.492462
_cell_length_c 20.833940
_cell_angle_alpha 90.000000
_cell_angle_beta 90.000000
_cell_angle_gamma 90.000000
_cell_volume 2821.227604
_symmetry_space_group_name_H-M "P N N M"
_symmetry_group_IT_number 58
_symmetry_cell_setting 'orthorhombic'
loop_
_space_group_symop_operation_xyz
x,y,z
-x,-y,z
1/2+x,1/2-y,1/2-z
1/2-x,1/2+y,1/2-z
-x,-y,-z
x,y,-z
1/2-x,1/2+y,1/2+z
1/2+x,1/2-y,1/2+z
loop_
_atom_site_type_symbol
_atom_site_label
_atom_site_fract_x
_atom_site_fract_y
_atom_site_fract_z
Si Si1 0.076313 0.878868 0.805543
Si Si2 0.755274 0.440133 0.181565
Si Si3 0.828999 0.633362 0.071138
Si Si4 0.164215 0.644910 0.425792
Si Si5 0.494323 0.308651 0.430044
Si Si6 0.921132 0.117288 0.336679
Si Si7 0.760636 0.566233 0.680782
O O1 0.077320 0.804631 0.734622
O O2 0.161228 0.974259 0.821150
O O3 0.058414 0.770542 0.866744
O O4 0.000000 0.000000 0.800846
O O5 0.814619 0.507766 0.126482
O O6 0.663864 0.514978 0.168007
O O7 0.788113 0.498164 0.250651
O O8 0.742791 0.254200 0.182019
O O9 0.750021 0.752405 0.074233
O O10 0.914562 0.731344 0.077105
O O11 0.827929 0.560690 0.000000
O O12 0.145278 0.604517 0.500000
O O13 0.093692 0.753981 0.392001
O O14 0.186672 0.501735 0.378125
O O15 0.500000 0.500000 0.431801
O O16 0.460181 0.259910 0.500000
O O17 0.000000 0.000000 0.346162
#
# Coordination Sequence:
#
# PCOD9443233 Si02
#       7
#     8   8   8   8   8   8   8
#     4   9  17  29  51  78 108 145 184 221 260 319
#     4  10  21  36  57  81 111 146 185 236 285 333
#     4   9  18  34  55  81 114 150 188 226 269 329
#     4  10  20  35  57  82 108 142 186 232 281 341
#     4   9  16  27  48  79 112 147 185 222 261 314
#     4   9  19  36  57  81 106 141 187 232 283 340
#     4  11  21  35  55  82 111 144 188 234 282 334
#
# _framework density 19.849515
#
# number of rings (size 3 to 8) (size 9 to 14) (size 15 to 20)
#    0.000    2.429    0.000    4.286    0.000    6.000 
#    0.000    1.429    0.000   11.143    0.000    0.000 
#    0.000    0.000    0.000    0.000    0.000    0.000 
#
# Total GULP energy -312181.435410 kJ/mol
# GULP energy per Si atom -5574.668489 kJ/mol
# Density = 1.980434 g / cm^3
# Si number density = 19.849515 Si / 1000 Ang^3
#
#
#
# Elastic Constant Matrix: (Units=GPa)
#
#
# Indices 1 2 3 4 5 6 
#
# 1 54.1277 16.9452 47.7920 0.0000 0.0000 0.0000
# 2 16.9452 103.4328 82.8656 0.0000 0.0000 0.0000
# 3 47.7920 82.8656 219.3295 0.0000 0.0000 0.0000
# 4 0.0000 0.0000 0.0000 16.4298 0.0000 0.0000
# 5 0.0000 0.0000 0.0000 0.0000 317.2397 0.0000
# 6 0.0000 0.0000 0.0000 0.0000 0.0000 23.1157
#
#
#
# Elastic Compliance Matrix: (Units=1/GPa)
#
#
# Indices 1 2 3 4 5 6 
#
# 1 0.022885 0.000353 -0.005120 0.000000 0.000000 0.000000
# 2 0.000353 0.013870 -0.005317 0.000000 0.000000 0.000000
# 3 -0.005120 -0.005317 0.007684 0.000000 0.000000 0.000000
# 4 0.000000 0.000000 0.000000 0.060865 0.000000 0.000000
# 5 0.000000 0.000000 0.000000 0.000000 0.003152 0.000000
# 6 0.000000 0.000000 0.000000 0.000000 0.000000 0.043261
#
#
# Mechanical properties :
#
#
# Convention : Reuss Voigt Hill
#
# Bulk Modulus (GPa) = 41.20275 74.67728 57.94002
# Shear Modulus (GPa) = 27.78149 86.64286 57.21218
#
# Velocity S-wave (km/s) = 3.74519 6.61397 5.37453
# Velocity P-wave (km/s) = 6.28526 9.79947 8.23207
#
# Compressibility (1/GPa) = 0.02427022
#
# Stress axis : x y z
#
# Youngs Moduli (GPa) = 43.69667 72.09688 130.14266
#
# Poissons Ratio (x) = -0.02542 0.66631
# Poissons Ratio (y) = -0.01541 0.69199
# Poissons Ratio (z) = 0.22372 0.38335
#
# Static dielectric constant tensor:
#      x y z
#    x 1.713240 0.000000 0.000000 
#    y 0.000000 1.699880 0.000000 
#    z 0.000000 0.000000 1.759670 
# 
# From -- ./inp_files/30014.got.cif
#   From: 2010.05.17/outbox.cif.g08.bks.cpg/sg58_16_cif.got.tgz:30014.got - 2010.06.03 14:20:14.
