data_PCOD9443947
_publ_section_title
;
Structure prediction by ZEFSAII (Michael W. Deem and Ramdas Pophale) SiO2 
 PCOD9443947
Probable space group: P N N M
;
_chemical_formula_sum "Si O2"
_cell_formula_units_Z 48
_cell_length_a 16.093667
_cell_length_b 19.187825
_cell_length_c 7.665275
_cell_angle_alpha 90.000000
_cell_angle_beta 90.000000
_cell_angle_gamma 90.000000
_cell_volume 2367.055823
_symmetry_space_group_name_H-M "P N N M"
_symmetry_group_IT_number 58
_symmetry_cell_setting 'orthorhombic'
loop_
_space_group_symop_operation_xyz
x,y,z
-x,-y,z
1/2+x,1/2-y,1/2-z
1/2-x,1/2+y,1/2-z
-x,-y,-z
x,y,-z
1/2-x,1/2+y,1/2+z
1/2+x,1/2-y,1/2+z
loop_
_atom_site_type_symbol
_atom_site_label
_atom_site_fract_x
_atom_site_fract_y
_atom_site_fract_z
Si Si1 0.981505 0.381726 0.500000
Si Si2 0.249679 0.942152 0.700206
Si Si3 0.869361 0.518232 0.500000
Si Si4 0.741857 0.718202 0.289253
Si Si5 0.942453 0.272191 0.796964
Si Si6 0.103966 0.184073 0.711966
Si Si7 0.089046 0.025264 0.287916
O O1 0.922534 0.448543 0.500000
O O2 0.965901 0.334975 0.669388
O O3 0.073474 0.413035 0.500000
O O4 0.263418 0.962683 0.500000
O O5 0.314301 0.977707 0.828087
O O6 0.254968 0.859077 0.717034
O O7 0.159312 0.969554 0.756499
O O8 0.745092 0.713779 0.500000
O O9 0.648806 0.743898 0.244335
O O10 0.816175 0.770001 0.233211
O O11 0.016723 0.216211 0.775451
O O12 0.938169 0.292919 0.000000
O O13 0.101740 0.186041 0.500000
O O14 0.110801 0.103661 0.768234
O O15 0.085009 0.027328 0.500000
O O16 0.000000 0.000000 0.223064
#
# Coordination Sequence:
#
# PCOD9443947 Si02
#       7
#     4   8   4   8   8   8   8
#     4  11  26  46  68  90 131 180 214 277 342 381
#     4  11  23  41  68  95 131 174 223 267 327 398
#     4  11  26  46  65  94 132 172 225 277 329 394
#     4  10  22  39  62  93 131 171 214 273 326 386
#     4  11  24  42  66  98 132 166 224 273 323 393
#     4  10  20  39  64  91 129 171 209 265 330 384
#     4   9  19  36  61  93 131 172 211 260 330 397
#
# _framework density 20.278355000000001
#
# number of rings (size 3 to 8) (size 9 to 14) (size 15 to 20)
#    0.000    1.667    1.667    2.000    3.500    4.667 
#    1.500    2.083    0.000    0.000    0.000    0.000 
#    0.000    0.000    0.000    0.000    0.000    0.000 
#
# Total GULP energy -268356.442129 kJ/mol
# GULP energy per Si atom -5590.759211 kJ/mol
# Density = 2.023220 g / cm^3
# Si number density = 20.278355 Si / 1000 Ang^3
#
#
#
# Elastic Constant Matrix: (Units=GPa)
#
#
# Indices 1 2 3 4 5 6 
#
# 1 129.2850 40.5222 13.3684 0.0000 0.0000 0.0000
# 2 40.5222 101.0061 8.7099 0.0000 0.0000 0.0000
# 3 13.3684 8.7099 62.6260 0.0000 0.0000 0.0000
# 4 0.0000 0.0000 0.0000 15.4331 0.0000 0.0000
# 5 0.0000 0.0000 0.0000 0.0000 28.2572 0.0000
# 6 0.0000 0.0000 0.0000 0.0000 0.0000 21.3659
#
#
#
# Elastic Compliance Matrix: (Units=1/GPa)
#
#
# Indices 1 2 3 4 5 6 
#
# 1 0.008972 -0.003476 -0.001432 0.000000 0.000000 0.000000
# 2 -0.003476 0.011367 -0.000839 0.000000 0.000000 0.000000
# 3 -0.001432 -0.000839 0.016390 0.000000 0.000000 0.000000
# 4 0.000000 0.000000 0.000000 0.064796 0.000000 0.000000
# 5 0.000000 0.000000 0.000000 0.000000 0.035389 0.000000
# 6 0.000000 0.000000 0.000000 0.000000 0.000000 0.046804
#
#
# Mechanical properties :
#
#
# Convention : Reuss Voigt Hill
#
# Bulk Modulus (GPa) = 39.62578 46.45756 43.04167
# Shear Modulus (GPa) = 24.55503 28.36567 26.46035
#
# Velocity S-wave (km/s) = 3.48357 3.74413 3.61620
# Velocity P-wave (km/s) = 5.98028 6.45376 6.22152
#
# Compressibility (1/GPa) = 0.02523610
#
# Stress axis : x y z
#
# Youngs Moduli (GPa) = 111.45238 87.97152 61.01231
#
# Poissons Ratio (x) = 0.30580 0.08736
# Poissons Ratio (y) = 0.38742 0.05118
# Poissons Ratio (z) = 0.15958 0.07380
#
# Static dielectric constant tensor:
#      x y z
#    x 1.737820 0.000000 0.000000 
#    y 0.000000 1.679730 0.000000 
#    z 0.000000 0.000000 1.722160 
# 
# From -- ./inp_files/5948.got.cif
#   From: 2010.05.17/outbox.cif.g08.bks.cpg/sg58_3_cif.got.tgz:5948.got - 2010.06.03 14:20:14.
