data_PCOD9443476
_publ_section_title
;
Structure prediction by ZEFSAII (Michael W. Deem and Ramdas Pophale) SiO2 
 PCOD9443476
Probable space group: P N N M
;
_chemical_formula_sum "Si O2"
_cell_formula_units_Z 56
_cell_length_a 19.639915
_cell_length_b 12.307930
_cell_length_c 13.017495
_cell_angle_alpha 90.000000
_cell_angle_beta 90.000000
_cell_angle_gamma 90.000000
_cell_volume 3146.676096
_symmetry_space_group_name_H-M "P N N M"
_symmetry_group_IT_number 58
_symmetry_cell_setting 'orthorhombic'
loop_
_space_group_symop_operation_xyz
x,y,z
-x,-y,z
1/2+x,1/2-y,1/2-z
1/2-x,1/2+y,1/2-z
-x,-y,-z
x,y,-z
1/2-x,1/2+y,1/2+z
1/2+x,1/2-y,1/2+z
loop_
_atom_site_type_symbol
_atom_site_label
_atom_site_fract_x
_atom_site_fract_y
_atom_site_fract_z
Si Si1 0.561836 0.323957 0.374378
Si Si2 0.924740 0.460154 0.882033
Si Si3 0.643678 0.525704 0.381788
Si Si4 0.315147 0.259349 0.880136
Si Si5 0.794778 0.500341 0.378173
Si Si6 0.914593 0.230579 0.206095
Si Si7 0.669850 0.145399 0.307211
O O1 0.554203 0.311776 0.500000
O O2 0.583459 0.446858 0.347247
O O3 0.493309 0.291139 0.316725
O O4 0.622128 0.248419 0.331583
O O5 0.902555 0.355792 0.818838
O O6 0.867005 0.551742 0.874455
O O7 0.000000 0.500000 0.846708
O O8 0.934054 0.426410 0.000000
O O9 0.652426 0.494882 0.500000
O O10 0.717295 0.504347 0.336026
O O11 0.624456 0.650080 0.370471
O O12 0.313084 0.127322 0.871539
O O13 0.381055 0.295778 0.815565
O O14 0.246030 0.314910 0.836142
O O15 0.319380 0.286221 0.000000
O O16 0.799003 0.529739 0.500000
O O17 0.832086 0.588946 0.305963
#
# Coordination Sequence:
#
# PCOD9443476 Si02
#       7
#     8   8   8   8   8   8   8
#     4  11  22  37  62  91 121 157 196 248 309 359
#     4  11  22  35  56  90 124 149 185 249 313 355
#     4  10  20  36  59  87 117 150 192 243 297 354
#     4  11  23  40  59  83 119 167 204 235 293 368
#     4  10  21  38  59  87 120 154 198 243 291 352
#     4  12  22  36  58  88 121 154 197 250 295 358
#     4  12  21  38  63  88 118 155 197 244 302 356
#
# _framework density 17.796555999999999
#
# number of rings (size 3 to 8) (size 9 to 14) (size 15 to 20)
#    0.000    1.000    5.714    3.000    0.000    1.143 
#    0.000    0.714    0.000    5.143    0.000    0.000 
#    0.000    0.000    0.000    0.000    0.000    0.000 
#
# Total GULP energy -311901.672297 kJ/mol
# GULP energy per Si atom -5569.672720 kJ/mol
# Density = 1.775605 g / cm^3
# Si number density = 17.796556 Si / 1000 Ang^3
#
#
#
# Elastic Constant Matrix: (Units=GPa)
#
#
# Indices 1 2 3 4 5 6 
#
# 1 86.3124 21.8287 49.7149 0.0000 0.0000 0.0000
# 2 21.8287 49.2186 8.1142 0.0000 0.0000 0.0000
# 3 49.7149 8.1142 76.1379 0.0000 0.0000 0.0000
# 4 0.0000 0.0000 0.0000 19.6397 0.0000 0.0000
# 5 0.0000 0.0000 0.0000 0.0000 22.6308 0.0000
# 6 0.0000 0.0000 0.0000 0.0000 0.0000 24.6446
#
#
#
# Elastic Compliance Matrix: (Units=1/GPa)
#
#
# Indices 1 2 3 4 5 6 
#
# 1 0.020747 -0.007093 -0.012791 0.000000 0.000000 0.000000
# 2 -0.007093 0.023106 0.002169 0.000000 0.000000 0.000000
# 3 -0.012791 0.002169 0.021255 0.000000 0.000000 0.000000
# 4 0.000000 0.000000 0.000000 0.050917 0.000000 0.000000
# 5 0.000000 0.000000 0.000000 0.000000 0.044188 0.000000
# 6 0.000000 0.000000 0.000000 0.000000 0.000000 0.040577
#
#
# Mechanical properties :
#
#
# Convention : Reuss Voigt Hill
#
# Bulk Modulus (GPa) = 33.69533 41.22051 37.45792
# Shear Modulus (GPa) = 20.31595 22.18376 21.24985
#
# Velocity S-wave (km/s) = 3.38237 3.53444 3.45924
# Velocity P-wave (km/s) = 5.85053 6.31417 6.08676
#
# Compressibility (1/GPa) = 0.02967770
#
# Stress axis : x y z
#
# Youngs Moduli (GPa) = 48.19938 43.27955 47.04767
#
# Poissons Ratio (x) = 0.30697 0.60179
# Poissons Ratio (y) = 0.34186 -0.10204
# Poissons Ratio (z) = 0.61653 -0.09387
#
# Static dielectric constant tensor:
#      x y z
#    x 1.643070 0.000000 0.000000 
#    y 0.000000 1.633120 0.000000 
#    z 0.000000 0.000000 1.609660 
# 
# From -- ./inp_files/17035.got.cif
#   From: 2010.05.17/outbox.cif.g08.bks.cpg/sg58_9_cif.got.tgz:17035.got - 2010.06.03 14:20:14.
