data_PCOD9443303
_publ_section_title
;
Structure prediction by ZEFSAII (Michael W. Deem and Ramdas Pophale) SiO2 
 PCOD9443303
Probable space group: P N N M
;
_chemical_formula_sum "Si O2"
_cell_formula_units_Z 48
_cell_length_a 22.615765
_cell_length_b 12.899739
_cell_length_c 9.145319
_cell_angle_alpha 90.000000
_cell_angle_beta 90.000000
_cell_angle_gamma 90.000000
_cell_volume 2668.032189
_symmetry_space_group_name_H-M "P N N M"
_symmetry_group_IT_number 58
_symmetry_cell_setting 'orthorhombic'
loop_
_space_group_symop_operation_xyz
x,y,z
-x,-y,z
1/2+x,1/2-y,1/2-z
1/2-x,1/2+y,1/2-z
-x,-y,-z
x,y,-z
1/2-x,1/2+y,1/2+z
1/2+x,1/2-y,1/2+z
loop_
_atom_site_type_symbol
_atom_site_label
_atom_site_fract_x
_atom_site_fract_y
_atom_site_fract_z
Si Si1 0.133281 0.750145 0.674820
Si Si2 0.188742 0.970692 0.675682
Si Si3 0.589977 0.133921 0.170061
Si Si4 0.006803 0.749830 0.173579
Si Si5 0.409933 0.634481 0.829937
Si Si6 0.188740 0.529650 0.675673
O O1 0.121281 0.750145 0.500000
O O2 0.169495 0.853708 0.709811
O O3 0.071465 0.749950 0.758762
O O4 0.169647 0.646724 0.709719
O O5 0.194508 0.980493 0.500000
O O6 0.135836 0.048380 0.720897
O O7 0.250022 0.000066 0.749984
O O8 0.530921 0.151927 0.264076
O O9 0.618645 0.249689 0.175290
O O10 0.635716 0.047780 0.220925
O O11 0.574298 0.113879 0.000000
O O12 0.968995 0.847648 0.235886
O O13 0.007577 0.749812 0.000000
O O14 0.425608 0.614420 0.000000
O O15 0.194495 0.519753 0.500000
#
# Coordination Sequence:
#
# PCOD9443303 Si02
#       6
#     8   8   8   8   8   8
#     4  10  22  39  56  81 113 146 184 222 275 336
#     4  10  22  38  58  82 111 148 185 226 272 325
#     4   8  17  36  58  79 108 147 183 216 270 332
#     4  10  20  35  58  87 113 140 182 234 277 318
#     4   8  17  36  58  79 108 147 183 216 270 332
#     4  10  22  38  58  82 111 148 185 226 272 325
#
# _framework density 17.990787000000001
#
# number of rings (size 3 to 8) (size 9 to 14) (size 15 to 20)
#    1.000    1.667    0.000    1.000    2.333    4.000 
#    0.000    6.667    0.000    0.000    0.000    0.000 
#    0.000    0.000    0.000    0.000    0.000    0.000 
#
# Total GULP energy -267391.212173 kJ/mol
# GULP energy per Si atom -5570.650254 kJ/mol
# Density = 1.794984 g / cm^3
# Si number density = 17.990787 Si / 1000 Ang^3
#
#
#
# Elastic Constant Matrix: (Units=GPa)
#
#
# Indices 1 2 3 4 5 6 
#
# 1 166.2233 83.9059 79.2765 0.0000 0.0000 0.0000
# 2 83.9059 115.3913 55.0128 0.0000 0.0000 0.0000
# 3 79.2765 55.0128 62.7375 0.0000 0.0000 0.0000
# 4 0.0000 0.0000 0.0000 14.4042 0.0000 0.0000
# 5 0.0000 0.0000 0.0000 0.0000 38.7983 0.0000
# 6 0.0000 0.0000 0.0000 0.0000 0.0000 29.1371
#
#
#
# Elastic Compliance Matrix: (Units=1/GPa)
#
#
# Indices 1 2 3 4 5 6 
#
# 1 0.015882 -0.003404 -0.017085 0.000000 0.000000 0.000000
# 2 -0.003404 0.015621 -0.009397 0.000000 0.000000 0.000000
# 3 -0.017085 -0.009397 0.045768 0.000000 0.000000 0.000000
# 4 0.000000 0.000000 0.000000 0.069424 0.000000 0.000000
# 5 0.000000 0.000000 0.000000 0.000000 0.025774 0.000000
# 6 0.000000 0.000000 0.000000 0.000000 0.000000 0.034321
#
#
# Mechanical properties :
#
#
# Convention : Reuss Voigt Hill
#
# Bulk Modulus (GPa) = 57.13974 86.74916 71.94445
# Shear Modulus (GPa) = 18.35580 24.87837 21.61709
#
# Velocity S-wave (km/s) = 3.19766 3.72269 3.47012
# Velocity P-wave (km/s) = 6.74262 8.17320 7.49213
#
# Compressibility (1/GPa) = 0.01750096
#
# Stress axis : x y z
#
# Youngs Moduli (GPa) = 62.96386 64.01664 21.84948
#
# Poissons Ratio (x) = 0.21788 0.37329
# Poissons Ratio (y) = 0.21430 0.20532
# Poissons Ratio (z) = 1.07571 0.60155
#
# Static dielectric constant tensor:
#      x y z
#    x 1.579220 0.000000 0.000000 
#    y 0.000000 1.635380 0.000000 
#    z 0.000000 0.000000 1.605210 
# 
# From -- ./inp_files/9737.got.cif
#   From: 2010.05.17/outbox.cif.g08.bks.cpg/sg58_5_cif.got.tgz:9737.got - 2010.06.03 14:20:14.
