data_PCOD9443218
_publ_section_title
;
Structure prediction by ZEFSAII (Michael W. Deem and Ramdas Pophale) SiO2 
 PCOD9443218
Probable space group: P N N M
;
_chemical_formula_sum "Si O2"
_cell_formula_units_Z 64
_cell_length_a 14.221263
_cell_length_b 23.507369
_cell_length_c 9.414039
_cell_angle_alpha 90.000000
_cell_angle_beta 90.000000
_cell_angle_gamma 90.000000
_cell_volume 3147.155384
_symmetry_space_group_name_H-M "P N N M"
_symmetry_group_IT_number 58
_symmetry_cell_setting 'orthorhombic'
loop_
_space_group_symop_operation_xyz
x,y,z
-x,-y,z
1/2+x,1/2-y,1/2-z
1/2-x,1/2+y,1/2-z
-x,-y,-z
x,y,-z
1/2-x,1/2+y,1/2+z
1/2+x,1/2-y,1/2+z
loop_
_atom_site_type_symbol
_atom_site_label
_atom_site_fract_x
_atom_site_fract_y
_atom_site_fract_z
Si Si1 0.994523 0.881934 0.663067
Si Si2 0.183429 0.311915 0.836812
Si Si3 0.954071 0.577872 0.160691
Si Si4 0.185536 0.490061 0.661881
Si Si5 0.325198 0.381764 0.662247
Si Si6 0.612607 0.835086 0.330780
Si Si7 0.781105 0.907904 0.670249
Si Si8 0.023951 0.253602 0.335808
O O1 0.013108 0.900061 0.500000
O O2 0.890669 0.902074 0.704943
O O3 0.992531 0.813438 0.665680
O O4 0.077803 0.900283 0.765699
O O5 0.117205 0.368173 0.840509
O O6 0.276402 0.331992 0.754633
O O7 0.119555 0.268202 0.748917
O O8 0.201636 0.294771 0.000000
O O9 0.909010 0.532024 0.263595
O O10 0.052959 0.606960 0.197387
O O11 0.957179 0.556349 0.000000
O O12 0.168511 0.507579 0.500000
O O13 0.255011 0.435449 0.661588
O O14 0.235468 0.539507 0.749183
O O15 0.339062 0.362855 0.500000
O O16 0.602921 0.822904 0.500000
O O17 0.719841 0.851221 0.297527
O O18 0.561589 0.786666 0.240467
O O19 0.772754 0.916013 0.500000
O O20 0.032819 0.272720 0.500000
#
# Coordination Sequence:
#
# PCOD9443218 Si02
#       8
#     8   8   8   8   8   8   8   8
#     4  10  23  40  56  79 110 146 191 235 274 329
#     4   9  17  32  56  84 112 142 179 222 268 325
#     4   8  15  30  53  80 109 142 179 216 259 321
#     4  10  21  36  55  82 112 141 179 228 283 334
#     4  10  21  37  58  82 109 144 185 232 281 328
#     4   9  19  36  58  84 112 147 189 227 272 335
#     4  10  22  40  58  77 108 148 187 227 274 332
#     4  10  20  35  56  84 116 146 180 226 279 329
#
# _framework density 20.335825
#
# number of rings (size 3 to 8) (size 9 to 14) (size 15 to 20)
#    0.000    2.500    0.000    2.250    0.000    8.500 
#    0.000    6.250    0.000    0.000    0.000    0.000 
#    0.000    0.000    0.000    0.000    0.000    0.000 
#
# Total GULP energy -357462.508834 kJ/mol
# GULP energy per Si atom -5585.351701 kJ/mol
# Density = 2.028954 g / cm^3
# Si number density = 20.335825 Si / 1000 Ang^3
#
#
#
# Elastic Constant Matrix: (Units=GPa)
#
#
# Indices 1 2 3 4 5 6 
#
# 1 92.5805 -2.6478 43.3021 0.0000 0.0000 0.0000
# 2 -2.6478 25.0811 13.2329 0.0000 0.0000 0.0000
# 3 43.3021 13.2329 71.9223 0.0000 0.0000 0.0000
# 4 0.0000 0.0000 0.0000 23.0419 0.0000 0.0000
# 5 0.0000 0.0000 0.0000 0.0000 22.1787 0.0000
# 6 0.0000 0.0000 0.0000 0.0000 0.0000 38.0419
#
#
#
# Elastic Compliance Matrix: (Units=1/GPa)
#
#
# Indices 1 2 3 4 5 6 
#
# 1 0.016251 0.007617 -0.011186 0.000000 0.000000 0.000000
# 2 0.007617 0.047728 -0.013367 0.000000 0.000000 0.000000
# 3 -0.011186 -0.013367 0.023098 0.000000 0.000000 0.000000
# 4 0.000000 0.000000 0.000000 0.043399 0.000000 0.000000
# 5 0.000000 0.000000 0.000000 0.000000 0.045088 0.000000
# 6 0.000000 0.000000 0.000000 0.000000 0.000000 0.026287
#
#
# Mechanical properties :
#
#
# Convention : Reuss Voigt Hill
#
# Bulk Modulus (GPa) = 18.79533 33.03981 25.91757
# Shear Modulus (GPa) = 19.72716 25.69894 22.71305
#
# Velocity S-wave (km/s) = 3.11797 3.55875 3.34563
# Velocity P-wave (km/s) = 4.71433 5.75922 5.26277
#
# Compressibility (1/GPa) = 0.05320471
#
# Stress axis : x y z
#
# Youngs Moduli (GPa) = 61.53427 20.95227 43.29391
#
# Poissons Ratio (x) = -0.15960 0.48428
# Poissons Ratio (y) = -0.46872 0.57873
# Poissons Ratio (z) = 0.68831 0.28008
#
# Static dielectric constant tensor:
#      x y z
#    x 1.736120 0.000000 0.000000 
#    y 0.000000 1.718290 0.000000 
#    z 0.000000 0.000000 1.698400 
# 
# From -- ./inp_files/6899.got.cif
#   From: 2010.05.17/outbox.cif.g08.bks.cpg/sg58_4_cif.got.tgz:6899.got - 2010.06.03 14:20:14.
