data_PCOD9443467
_publ_section_title
;
Structure prediction by ZEFSAII (Michael W. Deem and Ramdas Pophale) SiO2 
 PCOD9443467
Probable space group: P N N M
;
_chemical_formula_sum "Si O2"
_cell_formula_units_Z 40
_cell_length_a 9.259014
_cell_length_b 26.426216
_cell_length_c 8.849419
_cell_angle_alpha 90.000000
_cell_angle_beta 90.000000
_cell_angle_gamma 90.000000
_cell_volume 2165.282070
_symmetry_space_group_name_H-M "P N N M"
_symmetry_group_IT_number 58
_symmetry_cell_setting 'orthorhombic'
loop_
_space_group_symop_operation_xyz
x,y,z
-x,-y,z
1/2+x,1/2-y,1/2-z
1/2-x,1/2+y,1/2-z
-x,-y,-z
x,y,-z
1/2-x,1/2+y,1/2+z
1/2+x,1/2-y,1/2+z
loop_
_atom_site_type_symbol
_atom_site_label
_atom_site_fract_x
_atom_site_fract_y
_atom_site_fract_z
Si Si1 0.824700 0.996485 0.826574
Si Si2 0.840187 0.892395 0.320470
Si Si3 0.661217 0.608564 0.682142
Si Si4 0.159002 0.698727 0.319425
Si Si5 0.657824 0.200090 0.319424
O O1 0.786528 0.948514 0.725647
O O2 0.778039 0.052612 0.777762
O O3 0.779270 0.987299 0.000000
O O4 0.000000 0.000000 0.826961
O O5 0.846445 0.887295 0.500000
O O6 0.739109 0.849785 0.249104
O O7 0.001176 0.886398 0.251834
O O8 0.649598 0.610267 0.500000
O O9 0.760727 0.652964 0.743800
O O10 0.146512 0.693263 0.500000
O O11 0.253426 0.748697 0.287535
O O12 0.002064 0.704487 0.246746
O O13 0.652584 0.193182 0.500000
#
# Coordination Sequence:
#
# PCOD9443467 Si02
#       5
#     8   8   8   8   8
#     4   8  16  32  54  81 113 150 189 226 273 334
#     4  11  21  34  57  87 117 149 189 237 279 322
#     4  10  20  36  59  85 116 153 189 228 278 336
#     4  11  24  41  60  82 113 151 186 227 283 342
#     4  11  24  40  60  86 113 144 187 236 281 330
#
# _framework density 18.473343
#
# number of rings (size 3 to 8) (size 9 to 14) (size 15 to 20)
#    0.000    1.800    0.000    6.000    0.000   10.800 
#    0.000    1.000    0.000    6.000    0.000    0.000 
#    0.000    0.000    0.000    0.000    0.000    0.000 
#
# Total GULP energy -223458.092034 kJ/mol
# GULP energy per Si atom -5586.452301 kJ/mol
# Density = 1.843130 g / cm^3
# Si number density = 18.473343 Si / 1000 Ang^3
#
#
#
# Elastic Constant Matrix: (Units=GPa)
#
#
# Indices 1 2 3 4 5 6 
#
# 1 107.7741 83.0380 59.5061 0.0000 0.0000 0.0000
# 2 83.0380 179.2899 92.3395 0.0000 0.0000 0.0000
# 3 59.5061 92.3395 96.9990 0.0000 0.0000 0.0000
# 4 0.0000 0.0000 0.0000 45.1755 0.0000 0.0000
# 5 0.0000 0.0000 0.0000 0.0000 29.2952 0.0000
# 6 0.0000 0.0000 0.0000 0.0000 0.0000 32.5761
#
#
#
# Elastic Compliance Matrix: (Units=1/GPa)
#
#
# Indices 1 2 3 4 5 6 
#
# 1 0.015711 -0.004537 -0.005319 0.000000 0.000000 0.000000
# 2 -0.004537 0.012253 -0.008881 0.000000 0.000000 0.000000
# 3 -0.005319 -0.008881 0.022027 0.000000 0.000000 0.000000
# 4 0.000000 0.000000 0.000000 0.022136 0.000000 0.000000
# 5 0.000000 0.000000 0.000000 0.000000 0.034135 0.000000
# 6 0.000000 0.000000 0.000000 0.000000 0.000000 0.030697
#
#
# Mechanical properties :
#
#
# Convention : Reuss Voigt Hill
#
# Bulk Modulus (GPa) = 79.89432 94.87001 87.38217
# Shear Modulus (GPa) = 27.99450 31.35464 29.67457
#
# Velocity S-wave (km/s) = 3.89704 4.12429 4.01227
# Velocity P-wave (km/s) = 7.97443 8.61082 8.29873
#
# Compressibility (1/GPa) = 0.01251653
#
# Stress axis : x y z
#
# Youngs Moduli (GPa) = 63.64784 81.61389 45.39913
#
# Poissons Ratio (x) = 0.37029 0.24149
# Poissons Ratio (y) = 0.28878 0.40318
# Poissons Ratio (z) = 0.33856 0.72480
#
# Static dielectric constant tensor:
#      x y z
#    x 1.607830 0.000000 0.000000 
#    y 0.000000 1.643170 0.000000 
#    z 0.000000 0.000000 1.613670 
# 
# From -- ./inp_files/2411.got.cif
#   From: 2010.05.17/outbox.cif.g08.bks.cpg/sg58_2_cif.got.tgz:2411.got - 2010.06.03 14:20:14.
