data_PCOD9443682
_publ_section_title
;
Structure prediction by ZEFSAII (Michael W. Deem and Ramdas Pophale) SiO2 
 PCOD9443682
Probable space group: P N N M
;
_chemical_formula_sum "Si O2"
_cell_formula_units_Z 48
_cell_length_a 16.850289
_cell_length_b 18.117839
_cell_length_c 8.862076
_cell_angle_alpha 90.000000
_cell_angle_beta 90.000000
_cell_angle_gamma 90.000000
_cell_volume 2705.510477
_symmetry_space_group_name_H-M "P N N M"
_symmetry_group_IT_number 58
_symmetry_cell_setting 'orthorhombic'
loop_
_space_group_symop_operation_xyz
x,y,z
-x,-y,z
1/2+x,1/2-y,1/2-z
1/2-x,1/2+y,1/2-z
-x,-y,-z
x,y,-z
1/2-x,1/2+y,1/2+z
1/2+x,1/2-y,1/2+z
loop_
_atom_site_type_symbol
_atom_site_label
_atom_site_fract_x
_atom_site_fract_y
_atom_site_fract_z
Si Si1 0.827502 0.089977 0.679169
Si Si2 0.854134 0.831559 0.678985
Si Si3 0.090651 0.482083 0.181194
Si Si4 0.757219 0.447729 0.319970
Si Si5 0.666146 0.174645 0.321648
Si Si6 0.994154 0.087997 0.820392
O O1 0.836163 0.077264 0.500000
O O2 0.757097 0.148861 0.701181
O O3 0.910439 0.112995 0.751394
O O4 0.797081 0.014603 0.756458
O O5 0.851282 0.839976 0.500000
O O6 0.779142 0.873119 0.753059
O O7 0.853920 0.746363 0.726844
O O8 0.932467 0.871021 0.743921
O O9 0.154341 0.533934 0.263388
O O10 0.113772 0.397435 0.217005
O O11 0.000000 0.500000 0.219006
O O12 0.101382 0.490641 0.000000
O O13 0.753205 0.446867 0.500000
O O14 0.655142 0.190275 0.500000
O O15 0.996318 0.099851 0.000000
O O16 0.000000 0.000000 0.792681
#
# Coordination Sequence:
#
# PCOD9443682 Si02
#       6
#     8   8   8   8   8   8
#     4  10  20  37  61  86 113 150 191 233 282 344
#     4  12  24  38  58  84 117 156 196 240 291 345
#     4   9  19  39  65  89 114 150 195 241 288 345
#     4  11  21  35  58  85 115 151 190 236 287 342
#     4   9  20  39  60  84 117 151 187 239 293 342
#     4  11  22  36  59  89 119 153 191 237 289 345
#
# _framework density 17.741568000000001
#
# number of rings (size 3 to 8) (size 9 to 14) (size 15 to 20)
#    0.000    1.667    1.667    5.000    0.000    4.333 
#    3.000    0.000    0.000    0.000    0.000    0.000 
#    0.000    0.000    0.000    0.000    0.000    0.000 
#
# Total GULP energy -268172.522590 kJ/mol
# GULP energy per Si atom -5586.927554 kJ/mol
# Density = 1.770119 g / cm^3
# Si number density = 17.741568 Si / 1000 Ang^3
#
#
#
# Elastic Constant Matrix: (Units=GPa)
#
#
# Indices 1 2 3 4 5 6 
#
# 1 137.2721 66.2480 74.7427 0.0000 0.0000 0.0000
# 2 66.2480 89.0182 67.7061 0.0000 0.0000 0.0000
# 3 74.7427 67.7061 116.2090 0.0000 0.0000 0.0000
# 4 0.0000 0.0000 0.0000 25.3372 0.0000 0.0000
# 5 0.0000 0.0000 0.0000 0.0000 22.6309 0.0000
# 6 0.0000 0.0000 0.0000 0.0000 0.0000 15.0849
#
#
#
# Elastic Compliance Matrix: (Units=1/GPa)
#
#
# Indices 1 2 3 4 5 6 
#
# 1 0.012690 -0.005811 -0.004776 0.000000 0.000000 0.000000
# 2 -0.005811 0.022834 -0.009566 0.000000 0.000000 0.000000
# 3 -0.004776 -0.009566 0.017250 0.000000 0.000000 0.000000
# 4 0.000000 0.000000 0.000000 0.039468 0.000000 0.000000
# 5 0.000000 0.000000 0.000000 0.000000 0.044187 0.000000
# 6 0.000000 0.000000 0.000000 0.000000 0.000000 0.066291
#
#
# Mechanical properties :
#
#
# Convention : Reuss Voigt Hill
#
# Bulk Modulus (GPa) = 80.20688 84.43254 82.31971
# Shear Modulus (GPa) = 20.22786 21.53076 20.87931
#
# Velocity S-wave (km/s) = 3.38026 3.48742 3.43426
# Velocity P-wave (km/s) = 7.78084 7.99435 7.88832
#
# Compressibility (1/GPa) = 0.01246776
#
# Stress axis : x y z
#
# Youngs Moduli (GPa) = 78.80342 43.79361 57.96953
#
# Poissons Ratio (x) = 0.25450 0.27686
# Poissons Ratio (y) = 0.45795 0.55455
# Poissons Ratio (z) = 0.37636 0.41894
#
# Static dielectric constant tensor:
#      x y z
#    x 1.597170 0.000000 0.000000 
#    y 0.000000 1.583380 0.000000 
#    z 0.000000 0.000000 1.588920 
# 
# From -- ./inp_files/5762.got.cif
#   From: 2010.05.17/outbox.cif.g08.bks.cpg/sg58_3_cif.got.tgz:5762.got - 2010.06.03 14:20:14.
