data_PCOD9443269
_publ_section_title
;
Structure prediction by ZEFSAII (Michael W. Deem and Ramdas Pophale) SiO2 
 PCOD9443269
Probable space group: P N N M
;
_chemical_formula_sum "Si O2"
_cell_formula_units_Z 64
_cell_length_a 24.222787
_cell_length_b 15.882602
_cell_length_c 7.573965
_cell_angle_alpha 90.000000
_cell_angle_beta 90.000000
_cell_angle_gamma 90.000000
_cell_volume 2913.862520
_symmetry_space_group_name_H-M "P N N M"
_symmetry_group_IT_number 58
_symmetry_cell_setting 'orthorhombic'
loop_
_space_group_symop_operation_xyz
x,y,z
-x,-y,z
1/2+x,1/2-y,1/2-z
1/2-x,1/2+y,1/2-z
-x,-y,-z
x,y,-z
1/2-x,1/2+y,1/2+z
1/2+x,1/2-y,1/2+z
loop_
_atom_site_type_symbol
_atom_site_label
_atom_site_fract_x
_atom_site_fract_y
_atom_site_fract_z
Si Si1 0.250039 0.356918 0.215486
Si Si2 0.363948 0.932590 0.290565
Si Si3 0.262281 0.164771 0.208660
Si Si4 0.128794 0.918305 0.283607
Si Si5 0.048149 0.774046 0.295981
Si Si6 0.074223 0.261286 0.285782
Si Si7 0.616433 0.886690 0.701443
Si Si8 0.855171 0.897414 0.287881
O O1 0.196840 0.408325 0.279547
O O2 0.246860 0.259147 0.269496
O O3 0.309350 0.392068 0.270293
O O4 0.248451 0.358481 0.000000
O O5 0.357232 0.947669 0.500000
O O6 0.402390 0.851748 0.267448
O O7 0.388368 0.019833 0.218894
O O8 0.318361 0.133652 0.295777
O O9 0.209331 0.107155 0.241498
O O10 0.273496 0.168878 0.000000
O O11 0.128631 0.915751 0.500000
O O12 0.084601 0.850007 0.219130
O O13 0.119061 0.014337 0.227984
O O14 0.038551 0.797558 0.500000
O O15 0.084272 0.689287 0.291809
O O16 0.987736 0.756131 0.220742
O O17 0.074391 0.260767 0.500000
O O18 0.114036 0.186042 0.222336
O O19 0.596035 0.886896 0.500000
O O20 0.858842 0.896298 0.500000
#
# Coordination Sequence:
#
# PCOD9443269 Si02
#       8
#     8   8   8   8   8   8   8   8
#     4   9  16  30  55  82 105 141 182 215 265 335
#     4  10  21  38  59  81 111 150 188 226 279 343
#     4  11  20  34  59  86 114 149 183 220 279 346
#     4   9  17  33  58  82 110 147 184 224 274 333
#     4  10  21  39  59  80 112 153 191 229 280 336
#     4  10  22  37  56  85 115 145 189 241 282 318
#     4  11  23  38  59  86 112 143 188 237 279 327
#     4  10  20  35  57  86 116 145 185 235 277 323
#
# _framework density 21.963974
#
# number of rings (size 3 to 8) (size 9 to 14) (size 15 to 20)
#    0.000    2.000    2.500    1.500    0.000    4.500 
#    0.000    5.625    0.000    0.000    0.000    2.625 
#    0.000    0.000    0.000    0.000    0.000    0.000 
#
# Total GULP energy -357628.771040 kJ/mol
# GULP energy per Si atom -5587.949548 kJ/mol
# Density = 2.191398 g / cm^3
# Si number density = 21.963974 Si / 1000 Ang^3
#
#
#
# Elastic Constant Matrix: (Units=GPa)
#
#
# Indices 1 2 3 4 5 6 
#
# 1 99.0090 16.6347 -13.0467 0.0000 0.0000 0.0000
# 2 16.6347 104.0794 -6.4759 0.0000 0.0000 0.0000
# 3 -13.0467 -6.4759 50.9084 0.0000 0.0000 0.0000
# 4 0.0000 0.0000 0.0000 3.9650 0.0000 0.0000
# 5 0.0000 0.0000 0.0000 0.0000 15.9820 0.0000
# 6 0.0000 0.0000 0.0000 0.0000 0.0000 0.9509
#
#
#
# Elastic Compliance Matrix: (Units=1/GPa)
#
#
# Indices 1 2 3 4 5 6 
#
# 1 0.010696 -0.001551 0.002544 0.000000 0.000000 0.000000
# 2 -0.001551 0.009910 0.000863 0.000000 0.000000 0.000000
# 3 0.002544 0.000863 0.020405 0.000000 0.000000 0.000000
# 4 0.000000 0.000000 0.000000 0.252208 0.000000 0.000000
# 5 0.000000 0.000000 0.000000 0.000000 0.062570 0.000000
# 6 0.000000 0.000000 0.000000 0.000000 0.000000 1.051671
#
#
# Mechanical properties :
#
#
# Convention : Reuss Voigt Hill
#
# Bulk Modulus (GPa) = 22.36054 27.58012 24.97033
# Shear Modulus (GPa) = 3.52446 21.30522 12.41484
#
# Velocity S-wave (km/s) = 1.26812 3.11787 2.38005
# Velocity P-wave (km/s) = 3.51381 5.05428 4.35273
#
# Compressibility (1/GPa) = 0.04472165
#
# Stress axis : x y z
#
# Youngs Moduli (GPa) = 93.49360 100.91144 49.00801
#
# Poissons Ratio (x) = 0.15654 -0.12467
# Poissons Ratio (y) = 0.14503 -0.04230
# Poissons Ratio (z) = -0.23783 -0.08709
#
# Static dielectric constant tensor:
#      x y z
#    x 1.761700 0.000000 0.000000 
#    y 0.000000 1.804460 0.000000 
#    z 0.000000 0.000000 1.837660 
# 
# From -- ./inp_files/6863.got.cif
#   From: 2010.05.17/outbox.cif.g08.bks.cpg/sg58_4_cif.got.tgz:6863.got - 2010.06.03 14:20:14.
