data_PCOD9443329
_publ_section_title
;
Structure prediction by ZEFSAII (Michael W. Deem and Ramdas Pophale) SiO2 
 PCOD9443329
Probable space group: P N N M
;
_chemical_formula_sum "Si O2"
_cell_formula_units_Z 56
_cell_length_a 9.582484
_cell_length_b 21.239062
_cell_length_c 14.107801
_cell_angle_alpha 90.000000
_cell_angle_beta 90.000000
_cell_angle_gamma 90.000000
_cell_volume 2871.261585
_symmetry_space_group_name_H-M "P N N M"
_symmetry_group_IT_number 58
_symmetry_cell_setting 'orthorhombic'
loop_
_space_group_symop_operation_xyz
x,y,z
-x,-y,z
1/2+x,1/2-y,1/2-z
1/2-x,1/2+y,1/2-z
-x,-y,-z
x,y,-z
1/2-x,1/2+y,1/2+z
1/2+x,1/2-y,1/2+z
loop_
_atom_site_type_symbol
_atom_site_label
_atom_site_fract_x
_atom_site_fract_y
_atom_site_fract_z
Si Si1 0.215468 0.605357 0.396914
Si Si2 0.479086 0.698517 0.392867
Si Si3 0.898465 0.670217 0.806942
Si Si4 0.888884 0.443960 0.204567
Si Si5 0.907208 0.163539 0.695850
Si Si6 0.020337 0.287814 0.395261
Si Si7 0.402910 0.561116 0.108665
O O1 0.223626 0.573152 0.500000
O O2 0.353207 0.648013 0.385047
O O3 0.180497 0.560787 0.309168
O O4 0.089920 0.655507 0.399898
O O5 0.535106 0.694553 0.500000
O O6 0.423617 0.769106 0.372763
O O7 0.580385 0.683349 0.305684
O O8 0.748037 0.639805 0.826770
O O9 0.891970 0.696901 0.698919
O O10 0.024434 0.620535 0.813758
O O11 0.757375 0.450849 0.135404
O O12 0.000000 0.500000 0.198854
O O13 0.938498 0.224222 0.631150
O O14 0.027837 0.114031 0.673810
O O15 0.086768 0.282120 0.500000
O O16 0.500000 0.500000 0.118919
O O17 0.411342 0.582498 0.000000
#
# Coordination Sequence:
#
# PCOD9443329 Si02
#       7
#     8   8   8   8   8   8   8
#     4   9  17  35  60  88 119 156 198 246 304 360
#     4  10  20  35  59  89 125 159 196 247 307 367
#     4  10  22  35  59  92 123 159 203 248 305 362
#     4  11  23  42  63  88 123 164 208 257 298 356
#     4  11  20  36  59  87 118 155 199 249 306 364
#     4   9  18  32  54  83 120 158 194 241 299 364
#     4  11  25  43  62  84 115 160 207 252 303 360
#
# _framework density 19.503620000000002
#
# number of rings (size 3 to 8) (size 9 to 14) (size 15 to 20)
#    0.000    1.857    2.857    1.286    0.000    2.286 
#    0.000    0.000    0.000    3.429    0.000    0.000 
#    0.000    0.000    0.000    0.000    0.000    0.000 
#
# Total GULP energy -312326.598251 kJ/mol
# GULP energy per Si atom -5577.260683 kJ/mol
# Density = 1.945923 g / cm^3
# Si number density = 19.503620 Si / 1000 Ang^3
#
#
#
# Elastic Constant Matrix: (Units=GPa)
#
#
# Indices 1 2 3 4 5 6 
#
# 1 99.5363 23.4676 18.9553 0.0000 0.0000 0.0000
# 2 23.4676 29.6799 33.4802 0.0000 0.0000 0.0000
# 3 18.9553 33.4802 97.1641 0.0000 0.0000 0.0000
# 4 0.0000 0.0000 0.0000 32.0256 0.0000 0.0000
# 5 0.0000 0.0000 0.0000 0.0000 28.2506 0.0000
# 6 0.0000 0.0000 0.0000 0.0000 0.0000 13.2388
#
#
#
# Elastic Compliance Matrix: (Units=1/GPa)
#
#
# Indices 1 2 3 4 5 6 
#
# 1 0.012495 -0.011664 0.001581 0.000000 0.000000 0.000000
# 2 -0.011664 0.066004 -0.020468 0.000000 0.000000 0.000000
# 3 0.001581 -0.020468 0.017036 0.000000 0.000000 0.000000
# 4 0.000000 0.000000 0.000000 0.031225 0.000000 0.000000
# 5 0.000000 0.000000 0.000000 0.000000 0.035398 0.000000
# 6 0.000000 0.000000 0.000000 0.000000 0.000000 0.075536
#
#
# Mechanical properties :
#
#
# Convention : Reuss Voigt Hill
#
# Bulk Modulus (GPa) = 29.04041 42.02074 35.53058
# Shear Modulus (GPa) = 16.11490 24.73480 20.42485
#
# Velocity S-wave (km/s) = 2.87758 3.56507 3.23961
# Velocity P-wave (km/s) = 5.09536 6.20791 5.67894
#
# Compressibility (1/GPa) = 0.03443477
#
# Stress axis : x y z
#
# Youngs Moduli (GPa) = 80.02931 15.15067 58.69932
#
# Poissons Ratio (x) = 0.17672 -0.09283
# Poissons Ratio (y) = 0.93345 1.20144
# Poissons Ratio (z) = -0.12656 0.31010
#
# Static dielectric constant tensor:
#      x y z
#    x 1.671910 0.000000 0.000000 
#    y 0.000000 1.618910 0.000000 
#    z 0.000000 0.000000 1.712350 
# 
# From -- ./inp_files/20100.got.cif
#   From: 2010.05.17/outbox.cif.g08.bks.cpg/sg58_11_cif.got.tgz:20100.got - 2010.06.03 14:20:14.
