data_PCOD9443076
_publ_section_title
;
Structure prediction by ZEFSAII (Michael W. Deem and Ramdas Pophale) SiO2 
 PCOD9443076
Probable space group: P N N M
;
_chemical_formula_sum "Si O2"
_cell_formula_units_Z 64
_cell_length_a 10.690464
_cell_length_b 33.718426
_cell_length_c 7.500465
_cell_angle_alpha 90.000000
_cell_angle_beta 90.000000
_cell_angle_gamma 90.000000
_cell_volume 2703.659761
_symmetry_space_group_name_H-M "P N N M"
_symmetry_group_IT_number 58
_symmetry_cell_setting 'orthorhombic'
loop_
_space_group_symop_operation_xyz
x,y,z
-x,-y,z
1/2+x,1/2-y,1/2-z
1/2-x,1/2+y,1/2-z
-x,-y,-z
x,y,-z
1/2-x,1/2+y,1/2+z
1/2+x,1/2-y,1/2+z
loop_
_atom_site_type_symbol
_atom_site_label
_atom_site_fract_x
_atom_site_fract_y
_atom_site_fract_z
Si Si1 0.401430 0.632416 0.283087
Si Si2 0.344770 0.412472 0.710490
Si Si3 0.489875 0.287908 0.299740
Si Si4 0.139689 0.999947 0.298012
Si Si5 0.623962 0.880842 0.705393
Si Si6 0.600156 0.966692 0.280761
Si Si7 0.526593 0.799018 0.710748
Si Si8 0.748763 0.168108 0.705490
O O1 0.398735 0.632864 0.500000
O O2 0.522094 0.606458 0.231094
O O3 0.420794 0.678069 0.220728
O O4 0.273407 0.615075 0.211853
O O5 0.351739 0.419704 0.500000
O O6 0.320596 0.453987 0.801644
O O7 0.244644 0.378096 0.746147
O O8 0.538947 0.279758 0.500000
O O9 0.463564 0.245333 0.213602
O O10 0.358192 0.310568 0.311442
O O11 0.123536 0.015385 0.500000
O O12 0.258875 0.022544 0.218843
O O13 0.000000 0.000000 0.214820
O O14 0.579672 0.878385 0.500000
O O15 0.569139 0.921893 0.778720
O O16 0.595925 0.837668 0.787266
O O17 0.602726 0.966791 0.500000
O O18 0.500000 0.000000 0.226729
O O19 0.563425 0.796100 0.500000
O O20 0.381973 0.810683 0.726924
O O21 0.786420 0.170939 0.500000
#
# Coordination Sequence:
#
# PCOD9443076 Si02
#       8
#     8   8   8   8   8   8   8   8
#     4   9  19  35  55  77 110 149 178 216 275 333
#     4  10  21  37  57  81 112 151 184 224 284 337
#     4   9  19  37  55  77 113 149 178 222 282 333
#     4  10  20  34  57  88 113 141 189 245 282 327
#     4  10  20  35  57  82 107 141 186 227 270 329
#     4   9  19  34  55  81 112 147 180 224 287 342
#     4   9  20  35  55  81 110 144 182 227 276 330
#     4  10  20  35  57  83 108 141 188 232 270 324
#
# _framework density 23.671617000000001
#
# number of rings (size 3 to 8) (size 9 to 14) (size 15 to 20)
#    0.000    2.500    0.000    2.250    3.500    3.750 
#    0.000    3.125    0.000    0.750    0.000    0.000 
#    0.000    0.000    0.000    0.000    0.000    0.000 
#
# Total GULP energy -357294.826179 kJ/mol
# GULP energy per Si atom -5582.731659 kJ/mol
# Density = 2.361774 g / cm^3
# Si number density = 23.671617 Si / 1000 Ang^3
#
#
#
# Elastic Constant Matrix: (Units=GPa)
#
#
# Indices 1 2 3 4 5 6 
#
# 1 39.1558 11.9151 7.4521 0.0000 0.0000 0.0000
# 2 11.9151 174.3509 3.0616 0.0000 0.0000 0.0000
# 3 7.4521 3.0616 63.1514 0.0000 0.0000 0.0000
# 4 0.0000 0.0000 0.0000 8.7693 0.0000 0.0000
# 5 0.0000 0.0000 0.0000 0.0000 9.4150 0.0000
# 6 0.0000 0.0000 0.0000 0.0000 0.0000 19.5580
#
#
#
# Elastic Compliance Matrix: (Units=1/GPa)
#
#
# Indices 1 2 3 4 5 6 
#
# 1 0.026659 -0.001768 -0.003060 0.000000 0.000000 0.000000
# 2 -0.001768 0.005858 -0.000075 0.000000 0.000000 0.000000
# 3 -0.003060 -0.000075 0.016200 0.000000 0.000000 0.000000
# 4 0.000000 0.000000 0.000000 0.114034 0.000000 0.000000
# 5 0.000000 0.000000 0.000000 0.000000 0.106214 0.000000
# 6 0.000000 0.000000 0.000000 0.000000 0.000000 0.051130
#
#
# Mechanical properties :
#
#
# Convention : Reuss Voigt Hill
#
# Bulk Modulus (GPa) = 25.70065 35.72396 30.71231
# Shear Modulus (GPa) = 14.58271 24.49708 19.53990
#
# Velocity S-wave (km/s) = 2.48471 3.22043 2.87619
# Velocity P-wave (km/s) = 4.37178 5.38075 4.90229
#
# Compressibility (1/GPa) = 0.03890952
#
# Stress axis : x y z
#
# Youngs Moduli (GPa) = 37.51018 170.71495 61.72949
#
# Poissons Ratio (x) = 0.30185 0.18890
# Poissons Ratio (y) = 0.06632 0.00465
# Poissons Ratio (z) = 0.11479 0.01286
#
# Static dielectric constant tensor:
#      x y z
#    x 1.868840 0.000000 0.000000 
#    y 0.000000 1.916820 0.000000 
#    z 0.000000 0.000000 1.893110 
# 
# From -- ./inp_files/4699.got.cif
#   From: 2010.05.17/outbox.cif.g08.bks.cpg/sg58_3_cif.got.tgz:4699.got - 2010.06.03 14:20:14.
