data_PCOD9443084
_publ_section_title
;
Structure prediction by ZEFSAII (Michael W. Deem and Ramdas Pophale) SiO2 
 PCOD9443084
Probable space group: P N N M
;
_chemical_formula_sum "Si O2"
_cell_formula_units_Z 48
_cell_length_a 29.766388
_cell_length_b 9.248811
_cell_length_c 8.292373
_cell_angle_alpha 90.000000
_cell_angle_beta 90.000000
_cell_angle_gamma 90.000000
_cell_volume 2282.920942
_symmetry_space_group_name_H-M "P N N M"
_symmetry_group_IT_number 58
_symmetry_cell_setting 'orthorhombic'
loop_
_space_group_symop_operation_xyz
x,y,z
-x,-y,z
1/2+x,1/2-y,1/2-z
1/2-x,1/2+y,1/2-z
-x,-y,-z
x,y,-z
1/2-x,1/2+y,1/2+z
1/2+x,1/2-y,1/2+z
loop_
_atom_site_type_symbol
_atom_site_label
_atom_site_fract_x
_atom_site_fract_y
_atom_site_fract_z
Si Si1 0.722278 0.651516 0.812681
Si Si2 0.396105 0.067607 0.681498
Si Si3 0.696324 0.977393 0.187754
Si Si4 0.493705 0.673598 0.000000
Si Si5 0.628727 0.592628 0.313736
Si Si6 0.950761 0.433521 0.500000
Si Si7 0.956956 0.892612 0.180262
O O1 0.713892 0.817858 0.766918
O O2 0.762621 0.584614 0.712490
O O3 0.674075 0.574857 0.787322
O O4 0.734696 0.644215 0.000000
O O5 0.413447 0.041343 0.500000
O O6 0.347622 0.993203 0.706360
O O7 0.387636 0.241049 0.698233
O O8 0.425906 0.027437 0.834857
O O9 0.682497 0.971388 0.000000
O O10 0.500000 0.500000 0.000000
O O11 0.467959 0.706875 0.833302
O O12 0.540071 0.760148 0.000000
O O13 0.641612 0.569292 0.500000
O O14 0.587251 0.486557 0.280041
O O15 0.000000 0.500000 0.500000
O O16 0.951764 0.827832 0.000000
O O17 0.000000 0.000000 0.168390
#
# Coordination Sequence:
#
# PCOD9443084 Si02
#       7
#     8   8   8   4   8   4   8
#     4  10  21  34  57  89 120 157 201 252 302 366
#     4  10  20  38  64  86 115 162 204 244 294 364
#     4  10  20  38  61  89 123 156 201 251 306 362
#     4  10  20  34  58  82 108 148 194 244 296 343
#     4   9  18  32  56  88 118 152 200 247 300 355
#     4  12  26  42  60  90 122 156 208 252 297 359
#     4   9  17  30  50  81 114 145 186 238 295 343
#
# _framework density 21.025694999999999
#
# number of rings (size 3 to 8) (size 9 to 14) (size 15 to 20)
#    0.000    2.167    0.833    3.000    2.333    4.333 
#    0.000    1.667    0.000    2.000    0.000    0.000 
#    0.000    0.000    0.000    0.000    0.000    0.000 
#
# Total GULP energy -267890.529295 kJ/mol
# GULP energy per Si atom -5581.052694 kJ/mol
# Density = 2.097784 g / cm^3
# Si number density = 21.025695 Si / 1000 Ang^3
#
#
#
# Elastic Constant Matrix: (Units=GPa)
#
#
# Indices 1 2 3 4 5 6 
#
# 1 80.5397 14.7018 58.6219 0.0000 0.0000 0.0000
# 2 14.7018 24.6807 22.3143 0.0000 0.0000 0.0000
# 3 58.6219 22.3143 135.0554 0.0000 0.0000 0.0000
# 4 0.0000 0.0000 0.0000 3.1500 0.0000 0.0000
# 5 0.0000 0.0000 0.0000 0.0000 22.4205 0.0000
# 6 0.0000 0.0000 0.0000 0.0000 0.0000 20.6284
#
#
#
# Elastic Compliance Matrix: (Units=1/GPa)
#
#
# Indices 1 2 3 4 5 6 
#
# 1 0.018554 -0.004433 -0.007321 0.000000 0.000000 0.000000
# 2 -0.004433 0.048692 -0.006121 0.000000 0.000000 0.000000
# 3 -0.007321 -0.006121 0.011593 0.000000 0.000000 0.000000
# 4 0.000000 0.000000 0.000000 0.317461 0.000000 0.000000
# 5 0.000000 0.000000 0.000000 0.000000 0.044602 0.000000
# 6 0.000000 0.000000 0.000000 0.000000 0.000000 0.048477
#
#
# Mechanical properties :
#
#
# Convention : Reuss Voigt Hill
#
# Bulk Modulus (GPa) = 23.20748 47.95022 35.57885
# Shear Modulus (GPa) = 9.26797 18.88232 14.07514
#
# Velocity S-wave (km/s) = 2.10178 3.00001 2.59013
# Velocity P-wave (km/s) = 4.11724 5.90383 5.08954
#
# Compressibility (1/GPa) = 0.04308956
#
# Stress axis : x y z
#
# Youngs Moduli (GPa) = 53.89589 20.53720 86.25529
#
# Poissons Ratio (x) = 0.09104 0.63149
# Poissons Ratio (y) = 0.23893 0.52795
# Poissons Ratio (z) = 0.39458 0.12570
#
# Static dielectric constant tensor:
#      x y z
#    x 1.736090 0.000000 0.000000 
#    y 0.000000 1.840720 0.000000 
#    z 0.000000 0.000000 1.795210 
# 
# From -- ./inp_files/10794.got.cif
#   From: 2010.05.17/outbox.cif.g08.bks.cpg/sg58_6_cif.got.tgz:10794.got - 2010.06.03 14:20:14.
