data_PCOD9443838
_publ_section_title
;
Structure prediction by ZEFSAII (Michael W. Deem and Ramdas Pophale) SiO2 
 PCOD9443838
Probable space group: P N N M
;
_chemical_formula_sum "Si O2"
_cell_formula_units_Z 48
_cell_length_a 8.635210
_cell_length_b 8.117410
_cell_length_c 33.778317
_cell_angle_alpha 90.000000
_cell_angle_beta 90.000000
_cell_angle_gamma 90.000000
_cell_volume 2367.709371
_symmetry_space_group_name_H-M "P N N M"
_symmetry_group_IT_number 58
_symmetry_cell_setting 'orthorhombic'
loop_
_space_group_symop_operation_xyz
x,y,z
-x,-y,z
1/2+x,1/2-y,1/2-z
1/2-x,1/2+y,1/2-z
-x,-y,-z
x,y,-z
1/2-x,1/2+y,1/2+z
1/2+x,1/2-y,1/2+z
loop_
_atom_site_type_symbol
_atom_site_label
_atom_site_fract_x
_atom_site_fract_y
_atom_site_fract_z
Si Si1 0.174809 0.640441 0.617082
Si Si2 0.820809 0.519225 0.145105
Si Si3 0.683721 0.556910 0.454986
Si Si4 0.330251 0.049877 0.203437
Si Si5 0.390321 0.660631 0.917646
Si Si6 0.830358 0.068197 0.276750
O O1 0.272042 0.797879 0.631722
O O2 0.247185 0.553548 0.579561
O O3 0.176669 0.527249 0.656319
O O4 0.011524 0.711081 0.601559
O O5 0.713886 0.406248 0.118005
O O6 0.783833 0.485835 0.191234
O O7 0.000000 0.500000 0.137104
O O8 0.500000 0.500000 0.453806
O O9 0.732647 0.518342 0.500000
O O10 0.766050 0.738199 0.445544
O O11 0.317246 0.241148 0.213436
O O12 0.500000 0.000000 0.217113
O O13 0.208955 0.958901 0.231091
O O14 0.500000 0.500000 0.931718
O O15 0.000000 0.000000 0.285635
#
# Coordination Sequence:
#
# PCOD9443838 Si02
#       6
#     8   8   8   8   8   8
#     4  10  22  40  63  90 117 157 204 250 303 363
#     4  10  20  38  62  88 122 160 199 246 303 362
#     4  11  24  41  62  91 125 159 200 252 308 367
#     4  11  22  38  57  82 116 153 199 250 302 357
#     4  10  21  39  65  92 122 160 202 250 304 367
#     4  11  23  37  56  85 118 157 202 248 298 358
#
# _framework density 20.272758
#
# number of rings (size 3 to 8) (size 9 to 14) (size 15 to 20)
#    0.000    1.500    0.000    6.500    0.000    5.000 
#    0.000    2.500    0.000    9.000    0.000    0.000 
#    0.000    0.000    0.000    0.000    0.000    0.000 
#
# Total GULP energy -267383.758601 kJ/mol
# GULP energy per Si atom -5570.494971 kJ/mol
# Density = 2.022662 g / cm^3
# Si number density = 20.272758 Si / 1000 Ang^3
#
#
#
# Elastic Constant Matrix: (Units=GPa)
#
#
# Indices 1 2 3 4 5 6 
#
# 1 102.6715 21.5894 35.9051 0.0000 0.0000 0.0000
# 2 21.5894 54.1812 58.3326 0.0000 0.0000 0.0000
# 3 35.9051 58.3326 140.5341 0.0000 0.0000 0.0000
# 4 0.0000 0.0000 0.0000 29.0526 0.0000 0.0000
# 5 0.0000 0.0000 0.0000 0.0000 34.8656 0.0000
# 6 0.0000 0.0000 0.0000 0.0000 0.0000 29.5860
#
#
#
# Elastic Compliance Matrix: (Units=1/GPa)
#
#
# Indices 1 2 3 4 5 6 
#
# 1 0.010869 -0.002425 -0.001770 0.000000 0.000000 0.000000
# 2 -0.002425 0.033909 -0.013455 0.000000 0.000000 0.000000
# 3 -0.001770 -0.013455 0.013153 0.000000 0.000000 0.000000
# 4 0.000000 0.000000 0.000000 0.034420 0.000000 0.000000
# 5 0.000000 0.000000 0.000000 0.000000 0.028682 0.000000
# 6 0.000000 0.000000 0.000000 0.000000 0.000000 0.033800
#
#
# Mechanical properties :
#
#
# Convention : Reuss Voigt Hill
#
# Bulk Modulus (GPa) = 44.18951 58.78232 51.48592
# Shear Modulus (GPa) = 25.29372 30.80480 28.04926
#
# Velocity S-wave (km/s) = 3.53607 3.90233 3.72370
# Velocity P-wave (km/s) = 6.20617 7.02587 6.62870
#
# Compressibility (1/GPa) = 0.02262981
#
# Stress axis : x y z
#
# Youngs Moduli (GPa) = 92.00647 29.49048 76.02770
#
# Poissons Ratio (x) = 0.07151 0.13460
# Poissons Ratio (y) = 0.22310 1.02299
# Poissons Ratio (z) = 0.16289 0.39681
#
# Static dielectric constant tensor:
#      x y z
#    x 1.723420 0.000000 0.000000 
#    y 0.000000 1.773460 0.000000 
#    z 0.000000 0.000000 1.696280 
# 
# From -- ./inp_files/34572.got.cif
#   From: 2010.05.17/outbox.cif.g08.bks.cpg/sg58_18_cif.got.tgz:34572.got - 2010.06.03 14:20:14.
