data_PCOD9443095
_publ_section_title
;
Structure prediction by ZEFSAII (Michael W. Deem and Ramdas Pophale) SiO2 
 PCOD9443095
Probable space group: P N N M
;
_chemical_formula_sum "Si O2"
_cell_formula_units_Z 48
_cell_length_a 9.814221
_cell_length_b 28.978674
_cell_length_c 7.684034
_cell_angle_alpha 90.000000
_cell_angle_beta 90.000000
_cell_angle_gamma 90.000000
_cell_volume 2185.363174
_symmetry_space_group_name_H-M "P N N M"
_symmetry_group_IT_number 58
_symmetry_cell_setting 'orthorhombic'
loop_
_space_group_symop_operation_xyz
x,y,z
-x,-y,z
1/2+x,1/2-y,1/2-z
1/2-x,1/2+y,1/2-z
-x,-y,-z
x,y,-z
1/2-x,1/2+y,1/2+z
1/2+x,1/2-y,1/2+z
loop_
_atom_site_type_symbol
_atom_site_label
_atom_site_fract_x
_atom_site_fract_y
_atom_site_fract_z
Si Si1 0.352333 0.017153 0.287236
Si Si2 0.501690 0.205711 0.797395
Si Si3 0.178457 0.623565 0.789013
Si Si4 0.690595 0.713283 0.701280
Si Si5 0.021129 0.135241 0.295243
Si Si6 0.893708 0.041526 0.292558
O O1 0.343765 0.017512 0.500000
O O2 0.324910 0.069915 0.235555
O O3 0.500000 0.000000 0.237052
O O4 0.244546 0.979789 0.221117
O O5 0.446605 0.153777 0.779907
O O6 0.386028 0.237888 0.713134
O O7 0.655177 0.212556 0.725397
O O8 0.505263 0.219362 0.000000
O O9 0.325380 0.643601 0.729140
O O10 0.168560 0.625603 0.000000
O O11 0.705583 0.700232 0.500000
O O12 0.584727 0.676645 0.778835
O O13 0.042574 0.126260 0.500000
O O14 0.954011 0.088793 0.219359
O O15 0.872192 0.049588 0.500000
O O16 0.000000 0.000000 0.276307
#
# Coordination Sequence:
#
# PCOD9443095 Si02
#       6
#     8   8   8   8   8   8
#     4   9  17  28  47  80 118 153 192 234 276 325
#     4  11  25  43  62  85 114 146 186 233 286 344
#     4  10  20  35  57  88 121 152 191 237 282 334
#     4  11  25  43  62  86 114 145 186 235 284 343
#     4  10  20  34  58  89 119 152 192 235 283 335
#     4   9  15  28  49  78 116 153 189 233 276 319
#
# _framework density 21.964314000000002
#
# number of rings (size 3 to 8) (size 9 to 14) (size 15 to 20)
#    0.000    2.000    1.667    2.000    2.333    7.333 
#    0.000    0.000    0.000    2.000    0.000    0.000 
#    0.000    0.000    0.000    0.000    0.000    0.000 
#
# Total GULP energy -268009.620361 kJ/mol
# GULP energy per Si atom -5583.533758 kJ/mol
# Density = 2.191432 g / cm^3
# Si number density = 21.964314 Si / 1000 Ang^3
#
#
#
# Elastic Constant Matrix: (Units=GPa)
#
#
# Indices 1 2 3 4 5 6 
#
# 1 168.0206 20.1411 9.8229 0.0000 0.0000 0.0000
# 2 20.1411 65.8284 -5.9480 0.0000 0.0000 0.0000
# 3 9.8229 -5.9480 36.8577 0.0000 0.0000 0.0000
# 4 0.0000 0.0000 0.0000 4.1149 0.0000 0.0000
# 5 0.0000 0.0000 0.0000 0.0000 7.8712 0.0000
# 6 0.0000 0.0000 0.0000 0.0000 0.0000 -3.7299
#
#
#
# Elastic Compliance Matrix: (Units=1/GPa)
#
#
# Indices 1 2 3 4 5 6 
#
# 1 0.006324 -0.002118 -0.002027 0.000000 0.000000 0.000000
# 2 -0.002118 0.016125 0.003167 0.000000 0.000000 0.000000
# 3 -0.002027 0.003167 0.028183 0.000000 0.000000 0.000000
# 4 0.000000 0.000000 0.000000 0.243021 0.000000 0.000000
# 5 0.000000 0.000000 0.000000 0.000000 0.127046 0.000000
# 6 0.000000 0.000000 0.000000 0.000000 0.000000 -0.268101
#
#
# Mechanical properties :
#
#
# Convention : Reuss Voigt Hill
#
# Bulk Modulus (GPa) = 20.54451 35.41540 27.97996
# Shear Modulus (GPa) = 29.27733 18.09727 23.68730
#
# Velocity S-wave (km/s) = 3.65492 2.87355 3.28753
# Velocity P-wave (km/s) = 5.21394 5.21237 5.21315
#
# Compressibility (1/GPa) = 0.04867481
#
# Stress axis : x y z
#
# Youngs Moduli (GPa) = 158.12599 62.01467 35.48275
#
# Poissons Ratio (x) = 0.13135 0.07193
# Poissons Ratio (y) = 0.33493 -0.11237
# Poissons Ratio (z) = 0.32056 -0.19639
#
# Static dielectric constant tensor:
#      x y z
#    x 1.060740 0.000000 0.000000 
#    y 0.000000 1.796560 0.000000 
#    z 0.000000 0.000000 1.831640 
# 
# From -- ./inp_files/2854.got.cif
#   From: 2010.05.17/outbox.cif.g08.bks.cpg/sg58_2_cif.got.tgz:2854.got - 2010.06.03 14:20:14.
