data_PCOD9443214
_publ_section_title
;
Structure prediction by ZEFSAII (Michael W. Deem and Ramdas Pophale) SiO2 
 PCOD9443214
Probable space group: P N N M
;
_chemical_formula_sum "Si O2"
_cell_formula_units_Z 64
_cell_length_a 21.207566
_cell_length_b 17.164613
_cell_length_c 7.937549
_cell_angle_alpha 90.000000
_cell_angle_beta 90.000000
_cell_angle_gamma 90.000000
_cell_volume 2889.423913
_symmetry_space_group_name_H-M "P N N M"
_symmetry_group_IT_number 58
_symmetry_cell_setting 'orthorhombic'
loop_
_space_group_symop_operation_xyz
x,y,z
-x,-y,z
1/2+x,1/2-y,1/2-z
1/2-x,1/2+y,1/2-z
-x,-y,-z
x,y,-z
1/2-x,1/2+y,1/2+z
1/2+x,1/2-y,1/2+z
loop_
_atom_site_type_symbol
_atom_site_label
_atom_site_fract_x
_atom_site_fract_y
_atom_site_fract_z
Si Si1 0.292432 0.603197 0.694992
Si Si2 0.617805 0.528938 0.192424
Si Si3 0.844423 0.449007 0.296229
Si Si4 0.976250 0.150827 0.701926
Si Si5 0.107856 0.217386 0.796460
Si Si6 0.349670 0.878245 0.299913
Si Si7 0.791098 0.159461 0.805259
Si Si8 0.118708 0.716066 0.297152
O O1 0.278106 0.620759 0.500000
O O2 0.346840 0.537842 0.706381
O O3 0.227532 0.567970 0.765638
O O4 0.327188 0.678754 0.768894
O O5 0.554884 0.570089 0.262580
O O6 0.667269 0.600739 0.194215
O O7 0.607637 0.501628 0.000000
O O8 0.843388 0.451374 0.500000
O O9 0.867532 0.533382 0.240156
O O10 0.883918 0.373332 0.241034
O O11 0.968628 0.147925 0.500000
O O12 0.934965 0.224587 0.765737
O O13 0.048162 0.167629 0.740826
O O14 0.104919 0.307780 0.743739
O O15 0.109269 0.214239 0.000000
O O16 0.342523 0.871817 0.500000
O O17 0.281471 0.859757 0.221898
O O18 0.814809 0.245330 0.755804
O O19 0.807071 0.145369 0.000000
O O20 0.116132 0.715752 0.500000
#
# Coordination Sequence:
#
# PCOD9443214 Si02
#       8
#     8   8   8   8   8   8   8   8
#     4  10  20  35  56  84 115 145 185 230 279 341
#     4  10  20  35  56  83 115 150 182 228 284 331
#     4  10  20  36  59  86 114 144 183 232 284 341
#     4   9  20  38  58  80 109 149 196 234 273 331
#     4  10  23  40  57  79 111 153 190 233 285 331
#     4  11  22  37  56  80 113 149 185 230 289 342
#     4  11  20  32  54  84 113 145 185 226 276 338
#     4   9  19  37  59  82 112 149 186 232 285 331
#
# _framework density 22.149743999999998
#
# number of rings (size 3 to 8) (size 9 to 14) (size 15 to 20)
#    0.000    2.000    1.250    3.375    0.000    7.000 
#    0.000    4.375    0.000    3.750    0.000    0.000 
#    0.000    0.000    0.000    0.000    0.000    0.000 
#
# Total GULP energy -357349.011059 kJ/mol
# GULP energy per Si atom -5583.578298 kJ/mol
# Density = 2.209933 g / cm^3
# Si number density = 22.149744 Si / 1000 Ang^3
#
#
#
# Elastic Constant Matrix: (Units=GPa)
#
#
# Indices 1 2 3 4 5 6 
#
# 1 36.6168 -21.3383 -6.1329 0.0000 0.0000 0.0000
# 2 -21.3383 58.2122 -1.6297 0.0000 0.0000 0.0000
# 3 -6.1329 -1.6297 35.3317 0.0000 0.0000 0.0000
# 4 0.0000 0.0000 0.0000 24.2098 0.0000 0.0000
# 5 0.0000 0.0000 0.0000 0.0000 35.8009 0.0000
# 6 0.0000 0.0000 0.0000 0.0000 0.0000 27.7771
#
#
#
# Elastic Compliance Matrix: (Units=1/GPa)
#
#
# Indices 1 2 3 4 5 6 
#
# 1 0.036349 0.013518 0.006933 0.000000 0.000000 0.000000
# 2 0.013518 0.022228 0.003372 0.000000 0.000000 0.000000
# 3 0.006933 0.003372 0.029662 0.000000 0.000000 0.000000
# 4 0.000000 0.000000 0.000000 0.041306 0.000000 0.000000
# 5 0.000000 0.000000 0.000000 0.000000 0.027932 0.000000
# 6 0.000000 0.000000 0.000000 0.000000 0.000000 0.036001
#
#
# Mechanical properties :
#
#
# Convention : Reuss Voigt Hill
#
# Bulk Modulus (GPa) = 7.35917 7.99542 7.67730
# Shear Modulus (GPa) = 26.16063 28.17501 27.16782
#
# Velocity S-wave (km/s) = 3.44041 3.57041 3.50602
# Velocity P-wave (km/s) = 4.37168 4.54034 4.45681
#
# Compressibility (1/GPa) = 0.13588480
#
# Stress axis : x y z
#
# Youngs Moduli (GPa) = 27.51129 44.98803 33.71296
#
# Poissons Ratio (x) = -0.60815 -0.23373
# Poissons Ratio (y) = -0.37190 -0.11367
# Poissons Ratio (z) = -0.19074 -0.15169
#
# Static dielectric constant tensor:
#      x y z
#    x 1.806760 0.000000 0.000000 
#    y 0.000000 1.867480 0.000000 
#    z 0.000000 0.000000 1.797000 
# 
# From -- ./inp_files/10008.got.cif
#   From: 2010.05.17/outbox.cif.g08.bks.cpg/sg58_6_cif.got.tgz:10008.got - 2010.06.03 14:20:14.
