data_PCOD9443342
_publ_section_title
;
Structure prediction by ZEFSAII (Michael W. Deem and Ramdas Pophale) SiO2 
 PCOD9443342
Probable space group: P N N M
;
_chemical_formula_sum "Si O2"
_cell_formula_units_Z 64
_cell_length_a 24.797452
_cell_length_b 14.840928
_cell_length_c 9.191935
_cell_angle_alpha 90.000000
_cell_angle_beta 90.000000
_cell_angle_gamma 90.000000
_cell_volume 3382.790179
_symmetry_space_group_name_H-M "P N N M"
_symmetry_group_IT_number 58
_symmetry_cell_setting 'orthorhombic'
loop_
_space_group_symop_operation_xyz
x,y,z
-x,-y,z
1/2+x,1/2-y,1/2-z
1/2-x,1/2+y,1/2-z
-x,-y,-z
x,y,-z
1/2-x,1/2+y,1/2+z
1/2+x,1/2-y,1/2+z
loop_
_atom_site_type_symbol
_atom_site_label
_atom_site_fract_x
_atom_site_fract_y
_atom_site_fract_z
Si Si1 0.241128 0.361754 0.670295
Si Si2 0.372474 0.961911 0.832969
Si Si3 0.445883 0.443525 0.826182
Si Si4 0.014874 0.395174 0.669950
Si Si5 0.054814 0.753571 0.171326
Si Si6 0.654347 0.868721 0.330826
Si Si7 0.164389 0.001615 0.175869
Si Si8 0.263753 0.671607 0.326402
O O1 0.249402 0.338524 0.500000
O O2 0.186426 0.419402 0.681305
O O3 0.291947 0.423627 0.715633
O O4 0.232065 0.270672 0.758900
O O5 0.420571 0.891278 0.810332
O O6 0.377805 0.043507 0.721465
O O7 0.378627 0.995454 0.000000
O O8 0.500000 0.500000 0.794563
O O9 0.452983 0.343884 0.761557
O O10 0.392515 0.485002 0.752151
O O11 0.438629 0.440400 0.000000
O O12 0.002003 0.376908 0.500000
O O13 0.000000 0.500000 0.697318
O O14 0.983769 0.325237 0.769799
O O15 0.115939 0.717193 0.189378
O O16 0.045976 0.768992 0.000000
O O17 0.668843 0.875242 0.500000
O O18 0.706918 0.864603 0.232417
O O19 0.190674 0.098402 0.214390
O O20 0.158361 0.998067 0.000000
O O21 0.262844 0.676583 0.500000
#
# Coordination Sequence:
#
# PCOD9443342 Si02
#       8
#     8   8   8   8   8   8   8   8
#     4  10  21  39  60  88 126 161 198 246 300 359
#     4  10  20  37  59  85 122 164 198 244 305 358
#     4  11  26  46  67  91 119 155 207 262 308 363
#     4  10  20  35  60  90 123 163 205 247 299 360
#     4  11  24  40  62  91 125 165 207 256 310 363
#     4  11  22  36  58  89 122 158 203 249 299 359
#     4  10  22  42  66  91 124 161 201 250 309 367
#     4  11  23  39  61  90 123 161 203 248 302 364
#
# _framework density 18.919294000000001
#
# number of rings (size 3 to 8) (size 9 to 14) (size 15 to 20)
#    0.000    1.500    2.500    2.250    0.000    9.250 
#    0.000    3.750    0.000    0.000    0.000    0.000 
#    0.000    0.000    0.000    0.000    0.000    0.000 
#
# Total GULP energy -357542.184508 kJ/mol
# GULP energy per Si atom -5586.596633 kJ/mol
# Density = 1.887623 g / cm^3
# Si number density = 18.919294 Si / 1000 Ang^3
#
#
#
# Elastic Constant Matrix: (Units=GPa)
#
#
# Indices 1 2 3 4 5 6 
#
# 1 127.1393 53.7043 55.0873 0.0000 0.0000 0.0000
# 2 53.7043 118.1594 65.5544 0.0000 0.0000 0.0000
# 3 55.0873 65.5544 61.2346 0.0000 0.0000 0.0000
# 4 0.0000 0.0000 0.0000 31.3368 0.0000 0.0000
# 5 0.0000 0.0000 0.0000 0.0000 32.8980 0.0000
# 6 0.0000 0.0000 0.0000 0.0000 0.0000 20.9423
#
#
#
# Elastic Compliance Matrix: (Units=1/GPa)
#
#
# Indices 1 2 3 4 5 6 
#
# 1 0.012986 0.001426 -0.013209 0.000000 0.000000 0.000000
# 2 0.001426 0.020998 -0.023763 0.000000 0.000000 0.000000
# 3 -0.013209 -0.023763 0.053653 0.000000 0.000000 0.000000
# 4 0.000000 0.000000 0.000000 0.031911 0.000000 0.000000
# 5 0.000000 0.000000 0.000000 0.000000 0.030397 0.000000
# 6 0.000000 0.000000 0.000000 0.000000 0.000000 0.047750
#
#
# Mechanical properties :
#
#
# Convention : Reuss Voigt Hill
#
# Bulk Modulus (GPa) = 60.43821 72.80281 66.62051
# Shear Modulus (GPa) = 18.22795 25.84792 22.03793
#
# Velocity S-wave (km/s) = 3.10733 3.70025 3.41668
# Velocity P-wave (km/s) = 6.69990 7.53791 7.13122
#
# Compressibility (1/GPa) = 0.01654582
#
# Stress axis : x y z
#
# Youngs Moduli (GPa) = 77.00351 47.62260 18.63823
#
# Poissons Ratio (x) = -0.06792 0.24620
# Poissons Ratio (y) = -0.10982 0.44290
# Poissons Ratio (z) = 1.01718 1.13164
#
# Static dielectric constant tensor:
#      x y z
#    x 1.669310 0.000000 0.000000 
#    y 0.000000 1.683120 0.000000 
#    z 0.000000 0.000000 1.632870 
# 
# From -- ./inp_files/6933.got.cif
#   From: 2010.05.17/outbox.cif.g08.bks.cpg/sg58_4_cif.got.tgz:6933.got - 2010.06.03 14:20:14.
