data_PCOD9443464
_publ_section_title
;
Structure prediction by ZEFSAII (Michael W. Deem and Ramdas Pophale) SiO2 
 PCOD9443464
Probable space group: P N N M
;
_chemical_formula_sum "Si O2"
_cell_formula_units_Z 56
_cell_length_a 14.191974
_cell_length_b 19.423013
_cell_length_c 9.139451
_cell_angle_alpha 90.000000
_cell_angle_beta 90.000000
_cell_angle_gamma 90.000000
_cell_volume 2519.297853
_symmetry_space_group_name_H-M "P N N M"
_symmetry_group_IT_number 58
_symmetry_cell_setting 'orthorhombic'
loop_
_space_group_symop_operation_xyz
x,y,z
-x,-y,z
1/2+x,1/2-y,1/2-z
1/2-x,1/2+y,1/2-z
-x,-y,-z
x,y,-z
1/2-x,1/2+y,1/2+z
1/2+x,1/2-y,1/2+z
loop_
_atom_site_type_symbol
_atom_site_label
_atom_site_fract_x
_atom_site_fract_y
_atom_site_fract_z
Si Si1 0.710551 0.284073 0.829433
Si Si2 0.061125 0.710635 0.169284
Si Si3 0.955651 0.427283 0.669696
Si Si4 0.718518 0.143589 0.669733
Si Si5 0.729035 0.007741 0.169030
Si Si6 0.945263 0.148601 0.330215
Si Si7 0.108949 0.087979 0.824438
O O1 0.824414 0.291660 0.822228
O O2 0.686539 0.210463 0.758352
O O3 0.662221 0.345534 0.741260
O O4 0.684062 0.286274 0.000000
O O5 0.024208 0.638723 0.232793
O O6 0.031328 0.776102 0.264837
O O7 0.034814 0.720523 0.000000
O O8 0.983298 0.414796 0.500000
O O9 0.844268 0.444600 0.672637
O O10 0.000000 0.500000 0.715718
O O11 0.692743 0.149417 0.500000
O O12 0.690006 0.071157 0.738973
O O13 0.832860 0.141679 0.681259
O O14 0.828853 0.977878 0.220558
O O15 0.737178 0.030392 0.000000
O O16 0.971074 0.144120 0.500000
O O17 0.004258 0.093396 0.238531
O O18 0.108464 0.090477 0.000000
#
# Coordination Sequence:
#
# PCOD9443464 Si02
#       7
#     8   8   8   8   8   8   8
#     4  10  20  36  60  85 113 153 197 244 299 357
#     4  10  20  36  59  85 114 149 192 243 294 347
#     4  10  21  38  60  85 117 158 198 239 295 359
#     4  10  22  39  60  85 118 159 201 248 298 353
#     4  10  22  39  59  85 119 159 199 246 304 360
#     4  10  22  39  59  85 117 155 198 246 298 353
#     4  11  22  37  60  88 118 154 200 248 299 358
#
# _framework density 22.228414999999998
#
# number of rings (size 3 to 8) (size 9 to 14) (size 15 to 20)
#    0.000    1.857    1.429    2.143    0.000    6.571 
#    0.000    7.143    0.000    0.000    0.000    0.000 
#    0.000    0.000    0.000    0.000    0.000    0.000 
#
# Total GULP energy -313333.956984 kJ/mol
# GULP energy per Si atom -5595.249232 kJ/mol
# Density = 2.217782 g / cm^3
# Si number density = 22.228415 Si / 1000 Ang^3
#
#
#
# Elastic Constant Matrix: (Units=GPa)
#
#
# Indices 1 2 3 4 5 6 
#
# 1 55.8858 1.9866 2.8908 0.0000 0.0000 0.0000
# 2 1.9866 88.3737 38.5445 0.0000 0.0000 0.0000
# 3 2.8908 38.5445 79.2824 0.0000 0.0000 0.0000
# 4 0.0000 0.0000 0.0000 31.6669 0.0000 0.0000
# 5 0.0000 0.0000 0.0000 0.0000 29.8944 0.0000
# 6 0.0000 0.0000 0.0000 0.0000 0.0000 36.8907
#
#
#
# Elastic Compliance Matrix: (Units=1/GPa)
#
#
# Indices 1 2 3 4 5 6 
#
# 1 0.017929 -0.000150 -0.000581 0.000000 0.000000 0.000000
# 2 -0.000150 0.014362 -0.006977 0.000000 0.000000 0.000000
# 3 -0.000581 -0.006977 0.016026 0.000000 0.000000 0.000000
# 4 0.000000 0.000000 0.000000 0.031579 0.000000 0.000000
# 5 0.000000 0.000000 0.000000 0.000000 0.033451 0.000000
# 6 0.000000 0.000000 0.000000 0.000000 0.000000 0.027107
#
#
# Mechanical properties :
#
#
# Convention : Reuss Voigt Hill
#
# Bulk Modulus (GPa) = 30.39308 34.48732 32.44020
# Shear Modulus (GPa) = 29.96949 31.69840 30.83395
#
# Velocity S-wave (km/s) = 3.67584 3.78038 3.72847
# Velocity P-wave (km/s) = 5.63192 5.88249 5.75856
#
# Compressibility (1/GPa) = 0.03290223
#
# Stress axis : x y z
#
# Youngs Moduli (GPa) = 55.77553 69.62863 62.39776
#
# Poissons Ratio (x) = 0.01042 0.03625
# Poissons Ratio (y) = 0.00835 0.43534
# Poissons Ratio (z) = 0.03240 0.48579
#
# Static dielectric constant tensor:
#      x y z
#    x 1.923860 0.000000 0.000000 
#    y 0.000000 1.760720 0.000000 
#    z 0.000000 0.000000 1.746640 
# 
# From -- ./inp_files/6449.got.cif
#   From: 2010.05.17/outbox.cif.g08.bks.cpg/sg58_4_cif.got.tgz:6449.got - 2010.06.03 14:20:14.
