data_PCOD9443536
_publ_section_title
;
Structure prediction by ZEFSAII (Michael W. Deem and Ramdas Pophale) SiO2 
 PCOD9443536
Probable space group: P N N M
;
_chemical_formula_sum "Si O2"
_cell_formula_units_Z 64
_cell_length_a 28.779555
_cell_length_b 12.879505
_cell_length_c 8.130910
_cell_angle_alpha 90.000000
_cell_angle_beta 90.000000
_cell_angle_gamma 90.000000
_cell_volume 3013.855322
_symmetry_space_group_name_H-M "P N N M"
_symmetry_group_IT_number 58
_symmetry_cell_setting 'orthorhombic'
loop_
_space_group_symop_operation_xyz
x,y,z
-x,-y,z
1/2+x,1/2-y,1/2-z
1/2-x,1/2+y,1/2-z
-x,-y,-z
x,y,-z
1/2-x,1/2+y,1/2+z
1/2+x,1/2-y,1/2+z
loop_
_atom_site_type_symbol
_atom_site_label
_atom_site_fract_x
_atom_site_fract_y
_atom_site_fract_z
Si Si1 0.847909 0.431394 0.303070
Si Si2 0.721497 0.111038 0.189174
Si Si3 0.828114 0.805389 0.813981
Si Si4 0.931980 0.714503 0.187261
Si Si5 0.052428 0.502761 0.688096
Si Si6 0.543576 0.429741 0.302492
Si Si7 0.685099 0.707401 0.692161
Si Si8 0.139798 0.982705 0.310326
O O1 0.851631 0.447436 0.500000
O O2 0.813040 0.522706 0.239262
O O3 0.901415 0.441206 0.238696
O O4 0.826391 0.318286 0.270246
O O5 0.696606 0.222757 0.198577
O O6 0.771397 0.141161 0.264241
O O7 0.729858 0.079333 0.000000
O O8 0.881360 0.766955 0.816026
O O9 0.827721 0.924578 0.758764
O O10 0.809600 0.796813 0.000000
O O11 0.932909 0.617487 0.305228
O O12 0.965046 0.809058 0.237307
O O13 0.942327 0.679968 0.000000
O O14 0.046985 0.540823 0.500000
O O15 0.000000 0.500000 0.762222
O O16 0.500000 0.500000 0.266330
O O17 0.553130 0.432953 0.500000
O O18 0.588130 0.473144 0.210301
O O19 0.694412 0.726795 0.500000
O O20 0.644041 0.624642 0.713331
O O21 0.150048 0.964357 0.500000
#
# Coordination Sequence:
#
# PCOD9443536 Si02
#       8
#     8   8   8   8   8   8   8   8
#     4  10  22  42  63  88 125 163 204 256 317 373
#     4  10  22  40  63  90 119 156 201 251 309 370
#     4  10  20  36  61  88 116 151 198 252 306 363
#     4   9  18  33  54  83 113 149 195 243 297 355
#     4  10  21  37  59  86 118 159 203 250 303 362
#     4   9  19  37  60  87 121 158 200 253 311 365
#     4  11  25  42  61  90 125 163 207 252 313 376
#     4  11  23  39  60  87 122 160 203 249 305 366
#
# _framework density 21.23526
#
# number of rings (size 3 to 8) (size 9 to 14) (size 15 to 20)
#    0.000    2.000    1.250    2.625    1.750    5.500 
#    0.000    2.500    0.000    0.000    0.000    0.000 
#    0.000    0.000    0.000    0.000    0.000    0.000 
#
# Total GULP energy -356761.926701 kJ/mol
# GULP energy per Si atom -5574.405105 kJ/mol
# Density = 2.118693 g / cm^3
# Si number density = 21.235260 Si / 1000 Ang^3
#
#
#
# Elastic Constant Matrix: (Units=GPa)
#
#
# Indices 1 2 3 4 5 6 
#
# 1 82.4156 30.8303 12.8897 0.0000 0.0000 0.0000
# 2 30.8303 103.6056 4.9698 0.0000 0.0000 0.0000
# 3 12.8897 4.9698 22.7564 0.0000 0.0000 0.0000
# 4 0.0000 0.0000 0.0000 26.9159 0.0000 0.0000
# 5 0.0000 0.0000 0.0000 0.0000 16.6983 0.0000
# 6 0.0000 0.0000 0.0000 0.0000 0.0000 27.6934
#
#
#
# Elastic Compliance Matrix: (Units=1/GPa)
#
#
# Indices 1 2 3 4 5 6 
#
# 1 0.014824 -0.004051 -0.007512 0.000000 0.000000 0.000000
# 2 -0.004051 0.010861 -0.000077 0.000000 0.000000 0.000000
# 3 -0.007512 -0.000077 0.048215 0.000000 0.000000 0.000000
# 4 0.000000 0.000000 0.000000 0.037153 0.000000 0.000000
# 5 0.000000 0.000000 0.000000 0.000000 0.059886 0.000000
# 6 0.000000 0.000000 0.000000 0.000000 0.000000 0.036110
#
#
# Mechanical properties :
#
#
# Convention : Reuss Voigt Hill
#
# Bulk Modulus (GPa) = 19.75504 34.01747 26.88625
# Shear Modulus (GPa) = 20.22632 24.93406 22.58019
#
# Velocity S-wave (km/s) = 3.08959 3.43035 3.26442
# Velocity P-wave (km/s) = 4.69580 5.63417 5.18625
#
# Compressibility (1/GPa) = 0.05062000
#
# Stress axis : x y z
#
# Youngs Moduli (GPa) = 67.45904 92.07152 20.74026
#
# Poissons Ratio (x) = 0.37297 0.15580
# Poissons Ratio (y) = 0.27327 0.00161
# Poissons Ratio (z) = 0.50674 0.00713
#
# Static dielectric constant tensor:
#      x y z
#    x 1.860410 0.000000 0.000000 
#    y 0.000000 1.758660 0.000000 
#    z 0.000000 0.000000 1.787000 
# 
# From -- ./inp_files/11017.got.cif
#   From: 2010.05.17/outbox.cif.g08.bks.cpg/sg58_6_cif.got.tgz:11017.got - 2010.06.03 14:20:14.
