data_PCOD9443346
_publ_section_title
;
Structure prediction by ZEFSAII (Michael W. Deem and Ramdas Pophale) SiO2 
 PCOD9443346
Probable space group: P N N M
;
_chemical_formula_sum "Si O2"
_cell_formula_units_Z 52
_cell_length_a 13.762681
_cell_length_b 18.219668
_cell_length_c 8.125007
_cell_angle_alpha 90.000000
_cell_angle_beta 90.000000
_cell_angle_gamma 90.000000
_cell_volume 2037.357519
_symmetry_space_group_name_H-M "P N N M"
_symmetry_group_IT_number 58
_symmetry_cell_setting 'orthorhombic'
loop_
_space_group_symop_operation_xyz
x,y,z
-x,-y,z
1/2+x,1/2-y,1/2-z
1/2-x,1/2+y,1/2-z
-x,-y,-z
x,y,-z
1/2-x,1/2+y,1/2+z
1/2+x,1/2-y,1/2+z
loop_
_atom_site_type_symbol
_atom_site_label
_atom_site_fract_x
_atom_site_fract_y
_atom_site_fract_z
Si Si1 0.882099 0.995868 0.000000
Si Si2 0.258193 0.111677 0.177628
Si Si3 0.138902 0.231865 0.681331
Si Si4 0.545592 0.901439 0.304548
Si Si5 0.372659 0.417000 0.181045
Si Si6 0.058897 0.771429 0.184804
Si Si7 0.668076 0.094355 0.811747
O O1 0.918883 0.051262 0.850451
O O2 0.830765 0.942566 0.858512
O O3 0.226527 0.175620 0.299011
O O4 0.353597 0.068280 0.234843
O O5 0.281595 0.145967 0.000000
O O6 0.095078 0.223286 0.500000
O O7 0.167817 0.316491 0.697127
O O8 0.056262 0.211312 0.810674
O O9 0.539843 0.911731 0.500000
O O10 0.558166 0.814289 0.268489
O O11 0.443176 0.925458 0.228700
O O12 0.390056 0.329523 0.198895
O O13 0.256459 0.428896 0.197157
O O14 0.405946 0.441975 0.000000
O O15 0.098526 0.778259 0.000000
O O16 0.695467 0.072274 0.000000
#
# Coordination Sequence:
#
# PCOD9443346 Si02
#       7
#     4   8   8   8   8   8   8
#     4  10  26  46  60  90 122 172 224 250 304 358
#     4  10  22  39  58  80 117 169 197 257 304 357
#     4  10  20  35  60  96 125 157 202 252 315 381
#     4  10  20  35  60  96 125 157 202 252 315 381
#     4  12  23  41  65  88 120 166 214 260 304 363
#     4  10  20  36  61  92 131 159 195 257 316 376
#     4  10  20  36  61  92 131 159 195 257 316 376
#
# _framework density 25.523257000000001
#
# number of rings (size 3 to 8) (size 9 to 14) (size 15 to 20)
#    0.462    1.231    1.538    3.231    0.000    8.615 
#    0.000    3.077    0.000    3.692    0.000    0.000 
#    0.000    0.000    0.000    0.000    0.000    0.000 
#
# Total GULP energy -289923.418075 kJ/mol
# GULP energy per Si atom -5575.450348 kJ/mol
# Density = 2.546516 g / cm^3
# Si number density = 25.523257 Si / 1000 Ang^3
#
#
#
# Elastic Constant Matrix: (Units=GPa)
#
#
# Indices 1 2 3 4 5 6 
#
# 1 88.0971 17.6986 4.3282 0.0000 0.0000 0.0000
# 2 17.6986 79.9154 18.0269 0.0000 0.0000 0.0000
# 3 4.3282 18.0269 147.3840 0.0000 0.0000 0.0000
# 4 0.0000 0.0000 0.0000 25.4281 0.0000 0.0000
# 5 0.0000 0.0000 0.0000 0.0000 27.4311 0.0000
# 6 0.0000 0.0000 0.0000 0.0000 0.0000 39.5410
#
#
#
# Elastic Compliance Matrix: (Units=1/GPa)
#
#
# Indices 1 2 3 4 5 6 
#
# 1 0.011880 -0.002625 -0.000028 0.000000 0.000000 0.000000
# 2 -0.002625 0.013448 -0.001568 0.000000 0.000000 0.000000
# 3 -0.000028 -0.001568 0.006978 0.000000 0.000000 0.000000
# 4 0.000000 0.000000 0.000000 0.039327 0.000000 0.000000
# 5 0.000000 0.000000 0.000000 0.000000 0.036455 0.000000
# 6 0.000000 0.000000 0.000000 0.000000 0.000000 0.025290
#
#
# Mechanical properties :
#
#
# Convention : Reuss Voigt Hill
#
# Bulk Modulus (GPa) = 41.90261 43.94487 42.92374
# Shear Modulus (GPa) = 33.38389 36.83623 35.11006
#
# Velocity S-wave (km/s) = 3.62052 3.80312 3.71295
# Velocity P-wave (km/s) = 5.82500 6.04483 5.93593
#
# Compressibility (1/GPa) = 0.02386486
#
# Stress axis : x y z
#
# Youngs Moduli (GPa) = 84.17669 74.35952 143.31627
#
# Poissons Ratio (x) = 0.19517 0.00399
# Poissons Ratio (y) = 0.22094 0.22469
# Poissons Ratio (z) = 0.00234 0.11658
#
# Static dielectric constant tensor:
#      x y z
#    x 2.191360 0.000000 0.000000 
#    y 0.000000 2.034160 0.000000 
#    z 0.000000 0.000000 1.963340 
# 
# From -- ./inp_files/6150.got.cif
#   From: 2010.05.17/outbox.cif.g08.bks.cpg/sg58_4_cif.got.tgz:6150.got - 2010.06.03 14:20:14.
