data_PCOD9443850
_publ_section_title
;
Structure prediction by ZEFSAII (Michael W. Deem and Ramdas Pophale) SiO2 
 PCOD9443850
Probable space group: P N N M
;
_chemical_formula_sum "Si O2"
_cell_formula_units_Z 48
_cell_length_a 9.304124
_cell_length_b 15.871732
_cell_length_c 15.702097
_cell_angle_alpha 90.000000
_cell_angle_beta 90.000000
_cell_angle_gamma 90.000000
_cell_volume 2318.768903
_symmetry_space_group_name_H-M "P N N M"
_symmetry_group_IT_number 58
_symmetry_cell_setting 'orthorhombic'
loop_
_space_group_symop_operation_xyz
x,y,z
-x,-y,z
1/2+x,1/2-y,1/2-z
1/2-x,1/2+y,1/2-z
-x,-y,-z
x,y,-z
1/2-x,1/2+y,1/2+z
1/2+x,1/2-y,1/2+z
loop_
_atom_site_type_symbol
_atom_site_label
_atom_site_fract_x
_atom_site_fract_y
_atom_site_fract_z
Si Si1 0.736800 0.528586 0.093833
Si Si2 0.538637 0.720268 0.742093
Si Si3 0.332802 0.980794 0.095358
Si Si4 0.076260 0.091278 0.900275
Si Si5 0.839784 0.636255 0.756046
Si Si6 0.062174 0.134872 0.593513
O O1 0.823952 0.565995 0.171286
O O2 0.585782 0.580560 0.093787
O O3 0.689677 0.432128 0.104484
O O4 0.802170 0.540215 0.000000
O O5 0.485702 0.659566 0.665069
O O6 0.705066 0.701132 0.761559
O O7 0.488056 0.815188 0.728264
O O8 0.451636 0.695435 0.827463
O O9 0.317439 0.909712 0.166138
O O10 0.500000 0.000000 0.091966
O O11 0.241706 0.064902 0.116208
O O12 0.283985 0.954391 0.000000
O O13 0.060736 0.115859 0.000000
O O14 0.000000 0.000000 0.887411
O O15 0.074613 0.175187 0.500000
#
# Coordination Sequence:
#
# PCOD9443850 Si02
#       6
#     8   8   8   8   8   8
#     4   8  15  31  55  79 102 136 184 229 267 316
#     4  11  23  35  55  84 119 151 187 231 289 346
#     4  10  22  40  63  87 112 148 198 250 293 342
#     4  10  20  38  63  85 108 149 198 240 287 343
#     4  11  23  37  54  85 119 153 184 232 289 345
#     4   8  15  30  54  79 101 136 185 229 266 316
#
# _framework density 20.70064
#
# number of rings (size 3 to 8) (size 9 to 14) (size 15 to 20)
#    0.000    2.333    1.667    2.000    4.667    1.333 
#    0.000    0.000    0.000    0.500    0.000    0.000 
#    0.000    0.000    0.000    0.000    0.000    0.000 
#
# Total GULP energy -267788.839583 kJ/mol
# GULP energy per Si atom -5578.934158 kJ/mol
# Density = 2.065352 g / cm^3
# Si number density = 20.700640 Si / 1000 Ang^3
#
#
#
# Elastic Constant Matrix: (Units=GPa)
#
#
# Indices 1 2 3 4 5 6 
#
# 1 42.6079 -7.8951 0.1831 0.0000 0.0000 0.0000
# 2 -7.8951 12.9646 25.5006 0.0000 0.0000 0.0000
# 3 0.1831 25.5006 101.3224 0.0000 0.0000 0.0000
# 4 0.0000 0.0000 0.0000 -45.2726 0.0000 0.0000
# 5 0.0000 0.0000 0.0000 0.0000 14.8096 0.0000
# 6 0.0000 0.0000 0.0000 0.0000 0.0000 28.7441
#
#
#
# Elastic Compliance Matrix: (Units=1/GPa)
#
#
# Indices 1 2 3 4 5 6 
#
# 1 0.030326 0.036786 -0.009313 0.000000 0.000000 0.000000
# 2 0.036786 0.197370 -0.049740 0.000000 0.000000 0.000000
# 3 -0.009313 -0.049740 0.022405 0.000000 0.000000 0.000000
# 4 0.000000 0.000000 0.000000 -0.022088 0.000000 0.000000
# 5 0.000000 0.000000 0.000000 0.000000 0.067524 0.000000
# 6 0.000000 0.000000 0.000000 0.000000 0.000000 0.034790
#
#
# Mechanical properties :
#
#
# Convention : Reuss Voigt Hill
#
# Bulk Modulus (GPa) = 4.86462 21.38580 13.12521
# Shear Modulus (GPa) = 11.27693 8.92997 10.10345
#
# Velocity S-wave (km/s) = 2.33655 2.07924 2.21164
# Velocity P-wave (km/s) = 3.10393 4.01469 3.58832
#
# Compressibility (1/GPa) = 0.20556610
#
# Stress axis : x y z
#
# Youngs Moduli (GPa) = 32.97488 5.06663 44.63325
#
# Poissons Ratio (x) = -0.18638 0.41567
# Poissons Ratio (y) = -1.21300 2.22007
# Poissons Ratio (z) = 0.30709 0.25201
#
# Static dielectric constant tensor:
#      x y z
#    x 1.787690 0.000000 0.000000 
#    y 0.000000 1.707200 0.000000 
#    z 0.000000 0.000000 1.757050 
# 
# From -- ./inp_files/19807.got.cif
#   From: 2010.05.17/outbox.cif.g08.bks.cpg/sg58_10_cif.got.tgz:19807.got - 2010.06.03 14:20:14.
