data_PCOD9443805
_publ_section_title
;
Structure prediction by ZEFSAII (Michael W. Deem and Ramdas Pophale) SiO2 
 PCOD9443805
Probable space group: P N N M
;
_chemical_formula_sum "Si O2"
_cell_formula_units_Z 34
_cell_length_a 23.511382
_cell_length_b 6.984758
_cell_length_c 7.659941
_cell_angle_alpha 90.000000
_cell_angle_beta 90.000000
_cell_angle_gamma 90.000000
_cell_volume 1257.925572
_symmetry_space_group_name_H-M "P N N M"
_symmetry_group_IT_number 58
_symmetry_cell_setting 'orthorhombic'
loop_
_space_group_symop_operation_xyz
x,y,z
-x,-y,z
1/2+x,1/2-y,1/2-z
1/2-x,1/2+y,1/2-z
-x,-y,-z
x,y,-z
1/2-x,1/2+y,1/2+z
1/2+x,1/2-y,1/2+z
loop_
_atom_site_type_symbol
_atom_site_label
_atom_site_fract_x
_atom_site_fract_y
_atom_site_fract_z
Si Si1 0.297959 0.914662 0.790193
Si Si2 0.916882 0.471083 0.809967
Si Si3 0.057087 0.105865 0.297168
Si Si4 0.172292 0.981954 0.795073
Si Si5 0.000000 0.500000 0.500000
O O1 0.348488 0.052193 0.722006
O O2 0.318862 0.707588 0.735941
O O3 0.233093 0.913286 0.722729
O O4 0.296672 0.935330 0.000000
O O5 0.929159 0.702182 0.808283
O O6 0.957069 0.412294 0.652981
O O7 0.931523 0.393209 0.000000
O O8 0.051167 0.177872 0.500000
O O9 0.110037 0.959386 0.286259
O O10 0.000000 0.000000 0.244909
O O11 0.169483 0.938462 0.000000
#
# Coordination Sequence:
#
# PCOD9443805 Si02
#       5
#     8   8   8   8   2
#     4  10  20  39  59  85 123 157 198 258 304 358
#     4  11  22  39  65  86 121 166 198 248 309 358
#     4  10  20  38  61  86 121 161 200 254 307 359
#     4  10  21  36  60  87 117 157 203 252 306 363
#     4  12  22  44  58  90 124 160 204 246 298 372
#
# _framework density 27.028625999999999
#
# number of rings (size 3 to 8) (size 9 to 14) (size 15 to 20)
#    0.000    1.647    2.353    5.294    0.000    5.647 
#    4.235    0.000    0.000    0.000    0.000    0.000 
#    0.000    0.000    0.000    0.000    0.000    0.000 
#
# Total GULP energy -189819.419632 kJ/mol
# GULP energy per Si atom -5582.924107 kJ/mol
# Density = 2.696711 g / cm^3
# Si number density = 27.028626 Si / 1000 Ang^3
#
#
#
# Elastic Constant Matrix: (Units=GPa)
#
#
# Indices 1 2 3 4 5 6 
#
# 1 273.1352 24.4967 64.0135 0.0000 0.0000 0.0000
# 2 24.4967 62.7925 -8.0931 0.0000 0.0000 0.0000
# 3 64.0135 -8.0931 192.3011 0.0000 0.0000 0.0000
# 4 0.0000 0.0000 0.0000 34.4658 0.0000 0.0000
# 5 0.0000 0.0000 0.0000 0.0000 34.8710 0.0000
# 6 0.0000 0.0000 0.0000 0.0000 0.0000 48.1357
#
#
#
# Elastic Compliance Matrix: (Units=1/GPa)
#
#
# Indices 1 2 3 4 5 6 
#
# 1 0.004167 -0.001814 -0.001463 0.000000 0.000000 0.000000
# 2 -0.001814 0.016802 0.001311 0.000000 0.000000 0.000000
# 3 -0.001463 0.001311 0.005743 0.000000 0.000000 0.000000
# 4 0.000000 0.000000 0.000000 0.029014 0.000000 0.000000
# 5 0.000000 0.000000 0.000000 0.000000 0.028677 0.000000
# 6 0.000000 0.000000 0.000000 0.000000 0.000000 0.020775
#
#
# Mechanical properties :
#
#
# Convention : Reuss Voigt Hill
#
# Bulk Modulus (GPa) = 43.90119 76.56255 60.23187
# Shear Modulus (GPa) = 42.84360 53.34862 48.09611
#
# Velocity S-wave (km/s) = 3.98567 4.44755 4.22293
# Velocity P-wave (km/s) = 6.12034 7.40015 6.79046
#
# Compressibility (1/GPa) = 0.02277843
#
# Stress axis : x y z
#
# Youngs Moduli (GPa) = 239.98770 59.51595 174.14007
#
# Poissons Ratio (x) = 0.10797 0.25484
# Poissons Ratio (y) = 0.43539 -0.22831
# Poissons Ratio (z) = 0.35121 -0.07803
#
# Static dielectric constant tensor:
#      x y z
#    x 1.588450 0.000000 0.000000 
#    y 0.000000 0.708020 0.000000 
#    z 0.000000 0.000000 1.980940 
# 
# From -- ./inp_files/8675.got.cif
#   From: 2010.05.17/outbox.cif.g08.bks.cpg/sg58_5_cif.got.tgz:8675.got - 2010.06.03 14:20:14.
