data_PCOD9443995
_publ_section_title
;
Structure prediction by ZEFSAII (Michael W. Deem and Ramdas Pophale) SiO2 
 PCOD9443995
Probable space group: P N N M
;
_chemical_formula_sum "Si O2"
_cell_formula_units_Z 56
_cell_length_a 16.031272
_cell_length_b 12.546449
_cell_length_c 13.169817
_cell_angle_alpha 90.000000
_cell_angle_beta 90.000000
_cell_angle_gamma 90.000000
_cell_volume 2648.918209
_symmetry_space_group_name_H-M "P N N M"
_symmetry_group_IT_number 58
_symmetry_cell_setting 'orthorhombic'
loop_
_space_group_symop_operation_xyz
x,y,z
-x,-y,z
1/2+x,1/2-y,1/2-z
1/2-x,1/2+y,1/2-z
-x,-y,-z
x,y,-z
1/2-x,1/2+y,1/2+z
1/2+x,1/2-y,1/2+z
loop_
_atom_site_type_symbol
_atom_site_label
_atom_site_fract_x
_atom_site_fract_y
_atom_site_fract_z
Si Si1 0.436914 0.840970 0.820018
Si Si2 0.336276 0.651871 0.115255
Si Si3 0.394725 0.933823 0.610373
Si Si4 0.862062 0.314999 0.109046
Si Si5 0.882220 0.294157 0.667675
Si Si6 0.711870 0.011290 0.883419
Si Si7 0.293579 0.418611 0.823685
O O1 0.392133 0.726346 0.814702
O O2 0.442612 0.890771 0.707592
O O3 0.527275 0.829917 0.870052
O O4 0.371824 0.917068 0.877694
O O5 0.238792 0.685222 0.119179
O O6 0.335935 0.527797 0.140875
O O7 0.365042 0.669520 0.000000
O O8 0.424416 0.896447 0.500000
O O9 0.298142 0.904987 0.628136
O O10 0.390627 0.061775 0.608866
O O11 0.895809 0.269726 0.212607
O O12 0.883606 0.266618 0.000000
O O13 0.817907 0.392144 0.650424
O O14 0.844669 0.182053 0.635682
O O15 0.772737 0.061508 0.797081
O O16 0.742418 0.010683 0.000000
#
# Coordination Sequence:
#
# PCOD9443995 Si02
#       7
#     8   8   8   8   8   8   8
#     4  11  23  37  58  88 130 158 193 241 306 368
#     4  10  20  40  64  85 114 159 203 245 294 354
#     4   9  18  35  60  86 113 149 192 244 297 341
#     4   9  17  34  62  87 109 147 199 247 290 345
#     4  12  23  38  59  92 123 157 198 249 301 366
#     4  11  24  41  63  89 124 161 199 250 309 362
#     4  10  22  40  63  86 117 155 213 252 290 345
#
# _framework density 21.140705000000001
#
# number of rings (size 3 to 8) (size 9 to 14) (size 15 to 20)
#    0.000    1.714    4.286    3.857    0.000    5.714 
#    0.000    2.143    0.000    0.000    0.000    3.000 
#    0.000    0.000    0.000    0.000    0.000    0.000 
#
# Total GULP energy -312621.295657 kJ/mol
# GULP energy per Si atom -5582.523137 kJ/mol
# Density = 2.109259 g / cm^3
# Si number density = 21.140705 Si / 1000 Ang^3
#
#
#
# Elastic Constant Matrix: (Units=GPa)
#
#
# Indices 1 2 3 4 5 6 
#
# 1 37.7177 20.8579 5.9641 0.0000 0.0000 0.0000
# 2 20.8579 67.7980 -18.9538 0.0000 0.0000 0.0000
# 3 5.9641 -18.9538 91.7505 0.0000 0.0000 0.0000
# 4 0.0000 0.0000 0.0000 -2.3523 0.0000 0.0000
# 5 0.0000 0.0000 0.0000 0.0000 2.6347 0.0000
# 6 0.0000 0.0000 0.0000 0.0000 0.0000 24.9764
#
#
#
# Elastic Compliance Matrix: (Units=1/GPa)
#
#
# Indices 1 2 3 4 5 6 
#
# 1 0.033680 -0.011646 -0.004595 0.000000 0.000000 0.000000
# 2 -0.011646 0.019681 0.004823 0.000000 0.000000 0.000000
# 3 -0.004595 0.004823 0.012194 0.000000 0.000000 0.000000
# 4 0.000000 0.000000 0.000000 -0.425121 0.000000 0.000000
# 5 0.000000 0.000000 0.000000 0.000000 0.379549 0.000000
# 6 0.000000 0.000000 0.000000 0.000000 0.000000 0.040038
#
#
# Mechanical properties :
#
#
# Convention : Reuss Voigt Hill
#
# Bulk Modulus (GPa) = 23.40960 23.66695 23.53828
# Shear Modulus (GPa) = 51.49492 17.67829 34.58660
#
# Velocity S-wave (km/s) = 4.94076 2.89489 4.04916
# Velocity P-wave (km/s) = 6.60646 4.73213 5.74624
#
# Compressibility (1/GPa) = 0.04271751
#
# Stress axis : x y z
#
# Youngs Moduli (GPa) = 29.69149 50.81083 82.00683
#
# Poissons Ratio (x) = 0.59175 0.37683
# Poissons Ratio (y) = 0.34579 -0.39550
# Poissons Ratio (z) = 0.13644 -0.24505
#
# Static dielectric constant tensor:
#      x y z
#    x 1.796360 0.000000 0.000000 
#    y 0.000000 1.753280 0.000000 
#    z 0.000000 0.000000 1.837240 
# 
# From -- ./inp_files/22225.got.cif
#   From: 2010.05.17/outbox.cif.g08.bks.cpg/sg58_12_cif.got.tgz:22225.got - 2010.06.03 14:20:14.
