data_PCOD9443709
_publ_section_title
;
Structure prediction by ZEFSAII (Michael W. Deem and Ramdas Pophale) SiO2 
 PCOD9443709
Probable space group: P N N M
;
_chemical_formula_sum "Si O2"
_cell_formula_units_Z 56
_cell_length_a 9.283185
_cell_length_b 22.416861
_cell_length_c 14.342290
_cell_angle_alpha 90.000000
_cell_angle_beta 90.000000
_cell_angle_gamma 90.000000
_cell_volume 2984.628653
_symmetry_space_group_name_H-M "P N N M"
_symmetry_group_IT_number 58
_symmetry_cell_setting 'orthorhombic'
loop_
_space_group_symop_operation_xyz
x,y,z
-x,-y,z
1/2+x,1/2-y,1/2-z
1/2-x,1/2+y,1/2-z
-x,-y,-z
x,y,-z
1/2-x,1/2+y,1/2+z
1/2+x,1/2-y,1/2+z
loop_
_atom_site_type_symbol
_atom_site_label
_atom_site_fract_x
_atom_site_fract_y
_atom_site_fract_z
Si Si1 0.977308 0.800298 0.781305
Si Si2 0.276397 0.106543 0.245795
Si Si3 0.080657 0.054723 0.395449
Si Si4 0.224655 0.865491 0.889417
Si Si5 0.672210 0.496920 0.389533
Si Si6 0.353291 0.338219 0.894311
Si Si7 0.581435 0.165554 0.275620
O O1 0.827949 0.836303 0.771029
O O2 0.953673 0.732357 0.809283
O O3 0.074018 0.838146 0.853302
O O4 0.067057 0.797968 0.683673
O O5 0.215990 0.076814 0.339363
O O6 0.247163 0.056393 0.167137
O O7 0.438406 0.127301 0.261825
O O8 0.121966 0.036999 0.500000
O O9 0.961821 0.106250 0.399150
O O10 0.000000 0.000000 0.347292
O O11 0.342351 0.833035 0.825641
O O12 0.229420 0.936410 0.868016
O O13 0.241158 0.857392 0.000000
O O14 0.500000 0.500000 0.372533
O O15 0.692032 0.486567 0.500000
O O16 0.201712 0.357313 0.848605
O O17 0.337111 0.314453 0.000000
#
# Coordination Sequence:
#
# PCOD9443709 Si02
#       7
#     8   8   8   8   8   8   8
#     4  10  21  40  61  82 111 155 203 240 274 341
#     4  11  21  34  61  87 115 152 189 241 297 337
#     4   9  19  36  59  82 105 144 197 237 274 340
#     4  10  22  41  62  85 118 158 193 239 296 345
#     4  10  20  37  62  89 115 149 201 244 281 352
#     4   9  20  39  59  79 111 152 189 233 285 332
#     4  11  24  38  54  89 127 150 187 239 293 354
#
# _framework density 18.762803000000002
#
# number of rings (size 3 to 8) (size 9 to 14) (size 15 to 20)
#    0.000    2.000    1.429    2.143    4.000    2.857 
#    0.000    5.714    0.000    2.571    0.000    0.000 
#    0.000    0.000    0.000    0.000    0.000    0.000 
#
# Total GULP energy -312296.388906 kJ/mol
# GULP energy per Si atom -5576.721230 kJ/mol
# Density = 1.872010 g / cm^3
# Si number density = 18.762803 Si / 1000 Ang^3
#
#
#
# Elastic Constant Matrix: (Units=GPa)
#
#
# Indices 1 2 3 4 5 6 
#
# 1 69.2087 -13.1406 20.1126 0.0000 0.0000 0.0000
# 2 -13.1406 37.9054 13.3886 0.0000 0.0000 0.0000
# 3 20.1126 13.3886 92.9790 0.0000 0.0000 0.0000
# 4 0.0000 0.0000 0.0000 30.9748 0.0000 0.0000
# 5 0.0000 0.0000 0.0000 0.0000 13.2114 0.0000
# 6 0.0000 0.0000 0.0000 0.0000 0.0000 10.3438
#
#
#
# Elastic Compliance Matrix: (Units=1/GPa)
#
#
# Indices 1 2 3 4 5 6 
#
# 1 0.017328 0.007724 -0.004860 0.000000 0.000000 0.000000
# 2 0.007724 0.031238 -0.006169 0.000000 0.000000 0.000000
# 3 -0.004860 -0.006169 0.012695 0.000000 0.000000 0.000000
# 4 0.000000 0.000000 0.000000 0.032284 0.000000 0.000000
# 5 0.000000 0.000000 0.000000 0.000000 0.075692 0.000000
# 6 0.000000 0.000000 0.000000 0.000000 0.000000 0.096677
#
#
# Mechanical properties :
#
#
# Convention : Reuss Voigt Hill
#
# Bulk Modulus (GPa) = 18.29834 26.75716 22.52775
# Shear Modulus (GPa) = 17.19740 22.88816 20.04278
#
# Velocity S-wave (km/s) = 3.03077 3.49645 3.27191
# Velocity P-wave (km/s) = 4.69266 5.53100 5.12899
#
# Compressibility (1/GPa) = 0.05464976
#
# Stress axis : x y z
#
# Youngs Moduli (GPa) = 57.70985 32.01227 78.77236
#
# Poissons Ratio (x) = -0.24726 0.38287
# Poissons Ratio (y) = -0.44574 0.48594
# Poissons Ratio (z) = 0.28050 0.19748
#
# Static dielectric constant tensor:
#      x y z
#    x 1.648220 0.000000 0.000000 
#    y 0.000000 1.682470 0.000000 
#    z 0.000000 0.000000 1.672400 
# 
# From -- ./inp_files/20134.got.cif
#   From: 2010.05.17/outbox.cif.g08.bks.cpg/sg58_11_cif.got.tgz:20134.got - 2010.06.03 14:20:14.
