data_PCOD9443263
_publ_section_title
;
Structure prediction by ZEFSAII (Michael W. Deem and Ramdas Pophale) SiO2 
 PCOD9443263
Probable space group: P N N M
;
_chemical_formula_sum "Si O2"
_cell_formula_units_Z 64
_cell_length_a 15.405729
_cell_length_b 25.315077
_cell_length_c 8.791470
_cell_angle_alpha 90.000000
_cell_angle_beta 90.000000
_cell_angle_gamma 90.000000
_cell_volume 3428.648823
_symmetry_space_group_name_H-M "P N N M"
_symmetry_group_IT_number 58
_symmetry_cell_setting 'orthorhombic'
loop_
_space_group_symop_operation_xyz
x,y,z
-x,-y,z
1/2+x,1/2-y,1/2-z
1/2-x,1/2+y,1/2-z
-x,-y,-z
x,y,-z
1/2-x,1/2+y,1/2+z
1/2+x,1/2-y,1/2+z
loop_
_atom_site_type_symbol
_atom_site_label
_atom_site_fract_x
_atom_site_fract_y
_atom_site_fract_z
Si Si1 0.190196 0.058791 0.817830
Si Si2 0.837884 0.055065 0.318668
Si Si3 0.545370 0.281366 0.680823
Si Si4 0.474431 0.831753 0.182419
Si Si5 0.764581 0.768473 0.318562
Si Si6 0.722574 0.147146 0.182132
Si Si7 0.658714 0.862176 0.182759
Si Si8 0.483769 0.609283 0.182040
O O1 0.277041 0.090591 0.771973
O O2 0.106090 0.087768 0.749235
O O3 0.189903 0.998982 0.760516
O O4 0.184081 0.060164 0.000000
O O5 0.834738 0.048241 0.500000
O O6 0.776869 0.103171 0.267963
O O7 0.936486 0.071100 0.276893
O O8 0.539709 0.284055 0.500000
O O9 0.512141 0.225196 0.740964
O O10 0.645723 0.283087 0.734933
O O11 0.499845 0.332164 0.753649
O O12 0.379592 0.853303 0.225497
O O13 0.556922 0.868164 0.218184
O O14 0.471257 0.823409 0.000000
O O15 0.777669 0.773241 0.500000
O O16 0.745573 0.706963 0.285967
O O17 0.693072 0.809030 0.261284
O O18 0.729192 0.138613 0.000000
O O19 0.666260 0.855907 0.000000
O O20 0.477316 0.611655 0.000000
#
# Coordination Sequence:
#
# PCOD9443263 Si02
#       8
#     8   8   8   8   8   8   8   8
#     4  11  23  40  62  89 118 153 197 247 295 353
#     4  11  25  41  60  84 114 158 202 246 300 354
#     4  11  21  34  55  86 120 155 195 237 288 349
#     4   9  20  39  60  85 121 158 193 242 299 353
#     4  10  20  35  57  85 119 157 192 238 297 350
#     4   9  20  39  60  84 116 154 197 245 295 347
#     4  10  21  37  60  89 119 154 197 241 295 358
#     4  11  23  39  58  84 118 157 196 240 297 355
#
# _framework density 18.666245
#
# number of rings (size 3 to 8) (size 9 to 14) (size 15 to 20)
#    0.000    1.750    1.250    3.750    1.750    7.000 
#    0.000    0.625    0.000    3.750    0.000    0.000 
#    0.000    0.000    0.000    0.000    0.000    0.000 
#
# Total GULP energy -357563.868479 kJ/mol
# GULP energy per Si atom -5586.935445 kJ/mol
# Density = 1.862376 g / cm^3
# Si number density = 18.666245 Si / 1000 Ang^3
#
#
#
# Elastic Constant Matrix: (Units=GPa)
#
#
# Indices 1 2 3 4 5 6 
#
# 1 16.2540 22.1483 9.6124 0.0000 0.0000 0.0000
# 2 22.1483 74.0344 22.2954 0.0000 0.0000 0.0000
# 3 9.6124 22.2954 32.3681 0.0000 0.0000 0.0000
# 4 0.0000 0.0000 0.0000 34.8406 0.0000 0.0000
# 5 0.0000 0.0000 0.0000 0.0000 12.5960 0.0000
# 6 0.0000 0.0000 0.0000 0.0000 0.0000 25.0970
#
#
#
# Elastic Compliance Matrix: (Units=1/GPa)
#
#
# Indices 1 2 3 4 5 6 
#
# 1 0.107637 -0.028483 -0.012346 0.000000 0.000000 0.000000
# 2 -0.028483 0.024580 -0.008472 0.000000 0.000000 0.000000
# 3 -0.012346 -0.008472 0.040397 0.000000 0.000000 0.000000
# 4 0.000000 0.000000 0.000000 0.028702 0.000000 0.000000
# 5 0.000000 0.000000 0.000000 0.000000 0.079390 0.000000
# 6 0.000000 0.000000 0.000000 0.000000 0.000000 0.039845
#
#
# Mechanical properties :
#
#
# Convention : Reuss Voigt Hill
#
# Bulk Modulus (GPa) = 13.51143 25.64098 19.57620
# Shear Modulus (GPa) = 11.26575 19.08006 15.17291
#
# Velocity S-wave (km/s) = 2.45936 3.20061 2.85415
# Velocity P-wave (km/s) = 3.91392 5.23688 4.62297
#
# Compressibility (1/GPa) = 0.07401142
#
# Stress axis : x y z
#
# Youngs Moduli (GPa) = 9.29050 40.68409 24.75456
#
# Poissons Ratio (x) = 1.15880 0.30561
# Poissons Ratio (y) = 0.26462 0.20972
# Poissons Ratio (z) = 0.11470 0.34468
#
# Static dielectric constant tensor:
#      x y z
#    x 1.658910 0.000000 0.000000 
#    y 0.000000 1.624550 0.000000 
#    z 0.000000 0.000000 1.623110 
# 
# From -- ./inp_files/6911.got.cif
#   From: 2010.05.17/outbox.cif.g08.bks.cpg/sg58_4_cif.got.tgz:6911.got - 2010.06.03 14:20:14.
