data_PCOD9443937
_publ_section_title
;
Structure prediction by ZEFSAII (Michael W. Deem and Ramdas Pophale) SiO2 
 PCOD9443937
Probable space group: P N N M
;
_chemical_formula_sum "Si O2"
_cell_formula_units_Z 28
_cell_length_a 5.104133
_cell_length_b 7.434145
_cell_length_c 31.519241
_cell_angle_alpha 90.000000
_cell_angle_beta 90.000000
_cell_angle_gamma 90.000000
_cell_volume 1195.993339
_symmetry_space_group_name_H-M "P N N M"
_symmetry_group_IT_number 58
_symmetry_cell_setting 'orthorhombic'
loop_
_space_group_symop_operation_xyz
x,y,z
-x,-y,z
1/2+x,1/2-y,1/2-z
1/2-x,1/2+y,1/2-z
-x,-y,-z
x,y,-z
1/2-x,1/2+y,1/2+z
1/2+x,1/2-y,1/2+z
loop_
_atom_site_type_symbol
_atom_site_label
_atom_site_fract_x
_atom_site_fract_y
_atom_site_fract_z
Si Si1 0.621290 0.698561 0.774525
Si Si2 0.456635 0.213837 0.414389
Si Si3 0.246808 0.871173 0.000000
Si Si4 0.462841 0.280964 0.130272
O O1 0.500000 0.500000 0.776579
O O2 0.405239 0.801595 0.746647
O O3 0.633118 0.766140 0.822855
O O4 0.305040 0.254042 0.457992
O O5 0.748902 0.283399 0.404381
O O6 0.255116 0.284531 0.379078
O O7 0.500000 0.000000 0.411704
O O8 0.500000 0.000000 0.000000
O O9 0.000000 0.000000 0.000000
O O10 0.500000 0.500000 0.127794
#
# Coordination Sequence:
#
# PCOD9443937 Si02
#       4
#     8   8   4   8
#     4  11  22  39  61  89 123 159 199 248 301 355
#     4  10  20  39  63  84 107 151 204 240 278 346
#     4  12  25  40  57  86 124 152 178 236 309 356
#     4   9  19  36  61  86 112 149 199 248 285 333
#
# _framework density 23.411504999999998
#
# number of rings (size 3 to 8) (size 9 to 14) (size 15 to 20)
#    0.000    1.714    0.000    4.714    0.000    4.571 
#    0.000   20.000    0.000    0.000    0.000    0.000 
#    0.000    0.000    0.000    0.000    0.000    0.000 
#
# Total GULP energy -156358.549847 kJ/mol
# GULP energy per Si atom -5584.233923 kJ/mol
# Density = 2.335822 g / cm^3
# Si number density = 23.411505 Si / 1000 Ang^3
#
#
#
# Elastic Constant Matrix: (Units=GPa)
#
#
# Indices 1 2 3 4 5 6 
#
# 1 184.5516 19.1615 55.5685 0.0000 0.0000 0.0000
# 2 19.1615 47.0071 -0.9976 0.0000 0.0000 0.0000
# 3 55.5685 -0.9976 123.7485 0.0000 0.0000 0.0000
# 4 0.0000 0.0000 0.0000 -361.3070 0.0000 0.0000
# 5 0.0000 0.0000 0.0000 0.0000 40.7479 0.0000
# 6 0.0000 0.0000 0.0000 0.0000 0.0000 22.9727
#
#
#
# Elastic Compliance Matrix: (Units=1/GPa)
#
#
# Indices 1 2 3 4 5 6 
#
# 1 0.006604 -0.002755 -0.002988 0.000000 0.000000 0.000000
# 2 -0.002755 0.022427 0.001418 0.000000 0.000000 0.000000
# 3 -0.002988 0.001418 0.009434 0.000000 0.000000 0.000000
# 4 0.000000 0.000000 0.000000 -0.002768 0.000000 0.000000
# 5 0.000000 0.000000 0.000000 0.000000 0.024541 0.000000
# 6 0.000000 0.000000 0.000000 0.000000 0.000000 0.043530
#
#
# Mechanical properties :
#
#
# Convention : Reuss Voigt Hill
#
# Bulk Modulus (GPa) = 33.54064 55.86357 44.70211
# Shear Modulus (GPa) = 40.86407 -40.74563 0.05922
#
# Velocity S-wave (km/s) = 4.18241 -4.17635 0.15922
# Velocity P-wave (km/s) = 6.13849 0.81089 4.37828
#
# Compressibility (1/GPa) = 0.02981457
#
# Stress axis : x y z
#
# Youngs Moduli (GPa) = 151.41727 44.58974 105.99955
#
# Poissons Ratio (x) = 0.12287 0.31671
# Poissons Ratio (y) = 0.41723 -0.15032
# Poissons Ratio (z) = 0.45241 -0.06323
#
# Static dielectric constant tensor:
#      x y z
#    x 1.822480 0.000000 0.000000 
#    y 0.000000 1.909190 0.000000 
#    z 0.000000 0.000000 1.721640 
# 
# From -- ./inp_files/32565.got.cif
#   From: 2010.05.17/outbox.cif.g08.bks.cpg/sg58_17_cif.got.tgz:32565.got - 2010.06.03 14:20:14.
