data_PCOD9443428
_publ_section_title
;
Structure prediction by ZEFSAII (Michael W. Deem and Ramdas Pophale) SiO2 
 PCOD9443428
Probable space group: P N N M
;
_chemical_formula_sum "Si O2"
_cell_formula_units_Z 64
_cell_length_a 24.096043
_cell_length_b 15.811159
_cell_length_c 8.086752
_cell_angle_alpha 90.000000
_cell_angle_beta 90.000000
_cell_angle_gamma 90.000000
_cell_volume 3080.942266
_symmetry_space_group_name_H-M "P N N M"
_symmetry_group_IT_number 58
_symmetry_cell_setting 'orthorhombic'
loop_
_space_group_symop_operation_xyz
x,y,z
-x,-y,z
1/2+x,1/2-y,1/2-z
1/2-x,1/2+y,1/2-z
-x,-y,-z
x,y,-z
1/2-x,1/2+y,1/2+z
1/2+x,1/2-y,1/2+z
loop_
_atom_site_type_symbol
_atom_site_label
_atom_site_fract_x
_atom_site_fract_y
_atom_site_fract_z
Si Si1 0.046930 0.433364 0.302468
Si Si2 0.623560 0.646893 0.297949
Si Si3 0.188357 0.183994 0.804422
Si Si4 0.191022 0.694940 0.800153
Si Si5 0.665600 0.995397 0.302424
Si Si6 0.712438 0.508029 0.700017
Si Si7 0.927307 0.752161 0.304945
Si Si8 0.496438 0.403883 0.699108
O O1 0.038351 0.428575 0.500000
O O2 0.109575 0.466309 0.271486
O O3 0.047265 0.336159 0.236310
O O4 0.000000 0.500000 0.238281
O O5 0.622972 0.644875 0.500000
O O6 0.646454 0.737011 0.246738
O O7 0.666149 0.574270 0.245462
O O8 0.561794 0.631966 0.239011
O O9 0.248873 0.220502 0.766657
O O10 0.138153 0.237033 0.729272
O O11 0.194549 0.086365 0.742732
O O12 0.178600 0.180620 0.000000
O O13 0.173443 0.601712 0.744977
O O14 0.194530 0.693682 0.000000
O O15 0.659512 0.997496 0.500000
O O16 0.725840 0.033479 0.257604
O O17 0.713662 0.505821 0.500000
O O18 0.935717 0.750036 0.500000
O O19 0.955709 0.837692 0.240469
O O20 0.500000 0.500000 0.761100
O O21 0.494791 0.408712 0.500000
#
# Coordination Sequence:
#
# PCOD9443428 Si02
#       8
#     8   8   8   8   8   8   8   8
#     4  10  24  44  62  80 110 156 205 249 297 357
#     4   9  18  33  57  83 111 148 190 231 278 341
#     4  10  20  36  58  85 116 151 193 237 287 350
#     4   9  19  35  55  83 117 151 184 230 292 352
#     4  10  21  36  57  86 118 148 187 240 297 346
#     4   9  18  35  59  85 115 155 192 225 276 348
#     4  11  24  40  61  88 118 156 200 249 301 351
#     4  10  21  39  63  90 120 157 199 241 289 352
#
# _framework density 20.772866
#
# number of rings (size 3 to 8) (size 9 to 14) (size 15 to 20)
#    0.000    2.250    0.000    1.875    3.500    4.500 
#    0.000    1.250    0.000    0.000    0.000    0.000 
#    0.000    0.000    0.000    0.000    0.000    0.000 
#
# Total GULP energy -357211.924961 kJ/mol
# GULP energy per Si atom -5581.436328 kJ/mol
# Density = 2.072559 g / cm^3
# Si number density = 20.772866 Si / 1000 Ang^3
#
#
#
# Elastic Constant Matrix: (Units=GPa)
#
#
# Indices 1 2 3 4 5 6 
#
# 1 85.2696 37.3422 -4.4026 0.0000 0.0000 0.0000
# 2 37.3422 83.7041 6.5941 0.0000 0.0000 0.0000
# 3 -4.4026 6.5941 10.2484 0.0000 0.0000 0.0000
# 4 0.0000 0.0000 0.0000 14.5220 0.0000 0.0000
# 5 0.0000 0.0000 0.0000 0.0000 25.8751 0.0000
# 6 0.0000 0.0000 0.0000 0.0000 0.0000 35.6627
#
#
#
# Elastic Compliance Matrix: (Units=1/GPa)
#
#
# Indices 1 2 3 4 5 6 
#
# 1 0.015856 -0.008017 0.011970 0.000000 0.000000 0.000000
# 2 -0.008017 0.016638 -0.014149 0.000000 0.000000 0.000000
# 3 0.011970 -0.014149 0.111822 0.000000 0.000000 0.000000
# 4 0.000000 0.000000 0.000000 0.068861 0.000000 0.000000
# 5 0.000000 0.000000 0.000000 0.000000 0.038647 0.000000
# 6 0.000000 0.000000 0.000000 0.000000 0.000000 0.028040
#
#
# Mechanical properties :
#
#
# Convention : Reuss Voigt Hill
#
# Bulk Modulus (GPa) = 8.06944 28.69882 18.38413
# Shear Modulus (GPa) = 14.63848 24.52454 19.58151
#
# Velocity S-wave (km/s) = 2.65748 3.43972 3.07359
# Velocity P-wave (km/s) = 3.64820 5.44253 4.63306
#
# Compressibility (1/GPa) = 0.12392437
#
# Stress axis : x y z
#
# Youngs Moduli (GPa) = 63.06615 60.10343 8.94276
#
# Poissons Ratio (x) = 0.48184 -0.10704
# Poissons Ratio (y) = 0.50559 0.12653
# Poissons Ratio (z) = -0.75490 0.85042
#
# Static dielectric constant tensor:
#      x y z
#    x 1.710740 0.000000 0.000000 
#    y 0.000000 1.754230 0.000000 
#    z 0.000000 0.000000 1.736220 
# 
# From -- ./inp_files/10005.got.cif
#   From: 2010.05.17/outbox.cif.g08.bks.cpg/sg58_6_cif.got.tgz:10005.got - 2010.06.03 14:20:14.
