data_PCOD9443607
_publ_section_title
;
Structure prediction by ZEFSAII (Michael W. Deem and Ramdas Pophale) SiO2 
 PCOD9443607
Probable space group: P N N M
;
_chemical_formula_sum "Si O2"
_cell_formula_units_Z 48
_cell_length_a 21.428261
_cell_length_b 8.022649
_cell_length_c 12.744346
_cell_angle_alpha 90.000000
_cell_angle_beta 90.000000
_cell_angle_gamma 90.000000
_cell_volume 2190.898576
_symmetry_space_group_name_H-M "P N N M"
_symmetry_group_IT_number 58
_symmetry_cell_setting 'orthorhombic'
loop_
_space_group_symop_operation_xyz
x,y,z
-x,-y,z
1/2+x,1/2-y,1/2-z
1/2-x,1/2+y,1/2-z
-x,-y,-z
x,y,-z
1/2-x,1/2+y,1/2+z
1/2+x,1/2-y,1/2+z
loop_
_atom_site_type_symbol
_atom_site_label
_atom_site_fract_x
_atom_site_fract_y
_atom_site_fract_z
Si Si1 0.359471 0.113042 0.382748
Si Si2 0.459110 0.350720 0.318213
Si Si3 0.906519 0.962039 0.382076
Si Si4 0.917611 0.693099 0.779168
Si Si5 0.265810 0.468504 0.829086
Si Si6 0.697302 0.377428 0.379565
O O1 0.371795 0.046050 0.500000
O O2 0.396538 0.284996 0.371545
O O3 0.285725 0.103648 0.364882
O O4 0.388557 0.986982 0.297316
O O5 0.500000 0.500000 0.367225
O O6 0.439539 0.416761 0.202607
O O7 0.510850 0.205730 0.313730
O O8 0.929092 0.980054 0.500000
O O9 0.914615 0.775511 0.335770
O O10 0.833071 0.001567 0.378261
O O11 0.872261 0.817620 0.845859
O O12 0.276566 0.492185 0.704770
O O13 0.238180 0.290772 0.862207
O O14 0.699791 0.429319 0.500000
#
# Coordination Sequence:
#
# PCOD9443607 Si02
#       6
#     8   8   8   8   8   8
#     4  11  22  38  60  84 118 157 191 241 295 340
#     4  10  22  38  57  86 118 150 195 236 278 346
#     4  10  20  38  62  84 116 155 189 241 298 342
#     4   9  20  36  56  83 112 147 197 238 278 346
#     4  10  20  37  60  89 116 148 199 240 285 355
#     4  10  20  37  58  80 116 155 188 242 298 341
#
# _framework density 21.908819000000001
#
# number of rings (size 3 to 8) (size 9 to 14) (size 15 to 20)
#    0.000    2.000    0.000    4.500    0.000    5.333 
#    0.000   24.167    0.000    5.000    0.000    0.000 
#    0.000    0.000    0.000    0.000    0.000    0.000 
#
# Total GULP energy -268062.640331 kJ/mol
# GULP energy per Si atom -5584.638340 kJ/mol
# Density = 2.185895 g / cm^3
# Si number density = 21.908819 Si / 1000 Ang^3
#
#
#
# Elastic Constant Matrix: (Units=GPa)
#
#
# Indices 1 2 3 4 5 6 
#
# 1 143.4070 18.1612 9.8648 0.0000 0.0000 0.0000
# 2 18.1612 55.6371 10.6202 0.0000 0.0000 0.0000
# 3 9.8648 10.6202 132.5173 0.0000 0.0000 0.0000
# 4 0.0000 0.0000 0.0000 25.2055 0.0000 0.0000
# 5 0.0000 0.0000 0.0000 0.0000 -5.2651 0.0000
# 6 0.0000 0.0000 0.0000 0.0000 0.0000 39.0486
#
#
#
# Elastic Compliance Matrix: (Units=1/GPa)
#
#
# Indices 1 2 3 4 5 6 
#
# 1 0.007290 -0.002312 -0.000357 0.000000 0.000000 0.000000
# 2 -0.002312 0.018986 -0.001349 0.000000 0.000000 0.000000
# 3 -0.000357 -0.001349 0.007681 0.000000 0.000000 0.000000
# 4 0.000000 0.000000 0.000000 0.039674 0.000000 0.000000
# 5 0.000000 0.000000 0.000000 0.000000 -0.189929 0.000000
# 6 0.000000 0.000000 0.000000 0.000000 0.000000 0.025609
#
#
# Mechanical properties :
#
#
# Convention : Reuss Voigt Hill
#
# Bulk Modulus (GPa) = 38.57996 45.42821 42.00408
# Shear Modulus (GPa) = -67.55684 31.32548 -18.11568
#
# Velocity S-wave (km/s) = -5.55899 3.78539 -2.87865
# Velocity P-wave (km/s) = 4.85341 6.31551 2.85745
#
# Compressibility (1/GPa) = 0.02592019
#
# Stress axis : x y z
#
# Youngs Moduli (GPa) = 137.16512 52.67110 130.19235
#
# Poissons Ratio (x) = 0.12175 0.04654
# Poissons Ratio (y) = 0.31706 0.17569
# Poissons Ratio (z) = 0.04903 0.07108
#
# Static dielectric constant tensor:
#      x y z
#    x 1.810460 0.000000 0.000000 
#    y 0.000000 1.854410 0.000000 
#    z 0.000000 0.000000 1.778830 
# 
# From -- ./inp_files/17408.got.cif
#   From: 2010.05.17/outbox.cif.g08.bks.cpg/sg58_9_cif.got.tgz:17408.got - 2010.06.03 14:20:14.
