data_PCOD9443772
_publ_section_title
;
Structure prediction by ZEFSAII (Michael W. Deem and Ramdas Pophale) SiO2 
 PCOD9443772
Probable space group: P N N M
;
_chemical_formula_sum "Si O2"
_cell_formula_units_Z 58
_cell_length_a 8.917202
_cell_length_b 24.565323
_cell_length_c 12.748253
_cell_angle_alpha 90.000000
_cell_angle_beta 90.000000
_cell_angle_gamma 90.000000
_cell_volume 2792.555142
_symmetry_space_group_name_H-M "P N N M"
_symmetry_group_IT_number 58
_symmetry_cell_setting 'orthorhombic'
loop_
_space_group_symop_operation_xyz
x,y,z
-x,-y,z
1/2+x,1/2-y,1/2-z
1/2-x,1/2+y,1/2-z
-x,-y,-z
x,y,-z
1/2-x,1/2+y,1/2+z
1/2+x,1/2-y,1/2+z
loop_
_atom_site_type_symbol
_atom_site_label
_atom_site_fract_x
_atom_site_fract_y
_atom_site_fract_z
Si Si1 0.629693 0.539359 0.712396
Si Si2 0.000000 0.500000 0.500000
Si Si3 0.382770 0.113231 0.379458
Si Si4 0.769774 0.617652 0.117210
Si Si5 0.118137 0.764830 0.381426
Si Si6 0.936266 0.867780 0.114669
Si Si7 0.333146 0.057161 0.834591
Si Si8 0.672599 0.294219 0.786918
O O1 0.500000 0.500000 0.759402
O O2 0.716802 0.573572 0.799140
O O3 0.548984 0.582838 0.637813
O O4 0.735467 0.497607 0.651606
O O5 0.027056 0.546567 0.592293
O O6 0.361377 0.094837 0.500000
O O7 0.555101 0.132616 0.368073
O O8 0.361022 0.068295 0.288167
O O9 0.266021 0.161417 0.353162
O O10 0.669805 0.671939 0.120757
O O11 0.755938 0.594268 0.000000
O O12 0.152157 0.744735 0.500000
O O13 0.212432 0.736086 0.289933
O O14 0.940467 0.759986 0.358645
O O15 0.770368 0.893907 0.124458
O O16 0.940823 0.824696 0.207081
O O17 0.961949 0.844666 0.000000
#
# Coordination Sequence:
#
# PCOD9443772 Si02
#       8
#     8   2   8   8   8   8   8   8
#     4  10  21  37  58  90 121 166 211 260 308 380
#     4  12  20  36  52  88 124 176 212 260 316 372
#     4  10  22  42  65  92 130 171 213 267 325 387
#     4  10  21  39  61  89 127 167 208 260 317 375
#     4  11  23  41  67  97 128 165 214 269 328 399
#     4  10  20  38  59  86 121 163 209 261 316 375
#     4  10  22  34  59  87 125 165 215 259 314 369
#     4  11  22  41  68  94 128 165 211 265 331 394
#
# _framework density 20.769508999999999
#
# number of rings (size 3 to 8) (size 9 to 14) (size 15 to 20)
#    0.000    1.655    2.069    2.483    0.966    1.655 
#    0.000    3.793    0.000    0.000    0.000    0.000 
#    0.000    0.000    0.000    0.000    0.000    0.000 
#
# Total GULP energy -323124.287930 kJ/mol
# GULP energy per Si atom -5571.108413 kJ/mol
# Density = 2.072224 g / cm^3
# Si number density = 20.769509 Si / 1000 Ang^3
#
#
#
# Elastic Constant Matrix: (Units=GPa)
#
#
# Indices 1 2 3 4 5 6 
#
# 1 73.0403 -2.3697 15.7632 0.0000 0.0000 0.0000
# 2 -2.3697 25.5304 4.5492 0.0000 0.0000 0.0000
# 3 15.7632 4.5492 95.2695 0.0000 0.0000 0.0000
# 4 0.0000 0.0000 0.0000 31.0128 0.0000 0.0000
# 5 0.0000 0.0000 0.0000 0.0000 -11.0894 0.0000
# 6 0.0000 0.0000 0.0000 0.0000 0.0000 37.5736
#
#
#
# Elastic Compliance Matrix: (Units=1/GPa)
#
#
# Indices 1 2 3 4 5 6 
#
# 1 0.014276 0.001761 -0.002446 0.000000 0.000000 0.000000
# 2 0.001761 0.039722 -0.002188 0.000000 0.000000 0.000000
# 3 -0.002446 -0.002188 0.011006 0.000000 0.000000 0.000000
# 4 0.000000 0.000000 0.000000 0.032245 0.000000 0.000000
# 5 0.000000 0.000000 0.000000 0.000000 -0.090177 0.000000
# 6 0.000000 0.000000 0.000000 0.000000 0.000000 0.026614
#
#
# Mechanical properties :
#
#
# Convention : Reuss Voigt Hill
#
# Bulk Modulus (GPa) = 16.87552 25.52509 21.20031
# Shear Modulus (GPa) = 84.47939 23.22591 53.85265
#
# Velocity S-wave (km/s) = 6.38459 3.34768 5.09755
# Velocity P-wave (km/s) = 7.90528 5.22102 6.69897
#
# Compressibility (1/GPa) = 0.05925742
#
# Stress axis : x y z
#
# Youngs Moduli (GPa) = 70.04701 25.17476 90.86144
#
# Poissons Ratio (x) = -0.04433 0.22227
# Poissons Ratio (y) = -0.12335 0.19882
# Poissons Ratio (z) = 0.17135 0.05509
#
# Static dielectric constant tensor:
#      x y z
#    x 1.796720 0.000000 0.000000 
#    y 0.000000 1.727340 0.000000 
#    z 0.000000 0.000000 1.757580 
# 
# From -- ./inp_files/13273.got.cif
#   From: 2010.05.17/outbox.cif.g08.bks.cpg/sg58_7_cif.got.tgz:13273.got - 2010.06.03 14:20:14.
