data_PCOD9443762
_publ_section_title
;
Structure prediction by ZEFSAII (Michael W. Deem and Ramdas Pophale) SiO2 
 PCOD9443762
Probable space group: P N N M
;
_chemical_formula_sum "Si O2"
_cell_formula_units_Z 64
_cell_length_a 6.692793
_cell_length_b 22.733599
_cell_length_c 22.654657
_cell_angle_alpha 90.000000
_cell_angle_beta 90.000000
_cell_angle_gamma 90.000000
_cell_volume 3446.934885
_symmetry_space_group_name_H-M "P N N M"
_symmetry_group_IT_number 58
_symmetry_cell_setting 'orthorhombic'
loop_
_space_group_symop_operation_xyz
x,y,z
-x,-y,z
1/2+x,1/2-y,1/2-z
1/2-x,1/2+y,1/2-z
-x,-y,-z
x,y,-z
1/2-x,1/2+y,1/2+z
1/2+x,1/2-y,1/2+z
loop_
_atom_site_type_symbol
_atom_site_label
_atom_site_fract_x
_atom_site_fract_y
_atom_site_fract_z
Si Si1 0.077134 0.933358 0.842063
Si Si2 0.142958 0.238158 0.664655
Si Si3 0.665714 0.350649 0.431030
Si Si4 0.965113 0.631973 0.646268
Si Si5 0.746761 0.663802 0.847312
Si Si6 0.519634 0.430844 0.204979
Si Si7 0.867037 0.352947 0.230654
Si Si8 0.472621 0.220858 0.431747
O O1 0.309791 0.921264 0.856879
O O2 0.956667 0.893244 0.887935
O O3 0.045270 0.916922 0.772964
O O4 0.000000 0.000000 0.848097
O O5 0.153190 0.308073 0.661635
O O6 0.237706 0.206348 0.721690
O O7 0.278184 0.216701 0.609746
O O8 0.915981 0.215656 0.660424
O O9 0.646514 0.366266 0.500000
O O10 0.575635 0.285076 0.423857
O O11 0.895720 0.355717 0.409899
O O12 0.106747 0.625726 0.702916
O O13 0.621894 0.604610 0.839115
O O14 0.865225 0.674814 0.907530
O O15 0.919520 0.661031 0.797875
O O16 0.500000 0.500000 0.197143
O O17 0.741244 0.403957 0.198305
O O18 0.423500 0.213295 0.500000
#
# Coordination Sequence:
#
# PCOD9443762 Si02
#       8
#     8   8   8   8   8   8   8   8
#     4  11  24  42  59  82 115 158 206 256 307 356
#     4  10  22  33  57  88 124 154 192 240 311 369
#     4  11  24  41  60  85 115 156 211 254 298 355
#     4  12  22  37  59  85 118 158 197 251 314 365
#     4  10  20  38  56  94 121 152 192 244 299 360
#     4  10  21  39  60  86 122 159 195 241 303 364
#     4  10  22  34  57  90 123 153 193 245 306 367
#     4  10  21  38  60  87 121 158 199 244 294 359
#
# _framework density 18.567222000000001
#
# number of rings (size 3 to 8) (size 9 to 14) (size 15 to 20)
#    0.000    1.500    5.000    0.000    1.750    2.750 
#    0.000    0.625    0.000    0.375    0.000    7.875 
#    0.000    0.000    0.000    0.000    0.000    0.000 
#
# Total GULP energy -357112.898397 kJ/mol
# GULP energy per Si atom -5579.889037 kJ/mol
# Density = 1.852496 g / cm^3
# Si number density = 18.567222 Si / 1000 Ang^3
#
#
#
# Elastic Constant Matrix: (Units=GPa)
#
#
# Indices 1 2 3 4 5 6 
#
# 1 96.4547 23.1041 30.2284 0.0000 0.0000 0.0000
# 2 23.1041 73.7314 35.9964 0.0000 0.0000 0.0000
# 3 30.2284 35.9964 65.9660 0.0000 0.0000 0.0000
# 4 0.0000 0.0000 0.0000 21.9315 0.0000 0.0000
# 5 0.0000 0.0000 0.0000 0.0000 21.4077 0.0000
# 6 0.0000 0.0000 0.0000 0.0000 0.0000 24.9046
#
#
#
# Elastic Compliance Matrix: (Units=1/GPa)
#
#
# Indices 1 2 3 4 5 6 
#
# 1 0.012226 -0.001494 -0.004787 0.000000 0.000000 0.000000
# 2 -0.001494 0.018671 -0.009504 0.000000 0.000000 0.000000
# 3 -0.004787 -0.009504 0.022539 0.000000 0.000000 0.000000
# 4 0.000000 0.000000 0.000000 0.045597 0.000000 0.000000
# 5 0.000000 0.000000 0.000000 0.000000 0.046712 0.000000
# 6 0.000000 0.000000 0.000000 0.000000 0.000000 0.040153
#
#
# Mechanical properties :
#
#
# Convention : Reuss Voigt Hill
#
# Bulk Modulus (GPa) = 45.73324 46.09000 45.91162
# Shear Modulus (GPa) = 22.24643 23.43697 22.84170
#
# Velocity S-wave (km/s) = 3.46519 3.55671 3.51125
# Velocity P-wave (km/s) = 6.37924 6.46097 6.42023
#
# Compressibility (1/GPa) = 0.02186593
#
# Stress axis : x y z
#
# Youngs Moduli (GPa) = 81.79524 53.56003 44.36756
#
# Poissons Ratio (x) = 0.08001 0.21239
# Poissons Ratio (y) = 0.12219 0.42166
# Poissons Ratio (z) = 0.39157 0.50902
#
# Static dielectric constant tensor:
#      x y z
#    x 1.684280 0.000000 0.000000 
#    y 0.000000 1.638050 0.000000 
#    z 0.000000 0.000000 1.630780 
# 
# From -- ./inp_files/31095.got.cif
#   From: 2010.05.17/outbox.cif.g08.bks.cpg/sg58_16_cif.got.tgz:31095.got - 2010.06.03 14:20:14.
