data_PCOD9443393
_publ_section_title
;
Structure prediction by ZEFSAII (Michael W. Deem and Ramdas Pophale) SiO2 
 PCOD9443393
Probable space group: P N N M
;
_chemical_formula_sum "Si O2"
_cell_formula_units_Z 64
_cell_length_a 13.081712
_cell_length_b 28.848595
_cell_length_c 8.468166
_cell_angle_alpha 90.000000
_cell_angle_beta 90.000000
_cell_angle_gamma 90.000000
_cell_volume 3195.792795
_symmetry_space_group_name_H-M "P N N M"
_symmetry_group_IT_number 58
_symmetry_cell_setting 'orthorhombic'
loop_
_space_group_symop_operation_xyz
x,y,z
-x,-y,z
1/2+x,1/2-y,1/2-z
1/2-x,1/2+y,1/2-z
-x,-y,-z
x,y,-z
1/2-x,1/2+y,1/2+z
1/2+x,1/2-y,1/2+z
loop_
_atom_site_type_symbol
_atom_site_label
_atom_site_fract_x
_atom_site_fract_y
_atom_site_fract_z
Si Si1 0.456892 0.116580 0.811029
Si Si2 0.140125 0.706008 0.191168
Si Si3 0.151754 0.442687 0.308995
Si Si4 0.414121 0.563343 0.184515
Si Si5 0.074135 0.805584 0.813062
Si Si6 0.874553 0.091286 0.190368
Si Si7 0.195962 0.539797 0.189326
Si Si8 0.363094 0.672381 0.185585
O O1 0.441467 0.168658 0.751035
O O2 0.562267 0.092182 0.758437
O O3 0.363672 0.084792 0.749926
O O4 0.650908 0.055719 0.000000
O O5 0.122810 0.758297 0.249613
O O6 0.251587 0.687651 0.239213
O O7 0.136384 0.705943 0.000000
O O8 0.044988 0.616530 0.500000
O O9 0.264530 0.426706 0.255868
O O10 0.136677 0.494276 0.244701
O O11 0.526387 0.561441 0.259620
O O12 0.313960 0.537125 0.249240
O O13 0.379454 0.617219 0.198678
O O14 0.425711 0.551841 0.000000
O O15 0.110424 0.855652 0.749806
O O16 0.953486 0.803896 0.781397
O O17 0.094232 0.806650 0.000000
O O18 0.874320 0.092261 0.000000
O O19 0.200388 0.542312 0.000000
O O20 0.373828 0.684082 0.000000
#
# Coordination Sequence:
#
# PCOD9443393 Si02
#       8
#     8   8   8   8   8   8   8   8
#     4  11  23  38  58  83 114 149 191 238 281 337
#     4  10  20  36  57  82 112 146 187 234 285 338
#     4  10  23  40  56  81 117 152 188 231 282 338
#     4   9  18  34  56  81 108 140 184 232 277 330
#     4   9  19  34  55  82 109 143 186 230 278 335
#     4   9  19  37  57  79 112 152 189 229 282 338
#     4  11  22  38  60  85 113 148 189 234 288 340
#     4   9  17  33  54  75 106 144 179 225 279 329
#
# _framework density 20.026330000000002
#
# number of rings (size 3 to 8) (size 9 to 14) (size 15 to 20)
#    0.000    2.250    1.250    1.125    0.000    6.500 
#    0.000    5.000    0.000    3.000    0.000    0.000 
#    0.000    0.000    0.000    0.000    0.000    0.000 
#
# Total GULP energy -357193.043988 kJ/mol
# GULP energy per Si atom -5581.141312 kJ/mol
# Density = 1.998075 g / cm^3
# Si number density = 20.026330 Si / 1000 Ang^3
#
#
#
# Elastic Constant Matrix: (Units=GPa)
#
#
# Indices 1 2 3 4 5 6 
#
# 1 88.5700 12.8538 7.9061 0.0000 0.0000 0.0000
# 2 12.8538 56.2278 1.1956 0.0000 0.0000 0.0000
# 3 7.9061 1.1956 5.7214 0.0000 0.0000 0.0000
# 4 0.0000 0.0000 0.0000 27.6288 0.0000 0.0000
# 5 0.0000 0.0000 0.0000 0.0000 7.8049 0.0000
# 6 0.0000 0.0000 0.0000 0.0000 0.0000 27.8240
#
#
#
# Elastic Compliance Matrix: (Units=1/GPa)
#
#
# Indices 1 2 3 4 5 6 
#
# 1 0.013262 -0.002654 -0.017772 0.000000 0.000000 0.000000
# 2 -0.002654 0.018395 -0.000177 0.000000 0.000000 0.000000
# 3 -0.017772 -0.000177 0.199378 0.000000 0.000000 0.000000
# 4 0.000000 0.000000 0.000000 0.036194 0.000000 0.000000
# 5 0.000000 0.000000 0.000000 0.000000 0.128124 0.000000
# 6 0.000000 0.000000 0.000000 0.000000 0.000000 0.035940
#
#
# Mechanical properties :
#
#
# Convention : Reuss Voigt Hill
#
# Bulk Modulus (GPa) = 5.26785 21.60337 13.43561
# Shear Modulus (GPa) = 9.33227 21.22247 15.27737
#
# Velocity S-wave (km/s) = 2.16105 3.25888 2.76500
# Velocity P-wave (km/s) = 2.97708 4.99713 4.11305
#
# Compressibility (1/GPa) = 0.18983070
#
# Stress axis : x y z
#
# Youngs Moduli (GPa) = 75.40327 54.36195 5.01559
#
# Poissons Ratio (x) = 0.14427 0.08914
# Poissons Ratio (y) = 0.20011 0.00089
# Poissons Ratio (z) = 1.34004 0.00961
#
# Static dielectric constant tensor:
#      x y z
#    x 1.714500 0.000000 0.000000 
#    y 0.000000 1.716540 0.000000 
#    z 0.000000 0.000000 1.689970 
# 
# From -- ./inp_files/4712.got.cif
#   From: 2010.05.17/outbox.cif.g08.bks.cpg/sg58_3_cif.got.tgz:4712.got - 2010.06.03 14:20:14.
