data_PCOD9443724
_publ_section_title
;
Structure prediction by ZEFSAII (Michael W. Deem and Ramdas Pophale) SiO2 
 PCOD9443724
Probable space group: P N N M
;
_chemical_formula_sum "Si O2"
_cell_formula_units_Z 56
_cell_length_a 11.669535
_cell_length_b 16.501235
_cell_length_c 13.982116
_cell_angle_alpha 90.000000
_cell_angle_beta 90.000000
_cell_angle_gamma 90.000000
_cell_volume 2692.420577
_symmetry_space_group_name_H-M "P N N M"
_symmetry_group_IT_number 58
_symmetry_cell_setting 'orthorhombic'
loop_
_space_group_symop_operation_xyz
x,y,z
-x,-y,z
1/2+x,1/2-y,1/2-z
1/2-x,1/2+y,1/2-z
-x,-y,-z
x,y,-z
1/2-x,1/2+y,1/2+z
1/2+x,1/2-y,1/2+z
loop_
_atom_site_type_symbol
_atom_site_label
_atom_site_fract_x
_atom_site_fract_y
_atom_site_fract_z
Si Si1 0.966726 0.595397 0.612077
Si Si2 0.879611 0.458015 0.886915
Si Si3 0.610680 0.800456 0.257318
Si Si4 0.950858 0.153598 0.108693
Si Si5 0.733542 0.526764 0.388076
Si Si6 0.322644 0.633654 0.702078
Si Si7 0.119728 0.049381 0.610608
O O1 0.989575 0.612145 0.500000
O O2 0.831010 0.592935 0.630795
O O3 0.000000 0.500000 0.627328
O O4 0.025913 0.661297 0.679048
O O5 0.876103 0.371242 0.836266
O O6 0.747587 0.492859 0.876103
O O7 0.000000 0.500000 0.853245
O O8 0.893965 0.448323 0.000000
O O9 0.577491 0.720479 0.312822
O O10 0.735491 0.792951 0.209766
O O11 0.886979 0.069502 0.130500
O O12 0.085336 0.141450 0.119517
O O13 0.918527 0.176441 0.000000
O O14 0.743065 0.505651 0.500000
O O15 0.748712 0.446530 0.326873
O O16 0.380682 0.615291 0.804398
O O17 0.121164 0.079229 0.500000
O O18 0.000000 0.000000 0.620802
#
# Coordination Sequence:
#
# PCOD9443724 Si02
#       7
#     8   8   8   8   8   8   8
#     4  10  20  37  62  93 123 158 209 263 309 367
#     4   9  18  33  55  84 115 157 209 251 295 362
#     4  11  23  37  60  87 127 164 199 252 324 381
#     4  11  25  42  62  92 129 167 208 259 322 386
#     4  10  21  39  66  93 120 159 213 268 316 367
#     4  11  22  39  64  91 118 164 212 265 309 373
#     4   9  18  33  54  83 118 154 197 251 306 361
#
# _framework density 20.799128
#
# number of rings (size 3 to 8) (size 9 to 14) (size 15 to 20)
#    0.000    1.857    1.429    2.571    4.000    2.286 
#    0.000    0.714    0.000    0.857    0.000    0.000 
#    0.000    0.000    0.000    0.000    0.000    0.000 
#
# Total GULP energy -312073.240658 kJ/mol
# GULP energy per Si atom -5572.736440 kJ/mol
# Density = 2.075179 g / cm^3
# Si number density = 20.799128 Si / 1000 Ang^3
#
#
#
# Elastic Constant Matrix: (Units=GPa)
#
#
# Indices 1 2 3 4 5 6 
#
# 1 95.6373 3.5737 15.4702 0.0000 0.0000 0.0000
# 2 3.5737 30.0659 21.5141 0.0000 0.0000 0.0000
# 3 15.4702 21.5141 80.8793 0.0000 0.0000 0.0000
# 4 0.0000 0.0000 0.0000 26.6080 0.0000 0.0000
# 5 0.0000 0.0000 0.0000 0.0000 33.2442 0.0000
# 6 0.0000 0.0000 0.0000 0.0000 0.0000 10.1490
#
#
#
# Elastic Compliance Matrix: (Units=1/GPa)
#
#
# Indices 1 2 3 4 5 6 
#
# 1 0.010791 0.000240 -0.002128 0.000000 0.000000 0.000000
# 2 0.000240 0.041085 -0.010975 0.000000 0.000000 0.000000
# 3 -0.002128 -0.010975 0.015690 0.000000 0.000000 0.000000
# 4 0.000000 0.000000 0.000000 0.037583 0.000000 0.000000
# 5 0.000000 0.000000 0.000000 0.000000 0.030080 0.000000
# 6 0.000000 0.000000 0.000000 0.000000 0.000000 0.098532
#
#
# Mechanical properties :
#
#
# Convention : Reuss Voigt Hill
#
# Bulk Modulus (GPa) = 23.89971 31.96649 27.93310
# Shear Modulus (GPa) = 18.28597 25.06855 21.67726
#
# Velocity S-wave (km/s) = 2.96830 3.47547 3.23185
# Velocity P-wave (km/s) = 4.82321 5.61317 5.23312
#
# Compressibility (1/GPa) = 0.04184150
#
# Stress axis : x y z
#
# Youngs Moduli (GPa) = 92.66624 24.33997 63.73326
#
# Poissons Ratio (x) = -0.00584 0.13562
# Poissons Ratio (y) = -0.02224 0.69944
# Poissons Ratio (z) = 0.19719 0.26712
#
# Static dielectric constant tensor:
#      x y z
#    x 1.878950 0.000000 0.000000 
#    y 0.000000 1.718680 0.000000 
#    z 0.000000 0.000000 1.744730 
# 
# From -- ./inp_files/21272.got.cif
#   From: 2010.05.17/outbox.cif.g08.bks.cpg/sg58_11_cif.got.tgz:21272.got - 2010.06.03 14:20:14.
