data_PCOD9443069
_publ_section_title
;
Structure prediction by ZEFSAII (Michael W. Deem and Ramdas Pophale) SiO2 
 PCOD9443069
Probable space group: P N N M
;
_chemical_formula_sum "Si O2"
_cell_formula_units_Z 48
_cell_length_a 9.496336
_cell_length_b 12.207873
_cell_length_c 17.775297
_cell_angle_alpha 90.000000
_cell_angle_beta 90.000000
_cell_angle_gamma 90.000000
_cell_volume 2060.691316
_symmetry_space_group_name_H-M "P N N M"
_symmetry_group_IT_number 58
_symmetry_cell_setting 'orthorhombic'
loop_
_space_group_symop_operation_xyz
x,y,z
-x,-y,z
1/2+x,1/2-y,1/2-z
1/2-x,1/2+y,1/2-z
-x,-y,-z
x,y,-z
1/2-x,1/2+y,1/2+z
1/2+x,1/2-y,1/2+z
loop_
_atom_site_type_symbol
_atom_site_label
_atom_site_fract_x
_atom_site_fract_y
_atom_site_fract_z
Si Si1 0.680884 0.220162 0.588831
Si Si2 0.343280 0.523267 0.627115
Si Si3 0.990120 0.151499 0.414686
Si Si4 0.660770 0.386445 0.780609
Si Si5 0.916928 0.605328 0.380392
Si Si6 0.517459 0.813226 0.722349
O O1 0.656110 0.205645 0.500000
O O2 0.697399 0.352141 0.603846
O O3 0.558960 0.172235 0.642255
O O4 0.827880 0.162618 0.610583
O O5 0.500000 0.500000 0.602057
O O6 0.331023 0.520996 0.718025
O O7 0.241983 0.426875 0.601927
O O8 0.993129 0.115126 0.500000
O O9 0.100541 0.088069 0.362258
O O10 0.041652 0.278228 0.412545
O O11 0.539918 0.305653 0.747587
O O12 0.814574 0.329242 0.782960
O O13 0.956141 0.615082 0.291335
O O14 0.000000 0.500000 0.409561
#
# Coordination Sequence:
#
# PCOD9443069 Si02
#       6
#     8   8   8   8   8   8
#     4  10  22  39  55  80 114 148 183 221 271 329
#     4  11  23  34  55  85 113 143 178 232 278 318
#     4  10  22  37  57  80 111 151 184 220 270 332
#     4  10  20  36  54  80 107 143 190 223 264 323
#     4  11  19  36  56  82 109 141 182 223 275 323
#     4  10  20  34  57  78 106 146 186 227 264 323
#
# _framework density 23.293151999999999
#
# number of rings (size 3 to 8) (size 9 to 14) (size 15 to 20)
#    0.000    1.667    3.333    3.000   11.667    2.000 
#    0.000    0.000    0.000    2.000    0.000    0.000 
#    0.000    0.000    0.000    0.000    0.000    0.000 
#
# Total GULP energy -268263.984375 kJ/mol
# GULP energy per Si atom -5588.833008 kJ/mol
# Density = 2.324014 g / cm^3
# Si number density = 23.293152 Si / 1000 Ang^3
#
#
#
# Elastic Constant Matrix: (Units=GPa)
#
#
# Indices 1 2 3 4 5 6 
#
# 1 177.9084 32.0670 46.6584 0.0000 0.0000 0.0000
# 2 32.0670 91.4202 -3.5559 0.0000 0.0000 0.0000
# 3 46.6584 -3.5559 107.0608 0.0000 0.0000 0.0000
# 4 0.0000 0.0000 0.0000 3.9969 0.0000 0.0000
# 5 0.0000 0.0000 0.0000 0.0000 21.1012 0.0000
# 6 0.0000 0.0000 0.0000 0.0000 0.0000 27.0398
#
#
#
# Elastic Compliance Matrix: (Units=1/GPa)
#
#
# Indices 1 2 3 4 5 6 
#
# 1 0.006887 -0.002536 -0.003086 0.000000 0.000000 0.000000
# 2 -0.002536 0.011886 0.001500 0.000000 0.000000 0.000000
# 3 -0.003086 0.001500 0.010735 0.000000 0.000000 0.000000
# 4 0.000000 0.000000 0.000000 0.250196 0.000000 0.000000
# 5 0.000000 0.000000 0.000000 0.000000 0.047391 0.000000
# 6 0.000000 0.000000 0.000000 0.000000 0.000000 0.036982
#
#
# Mechanical properties :
#
#
# Convention : Reuss Voigt Hill
#
# Bulk Modulus (GPa) = 47.02480 58.52536 52.77508
# Shear Modulus (GPa) = 13.17837 30.50890 21.84363
#
# Velocity S-wave (km/s) = 2.38115 3.62301 3.06563
# Velocity P-wave (km/s) = 5.27181 6.53313 5.93606
#
# Compressibility (1/GPa) = 0.02126537
#
# Stress axis : x y z
#
# Youngs Moduli (GPa) = 145.19665 84.13028 93.15225
#
# Poissons Ratio (x) = 0.21334 0.28745
# Poissons Ratio (y) = 0.36819 -0.13972
# Poissons Ratio (z) = 0.44804 -0.12619
#
# Static dielectric constant tensor:
#      x y z
#    x 1.884420 0.000000 0.000000 
#    y 0.000000 1.893250 0.000000 
#    z 0.000000 0.000000 1.944450 
# 
# From -- ./inp_files/19827.got.cif
#   From: 2010.05.17/outbox.cif.g08.bks.cpg/sg58_10_cif.got.tgz:19827.got - 2010.06.03 14:20:14.
