data_PCOD9443124
_publ_section_title
;
Structure prediction by ZEFSAII (Michael W. Deem and Ramdas Pophale) SiO2 
 PCOD9443124
Probable space group: P N N M
;
_chemical_formula_sum "Si O2"
_cell_formula_units_Z 64
_cell_length_a 21.473401
_cell_length_b 18.832273
_cell_length_c 8.949384
_cell_angle_alpha 90.000000
_cell_angle_beta 90.000000
_cell_angle_gamma 90.000000
_cell_volume 3619.067795
_symmetry_space_group_name_H-M "P N N M"
_symmetry_group_IT_number 58
_symmetry_cell_setting 'orthorhombic'
loop_
_space_group_symop_operation_xyz
x,y,z
-x,-y,z
1/2+x,1/2-y,1/2-z
1/2-x,1/2+y,1/2-z
-x,-y,-z
x,y,-z
1/2-x,1/2+y,1/2+z
1/2+x,1/2-y,1/2+z
loop_
_atom_site_type_symbol
_atom_site_label
_atom_site_fract_x
_atom_site_fract_y
_atom_site_fract_z
Si Si1 0.747647 0.085507 0.672559
Si Si2 0.618350 0.079752 0.821801
Si Si3 0.500287 0.668616 0.682030
Si Si4 0.379851 0.581706 0.679321
Si Si5 0.376716 0.415531 0.680377
Si Si6 0.747764 0.412788 0.828241
Si Si7 0.506277 0.167044 0.320072
Si Si8 0.116139 0.576058 0.180488
O O1 0.685279 0.105677 0.760371
O O2 0.811955 0.109331 0.747669
O O3 0.749775 0.999071 0.676237
O O4 0.740352 0.390640 0.000000
O O5 0.563291 0.128451 0.759793
O O6 0.608405 0.000202 0.757633
O O7 0.618864 0.077877 0.000000
O O8 0.500110 0.665859 0.500000
O O9 0.438871 0.626632 0.733521
O O10 0.563705 0.629779 0.729121
O O11 0.498289 0.750806 0.724548
O O12 0.378949 0.584658 0.500000
O O13 0.386787 0.498543 0.720596
O O14 0.313344 0.608609 0.738274
O O15 0.371376 0.411950 0.500000
O O16 0.816715 0.391453 0.774433
O O17 0.756348 0.607257 0.000000
O O18 0.515525 0.163378 0.500000
O O19 0.442021 0.126155 0.286601
O O20 0.119074 0.564942 0.000000
#
# Coordination Sequence:
#
# PCOD9443124 Si02
#       8
#     8   8   8   8   8   8   8   8
#     4   9  17  31  51  75 102 129 160 200 246 299
#     4  11  21  33  52  77 101 125 159 206 253 295
#     4   9  18  32  50  72 100 136 173 204 240 291
#     4   9  16  28  49  75 100 129 165 202 242 288
#     4   9  16  29  51  77 103 130 164 207 248 286
#     4   8  15  28  46  70  97 123 157 201 245 290
#     4  10  20  35  52  69  97 137 173 203 241 295
#     4   9  18  33  53  74  96 127 165 202 245 299
#
# _framework density 17.684111000000001
#
# number of rings (size 3 to 8) (size 9 to 14) (size 15 to 20)
#    0.000    2.750    0.000    3.000    0.000    6.500 
#    0.000    3.125    0.000    4.500    0.000    0.000 
#    0.000    0.000    0.000    0.000    0.000    0.000 
#
# Total GULP energy -356786.237200 kJ/mol
# GULP energy per Si atom -5574.784956 kJ/mol
# Density = 1.764386 g / cm^3
# Si number density = 17.684111 Si / 1000 Ang^3
#
#
#
# Elastic Constant Matrix: (Units=GPa)
#
#
# Indices 1 2 3 4 5 6 
#
# 1 216.4070 88.6755 62.0193 0.0000 0.0000 0.0000
# 2 88.6755 77.3659 37.3242 0.0000 0.0000 0.0000
# 3 62.0193 37.3242 40.4891 0.0000 0.0000 0.0000
# 4 0.0000 0.0000 0.0000 10.4284 0.0000 0.0000
# 5 0.0000 0.0000 0.0000 0.0000 31.9325 0.0000
# 6 0.0000 0.0000 0.0000 0.0000 0.0000 -3.6076
#
#
#
# Elastic Compliance Matrix: (Units=1/GPa)
#
#
# Indices 1 2 3 4 5 6 
#
# 1 0.010172 -0.007460 -0.008705 0.000000 0.000000 0.000000
# 2 -0.007460 0.028749 -0.015075 0.000000 0.000000 0.000000
# 3 -0.008705 -0.015075 0.051928 0.000000 0.000000 0.000000
# 4 0.000000 0.000000 0.000000 0.095892 0.000000 0.000000
# 5 0.000000 0.000000 0.000000 0.000000 0.031316 0.000000
# 6 0.000000 0.000000 0.000000 0.000000 0.000000 -0.277196
#
#
# Mechanical properties :
#
#
# Convention : Reuss Voigt Hill
#
# Bulk Modulus (GPa) = 35.24829 78.92221 57.08525
# Shear Modulus (GPa) = 390.73247 17.50019 204.11633
#
# Velocity S-wave (km/s) = 14.88055 3.14920 10.75519
# Velocity P-wave (km/s) = 17.75434 7.61243 13.65953
#
# Compressibility (1/GPa) = 0.02837017
#
# Stress axis : x y z
#
# Youngs Moduli (GPa) = 98.30527 34.78435 19.25748
#
# Poissons Ratio (x) = 0.25949 0.16763
# Poissons Ratio (y) = 0.73335 0.29030
# Poissons Ratio (z) = 0.85573 0.52436
#
# Static dielectric constant tensor:
#      x y z
#    x 1.610140 0.000000 0.000000 
#    y 0.000000 1.579810 0.000000 
#    z 0.000000 0.000000 1.598200 
# 
# From -- ./inp_files/9437.got.cif
#   From: 2010.05.17/outbox.cif.g08.bks.cpg/sg58_5_cif.got.tgz:9437.got - 2010.06.03 14:20:14.
