data_PCOD9443651
_publ_section_title
;
Structure prediction by ZEFSAII (Michael W. Deem and Ramdas Pophale) SiO2 
 PCOD9443651
Probable space group: P N N M
;
_chemical_formula_sum "Si O2"
_cell_formula_units_Z 64
_cell_length_a 18.804607
_cell_length_b 20.477261
_cell_length_c 7.728260
_cell_angle_alpha 90.000000
_cell_angle_beta 90.000000
_cell_angle_gamma 90.000000
_cell_volume 2975.896700
_symmetry_space_group_name_H-M "P N N M"
_symmetry_group_IT_number 58
_symmetry_cell_setting 'orthorhombic'
loop_
_space_group_symop_operation_xyz
x,y,z
-x,-y,z
1/2+x,1/2-y,1/2-z
1/2-x,1/2+y,1/2-z
-x,-y,-z
x,y,-z
1/2-x,1/2+y,1/2+z
1/2+x,1/2-y,1/2+z
loop_
_atom_site_type_symbol
_atom_site_label
_atom_site_fract_x
_atom_site_fract_y
_atom_site_fract_z
Si Si1 0.367326 0.723087 0.701019
Si Si2 0.283289 0.473941 0.291893
Si Si3 0.446111 0.444988 0.208627
Si Si4 0.174521 0.365963 0.700547
Si Si5 0.472806 0.930103 0.704197
Si Si6 0.249859 0.620233 0.288106
Si Si7 0.026052 0.800949 0.701401
Si Si8 0.903858 0.328426 0.710525
O O1 0.380801 0.708832 0.500000
O O2 0.333974 0.795181 0.714462
O O3 0.313317 0.668092 0.768907
O O4 0.444051 0.720815 0.789365
O O5 0.274448 0.474593 0.500000
O O6 0.365260 0.462370 0.249973
O O7 0.234120 0.414783 0.225645
O O8 0.260199 0.545746 0.229660
O O9 0.500000 0.500000 0.275626
O O10 0.464459 0.372904 0.277350
O O11 0.454117 0.443755 0.000000
O O12 0.191066 0.353216 0.500000
O O13 0.099188 0.403388 0.712164
O O14 0.457870 0.936855 0.500000
O O15 0.535567 0.878379 0.730679
O O16 0.500000 0.000000 0.771266
O O17 0.250742 0.620625 0.500000
O O18 0.173724 0.648241 0.233636
O O19 0.046284 0.806081 0.500000
O O20 0.074619 0.743365 0.775579
O O21 0.904980 0.328062 0.500000
#
# Coordination Sequence:
#
# PCOD9443651 Si02
#       8
#     8   8   8   8   8   8   8   8
#     4  11  22  37  62  89 118 154 195 248 303 352
#     4  10  22  40  61  87 118 154 202 251 293 352
#     4  10  22  39  61  90 123 159 199 245 302 359
#     4  11  23  39  59  86 119 158 199 239 290 355
#     4  11  23  38  58  87 120 151 191 241 290 339
#     4   9  20  38  60  86 114 152 199 242 296 357
#     4  10  21  37  59  86 118 157 200 241 288 355
#     4  10  20  37  60  84 114 157 202 240 284 353
#
# _framework density 21.506122999999999
#
# number of rings (size 3 to 8) (size 9 to 14) (size 15 to 20)
#    0.000    1.750    1.250    2.625    1.750    3.750 
#    0.000    2.500    0.000    0.000    0.000    0.000 
#    0.000    0.000    0.000    0.000    0.000    0.000 
#
# Total GULP energy -357788.711889 kJ/mol
# GULP energy per Si atom -5590.448623 kJ/mol
# Density = 2.145717 g / cm^3
# Si number density = 21.506123 Si / 1000 Ang^3
#
#
#
# Elastic Constant Matrix: (Units=GPa)
#
#
# Indices 1 2 3 4 5 6 
#
# 1 114.1484 73.0042 -14.7807 0.0000 0.0000 0.0000
# 2 73.0042 185.4807 -3.4796 0.0000 0.0000 0.0000
# 3 -14.7807 -3.4796 32.5388 0.0000 0.0000 0.0000
# 4 0.0000 0.0000 0.0000 12.4507 0.0000 0.0000
# 5 0.0000 0.0000 0.0000 0.0000 25.0983 0.0000
# 6 0.0000 0.0000 0.0000 0.0000 0.0000 46.4319
#
#
#
# Elastic Compliance Matrix: (Units=1/GPa)
#
#
# Indices 1 2 3 4 5 6 
#
# 1 0.012519 -0.004831 0.005170 0.000000 0.000000 0.000000
# 2 -0.004831 0.007266 -0.001417 0.000000 0.000000 0.000000
# 3 0.005170 -0.001417 0.032930 0.000000 0.000000 0.000000
# 4 0.000000 0.000000 0.000000 0.080316 0.000000 0.000000
# 5 0.000000 0.000000 0.000000 0.000000 0.039843 0.000000
# 6 0.000000 0.000000 0.000000 0.000000 0.000000 0.021537
#
#
# Mechanical properties :
#
#
# Convention : Reuss Voigt Hill
#
# Bulk Modulus (GPa) = 19.77843 49.07288 34.42565
# Shear Modulus (GPa) = 23.42795 35.29112 29.35954
#
# Velocity S-wave (km/s) = 3.30413 4.05530 3.69883
# Velocity P-wave (km/s) = 4.87575 6.69290 5.85525
#
# Compressibility (1/GPa) = 0.05056013
#
# Stress axis : x y z
#
# Youngs Moduli (GPa) = 79.87569 137.62529 30.36782
#
# Poissons Ratio (x) = 0.66481 -0.15701
# Poissons Ratio (y) = 0.38585 0.04304
# Poissons Ratio (z) = -0.41299 0.19505
#
# Static dielectric constant tensor:
#      x y z
#    x 1.718180 0.000000 0.000000 
#    y 0.000000 1.889650 0.000000 
#    z 0.000000 0.000000 1.809430 
# 
# From -- ./inp_files/8380.got.cif
#   From: 2010.05.17/outbox.cif.g08.bks.cpg/sg58_5_cif.got.tgz:8380.got - 2010.06.03 14:20:14.
