data_PCOD9443567
_publ_section_title
;
Structure prediction by ZEFSAII (Michael W. Deem and Ramdas Pophale) SiO2 
 PCOD9443567
Probable space group: P N N M
;
_chemical_formula_sum "Si O2"
_cell_formula_units_Z 48
_cell_length_a 8.851600
_cell_length_b 18.749103
_cell_length_c 15.126292
_cell_angle_alpha 90.000000
_cell_angle_beta 90.000000
_cell_angle_gamma 90.000000
_cell_volume 2510.352766
_symmetry_space_group_name_H-M "P N N M"
_symmetry_group_IT_number 58
_symmetry_cell_setting 'orthorhombic'
loop_
_space_group_symop_operation_xyz
x,y,z
-x,-y,z
1/2+x,1/2-y,1/2-z
1/2-x,1/2+y,1/2-z
-x,-y,-z
x,y,-z
1/2-x,1/2+y,1/2+z
1/2+x,1/2-y,1/2+z
loop_
_atom_site_type_symbol
_atom_site_label
_atom_site_fract_x
_atom_site_fract_y
_atom_site_fract_z
Si Si1 0.155754 0.458764 0.319368
Si Si2 0.733742 0.324532 0.500000
Si Si3 0.602245 0.427622 0.000000
Si Si4 0.318644 0.010714 0.000000
Si Si5 0.065431 0.185867 0.813731
Si Si6 0.456153 0.735367 0.000000
Si Si7 0.797176 0.704793 0.323565
Si Si8 0.147058 0.048503 0.693302
O O1 0.243885 0.475220 0.410905
O O2 0.137331 0.374762 0.314094
O O3 0.234848 0.495716 0.237487
O O4 0.000000 0.500000 0.326570
O O5 0.789240 0.405986 0.500000
O O6 0.636556 0.314666 0.588748
O O7 0.881800 0.274476 0.500000
O O8 0.500000 0.500000 0.000000
O O9 0.520119 0.350339 0.000000
O O10 0.689495 0.428152 0.906257
O O11 0.500000 0.000000 0.000000
O O12 0.142093 0.248450 0.757178
O O13 0.108610 0.114187 0.758638
O O14 0.884707 0.197023 0.820129
O O15 0.361737 0.760316 0.913687
O O16 0.000000 0.000000 0.685394
#
# Coordination Sequence:
#
# PCOD9443567 Si02
#       8
#     8   4   4   4   8   4   8   8
#     4  11  23  40  67  98 134 176 222 278 344 407
#     4  12  25  42  69 101 137 179 213 283 343 421
#     4  10  24  41  71  92 124 173 233 276 329 404
#     4  10  20  36  62  97 133 168 210 261 334 412
#     4  12  26  43  66  98 138 176 233 277 347 410
#     4  12  23  43  69 101 140 179 224 279 354 407
#     4  12  26  43  67  99 137 183 227 284 341 415
#     4  11  22  45  67  94 128 175 228 278 340 407
#
# _framework density 19.120819000000001
#
# number of rings (size 3 to 8) (size 9 to 14) (size 15 to 20)
#    0.000    0.667    5.000    4.000    2.333    0.000 
#    0.000    2.083    0.000    0.000    0.000    0.000 
#    0.000    0.000    0.000    0.000    0.000    0.000 
#
# Total GULP energy -267984.558837 kJ/mol
# GULP energy per Si atom -5583.011642 kJ/mol
# Density = 1.907730 g / cm^3
# Si number density = 19.120819 Si / 1000 Ang^3
#
#
#
# Elastic Constant Matrix: (Units=GPa)
#
#
# Indices 1 2 3 4 5 6 
#
# 1 50.9095 19.9953 35.9670 0.0000 0.0000 0.0000
# 2 19.9953 167.6512 58.6735 0.0000 0.0000 0.0000
# 3 35.9670 58.6735 183.8682 0.0000 0.0000 0.0000
# 4 0.0000 0.0000 0.0000 34.5607 0.0000 0.0000
# 5 0.0000 0.0000 0.0000 0.0000 26.5247 0.0000
# 6 0.0000 0.0000 0.0000 0.0000 0.0000 22.6328
#
#
#
# Elastic Compliance Matrix: (Units=1/GPa)
#
#
# Indices 1 2 3 4 5 6 
#
# 1 0.023049 -0.001318 -0.004088 0.000000 0.000000 0.000000
# 2 -0.001318 0.006790 -0.001909 0.000000 0.000000 0.000000
# 3 -0.004088 -0.001909 0.006847 0.000000 0.000000 0.000000
# 4 0.000000 0.000000 0.000000 0.028935 0.000000 0.000000
# 5 0.000000 0.000000 0.000000 0.000000 0.037701 0.000000
# 6 0.000000 0.000000 0.000000 0.000000 0.000000 0.044184
#
#
# Mechanical properties :
#
#
# Convention : Reuss Voigt Hill
#
# Bulk Modulus (GPa) = 45.33935 70.18896 57.76416
# Shear Modulus (GPa) = 29.50076 35.92984 32.71530
#
# Velocity S-wave (km/s) = 3.93219 4.33956 4.14088
# Velocity P-wave (km/s) = 6.66180 7.86745 7.28960
#
# Compressibility (1/GPa) = 0.02205590
#
# Stress axis : x y z
#
# Youngs Moduli (GPa) = 43.38673 147.27431 146.03952
#
# Poissons Ratio (x) = 0.19415 0.59700
# Poissons Ratio (y) = 0.05720 0.27877
# Poissons Ratio (z) = 0.17736 0.28113
#
# Static dielectric constant tensor:
#      x y z
#    x 1.574400 0.000000 0.000000 
#    y 0.000000 1.652800 0.000000 
#    z 0.000000 0.000000 1.733820 
# 
# From -- ./inp_files/19906.got.cif
#   From: 2010.05.17/outbox.cif.g08.bks.cpg/sg58_10_cif.got.tgz:19906.got - 2010.06.03 14:20:14.
