data_PCOD9443806
_publ_section_title
;
Structure prediction by ZEFSAII (Michael W. Deem and Ramdas Pophale) SiO2 
 PCOD9443806
Probable space group: P N N M
;
_chemical_formula_sum "Si O2"
_cell_formula_units_Z 64
_cell_length_a 9.699180
_cell_length_b 15.411926
_cell_length_c 20.053130
_cell_angle_alpha 90.000000
_cell_angle_beta 90.000000
_cell_angle_gamma 90.000000
_cell_volume 2997.602923
_symmetry_space_group_name_H-M "P N N M"
_symmetry_group_IT_number 58
_symmetry_cell_setting 'orthorhombic'
loop_
_space_group_symop_operation_xyz
x,y,z
-x,-y,z
1/2+x,1/2-y,1/2-z
1/2-x,1/2+y,1/2-z
-x,-y,-z
x,y,-z
1/2-x,1/2+y,1/2+z
1/2+x,1/2-y,1/2+z
loop_
_atom_site_type_symbol
_atom_site_label
_atom_site_fract_x
_atom_site_fract_y
_atom_site_fract_z
Si Si1 0.544772 0.264680 0.079372
Si Si2 0.164894 0.714944 0.144322
Si Si3 0.669086 0.600928 0.070171
Si Si4 0.152821 0.038372 0.072747
Si Si5 0.633295 0.256711 0.395995
Si Si6 0.343406 0.217429 0.204712
Si Si7 0.657214 0.989079 0.665362
Si Si8 0.150054 0.513793 0.313352
O O1 0.700510 0.252758 0.104738
O O2 0.485306 0.363033 0.077240
O O3 0.451384 0.232128 0.143180
O O4 0.527971 0.234831 0.000000
O O5 0.138173 0.751095 0.219885
O O6 0.186497 0.612329 0.155608
O O7 0.025915 0.732152 0.103135
O O8 0.768739 0.686470 0.068641
O O9 0.727516 0.542362 0.127546
O O10 0.683665 0.554114 0.000000
O O11 0.151808 0.143349 0.081369
O O12 0.235782 0.994562 0.132565
O O13 0.214234 0.019545 0.000000
O O14 0.000000 0.000000 0.074228
O O15 0.694747 0.251126 0.321194
O O16 0.336582 0.114109 0.205887
O O17 0.655957 0.028049 0.740578
O O18 0.500000 0.000000 0.639872
O O19 0.000000 0.500000 0.343653
#
# Coordination Sequence:
#
# PCOD9443806 Si02
#       8
#     8   8   8   8   8   8   8   8
#     4  10  23  40  59  91 128 160 204 263 317 363
#     4  11  21  37  61  92 125 159 210 257 302 362
#     4  10  21  39  60  86 122 168 202 238 307 371
#     4  10  22  41  59  86 122 155 199 253 308 367
#     4  10  20  38  61  87 115 162 205 250 296 369
#     4   9  20  39  61  85 119 165 205 246 309 380
#     4  10  20  39  59  89 125 160 205 254 293 358
#     4   9  20  38  61  85 115 154 201 250 303 363
#
# _framework density 21.350393
#
# number of rings (size 3 to 8) (size 9 to 14) (size 15 to 20)
#    0.000    2.125    1.250    1.125    0.000    6.500 
#   11.250    2.500    0.000    0.000    0.000    0.000 
#    0.000    0.000    0.000    0.000    0.000    0.000 
#
# Total GULP energy -356289.422850 kJ/mol
# GULP energy per Si atom -5567.022232 kJ/mol
# Density = 2.130180 g / cm^3
# Si number density = 21.350393 Si / 1000 Ang^3
#
#
#
# Elastic Constant Matrix: (Units=GPa)
#
#
# Indices 1 2 3 4 5 6 
#
# 1 109.2081 -10.3151 29.6091 0.0000 0.0000 0.0000
# 2 -10.3151 15.7392 -9.5102 0.0000 0.0000 0.0000
# 3 29.6091 -9.5102 87.3570 0.0000 0.0000 0.0000
# 4 0.0000 0.0000 0.0000 19.2011 0.0000 0.0000
# 5 0.0000 0.0000 0.0000 0.0000 14.7506 0.0000
# 6 0.0000 0.0000 0.0000 0.0000 0.0000 21.8369
#
#
#
# Elastic Compliance Matrix: (Units=1/GPa)
#
#
# Indices 1 2 3 4 5 6 
#
# 1 0.010444 0.005037 -0.002991 0.000000 0.000000 0.000000
# 2 0.005037 0.070439 0.005961 0.000000 0.000000 0.000000
# 3 -0.002991 0.005961 0.013110 0.000000 0.000000 0.000000
# 4 0.000000 0.000000 0.000000 0.052080 0.000000 0.000000
# 5 0.000000 0.000000 0.000000 0.000000 0.067794 0.000000
# 6 0.000000 0.000000 0.000000 0.000000 0.000000 0.045794
#
#
# Mechanical properties :
#
#
# Convention : Reuss Voigt Hill
#
# Bulk Modulus (GPa) = 9.09044 25.76353 17.42698
# Shear Modulus (GPa) = 17.83703 24.65910 21.24806
#
# Velocity S-wave (km/s) = 2.89354 3.40217 3.15811
# Velocity P-wave (km/s) = 3.92815 5.24655 4.63447
#
# Compressibility (1/GPa) = 0.11000571
#
# Stress axis : x y z
#
# Youngs Moduli (GPa) = 95.75190 14.19677 76.27656
#
# Poissons Ratio (x) = -0.07151 0.22818
# Poissons Ratio (y) = -0.48230 -0.45469
# Poissons Ratio (z) = 0.28644 -0.08463
#
# Static dielectric constant tensor:
#      x y z
#    x 1.758220 0.000000 0.000000 
#    y 0.000000 1.788210 0.000000 
#    z 0.000000 0.000000 1.868600 
# 
# From -- ./inp_files/29115.got.cif
#   From: 2010.05.17/outbox.cif.g08.bks.cpg/sg58_15_cif.got.tgz:29115.got - 2010.06.03 14:20:14.
