data_PCOD9443304
_publ_section_title
;
Structure prediction by ZEFSAII (Michael W. Deem and Ramdas Pophale) SiO2 
 PCOD9443304
Probable space group: P N N M
;
_chemical_formula_sum "Si O2"
_cell_formula_units_Z 64
_cell_length_a 10.710152
_cell_length_b 33.521170
_cell_length_c 9.069449
_cell_angle_alpha 90.000000
_cell_angle_beta 90.000000
_cell_angle_gamma 90.000000
_cell_volume 3256.084793
_symmetry_space_group_name_H-M "P N N M"
_symmetry_group_IT_number 58
_symmetry_cell_setting 'orthorhombic'
loop_
_space_group_symop_operation_xyz
x,y,z
-x,-y,z
1/2+x,1/2-y,1/2-z
1/2-x,1/2+y,1/2-z
-x,-y,-z
x,y,-z
1/2-x,1/2+y,1/2+z
1/2+x,1/2-y,1/2+z
loop_
_atom_site_type_symbol
_atom_site_label
_atom_site_fract_x
_atom_site_fract_y
_atom_site_fract_z
Si Si1 0.398445 0.966166 0.323486
Si Si2 0.356389 0.511750 0.176415
Si Si3 0.792396 0.332923 0.831670
Si Si4 0.023006 0.301644 0.324093
Si Si5 0.416875 0.359197 0.325240
Si Si6 0.470063 0.712963 0.169281
Si Si7 0.852973 0.615556 0.321618
Si Si8 0.822715 0.904269 0.174702
O O1 0.410191 0.961608 0.500000
O O2 0.416187 0.923385 0.247216
O O3 0.500000 0.000000 0.278398
O O4 0.256074 0.980826 0.291934
O O5 0.500000 0.500000 0.212647
O O6 0.323165 0.551321 0.265672
O O7 0.353099 0.519449 0.000000
O O8 0.881976 0.308929 0.724418
O O9 0.659637 0.310862 0.831544
O O10 0.772062 0.376693 0.765130
O O11 0.838771 0.334113 0.000000
O O12 0.040450 0.301280 0.500000
O O13 0.054875 0.257239 0.269228
O O14 0.092927 0.341596 0.271615
O O15 0.407473 0.353150 0.500000
O O16 0.434504 0.315733 0.253876
O O17 0.292793 0.382175 0.277740
O O18 0.539750 0.385531 0.297101
O O19 0.512975 0.717053 0.000000
O O20 0.862930 0.613058 0.500000
O O21 0.797933 0.902002 0.000000
#
# Coordination Sequence:
#
# PCOD9443304 Si02
#       8
#     8   8   8   8   8   8   8   8
#     4  10  23  41  59  83 117 151 191 242 290 344
#     4  10  21  37  59  86 115 151 192 240 293 345
#     4  10  21  37  58  82 111 150 192 229 277 340
#     4  10  22  38  56  82 116 148 187 236 280 331
#     4   9  19  36  59  86 118 152 188 233 282 335
#     4   9  20  37  57  83 114 150 189 234 283 331
#     4  10  22  39  60  84 114 152 191 232 285 343
#     4  10  20  35  58  87 117 148 186 236 286 334
#
# _framework density 19.655508000000001
#
# number of rings (size 3 to 8) (size 9 to 14) (size 15 to 20)
#    0.000    2.250    0.000    1.500    3.500    3.500 
#    0.000    0.000    0.000    0.000    0.000    0.000 
#    0.000    0.000    0.000    0.000    0.000    0.000 
#
# Total GULP energy -356976.991111 kJ/mol
# GULP energy per Si atom -5577.765486 kJ/mol
# Density = 1.961077 g / cm^3
# Si number density = 19.655508 Si / 1000 Ang^3
#
#
#
# Elastic Constant Matrix: (Units=GPa)
#
#
# Indices 1 2 3 4 5 6 
#
# 1 35.1138 10.9543 6.3148 0.0000 0.0000 0.0000
# 2 10.9543 134.7730 34.1953 0.0000 0.0000 0.0000
# 3 6.3148 34.1953 -13.4957 0.0000 0.0000 0.0000
# 4 0.0000 0.0000 0.0000 34.1071 0.0000 0.0000
# 5 0.0000 0.0000 0.0000 0.0000 16.7726 0.0000
# 6 0.0000 0.0000 0.0000 0.0000 0.0000 20.7714
#
#
#
# Elastic Compliance Matrix: (Units=1/GPa)
#
#
# Indices 1 2 3 4 5 6 
#
# 1 0.028746 -0.003499 0.004584 0.000000 0.000000 0.000000
# 2 -0.003499 0.004942 0.010886 0.000000 0.000000 0.000000
# 3 0.004584 0.010886 -0.044371 0.000000 0.000000 0.000000
# 4 0.000000 0.000000 0.000000 0.029319 0.000000 0.000000
# 5 0.000000 0.000000 0.000000 0.000000 0.059621 0.000000
# 6 0.000000 0.000000 0.000000 0.000000 0.000000 0.048143
#
#
# Mechanical properties :
#
#
# Convention : Reuss Voigt Hill
#
# Bulk Modulus (GPa) = 75.43238 28.81334 52.12286
# Shear Modulus (GPa) = 46.78133 21.32534 34.05334
#
# Velocity S-wave (km/s) = 4.88388 3.29744 4.16686
# Velocity P-wave (km/s) = 8.38234 5.40263 7.05167
#
# Compressibility (1/GPa) = 0.01325691
#
# Stress axis : x y z
#
# Youngs Moduli (GPa) = 34.78723 202.33154 -22.53712
#
# Poissons Ratio (x) = 0.70806 0.10330
# Poissons Ratio (y) = 0.12174 0.24533
# Poissons Ratio (z) = -0.15946 -2.20249
#
# Static dielectric constant tensor:
#      x y z
#    x 1.724460 0.000000 0.000000 
#    y 0.000000 1.689850 0.000000 
#    z 0.000000 0.000000 1.665630 
# 
# From -- ./inp_files/4686.got.cif
#   From: 2010.05.17/outbox.cif.g08.bks.cpg/sg58_3_cif.got.tgz:4686.got - 2010.06.03 14:20:14.
