data_PCOD9443455
_publ_section_title
;
Structure prediction by ZEFSAII (Michael W. Deem and Ramdas Pophale) SiO2 
 PCOD9443455
Probable space group: P N N M
;
_chemical_formula_sum "Si O2"
_cell_formula_units_Z 48
_cell_length_a 31.852810
_cell_length_b 9.460062
_cell_length_c 8.586810
_cell_angle_alpha 90.000000
_cell_angle_beta 90.000000
_cell_angle_gamma 90.000000
_cell_volume 2587.459657
_symmetry_space_group_name_H-M "P N N M"
_symmetry_group_IT_number 58
_symmetry_cell_setting 'orthorhombic'
loop_
_space_group_symop_operation_xyz
x,y,z
-x,-y,z
1/2+x,1/2-y,1/2-z
1/2-x,1/2+y,1/2-z
-x,-y,-z
x,y,-z
1/2-x,1/2+y,1/2+z
1/2+x,1/2-y,1/2+z
loop_
_atom_site_type_symbol
_atom_site_label
_atom_site_fract_x
_atom_site_fract_y
_atom_site_fract_z
Si Si1 0.958587 0.916099 0.187652
Si Si2 0.131588 0.089542 0.314941
Si Si3 0.133581 0.408163 0.812549
Si Si4 0.207882 0.907189 0.813118
Si Si5 0.710610 0.910280 0.813324
Si Si6 0.539834 0.086139 0.311299
O O1 0.914803 0.960699 0.264012
O O2 0.964794 0.751221 0.225337
O O3 0.954170 0.929096 0.000000
O O4 0.000000 0.000000 0.235977
O O5 0.133801 0.102820 0.500000
O O6 0.138478 0.245176 0.240530
O O7 0.166811 0.982667 0.254918
O O8 0.169608 0.506022 0.743583
O O9 0.086760 0.456752 0.761424
O O10 0.135441 0.411823 0.000000
O O11 0.211998 0.746918 0.755250
O O12 0.248506 0.999212 0.765727
O O13 0.205386 0.907709 0.000000
O O14 0.710209 0.901250 0.000000
O O15 0.539621 0.073858 0.500000
O O16 0.500000 0.000000 0.250604
#
# Coordination Sequence:
#
# PCOD9443455 Si02
#       6
#     8   8   8   8   8   8
#     4   9  18  33  54  79 109 147 190 233 279 337
#     4  11  22  37  58  83 115 151 190 240 290 334
#     4  10  20  36  59  84 113 151 192 233 282 341
#     4  11  24  41  61  84 113 150 189 229 280 345
#     4  11  24  40  60  87 116 146 185 235 287 337
#     4   8  15  29  50  77 106 139 182 227 268 317
#
# _framework density 18.551013000000001
#
# number of rings (size 3 to 8) (size 9 to 14) (size 15 to 20)
#    0.000    2.000    0.000    5.000    0.000    7.000 
#    0.000    3.333    0.000   12.500    0.000    0.000 
#    0.000    0.000    0.000    0.000    0.000    0.000 
#
# Total GULP energy -268060.475759 kJ/mol
# GULP energy per Si atom -5584.593245 kJ/mol
# Density = 1.850879 g / cm^3
# Si number density = 18.551013 Si / 1000 Ang^3
#
#
#
# Elastic Constant Matrix: (Units=GPa)
#
#
# Indices 1 2 3 4 5 6 
#
# 1 200.1616 102.7969 44.1239 0.0000 0.0000 0.0000
# 2 102.7969 100.3382 27.4321 0.0000 0.0000 0.0000
# 3 44.1239 27.4321 46.3659 0.0000 0.0000 0.0000
# 4 0.0000 0.0000 0.0000 28.7112 0.0000 0.0000
# 5 0.0000 0.0000 0.0000 0.0000 -7.2687 0.0000
# 6 0.0000 0.0000 0.0000 0.0000 0.0000 43.6035
#
#
#
# Elastic Compliance Matrix: (Units=1/GPa)
#
#
# Indices 1 2 3 4 5 6 
#
# 1 0.011332 -0.010333 -0.004671 0.000000 0.000000 0.000000
# 2 -0.010333 0.021311 -0.002775 0.000000 0.000000 0.000000
# 3 -0.004671 -0.002775 0.027655 0.000000 0.000000 0.000000
# 4 0.000000 0.000000 0.000000 0.034830 0.000000 0.000000
# 5 0.000000 0.000000 0.000000 0.000000 -0.137575 0.000000
# 6 0.000000 0.000000 0.000000 0.000000 0.000000 0.022934
#
#
# Mechanical properties :
#
#
# Convention : Reuss Voigt Hill
#
# Bulk Modulus (GPa) = 40.42074 77.28569 58.85321
# Shear Modulus (GPa) = 205.83398 24.51005 115.17201
#
# Velocity S-wave (km/s) = 10.54498 3.63881 7.88788
# Velocity P-wave (km/s) = 13.04217 7.70754 10.71225
#
# Compressibility (1/GPa) = 0.02473978
#
# Stress axis : x y z
#
# Youngs Moduli (GPa) = 88.24292 46.92352 36.16032
#
# Poissons Ratio (x) = 0.48486 0.16890
# Poissons Ratio (y) = 0.91182 0.10036
# Poissons Ratio (z) = 0.41218 0.13023
#
# Static dielectric constant tensor:
#      x y z
#    x 1.641150 0.000000 0.000000 
#    y 0.000000 1.604500 0.000000 
#    z 0.000000 0.000000 1.630080 
# 
# From -- ./inp_files/10753.got.cif
#   From: 2010.05.17/outbox.cif.g08.bks.cpg/sg58_6_cif.got.tgz:10753.got - 2010.06.03 14:20:14.
