data_PCOD9443380
_publ_section_title
;
Structure prediction by ZEFSAII (Michael W. Deem and Ramdas Pophale) SiO2 
 PCOD9443380
Probable space group: P N N M
;
_chemical_formula_sum "Si O2"
_cell_formula_units_Z 58
_cell_length_a 9.433587
_cell_length_b 17.124410
_cell_length_c 19.631934
_cell_angle_alpha 90.000000
_cell_angle_beta 90.000000
_cell_angle_gamma 90.000000
_cell_volume 3171.433152
_symmetry_space_group_name_H-M "P N N M"
_symmetry_group_IT_number 58
_symmetry_cell_setting 'orthorhombic'
loop_
_space_group_symop_operation_xyz
x,y,z
-x,-y,z
1/2+x,1/2-y,1/2-z
1/2-x,1/2+y,1/2-z
-x,-y,-z
x,y,-z
1/2-x,1/2+y,1/2+z
1/2+x,1/2-y,1/2+z
loop_
_atom_site_type_symbol
_atom_site_label
_atom_site_fract_x
_atom_site_fract_y
_atom_site_fract_z
Si Si1 0.838556 0.336076 0.419098
Si Si2 0.291894 0.726040 0.178340
Si Si3 0.000000 0.500000 0.000000
Si Si4 0.877770 0.416482 0.133009
Si Si5 0.623106 0.710939 0.194143
Si Si6 0.866351 0.606128 0.365541
Si Si7 0.161580 0.425081 0.792236
Si Si8 0.153416 0.023209 0.918341
O O1 0.830639 0.322021 0.500000
O O2 0.843373 0.257414 0.375364
O O3 0.711002 0.392553 0.395959
O O4 0.982721 0.383293 0.401590
O O5 0.228105 0.655488 0.135300
O O6 0.453542 0.708672 0.200507
O O7 0.193528 0.740638 0.244100
O O8 0.297424 0.807599 0.137369
O O9 0.090015 0.546112 0.060209
O O10 0.823092 0.486288 0.182264
O O11 0.030102 0.391416 0.164216
O O12 0.699913 0.627295 0.195905
O O13 0.881255 0.580894 0.286691
O O14 0.766142 0.543182 0.400141
O O15 0.143973 0.027539 0.000000
O O16 0.000000 0.000000 0.890131
#
# Coordination Sequence:
#
# PCOD9443380 Si02
#       8
#     8   8   2   8   8   8   8   8
#     4  10  21  36  57  80 112 157 187 222 283 346
#     4  10  21  36  60  86 115 148 192 242 298 336
#     4   8  20  40  60  82 116 152 214 230 296 352
#     4  10  20  40  61  85 114 159 192 251 285 359
#     4  10  21  39  57  88 120 147 192 248 289 354
#     4  10  20  36  56  86 109 149 187 236 281 346
#     4   9  21  36  60  85 113 144 196 236 300 339
#     4  10  22  36  51  79 117 148 186 229 273 340
#
# _framework density 18.288263000000001
#
# number of rings (size 3 to 8) (size 9 to 14) (size 15 to 20)
#    0.000    2.345    0.000    3.310    5.793    4.966 
#   11.172    0.000    0.000    3.310    0.000    0.000 
#    0.000    0.000    0.000    0.000    0.000    0.000 
#
# Total GULP energy -323082.898208 kJ/mol
# GULP energy per Si atom -5570.394797 kJ/mol
# Density = 1.824664 g / cm^3
# Si number density = 18.288263 Si / 1000 Ang^3
#
#
#
# Elastic Constant Matrix: (Units=GPa)
#
#
# Indices 1 2 3 4 5 6 
#
# 1 55.0984 21.5624 9.2077 0.0000 0.0000 0.0000
# 2 21.5624 70.8136 27.9242 0.0000 0.0000 0.0000
# 3 9.2077 27.9242 41.8128 0.0000 0.0000 0.0000
# 4 0.0000 0.0000 0.0000 5.7113 0.0000 0.0000
# 5 0.0000 0.0000 0.0000 0.0000 9.3373 0.0000
# 6 0.0000 0.0000 0.0000 0.0000 0.0000 31.0967
#
#
#
# Elastic Compliance Matrix: (Units=1/GPa)
#
#
# Indices 1 2 3 4 5 6 
#
# 1 0.020611 -0.006090 -0.000472 0.000000 0.000000 0.000000
# 2 -0.006090 0.020969 -0.012663 0.000000 0.000000 0.000000
# 3 -0.000472 -0.012663 0.032477 0.000000 0.000000 0.000000
# 4 0.000000 0.000000 0.000000 0.175090 0.000000 0.000000
# 5 0.000000 0.000000 0.000000 0.000000 0.107098 0.000000
# 6 0.000000 0.000000 0.000000 0.000000 0.000000 0.032158
#
#
# Mechanical properties :
#
#
# Convention : Reuss Voigt Hill
#
# Bulk Modulus (GPa) = 28.08353 31.67927 29.88140
# Shear Modulus (GPa) = 11.39672 16.49776 13.94724
#
# Velocity S-wave (km/s) = 2.49905 3.00675 2.76458
# Velocity P-wave (km/s) = 4.86994 5.42345 5.15413
#
# Compressibility (1/GPa) = 0.03560806
#
# Stress axis : x y z
#
# Youngs Moduli (GPa) = 48.51663 47.68833 30.79107
#
# Poissons Ratio (x) = 0.29043 0.01452
# Poissons Ratio (y) = 0.29547 0.38991
# Poissons Ratio (z) = 0.02289 0.60388
#
# Static dielectric constant tensor:
#      x y z
#    x 1.634300 0.000000 0.000000 
#    y 0.000000 1.639110 0.000000 
#    z 0.000000 0.000000 1.608450 
# 
# From -- ./inp_files/25556.got.cif
#   From: 2010.05.17/outbox.cif.g08.bks.cpg/sg58_13_cif.got.tgz:25556.got - 2010.06.03 14:20:14.
