data_PCOD9443026
_publ_section_title
;
Structure prediction by ZEFSAII (Michael W. Deem and Ramdas Pophale) SiO2 
 PCOD9443026
Probable space group: P N N M
;
_chemical_formula_sum "Si O2"
_cell_formula_units_Z 64
_cell_length_a 13.929556
_cell_length_b 9.152542
_cell_length_c 24.545347
_cell_angle_alpha 90.000000
_cell_angle_beta 90.000000
_cell_angle_gamma 90.000000
_cell_volume 3129.307063
_symmetry_space_group_name_H-M "P N N M"
_symmetry_group_IT_number 58
_symmetry_cell_setting 'orthorhombic'
loop_
_space_group_symop_operation_xyz
x,y,z
-x,-y,z
1/2+x,1/2-y,1/2-z
1/2-x,1/2+y,1/2-z
-x,-y,-z
x,y,-z
1/2-x,1/2+y,1/2+z
1/2+x,1/2-y,1/2+z
loop_
_atom_site_type_symbol
_atom_site_label
_atom_site_fract_x
_atom_site_fract_y
_atom_site_fract_z
Si Si1 0.521729 0.326123 0.221073
Si Si2 0.892485 0.963802 0.081406
Si Si3 0.720469 0.052900 0.349461
Si Si4 0.783308 0.275509 0.561262
Si Si5 0.829281 0.237349 0.129465
Si Si6 0.535166 0.237757 0.340503
Si Si7 0.209474 0.376557 0.275684
Si Si8 0.591638 0.899364 0.152830
O O1 0.500000 0.500000 0.220500
O O2 0.498384 0.256835 0.279661
O O3 0.631689 0.258222 0.217997
O O4 0.453790 0.249285 0.176650
O O5 0.823663 0.843044 0.056203
O O6 0.914624 0.888787 0.140397
O O7 0.827325 0.108364 0.085429
O O8 0.000000 0.000000 0.060322
O O9 0.773767 0.143826 0.395827
O O10 0.609986 0.108957 0.348530
O O11 0.743616 0.090439 0.286062
O O12 0.728269 0.886759 0.368534
O O13 0.817634 0.243535 0.500000
O O14 0.850416 0.382003 0.596877
O O15 0.797948 0.160998 0.185697
O O16 0.940219 0.281582 0.125118
O O17 0.156938 0.519008 0.301542
O O18 0.500000 0.000000 0.143561
#
# Coordination Sequence:
#
# PCOD9443026 Si02
#       8
#     8   8   8   8   8   8   8   8
#     4  10  20  34  55  84 123 156 194 241 306 369
#     4   9  19  37  62  88 117 154 204 250 297 362
#     4  10  23  35  55  87 124 161 196 245 306 366
#     4  11  24  43  62  85 124 169 211 250 300 366
#     4  11  19  32  59  85 120 149 192 245 299 366
#     4   9  19  34  52  85 123 163 189 233 301 376
#     4  10  22  34  55  92 121 153 194 245 318 371
#     4  10  22  41  61  88 122 153 205 260 311 369
#
# _framework density 20.451812
#
# number of rings (size 3 to 8) (size 9 to 14) (size 15 to 20)
#    0.000    2.000    1.250    2.250    5.250    3.500 
#    0.000    0.625    0.000   10.125    0.000    0.000 
#    0.000    0.000    0.000    0.000    0.000    0.000 
#
# Total GULP energy -356283.139205 kJ/mol
# GULP energy per Si atom -5566.924050 kJ/mol
# Density = 2.040526 g / cm^3
# Si number density = 20.451812 Si / 1000 Ang^3
#
#
#
# Elastic Constant Matrix: (Units=GPa)
#
#
# Indices 1 2 3 4 5 6 
#
# 1 34.5999 2.7710 18.2791 0.0000 0.0000 0.0000
# 2 2.7710 99.2315 26.9438 0.0000 0.0000 0.0000
# 3 18.2791 26.9438 113.0558 0.0000 0.0000 0.0000
# 4 0.0000 0.0000 0.0000 -2.2826 0.0000 0.0000
# 5 0.0000 0.0000 0.0000 0.0000 3.2836 0.0000
# 6 0.0000 0.0000 0.0000 0.0000 0.0000 13.9047
#
#
#
# Elastic Compliance Matrix: (Units=1/GPa)
#
#
# Indices 1 2 3 4 5 6 
#
# 1 0.031628 0.000540 -0.005242 0.000000 0.000000 0.000000
# 2 0.000540 0.010784 -0.002657 0.000000 0.000000 0.000000
# 3 -0.005242 -0.002657 0.010326 0.000000 0.000000 0.000000
# 4 0.000000 0.000000 0.000000 -0.438089 0.000000 0.000000
# 5 0.000000 0.000000 0.000000 0.000000 0.304545 0.000000
# 6 0.000000 0.000000 0.000000 0.000000 0.000000 0.071918
#
#
# Mechanical properties :
#
#
# Convention : Reuss Voigt Hill
#
# Bulk Modulus (GPa) = 26.30269 38.09722 32.19995
# Shear Modulus (GPa) = 270.20556 16.24069 143.22313
#
# Velocity S-wave (km/s) = 11.50674 2.82103 8.37744
# Velocity P-wave (km/s) = 13.76331 5.41102 10.45724
#
# Compressibility (1/GPa) = 0.03801893
#
# Stress axis : x y z
#
# Youngs Moduli (GPa) = 31.61746 92.73074 96.84178
#
# Poissons Ratio (x) = -0.05010 0.50769
# Poissons Ratio (y) = -0.01708 0.25735
# Poissons Ratio (z) = 0.16575 0.24642
#
# Static dielectric constant tensor:
#      x y z
#    x 1.763830 0.000000 0.000000 
#    y 0.000000 1.821390 0.000000 
#    z 0.000000 0.000000 1.742610 
# 
# From -- ./inp_files/32235.got.cif
#   From: 2010.05.17/outbox.cif.g08.bks.cpg/sg58_17_cif.got.tgz:32235.got - 2010.06.03 14:20:14.
