data_PCOD9443713
_publ_section_title
;
Structure prediction by ZEFSAII (Michael W. Deem and Ramdas Pophale) SiO2 
 PCOD9443713
Probable space group: P N N M
;
_chemical_formula_sum "Si O2"
_cell_formula_units_Z 64
_cell_length_a 15.932011
_cell_length_b 23.813121
_cell_length_c 7.726382
_cell_angle_alpha 90.000000
_cell_angle_beta 90.000000
_cell_angle_gamma 90.000000
_cell_volume 2931.319065
_symmetry_space_group_name_H-M "P N N M"
_symmetry_group_IT_number 58
_symmetry_cell_setting 'orthorhombic'
loop_
_space_group_symop_operation_xyz
x,y,z
-x,-y,z
1/2+x,1/2-y,1/2-z
1/2-x,1/2+y,1/2-z
-x,-y,-z
x,y,-z
1/2-x,1/2+y,1/2+z
1/2+x,1/2-y,1/2+z
loop_
_atom_site_type_symbol
_atom_site_label
_atom_site_fract_x
_atom_site_fract_y
_atom_site_fract_z
Si Si1 0.239495 0.833148 0.800693
Si Si2 0.597496 0.879209 0.789898
Si Si3 0.353108 0.994144 0.295146
Si Si4 0.074519 0.896988 0.701897
Si Si5 0.661873 0.493817 0.211384
Si Si6 0.740919 0.793573 0.797929
Si Si7 0.414282 0.877778 0.800260
Si Si8 0.105722 0.131103 0.290273
O O1 0.157712 0.859710 0.714342
O O2 0.237138 0.766201 0.792709
O O3 0.328065 0.853953 0.722051
O O4 0.236544 0.852353 0.000000
O O5 0.671407 0.837779 0.731437
O O6 0.504878 0.861920 0.726207
O O7 0.616043 0.942877 0.735598
O O8 0.596750 0.878705 0.000000
O O9 0.355688 0.982896 0.500000
O O10 0.406181 0.945222 0.206982
O O11 0.256408 0.991235 0.234500
O O12 0.055294 0.907054 0.500000
O O13 0.990876 0.867330 0.770424
O O14 0.098327 0.958250 0.774617
O O15 0.638791 0.430756 0.261313
O O16 0.661415 0.494775 0.000000
O O17 0.831602 0.822276 0.780109
O O18 0.723259 0.783421 0.000000
O O19 0.414681 0.858636 0.000000
O O20 0.110064 0.135712 0.500000
#
# Coordination Sequence:
#
# PCOD9443713 Si02
#       8
#     8   8   8   8   8   8   8   8
#     4  11  24  41  61  84 114 152 199 248 295 343
#     4  10  22  40  60  83 115 155 194 233 285 349
#     4  11  20  33  59  91 121 150 187 236 287 340
#     4  10  20  37  62  89 119 156 194 233 285 348
#     4   9  17  32  57  88 120 151 186 230 283 343
#     4  11  24  41  61  84 114 152 199 248 295 343
#     4  10  22  40  60  83 115 155 194 233 285 349
#     4  10  20  37  62  89 119 156 194 233 285 348
#
# _framework density 21.833174
#
# number of rings (size 3 to 8) (size 9 to 14) (size 15 to 20)
#    0.000    1.750    2.500    1.875    0.000    6.000 
#    0.000    3.125    0.000    1.500    0.000    0.000 
#    0.000    0.000    0.000    0.000    0.000    0.000 
#
# Total GULP energy -357642.340285 kJ/mol
# GULP energy per Si atom -5588.161567 kJ/mol
# Density = 2.178348 g / cm^3
# Si number density = 21.833174 Si / 1000 Ang^3
#
#
#
# Elastic Constant Matrix: (Units=GPa)
#
#
# Indices 1 2 3 4 5 6 
#
# 1 104.9381 2.0419 -5.5367 0.0000 0.0000 0.0000
# 2 2.0419 67.6336 -14.6693 0.0000 0.0000 0.0000
# 3 -5.5367 -14.6693 40.6374 0.0000 0.0000 0.0000
# 4 0.0000 0.0000 0.0000 17.4714 0.0000 0.0000
# 5 0.0000 0.0000 0.0000 0.0000 44.2643 0.0000
# 6 0.0000 0.0000 0.0000 0.0000 0.0000 6.3290
#
#
#
# Elastic Compliance Matrix: (Units=1/GPa)
#
#
# Indices 1 2 3 4 5 6 
#
# 1 0.009598 -0.000007 0.001305 0.000000 0.000000 0.000000
# 2 -0.000007 0.016042 0.005790 0.000000 0.000000 0.000000
# 3 0.001305 0.005790 0.026876 0.000000 0.000000 0.000000
# 4 0.000000 0.000000 0.000000 0.057236 0.000000 0.000000
# 5 0.000000 0.000000 0.000000 0.000000 0.022592 0.000000
# 6 0.000000 0.000000 0.000000 0.000000 0.000000 0.158004
#
#
# Mechanical properties :
#
#
# Convention : Reuss Voigt Hill
#
# Bulk Modulus (GPa) = 14.99418 19.65342 17.32380
# Shear Modulus (GPa) = 16.75595 29.03781 22.89688
#
# Velocity S-wave (km/s) = 2.77330 3.65085 3.24191
# Velocity P-wave (km/s) = 4.13974 5.17618 4.68670
#
# Compressibility (1/GPa) = 0.06669254
#
# Stress axis : x y z
#
# Youngs Moduli (GPa) = 104.18367 62.33830 37.20833
#
# Poissons Ratio (x) = 0.00041 -0.04857
# Poissons Ratio (y) = 0.00069 -0.21543
# Poissons Ratio (z) = -0.13600 -0.36092
#
# Static dielectric constant tensor:
#      x y z
#    x 1.821190 0.000000 0.000000 
#    y 0.000000 1.745170 0.000000 
#    z 0.000000 0.000000 1.825030 
# 
# From -- ./inp_files/6876.got.cif
#   From: 2010.05.17/outbox.cif.g08.bks.cpg/sg58_4_cif.got.tgz:6876.got - 2010.06.03 14:20:14.
