data_PCOD9443298
_publ_section_title
;
Structure prediction by ZEFSAII (Michael W. Deem and Ramdas Pophale) SiO2 
 PCOD9443298
Probable space group: P N N M
;
_chemical_formula_sum "Si O2"
_cell_formula_units_Z 48
_cell_length_a 9.280885
_cell_length_b 11.908114
_cell_length_c 20.488876
_cell_angle_alpha 90.000000
_cell_angle_beta 90.000000
_cell_angle_gamma 90.000000
_cell_volume 2264.386250
_symmetry_space_group_name_H-M "P N N M"
_symmetry_group_IT_number 58
_symmetry_cell_setting 'orthorhombic'
loop_
_space_group_symop_operation_xyz
x,y,z
-x,-y,z
1/2+x,1/2-y,1/2-z
1/2-x,1/2+y,1/2-z
-x,-y,-z
x,y,-z
1/2-x,1/2+y,1/2+z
1/2+x,1/2-y,1/2+z
loop_
_atom_site_type_symbol
_atom_site_label
_atom_site_fract_x
_atom_site_fract_y
_atom_site_fract_z
Si Si1 0.522053 0.365300 0.571269
Si Si2 0.775170 0.620701 0.716912
Si Si3 0.866314 0.443480 0.176631
Si Si4 0.812390 0.662793 0.428303
Si Si5 0.370467 0.587379 0.928610
Si Si6 0.026072 0.215963 0.207638
O O1 0.500000 0.500000 0.575272
O O2 0.589523 0.341394 0.500000
O O3 0.360564 0.312917 0.570517
O O4 0.592968 0.322600 0.638138
O O5 0.831087 0.519799 0.761252
O O6 0.822594 0.602575 0.641618
O O7 0.600587 0.627220 0.725082
O O8 0.853740 0.735292 0.743409
O O9 0.731995 0.438660 0.130513
O O10 0.925133 0.323307 0.195538
O O11 0.000000 0.500000 0.139587
O O12 0.842840 0.609497 0.500000
O O13 0.900851 0.779012 0.424538
O O14 0.500000 0.500000 0.925998
O O15 0.300197 0.573020 0.000000
#
# Coordination Sequence:
#
# PCOD9443298 Si02
#       6
#     8   8   8   8   8   8
#     4   9  17  32  56  84 112 146 196 246 295 357
#     4  10  21  34  56  82 111 155 196 242 295 365
#     4  10  21  36  53  81 122 153 191 244 308 353
#     4   9  18  36  57  81 117 154 195 253 303 344
#     4  10  20  35  58  86 115 155 205 247 295 366
#     4  10  21  37  54  84 117 151 192 247 299 347
#
# _framework density 21.197797000000001
#
# number of rings (size 3 to 8) (size 9 to 14) (size 15 to 20)
#    0.000    2.333    3.333    0.000    2.333    3.000 
#    0.000    2.500    0.000    5.500    0.000    0.000 
#    0.000    0.000    0.000    0.000    0.000    0.000 
#
# Total GULP energy -267267.386886 kJ/mol
# GULP energy per Si atom -5568.070560 kJ/mol
# Density = 2.114955 g / cm^3
# Si number density = 21.197797 Si / 1000 Ang^3
#
#
#
# Elastic Constant Matrix: (Units=GPa)
#
#
# Indices 1 2 3 4 5 6 
#
# 1 34.1131 3.2472 16.4870 0.0000 0.0000 0.0000
# 2 3.2472 43.6350 11.8753 0.0000 0.0000 0.0000
# 3 16.4870 11.8753 163.4125 0.0000 0.0000 0.0000
# 4 0.0000 0.0000 0.0000 26.6102 0.0000 0.0000
# 5 0.0000 0.0000 0.0000 0.0000 18.2430 0.0000
# 6 0.0000 0.0000 0.0000 0.0000 0.0000 24.2207
#
#
#
# Elastic Compliance Matrix: (Units=1/GPa)
#
#
# Indices 1 2 3 4 5 6 
#
# 1 0.030910 -0.001481 -0.003011 0.000000 0.000000 0.000000
# 2 -0.001481 0.023451 -0.001555 0.000000 0.000000 0.000000
# 3 -0.003011 -0.001555 0.006536 0.000000 0.000000 0.000000
# 4 0.000000 0.000000 0.000000 0.037580 0.000000 0.000000
# 5 0.000000 0.000000 0.000000 0.000000 0.054815 0.000000
# 6 0.000000 0.000000 0.000000 0.000000 0.000000 0.041287
#
#
# Mechanical properties :
#
#
# Convention : Reuss Voigt Hill
#
# Bulk Modulus (GPa) = 20.49002 33.81994 27.15498
# Shear Modulus (GPa) = 22.42748 27.78485 25.10616
#
# Velocity S-wave (km/s) = 3.25624 3.62434 3.44521
# Velocity P-wave (km/s) = 4.88104 5.78823 5.35388
#
# Compressibility (1/GPa) = 0.04880424
#
# Stress axis : x y z
#
# Youngs Moduli (GPa) = 32.35156 42.64258 152.99278
#
# Poissons Ratio (x) = 0.06315 0.46066
# Poissons Ratio (y) = 0.04791 0.23787
# Poissons Ratio (z) = 0.09741 0.06630
#
# Static dielectric constant tensor:
#      x y z
#    x 1.802830 0.000000 0.000000 
#    y 0.000000 1.815210 0.000000 
#    z 0.000000 0.000000 1.812250 
# 
# From -- ./inp_files/26139.got.cif
#   From: 2010.05.17/outbox.cif.g08.bks.cpg/sg58_14_cif.got.tgz:26139.got - 2010.06.03 14:20:14.
