data_PCOD9443285
_publ_section_title
;
Structure prediction by ZEFSAII (Michael W. Deem and Ramdas Pophale) SiO2 
 PCOD9443285
Probable space group: P N N M
;
_chemical_formula_sum "Si O2"
_cell_formula_units_Z 48
_cell_length_a 9.578329
_cell_length_b 31.957923
_cell_length_c 8.487032
_cell_angle_alpha 90.000000
_cell_angle_beta 90.000000
_cell_angle_gamma 90.000000
_cell_volume 2597.910205
_symmetry_space_group_name_H-M "P N N M"
_symmetry_group_IT_number 58
_symmetry_cell_setting 'orthorhombic'
loop_
_space_group_symop_operation_xyz
x,y,z
-x,-y,z
1/2+x,1/2-y,1/2-z
1/2-x,1/2+y,1/2-z
-x,-y,-z
x,y,-z
1/2-x,1/2+y,1/2+z
1/2+x,1/2-y,1/2+z
loop_
_atom_site_type_symbol
_atom_site_label
_atom_site_fract_x
_atom_site_fract_y
_atom_site_fract_z
Si Si1 0.584701 0.711033 0.810389
Si Si2 0.591653 0.960000 0.690675
Si Si3 0.084281 0.883017 0.690656
Si Si4 0.409303 0.881471 0.308064
Si Si5 0.906226 0.712036 0.189815
Si Si6 0.592656 0.460584 0.688455
O O1 0.541308 0.664118 0.760688
O O2 0.745269 0.716690 0.760772
O O3 0.494299 0.749235 0.749915
O O4 0.581451 0.711221 0.000000
O O5 0.593557 0.959592 0.500000
O O6 0.512515 0.917924 0.745381
O O7 0.750119 0.962531 0.747845
O O8 0.500000 0.000000 0.740604
O O9 0.079357 0.885031 0.500000
O O10 0.247308 0.889075 0.737269
O O11 0.985315 0.918455 0.758637
O O12 0.410097 0.881720 0.500000
O O13 0.451853 0.834574 0.257819
O O14 0.910419 0.712136 0.000000
O O15 0.500000 0.500000 0.745155
O O16 0.597975 0.462041 0.500000
#
# Coordination Sequence:
#
# PCOD9443285 Si02
#       6
#     8   8   8   8   8   8
#     4   9  19  34  52  77 105 134 173 217 257 300
#     4  10  20  35  58  83 103 132 177 219 255 302
#     4   9  18  36  59  77  99 134 175 218 257 298
#     4   8  16  33  55  78 102 131 173 221 261 298
#     4   9  18  33  52  74 105 141 172 209 259 311
#     4  11  24  38  52  76 110 141 168 205 257 313
#
# _framework density 18.476389000000001
#
# number of rings (size 3 to 8) (size 9 to 14) (size 15 to 20)
#    0.000    2.667    0.000    3.500    0.000    5.667 
#    0.000    9.167    0.000    0.000    0.000    0.000 
#    0.000    0.000    0.000    0.000    0.000    0.000 
#
# Total GULP energy -267743.679126 kJ/mol
# GULP energy per Si atom -5577.993315 kJ/mol
# Density = 1.843434 g / cm^3
# Si number density = 18.476389 Si / 1000 Ang^3
#
#
#
# Elastic Constant Matrix: (Units=GPa)
#
#
# Indices 1 2 3 4 5 6 
#
# 1 137.2540 132.8864 22.3094 0.0000 0.0000 0.0000
# 2 132.8864 217.2131 28.5632 0.0000 0.0000 0.0000
# 3 22.3094 28.5632 6.5640 0.0000 0.0000 0.0000
# 4 0.0000 0.0000 0.0000 11.1330 0.0000 0.0000
# 5 0.0000 0.0000 0.0000 0.0000 15.7353 0.0000
# 6 0.0000 0.0000 0.0000 0.0000 0.0000 42.5909
#
#
#
# Elastic Compliance Matrix: (Units=1/GPa)
#
#
# Indices 1 2 3 4 5 6 
#
# 1 0.020995 -0.008090 -0.036151 0.000000 0.000000 0.000000
# 2 -0.008090 0.013880 -0.032900 0.000000 0.000000 0.000000
# 3 -0.036151 -0.032900 0.418379 0.000000 0.000000 0.000000
# 4 0.000000 0.000000 0.000000 0.089823 0.000000 0.000000
# 5 0.000000 0.000000 0.000000 0.000000 0.063551 0.000000
# 6 0.000000 0.000000 0.000000 0.000000 0.000000 0.023479
#
#
# Mechanical properties :
#
#
# Convention : Reuss Voigt Hill
#
# Bulk Modulus (GPa) = 3.34480 80.94989 42.14735
# Shear Modulus (GPa) = 5.65582 25.70997 15.68289
#
# Velocity S-wave (km/s) = 1.75150 3.73433 2.91659
# Velocity P-wave (km/s) = 2.42993 7.90578 5.84833
#
# Compressibility (1/GPa) = 0.29897112
#
# Stress axis : x y z
#
# Youngs Moduli (GPa) = 47.63139 72.04855 2.39018
#
# Poissons Ratio (x) = 0.58289 0.08641
# Poissons Ratio (y) = 0.38535 0.07864
# Poissons Ratio (z) = 1.72191 2.37039
#
# Static dielectric constant tensor:
#      x y z
#    x 1.603170 0.000000 0.000000 
#    y 0.000000 1.641480 0.000000 
#    z 0.000000 0.000000 1.642860 
# 
# From -- ./inp_files/2896.got.cif
#   From: 2010.05.17/outbox.cif.g08.bks.cpg/sg58_2_cif.got.tgz:2896.got - 2010.06.03 14:20:14.
