data_PCOD9443986
_publ_section_title
;
Structure prediction by ZEFSAII (Michael W. Deem and Ramdas Pophale) SiO2 
 PCOD9443986
Probable space group: P N N M
;
_chemical_formula_sum "Si O2"
_cell_formula_units_Z 38
_cell_length_a 10.701509
_cell_length_b 6.468411
_cell_length_c 25.071284
_cell_angle_alpha 90.000000
_cell_angle_beta 90.000000
_cell_angle_gamma 90.000000
_cell_volume 1735.478367
_symmetry_space_group_name_H-M "P N N M"
_symmetry_group_IT_number 58
_symmetry_cell_setting 'orthorhombic'
loop_
_space_group_symop_operation_xyz
x,y,z
-x,-y,z
1/2+x,1/2-y,1/2-z
1/2-x,1/2+y,1/2-z
-x,-y,-z
x,y,-z
1/2-x,1/2+y,1/2+z
1/2+x,1/2-y,1/2+z
loop_
_atom_site_type_symbol
_atom_site_label
_atom_site_fract_x
_atom_site_fract_y
_atom_site_fract_z
Si Si1 0.103662 0.179518 0.911803
Si Si2 0.124899 0.617486 0.605144
Si Si3 0.693858 0.189040 0.802490
Si Si4 0.000000 0.000000 0.654956
Si Si5 0.000000 0.500000 0.000000
Si Si6 0.635886 0.042691 0.307481
O O1 0.244746 0.104225 0.926521
O O2 0.055390 0.344603 0.953812
O O3 0.121709 0.297424 0.855328
O O4 0.000000 0.000000 0.907955
O O5 0.158510 0.502362 0.660592
O O6 0.000000 0.500000 0.584008
O O7 0.086543 0.853155 0.618265
O O8 0.579185 0.346627 0.808854
O O9 0.716709 0.127259 0.741726
O O10 0.808198 0.323096 0.825399
O O11 0.500000 0.000000 0.283822
#
# Coordination Sequence:
#
# PCOD9443986 Si02
#       6
#     8   8   8   4   2   8
#     4  12  26  49  74 103 139 191 247 319 373 434
#     4  10  22  42  71 103 146 189 231 290 371 449
#     4  11  24  38  60 103 149 188 231 285 348 443
#     4  10  20  40  62  99 146 191 222 270 352 428
#     4  12  30  52  74 104 138 188 260 330 388 416
#     4  12  24  39  66 100 143 195 243 287 356 443
#
# _framework density 21.895980999999999
#
# number of rings (size 3 to 8) (size 9 to 14) (size 15 to 20)
#    0.000    0.842    3.158    4.737    4.421    0.000 
#    0.000    0.526    0.000    1.895    0.000    0.000 
#    0.000    0.000    0.000    0.000    0.000    0.000 
#
# Total GULP energy -211875.367897 kJ/mol
# GULP energy per Si atom -5575.667576 kJ/mol
# Density = 2.184614 g / cm^3
# Si number density = 21.895981 Si / 1000 Ang^3
#
#
#
# Elastic Constant Matrix: (Units=GPa)
#
#
# Indices 1 2 3 4 5 6 
#
# 1 146.3068 75.6417 33.2176 0.0000 0.0000 0.0000
# 2 75.6417 119.1763 37.7397 0.0000 0.0000 0.0000
# 3 33.2176 37.7397 60.9098 0.0000 0.0000 0.0000
# 4 0.0000 0.0000 0.0000 62.2310 0.0000 0.0000
# 5 0.0000 0.0000 0.0000 0.0000 -1.6390 0.0000
# 6 0.0000 0.0000 0.0000 0.0000 0.0000 39.2842
#
#
#
# Elastic Compliance Matrix: (Units=1/GPa)
#
#
# Indices 1 2 3 4 5 6 
#
# 1 0.010358 -0.005954 -0.001960 0.000000 0.000000 0.000000
# 2 -0.005954 0.013861 -0.005342 0.000000 0.000000 0.000000
# 3 -0.001960 -0.005342 0.020796 0.000000 0.000000 0.000000
# 4 0.000000 0.000000 0.000000 0.016069 0.000000 0.000000
# 5 0.000000 0.000000 0.000000 0.000000 -0.610135 0.000000
# 6 0.000000 0.000000 0.000000 0.000000 0.000000 0.025456
#
#
# Mechanical properties :
#
#
# Convention : Reuss Voigt Hill
#
# Bulk Modulus (GPa) = 54.03891 68.84345 61.44118
# Shear Modulus (GPa) = -10.18505 31.96152 10.88824
#
# Velocity S-wave (km/s) = -2.15909 3.82474 2.23238
# Velocity P-wave (km/s) = 4.30324 7.14243 5.89628
#
# Compressibility (1/GPa) = 0.01850518
#
# Stress axis : x y z
#
# Youngs Moduli (GPa) = 96.54373 72.14359 48.08564
#
# Poissons Ratio (x) = 0.42951 0.09425
# Poissons Ratio (y) = 0.57478 0.25685
# Poissons Ratio (z) = 0.18922 0.38536
#
# Static dielectric constant tensor:
#      x y z
#    x 1.904080 0.000000 0.000000 
#    y 0.000000 1.821520 0.000000 
#    z 0.000000 0.000000 1.742240 
# 
# From -- ./inp_files/32690.got.cif
#   From: 2010.05.17/outbox.cif.g08.bks.cpg/sg58_17_cif.got.tgz:32690.got - 2010.06.03 14:20:14.
