data_PCOD9443692
_publ_section_title
;
Structure prediction by ZEFSAII (Michael W. Deem and Ramdas Pophale) SiO2 
 PCOD9443692
Probable space group: P N N M
;
_chemical_formula_sum "Si O2"
_cell_formula_units_Z 64
_cell_length_a 16.241735
_cell_length_b 13.534914
_cell_length_c 14.749364
_cell_angle_alpha 90.000000
_cell_angle_beta 90.000000
_cell_angle_gamma 90.000000
_cell_volume 3242.359863
_symmetry_space_group_name_H-M "P N N M"
_symmetry_group_IT_number 58
_symmetry_cell_setting 'orthorhombic'
loop_
_space_group_symop_operation_xyz
x,y,z
-x,-y,z
1/2+x,1/2-y,1/2-z
1/2-x,1/2+y,1/2-z
-x,-y,-z
x,y,-z
1/2-x,1/2+y,1/2+z
1/2+x,1/2-y,1/2+z
loop_
_atom_site_type_symbol
_atom_site_label
_atom_site_fract_x
_atom_site_fract_y
_atom_site_fract_z
Si Si1 0.164928 0.619786 0.211815
Si Si2 0.002490 0.880843 0.394167
Si Si3 0.072694 0.814576 0.212135
Si Si4 0.086408 0.216707 0.893362
Si Si5 0.263753 0.120565 0.101043
Si Si6 0.680828 0.300451 0.893591
Si Si7 0.221424 0.891284 0.897950
Si Si8 0.409980 0.950360 0.396569
O O1 0.099554 0.703481 0.183373
O O2 0.173147 0.636458 0.318558
O O3 0.252770 0.642795 0.166649
O O4 0.139546 0.512647 0.177363
O O5 0.023796 0.861297 0.500000
O O6 0.912295 0.833324 0.376201
O O7 0.062125 0.835119 0.318563
O O8 0.000000 0.000000 0.382995
O O9 0.147048 0.878233 0.171544
O O10 0.984842 0.833547 0.165373
O O11 0.176772 0.172520 0.877155
O O12 0.087939 0.334303 0.875944
O O13 0.067705 0.202467 0.000000
O O14 0.249548 0.003279 0.100709
O O15 0.289221 0.152325 0.000000
O O16 0.704408 0.185290 0.878260
O O17 0.696199 0.321557 0.000000
O O18 0.191103 0.865817 0.000000
O O19 0.376659 0.962169 0.500000
O O20 0.500000 0.000000 0.397073
#
# Coordination Sequence:
#
# PCOD9443692 Si02
#       8
#     8   8   8   8   8   8   8   8
#     4  11  22  36  59  87 117 153 200 245 297 368
#     4  10  23  41  59  84 122 163 206 253 306 366
#     4  11  22  34  59  89 114 154 194 249 305 362
#     4  10  21  38  60  89 124 154 195 255 312 362
#     4  10  23  40  56  81 119 159 199 245 296 357
#     4   9  19  38  61  84 112 151 197 246 293 355
#     4   9  20  38  60  86 114 152 198 244 299 361
#     4  10  20  37  61  90 122 156 194 249 313 368
#
# _framework density 19.738709
#
# number of rings (size 3 to 8) (size 9 to 14) (size 15 to 20)
#    0.000    2.000    1.250    1.500    3.500    4.500 
#    0.000    1.875    0.000    0.375    0.000    0.000 
#    0.000    0.000    0.000    0.000    0.000    0.000 
#
# Total GULP energy -357147.729593 kJ/mol
# GULP energy per Si atom -5580.433275 kJ/mol
# Density = 1.969378 g / cm^3
# Si number density = 19.738709 Si / 1000 Ang^3
#
#
#
# Elastic Constant Matrix: (Units=GPa)
#
#
# Indices 1 2 3 4 5 6 
#
# 1 31.6578 13.3288 32.2805 0.0000 0.0000 0.0000
# 2 13.3288 56.8858 4.3538 0.0000 0.0000 0.0000
# 3 32.2805 4.3538 60.0168 0.0000 0.0000 0.0000
# 4 0.0000 0.0000 0.0000 8.6014 0.0000 0.0000
# 5 0.0000 0.0000 0.0000 0.0000 33.4488 0.0000
# 6 0.0000 0.0000 0.0000 0.0000 0.0000 19.8108
#
#
#
# Elastic Compliance Matrix: (Units=1/GPa)
#
#
# Indices 1 2 3 4 5 6 
#
# 1 0.082227 -0.015970 -0.043068 0.000000 0.000000 0.000000
# 2 -0.015970 0.020779 0.007082 0.000000 0.000000 0.000000
# 3 -0.043068 0.007082 0.039313 0.000000 0.000000 0.000000
# 4 0.000000 0.000000 0.000000 0.116260 0.000000 0.000000
# 5 0.000000 0.000000 0.000000 0.000000 0.029896 0.000000
# 6 0.000000 0.000000 0.000000 0.000000 0.000000 0.050478
#
#
# Mechanical properties :
#
#
# Convention : Reuss Voigt Hill
#
# Bulk Modulus (GPa) = 26.03691 27.60962 26.82326
# Shear Modulus (GPa) = 10.97295 18.94535 14.95915
#
# Velocity S-wave (km/s) = 2.36033 3.10144 2.75591
# Velocity P-wave (km/s) = 4.54397 5.18104 4.87292
#
# Compressibility (1/GPa) = 0.03840702
#
# Stress axis : x y z
#
# Youngs Moduli (GPa) = 12.16149 48.12568 25.43709
#
# Poissons Ratio (x) = 0.76857 1.09552
# Poissons Ratio (y) = 0.19422 -0.18015
# Poissons Ratio (z) = 0.52377 -0.34084
#
# Static dielectric constant tensor:
#      x y z
#    x 1.672590 0.000000 0.000000 
#    y 0.000000 1.691110 0.000000 
#    z 0.000000 0.000000 1.739330 
# 
# From -- ./inp_files/22950.got.cif
#   From: 2010.05.17/outbox.cif.g08.bks.cpg/sg58_12_cif.got.tgz:22950.got - 2010.06.03 14:20:14.
