data_PCOD9443595
_publ_section_title
;
Structure prediction by ZEFSAII (Michael W. Deem and Ramdas Pophale) SiO2 
 PCOD9443595
Probable space group: P N N M
;
_chemical_formula_sum "Si O2"
_cell_formula_units_Z 44
_cell_length_a 9.372045
_cell_length_b 25.706332
_cell_length_c 7.748136
_cell_angle_alpha 90.000000
_cell_angle_beta 90.000000
_cell_angle_gamma 90.000000
_cell_volume 1866.687901
_symmetry_space_group_name_H-M "P N N M"
_symmetry_group_IT_number 58
_symmetry_cell_setting 'orthorhombic'
loop_
_space_group_symop_operation_xyz
x,y,z
-x,-y,z
1/2+x,1/2-y,1/2-z
1/2-x,1/2+y,1/2-z
-x,-y,-z
x,y,-z
1/2-x,1/2+y,1/2+z
1/2+x,1/2-y,1/2+z
loop_
_atom_site_type_symbol
_atom_site_label
_atom_site_fract_x
_atom_site_fract_y
_atom_site_fract_z
Si Si1 0.598572 0.316602 0.699106
Si Si2 0.186509 0.051683 0.000000
Si Si3 0.190351 0.764958 0.206314
Si Si4 0.489062 0.423436 0.809043
Si Si5 0.578094 0.943999 0.305815
Si Si6 0.811932 0.623571 0.708269
O O1 0.578048 0.333940 0.500000
O O2 0.746338 0.287189 0.715827
O O3 0.474796 0.275554 0.744489
O O4 0.568501 0.367155 0.807924
O O5 0.065250 0.048418 0.152939
O O6 0.309244 0.058658 0.152586
O O7 0.274760 0.817157 0.262454
O O8 0.205186 0.761090 0.000000
O O9 0.323576 0.411086 0.765507
O O10 0.498864 0.445188 0.000000
O O11 0.639347 0.939616 0.500000
O O12 0.456609 0.900059 0.281699
O O13 0.500000 0.000000 0.293544
O O14 0.817520 0.622428 0.500000
#
# Coordination Sequence:
#
# PCOD9443595 Si02
#       6
#     8   4   8   8   8   8
#     4  10  20  37  55  83 124 165 210 259 315 366
#     4  12  23  42  65  98 132 166 210 268 325 382
#     4   9  20  35  56  84 118 162 211 260 310 380
#     4  11  22  40  66  92 129 173 214 265 323 386
#     4  11  25  45  70  99 131 168 216 271 331 399
#     4  10  20  42  67  91 127 171 216 262 328 395
#
# _framework density 23.571161
#
# number of rings (size 3 to 8) (size 9 to 14) (size 15 to 20)
#    0.000    1.636    2.727    3.000    0.000    5.818 
#    0.000    3.636    0.000    3.273    0.000    0.000 
#    0.000    0.000    0.000    0.000    0.000    0.000 
#
# Total GULP energy -245253.973122 kJ/mol
# GULP energy per Si atom -5573.953935 kJ/mol
# Density = 2.351751 g / cm^3
# Si number density = 23.571161 Si / 1000 Ang^3
#
#
#
# Elastic Constant Matrix: (Units=GPa)
#
#
# Indices 1 2 3 4 5 6 
#
# 1 105.0509 -6.8866 78.3491 0.0000 0.0000 0.0000
# 2 -6.8866 64.6431 -0.9176 0.0000 0.0000 0.0000
# 3 78.3491 -0.9176 196.1966 0.0000 0.0000 0.0000
# 4 0.0000 0.0000 0.0000 16.7648 0.0000 0.0000
# 5 0.0000 0.0000 0.0000 0.0000 -50.4259 0.0000
# 6 0.0000 0.0000 0.0000 0.0000 0.0000 -30.3598
#
#
#
# Elastic Compliance Matrix: (Units=1/GPa)
#
#
# Indices 1 2 3 4 5 6 
#
# 1 0.013679 0.001380 -0.005456 0.000000 0.000000 0.000000
# 2 0.001380 0.015610 -0.000478 0.000000 0.000000 0.000000
# 3 -0.005456 -0.000478 0.007274 0.000000 0.000000 0.000000
# 4 0.000000 0.000000 0.000000 0.059649 0.000000 0.000000
# 5 0.000000 0.000000 0.000000 0.000000 -0.019831 0.000000
# 6 0.000000 0.000000 0.000000 0.000000 0.000000 -0.032938
#
#
# Mechanical properties :
#
#
# Convention : Reuss Voigt Hill
#
# Bulk Modulus (GPa) = 36.42504 56.33116 46.37810
# Shear Modulus (GPa) = 81.03543 6.88552 43.96048
#
# Velocity S-wave (km/s) = 5.86973 1.71100 4.32326
# Velocity P-wave (km/s) = 7.83741 5.27765 6.68126
#
# Compressibility (1/GPa) = 0.02745364
#
# Stress axis : x y z
#
# Youngs Moduli (GPa) = 73.10527 64.06244 137.48499
#
# Poissons Ratio (x) = -0.08839 0.75013
# Poissons Ratio (y) = -0.10087 0.06572
# Poissons Ratio (z) = 0.39887 0.03062
#
# Static dielectric constant tensor:
#      x y z
#    x 1.844430 0.000000 0.000000 
#    y 0.000000 2.325110 0.000000 
#    z 0.000000 0.000000 1.855810 
# 
# From -- ./inp_files/2786.got.cif
#   From: 2010.05.17/outbox.cif.g08.bks.cpg/sg58_2_cif.got.tgz:2786.got - 2010.06.03 14:20:14.
