data_PCOD9443868
_publ_section_title
;
Structure prediction by ZEFSAII (Michael W. Deem and Ramdas Pophale) SiO2 
 PCOD9443868
Probable space group: P N N M
;
_chemical_formula_sum "Si O2"
_cell_formula_units_Z 48
_cell_length_a 8.500279
_cell_length_b 17.982242
_cell_length_c 15.626742
_cell_angle_alpha 90.000000
_cell_angle_beta 90.000000
_cell_angle_gamma 90.000000
_cell_volume 2388.611179
_symmetry_space_group_name_H-M "P N N M"
_symmetry_group_IT_number 58
_symmetry_cell_setting 'orthorhombic'
loop_
_space_group_symop_operation_xyz
x,y,z
-x,-y,z
1/2+x,1/2-y,1/2-z
1/2-x,1/2+y,1/2-z
-x,-y,-z
x,y,-z
1/2-x,1/2+y,1/2+z
1/2+x,1/2-y,1/2+z
loop_
_atom_site_type_symbol
_atom_site_label
_atom_site_fract_x
_atom_site_fract_y
_atom_site_fract_z
Si Si1 0.316967 0.597402 0.402029
Si Si2 0.500000 0.000000 0.631816
Si Si3 0.458724 0.867650 0.095903
Si Si4 0.029610 0.831967 0.775493
Si Si5 0.232557 0.222265 0.350100
Si Si6 0.402902 0.126703 0.500000
Si Si7 0.763472 0.534512 0.723464
O O1 0.343267 0.574374 0.500000
O O2 0.146784 0.637008 0.397332
O O3 0.452022 0.651363 0.367825
O O4 0.310167 0.528563 0.336769
O O5 0.485012 0.072996 0.574026
O O6 0.652297 0.003573 0.692896
O O7 0.368012 0.790866 0.110989
O O8 0.395008 0.924735 0.165733
O O9 0.422832 0.895638 0.000000
O O10 0.136824 0.759305 0.787761
O O11 0.138300 0.902077 0.753386
O O12 0.890924 0.822805 0.707633
O O13 0.314198 0.175664 0.424330
#
# Coordination Sequence:
#
# PCOD9443868 Si02
#       7
#     8   4   8   8   8   4   8
#     4  11  22  38  63 102 139 168 218 279 343 412
#     4  11  24  46  69 100 124 186 227 280 338 395
#     4  10  20  38  64 100 135 176 213 274 347 403
#     4  11  26  39  67  94 131 179 222 278 334 408
#     4  11  24  45  64  96 132 179 223 278 332 405
#     4  11  26  44  71  92 139 173 226 280 331 396
#     4  11  22  41  70  95 135 173 227 278 340 403
#
# _framework density 20.095359999999999
#
# number of rings (size 3 to 8) (size 9 to 14) (size 15 to 20)
#    0.000    1.167    2.500    3.000    5.833    3.333 
#    0.000    2.500    0.000    0.000    0.000    0.000 
#    0.000    0.000    0.000    0.000    0.000    0.000 
#
# Total GULP energy -267300.879727 kJ/mol
# GULP energy per Si atom -5568.768328 kJ/mol
# Density = 2.004962 g / cm^3
# Si number density = 20.095360 Si / 1000 Ang^3
#
#
#
# Elastic Constant Matrix: (Units=GPa)
#
#
# Indices 1 2 3 4 5 6 
#
# 1 56.9271 18.2876 13.8238 0.0000 0.0000 0.0000
# 2 18.2876 49.8057 25.9846 0.0000 0.0000 0.0000
# 3 13.8238 25.9846 106.6026 0.0000 0.0000 0.0000
# 4 0.0000 0.0000 0.0000 13.0544 0.0000 0.0000
# 5 0.0000 0.0000 0.0000 0.0000 19.4841 0.0000
# 6 0.0000 0.0000 0.0000 0.0000 0.0000 41.3144
#
#
#
# Elastic Compliance Matrix: (Units=1/GPa)
#
#
# Indices 1 2 3 4 5 6 
#
# 1 0.019994 -0.006861 -0.000920 0.000000 0.000000 0.000000
# 2 -0.006861 0.025358 -0.005291 0.000000 0.000000 0.000000
# 3 -0.000920 -0.005291 0.010790 0.000000 0.000000 0.000000
# 4 0.000000 0.000000 0.000000 0.076602 0.000000 0.000000
# 5 0.000000 0.000000 0.000000 0.000000 0.051324 0.000000
# 6 0.000000 0.000000 0.000000 0.000000 0.000000 0.024205
#
#
# Mechanical properties :
#
#
# Convention : Reuss Voigt Hill
#
# Bulk Modulus (GPa) = 33.33784 36.61414 34.97599
# Shear Modulus (GPa) = 20.45685 25.11987 22.78836
#
# Velocity S-wave (km/s) = 3.19406 3.53942 3.37116
# Velocity P-wave (km/s) = 5.49804 5.91296 5.70927
#
# Compressibility (1/GPa) = 0.02999595
#
# Stress axis : x y z
#
# Youngs Moduli (GPa) = 50.01512 39.43546 92.68064
#
# Poissons Ratio (x) = 0.27058 0.08529
# Poissons Ratio (y) = 0.34317 0.49040
# Poissons Ratio (z) = 0.04603 0.20866
#
# Static dielectric constant tensor:
#      x y z
#    x 1.710930 0.000000 0.000000 
#    y 0.000000 1.730840 0.000000 
#    z 0.000000 0.000000 1.692130 
# 
# From -- ./inp_files/19875.got.cif
#   From: 2010.05.17/outbox.cif.g08.bks.cpg/sg58_10_cif.got.tgz:19875.got - 2010.06.03 14:20:14.
