data_PCOD9443584
_publ_section_title
;
Structure prediction by ZEFSAII (Michael W. Deem and Ramdas Pophale) SiO2 
 PCOD9443584
Probable space group: P N N M
;
_chemical_formula_sum "Si O2"
_cell_formula_units_Z 58
_cell_length_a 12.808388
_cell_length_b 25.069253
_cell_length_c 9.435094
_cell_angle_alpha 90.000000
_cell_angle_beta 90.000000
_cell_angle_gamma 90.000000
_cell_volume 3029.577730
_symmetry_space_group_name_H-M "P N N M"
_symmetry_group_IT_number 58
_symmetry_cell_setting 'orthorhombic'
loop_
_space_group_symop_operation_xyz
x,y,z
-x,-y,z
1/2+x,1/2-y,1/2-z
1/2-x,1/2+y,1/2-z
-x,-y,-z
x,y,-z
1/2-x,1/2+y,1/2+z
1/2+x,1/2-y,1/2+z
loop_
_atom_site_type_symbol
_atom_site_label
_atom_site_fract_x
_atom_site_fract_y
_atom_site_fract_z
Si Si1 0.556536 0.343923 0.168519
Si Si2 0.000000 0.500000 0.500000
Si Si3 0.333352 0.008574 0.256835
Si Si4 0.106992 0.030968 0.668272
Si Si5 0.178142 0.820945 0.328818
Si Si6 0.630955 0.110917 0.336179
Si Si7 0.900086 0.375787 0.836850
Si Si8 0.252909 0.701152 0.669219
O O1 0.587903 0.405925 0.184223
O O2 0.438026 0.335271 0.218784
O O3 0.635805 0.308134 0.257440
O O4 0.563989 0.331380 0.000000
O O5 0.091612 0.506807 0.378193
O O6 0.207838 0.013309 0.242474
O O7 0.366081 0.062457 0.337219
O O8 0.354424 0.952304 0.331592
O O9 0.129289 0.020388 0.500000
O O10 0.000000 0.000000 0.702826
O O11 0.174871 0.828026 0.500000
O O12 0.269161 0.859505 0.271778
O O13 0.209054 0.760095 0.300656
O O14 0.624982 0.127574 0.500000
O O15 0.517914 0.126273 0.276404
O O16 0.823920 0.342025 0.738826
O O17 0.895100 0.356534 0.000000
O O18 0.259491 0.694320 0.500000
#
# Coordination Sequence:
#
# PCOD9443584 Si02
#       8
#     8   2   8   8   8   8   8   8
#     4  10  20  39  64  89 120 154 205 256 305 369
#     4  12  28  40  56  88 136 184 210 258 312 410
#     4  12  22  39  61  89 131 165 207 255 321 375
#     4  10  20  36  65  98 120 152 201 263 323 378
#     4   9  21  40  62  91 122 160 202 258 318 373
#     4  10  20  37  64  92 118 153 201 261 311 361
#     4  11  22  37  63  94 121 157 211 260 307 370
#     4  11  24  39  61  87 124 165 204 250 315 375
#
# _framework density 19.144582
#
# number of rings (size 3 to 8) (size 9 to 14) (size 15 to 20)
#    0.000    1.517    2.759    2.483    2.897    3.310 
#    0.000    1.034    7.586    0.000    0.000    0.000 
#    0.000    0.000    0.000    0.000    0.000    0.000 
#
# Total GULP energy -323134.043119 kJ/mol
# GULP energy per Si atom -5571.276606 kJ/mol
# Density = 1.910101 g / cm^3
# Si number density = 19.144582 Si / 1000 Ang^3
#
#
#
# Elastic Constant Matrix: (Units=GPa)
#
#
# Indices 1 2 3 4 5 6 
#
# 1 196.1917 43.7535 44.5997 0.0000 0.0000 0.0000
# 2 43.7535 48.1867 22.7648 0.0000 0.0000 0.0000
# 3 44.5997 22.7648 56.2899 0.0000 0.0000 0.0000
# 4 0.0000 0.0000 0.0000 239.7985 0.0000 0.0000
# 5 0.0000 0.0000 0.0000 0.0000 27.4327 0.0000
# 6 0.0000 0.0000 0.0000 0.0000 0.0000 22.0010
#
#
#
# Elastic Compliance Matrix: (Units=1/GPa)
#
#
# Indices 1 2 3 4 5 6 
#
# 1 0.006950 -0.004585 -0.003652 0.000000 0.000000 0.000000
# 2 -0.004585 0.028679 -0.007966 0.000000 0.000000 0.000000
# 3 -0.003652 -0.007966 0.023880 0.000000 0.000000 0.000000
# 4 0.000000 0.000000 0.000000 0.004170 0.000000 0.000000
# 5 0.000000 0.000000 0.000000 0.000000 0.036453 0.000000
# 6 0.000000 0.000000 0.000000 0.000000 0.000000 0.045452
#
#
# Mechanical properties :
#
#
# Convention : Reuss Voigt Hill
#
# Bulk Modulus (GPa) = 36.89557 58.10050 47.49804
# Shear Modulus (GPa) = 26.73441 70.48312 48.60877
#
# Velocity S-wave (km/s) = 3.74096 6.07422 5.04435
# Velocity P-wave (km/s) = 6.16228 8.92239 7.66755
#
# Compressibility (1/GPa) = 0.02710352
#
# Stress axis : x y z
#
# Youngs Moduli (GPa) = 143.88840 34.86875 41.87540
#
# Poissons Ratio (x) = 0.15987 0.15294
# Poissons Ratio (y) = 0.65973 0.33356
# Poissons Ratio (z) = 0.52551 0.27775
#
# Static dielectric constant tensor:
#      x y z
#    x 1.699530 0.000000 0.000000 
#    y 0.000000 1.651310 0.000000 
#    z 0.000000 0.000000 1.644810 
# 
# From -- ./inp_files/4491.got.cif
#   From: 2010.05.17/outbox.cif.g08.bks.cpg/sg58_3_cif.got.tgz:4491.got - 2010.06.03 14:20:14.
