data_PCOD9443443
_publ_section_title
;
Structure prediction by ZEFSAII (Michael W. Deem and Ramdas Pophale) SiO2 
 PCOD9443443
Probable space group: P N N M
;
_chemical_formula_sum "Si O2"
_cell_formula_units_Z 42
_cell_length_a 9.596469
_cell_length_b 21.468054
_cell_length_c 7.727827
_cell_angle_alpha 90.000000
_cell_angle_beta 90.000000
_cell_angle_gamma 90.000000
_cell_volume 1592.067713
_symmetry_space_group_name_H-M "P N N M"
_symmetry_group_IT_number 58
_symmetry_cell_setting 'orthorhombic'
loop_
_space_group_symop_operation_xyz
x,y,z
-x,-y,z
1/2+x,1/2-y,1/2-z
1/2-x,1/2+y,1/2-z
-x,-y,-z
x,y,-z
1/2-x,1/2+y,1/2+z
1/2+x,1/2-y,1/2+z
loop_
_atom_site_type_symbol
_atom_site_label
_atom_site_fract_x
_atom_site_fract_y
_atom_site_fract_z
Si Si1 0.324976 0.052337 0.800741
Si Si2 0.088503 0.371004 0.708163
Si Si3 0.500000 0.500000 0.500000
Si Si4 0.086787 0.750052 0.709331
Si Si5 0.661185 0.326978 0.797387
Si Si6 0.649656 0.561408 0.812730
O O1 0.480618 0.072524 0.752374
O O2 0.236648 0.116258 0.796249
O O3 0.247589 0.000417 0.692410
O O4 0.320772 0.029126 0.000000
O O5 0.101994 0.369405 0.500000
O O6 0.006592 0.309633 0.764324
O O7 0.238279 0.383593 0.787910
O O8 0.548856 0.549148 0.653199
O O9 0.093597 0.750436 0.500000
O O10 0.993274 0.808695 0.762879
O O11 0.238954 0.733742 0.777852
O O12 0.658595 0.341688 0.000000
O O13 0.580818 0.566767 0.000000
#
# Coordination Sequence:
#
# PCOD9443443 Si02
#       6
#     8   8   2   8   8   8
#     4  10  20  38  64  90 121 157 196 253 317 364
#     4   9  18  37  63  88 119 157 200 255 315 363
#     4  12  26  48  58  82 136 164 202 254 304 368
#     4   9  20  38  58  84 122 163 201 251 312 367
#     4  10  20  36  58  89 120 155 207 258 301 368
#     4  12  24  41  65  91 119 164 207 251 305 369
#
# _framework density 26.380786000000001
#
# number of rings (size 3 to 8) (size 9 to 14) (size 15 to 20)
#    0.000    1.905    1.905    3.143    0.000    7.619 
#    3.429    0.000    0.000    0.000    0.000    0.000 
#    0.000    0.000    0.000    0.000    0.000    0.000 
#
# Total GULP energy -234885.083366 kJ/mol
# GULP energy per Si atom -5592.501985 kJ/mol
# Density = 2.632074 g / cm^3
# Si number density = 26.380786 Si / 1000 Ang^3
#
#
#
# Elastic Constant Matrix: (Units=GPa)
#
#
# Indices 1 2 3 4 5 6 
#
# 1 145.2042 35.8398 32.7627 0.0000 0.0000 0.0000
# 2 35.8398 56.0267 6.7314 0.0000 0.0000 0.0000
# 3 32.7627 6.7314 127.5652 0.0000 0.0000 0.0000
# 4 0.0000 0.0000 0.0000 17.8457 0.0000 0.0000
# 5 0.0000 0.0000 0.0000 0.0000 3.2213 0.0000
# 6 0.0000 0.0000 0.0000 0.0000 0.0000 65.9715
#
#
#
# Elastic Compliance Matrix: (Units=1/GPa)
#
#
# Indices 1 2 3 4 5 6 
#
# 1 0.008629 -0.005287 -0.001937 0.000000 0.000000 0.000000
# 2 -0.005287 0.021202 0.000239 0.000000 0.000000 0.000000
# 3 -0.001937 0.000239 0.008324 0.000000 0.000000 0.000000
# 4 0.000000 0.000000 0.000000 0.056036 0.000000 0.000000
# 5 0.000000 0.000000 0.000000 0.000000 0.310435 0.000000
# 6 0.000000 0.000000 0.000000 0.000000 0.000000 0.015158
#
#
# Mechanical properties :
#
#
# Convention : Reuss Voigt Hill
#
# Bulk Modulus (GPa) = 41.34865 53.27379 47.31122
# Shear Modulus (GPa) = 11.31692 34.30518 22.81105
#
# Velocity S-wave (km/s) = 2.07344 3.61000 2.94374
# Velocity P-wave (km/s) = 4.63033 6.13303 5.43388
#
# Compressibility (1/GPa) = 0.02418459
#
# Stress axis : x y z
#
# Youngs Moduli (GPa) = 115.88930 47.16533 120.13397
#
# Poissons Ratio (x) = 0.24937 0.23272
# Poissons Ratio (y) = 0.61272 -0.02872
# Poissons Ratio (z) = 0.22450 -0.01128
#
# Static dielectric constant tensor:
#      x y z
#    x 2.118400 0.000000 0.000000 
#    y 0.000000 2.128190 0.000000 
#    z 0.000000 0.000000 1.905630 
# 
# From -- ./inp_files/4124.got.cif
#   From: 2010.05.17/outbox.cif.g08.bks.cpg/sg58_3_cif.got.tgz:4124.got - 2010.06.03 14:20:14.
