data_PCOD9443364
_publ_section_title
;
Structure prediction by ZEFSAII (Michael W. Deem and Ramdas Pophale) SiO2 
 PCOD9443364
Probable space group: P N N M
;
_chemical_formula_sum "Si O2"
_cell_formula_units_Z 60
_cell_length_a 23.516146
_cell_length_b 5.537551
_cell_length_c 22.738962
_cell_angle_alpha 90.000000
_cell_angle_beta 90.000000
_cell_angle_gamma 90.000000
_cell_volume 2961.109876
_symmetry_space_group_name_H-M "P N N M"
_symmetry_group_IT_number 58
_symmetry_cell_setting 'orthorhombic'
loop_
_space_group_symop_operation_xyz
x,y,z
-x,-y,z
1/2+x,1/2-y,1/2-z
1/2-x,1/2+y,1/2-z
-x,-y,-z
x,y,-z
1/2-x,1/2+y,1/2+z
1/2+x,1/2-y,1/2+z
loop_
_atom_site_type_symbol
_atom_site_label
_atom_site_fract_x
_atom_site_fract_y
_atom_site_fract_z
Si Si1 0.718008 0.930758 0.931661
Si Si2 0.756752 0.445132 0.876252
Si Si3 0.060646 0.715576 0.721456
Si Si4 0.599213 0.044280 0.888430
Si Si5 0.476845 0.747430 0.672088
Si Si6 0.463910 0.752051 0.000000
Si Si7 0.656412 0.396329 0.795531
Si Si8 0.860017 0.601369 0.807382
O O1 0.741645 0.175917 0.899976
O O2 0.650691 0.890473 0.916677
O O3 0.749917 0.678434 0.918393
O O4 0.721579 0.985805 0.000000
O O5 0.710671 0.512673 0.825719
O O6 0.819424 0.450970 0.848692
O O7 0.057973 0.611061 0.654750
O O8 0.003149 0.748813 0.759833
O O9 0.100592 0.554492 0.763682
O O10 0.100622 0.947275 0.716348
O O11 0.571819 0.209339 0.939618
O O12 0.632887 0.207757 0.842544
O O13 0.500000 0.500000 0.646567
O O14 0.409463 0.742740 0.663202
O O15 0.500000 0.000000 0.647094
O O16 0.500000 0.500000 0.000000
O O17 0.500000 0.000000 0.000000
O O18 0.675761 0.272616 0.735333
#
# Coordination Sequence:
#
# PCOD9443364 Si02
#       8
#     8   8   8   8   8   4   8   8
#     4  11  23  44  68  87 119 161 214 270 324 367
#     4  11  25  37  63  95 121 164 209 252 329 375
#     4  10  20  38  59  89 119 168 205 241 306 372
#     4  10  23  43  60  85 116 161 215 270 310 366
#     4  10  20  36  55  82 119 165 199 234 287 356
#     4  12  30  46  60  88 116 162 220 290 324 350
#     4  10  21  35  59  86 121 166 199 254 310 374
#     4  10  23  36  56  88 133 160 203 255 301 387
#
# _framework density 20.262674000000001
#
# number of rings (size 3 to 8) (size 9 to 14) (size 15 to 20)
#    0.000    1.600    3.333    0.400    5.600    2.667 
#    0.000    0.000    0.000    0.000    0.000    0.000 
#    0.000   44.800    0.000    0.000    0.000    0.000 
#
# Total GULP energy -334016.377103 kJ/mol
# GULP energy per Si atom -5566.939618 kJ/mol
# Density = 2.021656 g / cm^3
# Si number density = 20.262674 Si / 1000 Ang^3
#
#
#
# Elastic Constant Matrix: (Units=GPa)
#
#
# Indices 1 2 3 4 5 6 
#
# 1 88.4949 10.9780 24.4669 0.0000 0.0000 0.0000
# 2 10.9780 79.4111 5.7245 0.0000 0.0000 0.0000
# 3 24.4669 5.7245 24.2358 0.0000 0.0000 0.0000
# 4 0.0000 0.0000 0.0000 17.8056 0.0000 0.0000
# 5 0.0000 0.0000 0.0000 0.0000 22.6378 0.0000
# 6 0.0000 0.0000 0.0000 0.0000 0.0000 27.7952
#
#
#
# Elastic Compliance Matrix: (Units=1/GPa)
#
#
# Indices 1 2 3 4 5 6 
#
# 1 0.015761 -0.001050 -0.015663 0.000000 0.000000 0.000000
# 2 -0.001050 0.012881 -0.001983 0.000000 0.000000 0.000000
# 3 -0.015663 -0.001983 0.057542 0.000000 0.000000 0.000000
# 4 0.000000 0.000000 0.000000 0.056162 0.000000 0.000000
# 5 0.000000 0.000000 0.000000 0.000000 0.044174 0.000000
# 6 0.000000 0.000000 0.000000 0.000000 0.000000 0.035977
#
#
# Mechanical properties :
#
#
# Convention : Reuss Voigt Hill
#
# Bulk Modulus (GPa) = 20.49499 30.49787 25.49643
# Shear Modulus (GPa) = 18.10596 23.71255 20.90925
#
# Velocity S-wave (km/s) = 2.99249 3.42461 3.21582
# Velocity P-wave (km/s) = 4.69858 5.54267 5.13799
#
# Compressibility (1/GPa) = 0.04879241
#
# Stress axis : x y z
#
# Youngs Moduli (GPa) = 63.44853 77.63532 17.37861
#
# Poissons Ratio (x) = 0.08149 0.27220
# Poissons Ratio (y) = 0.06660 0.03446
# Poissons Ratio (z) = 0.99380 0.15393
#
# Static dielectric constant tensor:
#      x y z
#    x 1.790730 0.000000 0.000000 
#    y 0.000000 1.855290 0.000000 
#    z 0.000000 0.000000 1.741410 
# 
# From -- ./inp_files/32410.got.cif
#   From: 2010.05.17/outbox.cif.g08.bks.cpg/sg58_17_cif.got.tgz:32410.got - 2010.06.03 14:20:14.
