data_PCOD9443752
_publ_section_title
;
Structure prediction by ZEFSAII (Michael W. Deem and Ramdas Pophale) SiO2 
 PCOD9443752
Probable space group: P N N M
;
_chemical_formula_sum "Si O2"
_cell_formula_units_Z 64
_cell_length_a 12.108889
_cell_length_b 10.477099
_cell_length_c 24.336983
_cell_angle_alpha 90.000000
_cell_angle_beta 90.000000
_cell_angle_gamma 90.000000
_cell_volume 3087.536387
_symmetry_space_group_name_H-M "P N N M"
_symmetry_group_IT_number 58
_symmetry_cell_setting 'orthorhombic'
loop_
_space_group_symop_operation_xyz
x,y,z
-x,-y,z
1/2+x,1/2-y,1/2-z
1/2-x,1/2+y,1/2-z
-x,-y,-z
x,y,-z
1/2-x,1/2+y,1/2+z
1/2+x,1/2-y,1/2+z
loop_
_atom_site_type_symbol
_atom_site_label
_atom_site_fract_x
_atom_site_fract_y
_atom_site_fract_z
Si Si1 0.654603 0.590019 0.436540
Si Si2 0.668371 0.212092 0.140740
Si Si3 0.261970 0.355940 0.862374
Si Si4 0.564490 0.314061 0.601411
Si Si5 0.063703 0.127915 0.775904
Si Si6 0.952709 0.318333 0.306081
Si Si7 0.120544 0.059171 0.438600
Si Si8 0.784230 0.416933 0.777715
O O1 0.689359 0.588403 0.500000
O O2 0.749051 0.626063 0.394028
O O3 0.552224 0.690173 0.430001
O O4 0.613021 0.449417 0.418978
O O5 0.561139 0.131337 0.161253
O O6 0.619114 0.315903 0.098692
O O7 0.745336 0.297259 0.183089
O O8 0.162639 0.287957 0.895526
O O9 0.354734 0.254034 0.840571
O O10 0.312041 0.454527 0.905334
O O11 0.223348 0.449022 0.811313
O O12 0.534614 0.316039 0.665651
O O13 0.190879 0.092383 0.769255
O O14 0.020325 0.209410 0.726025
O O15 0.000000 0.000000 0.771219
O O16 0.895754 0.397313 0.256686
O O17 0.163406 0.085118 0.500000
O O18 0.000000 0.000000 0.442808
#
# Coordination Sequence:
#
# PCOD9443752 Si02
#       8
#     8   8   8   8   8   8   8   8
#     4  11  24  45  71  93 122 171 230 280 338 397
#     4  10  22  40  68  93 133 169 221 274 328 390
#     4  11  22  39  63  98 134 170 217 274 326 394
#     4  11  23  41  67  92 125 172 226 277 328 399
#     4  11  19  34  62  86 129 173 217 257 310 385
#     4  11  21  38  63  96 130 178 211 259 328 397
#     4  10  20  37  64  95 129 174 222 273 331 390
#     4  10  22  36  63  96 134 174 214 260 323 392
#
# _framework density 20.7285
#
# number of rings (size 3 to 8) (size 9 to 14) (size 15 to 20)
#    0.000    1.375    5.000    1.875    0.000    1.000 
#    0.000    7.500    0.000    4.500    0.000    0.000 
#    0.000    0.000    0.000    0.000    0.000    0.000 
#
# Total GULP energy -356698.540468 kJ/mol
# GULP energy per Si atom -5573.414695 kJ/mol
# Density = 2.068132 g / cm^3
# Si number density = 20.728500 Si / 1000 Ang^3
#
#
#
# Elastic Constant Matrix: (Units=GPa)
#
#
# Indices 1 2 3 4 5 6 
#
# 1 134.8674 41.6657 39.4175 0.0000 0.0000 0.0000
# 2 41.6657 31.8593 12.8833 0.0000 0.0000 0.0000
# 3 39.4175 12.8833 92.4166 0.0000 0.0000 0.0000
# 4 0.0000 0.0000 0.0000 21.1772 0.0000 0.0000
# 5 0.0000 0.0000 0.0000 0.0000 33.8565 0.0000
# 6 0.0000 0.0000 0.0000 0.0000 0.0000 34.4979
#
#
#
# Elastic Compliance Matrix: (Units=1/GPa)
#
#
# Indices 1 2 3 4 5 6 
#
# 1 0.013416 -0.016142 -0.003472 0.000000 0.000000 0.000000
# 2 -0.016142 0.052684 -0.000460 0.000000 0.000000 0.000000
# 3 -0.003472 -0.000460 0.012366 0.000000 0.000000 0.000000
# 4 0.000000 0.000000 0.000000 0.047221 0.000000 0.000000
# 5 0.000000 0.000000 0.000000 0.000000 0.029536 0.000000
# 6 0.000000 0.000000 0.000000 0.000000 0.000000 0.028987
#
#
# Mechanical properties :
#
#
# Convention : Reuss Voigt Hill
#
# Bulk Modulus (GPa) = 26.09670 49.67514 37.88592
# Shear Modulus (GPa) = 21.08543 28.91810 25.00176
#
# Velocity S-wave (km/s) = 3.19285 3.73914 3.47674
# Velocity P-wave (km/s) = 5.11952 6.53133 5.86804
#
# Compressibility (1/GPa) = 0.03831903
#
# Stress axis : x y z
#
# Youngs Moduli (GPa) = 74.53609 18.98099 80.86987
#
# Poissons Ratio (x) = 0.30639 0.28079
# Poissons Ratio (y) = 1.20315 0.03717
# Poissons Ratio (z) = 0.25879 0.00872
#
# Static dielectric constant tensor:
#      x y z
#    x 1.805630 0.000000 0.000000 
#    y 0.000000 1.752360 0.000000 
#    z 0.000000 0.000000 1.729910 
# 
# From -- ./inp_files/32054.got.cif
#   From: 2010.05.17/outbox.cif.g08.bks.cpg/sg58_17_cif.got.tgz:32054.got - 2010.06.03 14:20:14.
