data_PCOD9443908
_publ_section_title
;
Structure prediction by ZEFSAII (Michael W. Deem and Ramdas Pophale) SiO2 
 PCOD9443908
Probable space group: P N N M
;
_chemical_formula_sum "Si O2"
_cell_formula_units_Z 40
_cell_length_a 8.830279
_cell_length_b 11.296991
_cell_length_c 19.388176
_cell_angle_alpha 90.000000
_cell_angle_beta 90.000000
_cell_angle_gamma 90.000000
_cell_volume 1934.078788
_symmetry_space_group_name_H-M "P N N M"
_symmetry_group_IT_number 58
_symmetry_cell_setting 'orthorhombic'
loop_
_space_group_symop_operation_xyz
x,y,z
-x,-y,z
1/2+x,1/2-y,1/2-z
1/2-x,1/2+y,1/2-z
-x,-y,-z
x,y,-z
1/2-x,1/2+y,1/2+z
1/2+x,1/2-y,1/2+z
loop_
_atom_site_type_symbol
_atom_site_label
_atom_site_fract_x
_atom_site_fract_y
_atom_site_fract_z
Si Si1 0.738843 0.251397 0.420792
Si Si2 0.820534 0.993115 0.583050
Si Si3 0.739281 0.778820 0.324760
Si Si4 0.942189 0.865272 0.198709
Si Si5 0.563014 0.131425 0.922396
O O1 0.686514 0.259764 0.500000
O O2 0.647368 0.338363 0.371846
O O3 0.916199 0.284831 0.420171
O O4 0.737112 0.115045 0.397293
O O5 0.816950 0.982673 0.500000
O O6 0.739421 0.883020 0.618666
O O7 0.000000 0.000000 0.602685
O O8 0.832242 0.832041 0.261266
O O9 0.581142 0.726631 0.300158
O O10 0.825013 0.671400 0.363062
O O11 0.000000 0.000000 0.202987
O O12 0.500000 0.000000 0.913284
O O13 0.629794 0.140103 0.000000
#
# Coordination Sequence:
#
# PCOD9443908 Si02
#       5
#     8   8   8   8   8
#     4  10  22  43  69 100 134 168 217 273 332 391
#     4  10  20  40  74 104 131 169 217 277 330 387
#     4  12  25  42  67  93 133 176 222 273 327 394
#     4  12  29  46  64  95 133 179 221 273 333 390
#     4  10  20  38  67  99 130 171 218 264 323 399
#
# _framework density 20.681681000000001
#
# number of rings (size 3 to 8) (size 9 to 14) (size 15 to 20)
#    0.000    1.200    2.000    3.600    2.800    2.800 
#    0.000    2.000    0.000    0.000    0.000    0.000 
#    0.000    0.000    0.000    0.000    0.000    0.000 
#
# Total GULP energy -223730.395689 kJ/mol
# GULP energy per Si atom -5593.259892 kJ/mol
# Density = 2.063461 g / cm^3
# Si number density = 20.681681 Si / 1000 Ang^3
#
#
#
# Elastic Constant Matrix: (Units=GPa)
#
#
# Indices 1 2 3 4 5 6 
#
# 1 32.7435 -12.6969 5.9062 0.0000 0.0000 0.0000
# 2 -12.6969 53.2060 1.3358 0.0000 0.0000 0.0000
# 3 5.9062 1.3358 52.2938 0.0000 0.0000 0.0000
# 4 0.0000 0.0000 0.0000 36.7692 0.0000 0.0000
# 5 0.0000 0.0000 0.0000 0.0000 15.2752 0.0000
# 6 0.0000 0.0000 0.0000 0.0000 0.0000 21.9309
#
#
#
# Elastic Compliance Matrix: (Units=1/GPa)
#
#
# Indices 1 2 3 4 5 6 
#
# 1 0.034516 0.008340 -0.004111 0.000000 0.000000 0.000000
# 2 0.008340 0.020822 -0.001474 0.000000 0.000000 0.000000
# 3 -0.004111 -0.001474 0.019625 0.000000 0.000000 0.000000
# 4 0.000000 0.000000 0.000000 0.027197 0.000000 0.000000
# 5 0.000000 0.000000 0.000000 0.000000 0.065466 0.000000
# 6 0.000000 0.000000 0.000000 0.000000 0.000000 0.045598
#
#
# Mechanical properties :
#
#
# Convention : Reuss Voigt Hill
#
# Bulk Modulus (GPa) = 12.42662 14.14817 13.28740
# Shear Modulus (GPa) = 21.31856 24.37494 22.84675
#
# Velocity S-wave (km/s) = 3.21408 3.43676 3.32729
# Velocity P-wave (km/s) = 4.44919 4.75439 4.60432
#
# Compressibility (1/GPa) = 0.08047239
#
# Stress axis : x y z
#
# Youngs Moduli (GPa) = 28.97207 48.02591 50.95611
#
# Poissons Ratio (x) = -0.40054 0.20950
# Poissons Ratio (y) = -0.24163 0.07510
# Poissons Ratio (z) = 0.11912 0.07078
#
# Static dielectric constant tensor:
#      x y z
#    x 1.733520 0.000000 0.000000 
#    y 0.000000 1.754040 0.000000 
#    z 0.000000 0.000000 1.729240 
# 
# From -- ./inp_files/24926.got.cif
#   From: 2010.05.17/outbox.cif.g08.bks.cpg/sg58_13_cif.got.tgz:24926.got - 2010.06.03 14:20:14.
