data_PCOD9443626
_publ_section_title
;
Structure prediction by ZEFSAII (Michael W. Deem and Ramdas Pophale) SiO2 
 PCOD9443626
Probable space group: P N N M
;
_chemical_formula_sum "Si O2"
_cell_formula_units_Z 48
_cell_length_a 30.212880
_cell_length_b 8.646549
_cell_length_c 8.642743
_cell_angle_alpha 90.000000
_cell_angle_beta 90.000000
_cell_angle_gamma 90.000000
_cell_volume 2257.805527
_symmetry_space_group_name_H-M "P N N M"
_symmetry_group_IT_number 58
_symmetry_cell_setting 'orthorhombic'
loop_
_space_group_symop_operation_xyz
x,y,z
-x,-y,z
1/2+x,1/2-y,1/2-z
1/2-x,1/2+y,1/2-z
-x,-y,-z
x,y,-z
1/2-x,1/2+y,1/2+z
1/2+x,1/2-y,1/2+z
loop_
_atom_site_type_symbol
_atom_site_label
_atom_site_fract_x
_atom_site_fract_y
_atom_site_fract_z
Si Si1 0.687673 0.277462 0.316041
Si Si2 0.391537 0.894220 0.817242
Si Si3 0.937092 0.103443 0.812143
Si Si4 0.853033 0.289113 0.813142
Si Si5 0.972152 0.765461 0.813395
Si Si6 0.231759 0.895315 0.186834
O O1 0.681088 0.278052 0.500000
O O2 0.640815 0.243648 0.238194
O O3 0.722207 0.144498 0.267002
O O4 0.710361 0.439787 0.271901
O O5 0.440815 0.865165 0.754609
O O6 0.369687 0.048499 0.749296
O O7 0.392007 0.901947 0.000000
O O8 0.889372 0.162179 0.762232
O O9 0.976558 0.220527 0.765658
O O10 0.950855 0.930990 0.765825
O O11 0.937081 0.101268 0.000000
O O12 0.804368 0.234031 0.766358
O O13 0.853285 0.294419 0.000000
O O14 0.970809 0.754506 0.000000
O O15 0.237483 0.891699 0.000000
#
# Coordination Sequence:
#
# PCOD9443626 Si02
#       6
#     8   8   8   8   8   8
#     4  11  23  40  62  85 112 147 185 227 276 331
#     4  12  25  38  53  80 116 151 190 233 277 327
#     4   8  16  33  61  89 110 140 187 235 275 330
#     4  10  20  37  59  83 113 149 187 227 275 328
#     4   9  17  35  61  86 111 143 186 233 281 331
#     4  10  22  39  61  89 116 142 180 229 277 329
#
# _framework density 21.25958
#
# number of rings (size 3 to 8) (size 9 to 14) (size 15 to 20)
#    0.000    2.000    0.000    5.000    0.000    8.000 
#    0.000    8.333    0.000    0.000    0.000    0.000 
#    0.000    0.000    0.000    0.000    0.000    0.000 
#
# Total GULP energy -268295.446072 kJ/mol
# GULP energy per Si atom -5589.488460 kJ/mol
# Density = 2.121119 g / cm^3
# Si number density = 21.259580 Si / 1000 Ang^3
#
#
#
# Elastic Constant Matrix: (Units=GPa)
#
#
# Indices 1 2 3 4 5 6 
#
# 1 65.7621 -21.5406 4.3596 0.0000 0.0000 0.0000
# 2 -21.5406 34.6416 -4.1290 0.0000 0.0000 0.0000
# 3 4.3596 -4.1290 16.8144 0.0000 0.0000 0.0000
# 4 0.0000 0.0000 0.0000 14.5691 0.0000 0.0000
# 5 0.0000 0.0000 0.0000 0.0000 5.2386 0.0000
# 6 0.0000 0.0000 0.0000 0.0000 0.0000 34.6063
#
#
#
# Elastic Compliance Matrix: (Units=1/GPa)
#
#
# Indices 1 2 3 4 5 6 
#
# 1 0.019168 0.011668 -0.002105 0.000000 0.000000 0.000000
# 2 0.011668 0.036840 0.006021 0.000000 0.000000 0.000000
# 3 -0.002105 0.006021 0.061497 0.000000 0.000000 0.000000
# 4 0.000000 0.000000 0.000000 0.068638 0.000000 0.000000
# 5 0.000000 0.000000 0.000000 0.000000 0.190891 0.000000
# 6 0.000000 0.000000 0.000000 0.000000 0.000000 0.028896
#
#
# Mechanical properties :
#
#
# Convention : Reuss Voigt Hill
#
# Bulk Modulus (GPa) = 6.72612 8.28867 7.50739
# Shear Modulus (GPa) = 11.78356 20.11801 15.95079
#
# Velocity S-wave (km/s) = 2.35685 3.07954 2.74211
# Velocity P-wave (km/s) = 3.25223 4.06842 3.68300
#
# Compressibility (1/GPa) = 0.14867415
#
# Stress axis : x y z
#
# Youngs Moduli (GPa) = 52.17110 27.14446 16.26091
#
# Poissons Ratio (x) = -0.31672 0.03422
# Poissons Ratio (y) = -0.60873 -0.09791
# Poissons Ratio (z) = 0.10980 -0.16345
#
# Static dielectric constant tensor:
#      x y z
#    x 1.761200 0.000000 0.000000 
#    y 0.000000 1.796430 0.000000 
#    z 0.000000 0.000000 1.711400 
# 
# From -- ./inp_files/2899.got.cif
#   From: 2010.05.17/outbox.cif.g08.bks.cpg/sg58_2_cif.got.tgz:2899.got - 2010.06.03 14:20:14.
