data_PCOD9443133
_publ_section_title
;
Structure prediction by ZEFSAII (Michael W. Deem and Ramdas Pophale) SiO2 
 PCOD9443133
Probable space group: P N N M
;
_chemical_formula_sum "Si O2"
_cell_formula_units_Z 56
_cell_length_a 22.232504
_cell_length_b 15.977276
_cell_length_c 9.305510
_cell_angle_alpha 90.000000
_cell_angle_beta 90.000000
_cell_angle_gamma 90.000000
_cell_volume 3305.455363
_symmetry_space_group_name_H-M "P N N M"
_symmetry_group_IT_number 58
_symmetry_cell_setting 'orthorhombic'
loop_
_space_group_symop_operation_xyz
x,y,z
-x,-y,z
1/2+x,1/2-y,1/2-z
1/2-x,1/2+y,1/2-z
-x,-y,-z
x,y,-z
1/2-x,1/2+y,1/2+z
1/2+x,1/2-y,1/2+z
loop_
_atom_site_type_symbol
_atom_site_label
_atom_site_fract_x
_atom_site_fract_y
_atom_site_fract_z
Si Si1 0.060034 0.544900 0.665673
Si Si2 0.315816 0.059446 0.672517
Si Si3 0.982270 0.869207 0.169664
Si Si4 0.311268 0.235203 0.173865
Si Si5 0.550794 0.757542 0.838020
Si Si6 0.217031 0.918321 0.328108
Si Si7 0.900394 0.013853 0.828795
O O1 0.072119 0.517645 0.500000
O O2 0.119136 0.536253 0.762108
O O3 0.045562 0.643145 0.660269
O O4 0.000000 0.500000 0.718971
O O5 0.318795 0.070365 0.500000
O O6 0.296673 0.147993 0.746536
O O7 0.270443 0.983138 0.705209
O O8 0.998587 0.784102 0.247007
O O9 0.042340 0.925270 0.191706
O O10 0.975563 0.856865 0.000000
O O11 0.925103 0.923033 0.219695
O O12 0.380710 0.257412 0.213746
O O13 0.274380 0.319679 0.209552
O O14 0.309921 0.221115 0.000000
O O15 0.547353 0.723909 0.000000
O O16 0.207977 0.919303 0.500000
O O17 0.157307 0.953071 0.252736
O O18 0.888683 0.010643 0.000000
#
# Coordination Sequence:
#
# PCOD9443133 Si02
#       7
#     8   8   8   8   8   8   8
#     4   9  19  37  57  75  99 132 169 209 254 307
#     4  10  21  35  54  81 107 130 168 220 262 301
#     4   9  17  29  44  70 104 132 162 204 246 287
#     4   9  18  34  53  73 101 137 174 210 253 309
#     4   9  16  28  50  75  96 128 171 207 247 298
#     4  10  20  35  53  75 104 138 174 213 255 302
#     4   9  18  30  46  70 102 136 167 199 242 296
#
# _framework density 16.941689
#
# number of rings (size 3 to 8) (size 9 to 14) (size 15 to 20)
#    0.000    2.714    1.429    2.143    0.000    4.857 
#    0.000    2.857    0.000    6.857    0.000    0.000 
#    0.000    0.000    0.000    0.000    0.000    0.000 
#
# Total GULP energy -311790.905992 kJ/mol
# GULP energy per Si atom -5567.694750 kJ/mol
# Density = 1.690313 g / cm^3
# Si number density = 16.941689 Si / 1000 Ang^3
#
#
#
# Elastic Constant Matrix: (Units=GPa)
#
#
# Indices 1 2 3 4 5 6 
#
# 1 68.9512 62.8920 38.6107 0.0000 0.0000 0.0000
# 2 62.8920 100.1417 38.9824 0.0000 0.0000 0.0000
# 3 38.6107 38.9824 32.6978 0.0000 0.0000 0.0000
# 4 0.0000 0.0000 0.0000 23.0380 0.0000 0.0000
# 5 0.0000 0.0000 0.0000 0.0000 7.7800 0.0000
# 6 0.0000 0.0000 0.0000 0.0000 0.0000 33.0069
#
#
#
# Elastic Compliance Matrix: (Units=1/GPa)
#
#
# Indices 1 2 3 4 5 6 
#
# 1 0.055366 -0.017394 -0.044641 0.000000 0.000000 0.000000
# 2 -0.017394 0.024098 -0.008190 0.000000 0.000000 0.000000
# 3 -0.044641 -0.008190 0.093062 0.000000 0.000000 0.000000
# 4 0.000000 0.000000 0.000000 0.043407 0.000000 0.000000
# 5 0.000000 0.000000 0.000000 0.000000 0.128535 0.000000
# 6 0.000000 0.000000 0.000000 0.000000 0.000000 0.030297
#
#
# Mechanical properties :
#
#
# Convention : Reuss Voigt Hill
#
# Bulk Modulus (GPa) = 31.17713 53.64009 42.40861
# Shear Modulus (GPa) = 9.50738 16.85201 13.17969
#
# Velocity S-wave (km/s) = 2.37150 3.15732 2.79219
# Velocity P-wave (km/s) = 5.09325 6.70983 5.95664
#
# Compressibility (1/GPa) = 0.03207479
#
# Stress axis : x y z
#
# Youngs Moduli (GPa) = 18.06151 41.49699 10.74558
#
# Poissons Ratio (x) = 0.72180 0.47970
# Poissons Ratio (y) = 0.31416 0.08801
# Poissons Ratio (z) = 0.80629 0.33987
#
# Static dielectric constant tensor:
#      x y z
#    x 1.553430 0.000000 0.000000 
#    y 0.000000 1.621160 0.000000 
#    z 0.000000 0.000000 1.578100 
# 
# From -- ./inp_files/9188.got.cif
#   From: 2010.05.17/outbox.cif.g08.bks.cpg/sg58_5_cif.got.tgz:9188.got - 2010.06.03 14:20:14.
