data_PCOD9443287
_publ_section_title
;
Structure prediction by ZEFSAII (Michael W. Deem and Ramdas Pophale) SiO2 
 PCOD9443287
Probable space group: P N N M
;
_chemical_formula_sum "Si O2"
_cell_formula_units_Z 40
_cell_length_a 22.285016
_cell_length_b 7.084249
_cell_length_c 10.826050
_cell_angle_alpha 90.000000
_cell_angle_beta 90.000000
_cell_angle_gamma 90.000000
_cell_volume 1709.136686
_symmetry_space_group_name_H-M "P N N M"
_symmetry_group_IT_number 58
_symmetry_cell_setting 'orthorhombic'
loop_
_space_group_symop_operation_xyz
x,y,z
-x,-y,z
1/2+x,1/2-y,1/2-z
1/2-x,1/2+y,1/2-z
-x,-y,-z
x,y,-z
1/2-x,1/2+y,1/2+z
1/2+x,1/2-y,1/2+z
loop_
_atom_site_type_symbol
_atom_site_label
_atom_site_fract_x
_atom_site_fract_y
_atom_site_fract_z
Si Si1 0.606901 0.731499 0.762837
Si Si2 0.811127 0.854944 0.000000
Si Si3 0.519600 0.218204 0.858848
Si Si4 0.176535 0.696507 0.500000
Si Si5 0.783241 0.861831 0.500000
Si Si6 0.355773 0.222652 0.500000
Si Si7 0.647979 0.307544 0.240675
O O1 0.538653 0.685419 0.799335
O O2 0.637308 0.840733 0.877590
O O3 0.611911 0.826706 0.628838
O O4 0.642757 0.535410 0.755232
O O5 0.826113 0.748382 0.127171
O O6 0.740765 0.901885 0.000000
O O7 0.849217 0.048213 0.000000
O O8 0.580867 0.238544 0.784869
O O9 0.500000 0.000000 0.862082
O O10 0.529658 0.283397 0.000000
O O11 0.193596 0.920639 0.500000
O O12 0.711908 0.852387 0.500000
O O13 0.809847 0.767734 0.376169
#
# Coordination Sequence:
#
# PCOD9443287 Si02
#       7
#     8   4   8   4   4   4   8
#     4  10  21  38  59  83 113 150 187 225 275 333
#     4  10  22  37  56  85 117 148 184 228 277 326
#     4  11  23  38  59  86 110 140 187 238 282 325
#     4  10  20  35  58  83 111 152 192 224 269 328
#     4  10  20  35  58  83 111 152 192 224 269 328
#     4  10  22  37  56  85 117 148 184 228 277 326
#     4  10  21  38  59  83 113 150 187 225 275 333
#
# _framework density 23.403627
#
# number of rings (size 3 to 8) (size 9 to 14) (size 15 to 20)
#    0.000    1.800    2.000    1.800    0.000    4.800 
#    0.000    4.000    0.000    0.000    0.000    0.000 
#    0.000    0.000    0.000    0.000    0.000    0.000 
#
# Total GULP energy -223830.986383 kJ/mol
# GULP energy per Si atom -5595.774660 kJ/mol
# Density = 2.335036 g / cm^3
# Si number density = 23.403627 Si / 1000 Ang^3
#
#
#
# Elastic Constant Matrix: (Units=GPa)
#
#
# Indices 1 2 3 4 5 6 
#
# 1 115.4654 -26.1797 96.5418 0.0000 0.0000 0.0000
# 2 -26.1797 38.3598 9.7943 0.0000 0.0000 0.0000
# 3 96.5418 9.7943 251.7501 0.0000 0.0000 0.0000
# 4 0.0000 0.0000 0.0000 -0.1821 0.0000 0.0000
# 5 0.0000 0.0000 0.0000 0.0000 -119.9402 0.0000
# 6 0.0000 0.0000 0.0000 0.0000 0.0000 33.9374
#
#
#
# Elastic Compliance Matrix: (Units=1/GPa)
#
#
# Indices 1 2 3 4 5 6 
#
# 1 0.018232 0.014371 -0.007551 0.000000 0.000000 0.000000
# 2 0.014371 0.037658 -0.006976 0.000000 0.000000 0.000000
# 3 -0.007551 -0.006976 0.007139 0.000000 0.000000 0.000000
# 4 0.000000 0.000000 0.000000 -5.492014 0.000000 0.000000
# 5 0.000000 0.000000 0.000000 0.000000 -0.008337 0.000000
# 6 0.000000 0.000000 0.000000 0.000000 0.000000 0.029466
#
#
# Mechanical properties :
#
#
# Convention : Reuss Voigt Hill
#
# Bulk Modulus (GPa) = 15.94444 62.87646 39.41045
# Shear Modulus (GPa) = -0.92822 4.45761 1.76470
#
# Velocity S-wave (km/s) = -0.63046 1.38159 0.86929
# Velocity P-wave (km/s) = 2.50951 5.42858 4.22890
#
# Compressibility (1/GPa) = 0.06271780
#
# Stress axis : x y z
#
# Youngs Moduli (GPa) = 54.84751 26.55473 140.07098
#
# Poissons Ratio (x) = -0.38162 1.05766
# Poissons Ratio (y) = -0.78822 0.97716
# Poissons Ratio (z) = 0.41415 0.18525
#
# Static dielectric constant tensor:
#      x y z
#    x 1.790790 0.000000 0.000000 
#    y 0.000000 1.976130 0.000000 
#    z 0.000000 0.000000 1.885490 
# 
# From -- ./inp_files/9644.got.cif
#   From: 2010.05.17/outbox.cif.g08.bks.cpg/sg58_5_cif.got.tgz:9644.got - 2010.06.03 14:20:14.
