data_PCOD9443860
_publ_section_title
;
Structure prediction by ZEFSAII (Michael W. Deem and Ramdas Pophale) SiO2 
 PCOD9443860
Probable space group: P N N M
;
_chemical_formula_sum "Si O2"
_cell_formula_units_Z 36
_cell_length_a 9.731635
_cell_length_b 20.351980
_cell_length_c 7.778451
_cell_angle_alpha 90.000000
_cell_angle_beta 90.000000
_cell_angle_gamma 90.000000
_cell_volume 1540.584766
_symmetry_space_group_name_H-M "P N N M"
_symmetry_group_IT_number 58
_symmetry_cell_setting 'orthorhombic'
loop_
_space_group_symop_operation_xyz
x,y,z
-x,-y,z
1/2+x,1/2-y,1/2-z
1/2-x,1/2+y,1/2-z
-x,-y,-z
x,y,-z
1/2-x,1/2+y,1/2+z
1/2+x,1/2-y,1/2+z
loop_
_atom_site_type_symbol
_atom_site_label
_atom_site_fract_x
_atom_site_fract_y
_atom_site_fract_z
Si Si1 0.789241 0.104453 0.210072
Si Si2 0.493851 0.278772 0.294849
Si Si3 0.482854 0.128771 0.801622
Si Si4 0.316624 0.607738 0.805541
Si Si5 0.000000 0.000000 0.752727
O O1 0.863834 0.174058 0.244097
O O2 0.630856 0.104991 0.262388
O O3 0.797726 0.093753 0.000000
O O4 0.877066 0.048711 0.304282
O O5 0.500438 0.270103 0.500000
O O6 0.484276 0.207840 0.211225
O O7 0.626943 0.319519 0.232938
O O8 0.345742 0.104235 0.710979
O O9 0.471348 0.109085 0.000000
O O10 0.399952 0.558650 0.682607
O O11 0.358015 0.589571 0.000000
#
# Coordination Sequence:
#
# PCOD9443860 Si02
#       5
#     8   8   8   8   4
#     4   9  20  37  60  86 116 151 194 245 298 357
#     4  10  20  38  63  91 120 156 195 239 297 359
#     4  11  22  37  59  92 124 154 193 244 302 360
#     4  11  23  40  60  86 120 159 200 246 294 353
#     4  10  22  42  62  80 109 158 209 252 301 352
#
# _framework density 23.367749
#
# number of rings (size 3 to 8) (size 9 to 14) (size 15 to 20)
#    0.000    1.778    0.000    4.000    0.000    5.333 
#    0.000   15.556    0.000    0.000    0.000    0.000 
#    0.000    0.000    0.000    0.000    0.000    0.000 
#
# Total GULP energy -200795.189219 kJ/mol
# GULP energy per Si atom -5577.644145 kJ/mol
# Density = 2.331456 g / cm^3
# Si number density = 23.367749 Si / 1000 Ang^3
#
#
#
# Elastic Constant Matrix: (Units=GPa)
#
#
# Indices 1 2 3 4 5 6 
#
# 1 211.2484 35.1926 23.9842 0.0000 0.0000 0.0000
# 2 35.1926 78.6405 -3.2776 0.0000 0.0000 0.0000
# 3 23.9842 -3.2776 77.1077 0.0000 0.0000 0.0000
# 4 0.0000 0.0000 0.0000 -32.5770 0.0000 0.0000
# 5 0.0000 0.0000 0.0000 0.0000 12.6380 0.0000
# 6 0.0000 0.0000 0.0000 0.0000 0.0000 3.2433
#
#
#
# Elastic Compliance Matrix: (Units=1/GPa)
#
#
# Indices 1 2 3 4 5 6 
#
# 1 0.005345 -0.002466 -0.001767 0.000000 0.000000 0.000000
# 2 -0.002466 0.013876 0.001357 0.000000 0.000000 0.000000
# 3 -0.001767 0.001357 0.013576 0.000000 0.000000 0.000000
# 4 0.000000 0.000000 0.000000 -0.030696 0.000000 0.000000
# 5 0.000000 0.000000 0.000000 0.000000 0.079127 0.000000
# 6 0.000000 0.000000 0.000000 0.000000 0.000000 0.308327
#
#
# Mechanical properties :
#
#
# Convention : Reuss Voigt Hill
#
# Bulk Modulus (GPa) = 36.97559 53.19944 45.08751
# Shear Modulus (GPa) = 12.36636 17.40068 14.88352
#
# Velocity S-wave (km/s) = 2.30294 2.73178 2.52648
# Velocity P-wave (km/s) = 4.78843 5.72414 5.27707
#
# Compressibility (1/GPa) = 0.02704487
#
# Stress axis : x y z
#
# Youngs Moduli (GPa) = 187.08388 72.06651 73.65777
#
# Poissons Ratio (x) = 0.17769 0.13018
# Poissons Ratio (y) = 0.46129 -0.09994
# Poissons Ratio (z) = 0.33066 -0.09778
#
# Static dielectric constant tensor:
#      x y z
#    x 1.848380 0.000000 0.000000 
#    y 0.000000 1.834380 0.000000 
#    z 0.000000 0.000000 2.008500 
# 
# From -- ./inp_files/2269.got.cif
#   From: 2010.05.17/outbox.cif.g08.bks.cpg/sg58_2_cif.got.tgz:2269.got - 2010.06.03 14:20:14.
