data_PCOD9443542
_publ_section_title
;
Structure prediction by ZEFSAII (Michael W. Deem and Ramdas Pophale) SiO2 
 PCOD9443542
Probable space group: P N N M
;
_chemical_formula_sum "Si O2"
_cell_formula_units_Z 40
_cell_length_a 19.445646
_cell_length_b 10.836530
_cell_length_c 9.054142
_cell_angle_alpha 90.000000
_cell_angle_beta 90.000000
_cell_angle_gamma 90.000000
_cell_volume 1907.918919
_symmetry_space_group_name_H-M "P N N M"
_symmetry_group_IT_number 58
_symmetry_cell_setting 'orthorhombic'
loop_
_space_group_symop_operation_xyz
x,y,z
-x,-y,z
1/2+x,1/2-y,1/2-z
1/2-x,1/2+y,1/2-z
-x,-y,-z
x,y,-z
1/2-x,1/2+y,1/2+z
1/2+x,1/2-y,1/2+z
loop_
_atom_site_type_symbol
_atom_site_label
_atom_site_fract_x
_atom_site_fract_y
_atom_site_fract_z
Si Si1 0.292881 0.869276 0.676192
Si Si2 0.416742 0.504198 0.667218
Si Si3 0.079857 0.750363 0.323936
Si Si4 0.080113 0.259993 0.675988
Si Si5 0.785267 0.383050 0.324171
O O1 0.293838 0.877067 0.500000
O O2 0.369058 0.852241 0.742007
O O3 0.253222 0.743397 0.717334
O O4 0.261519 0.994039 0.742641
O O5 0.500000 0.500000 0.659704
O O6 0.390186 0.519202 0.500000
O O7 0.397943 0.374282 0.739488
O O8 0.400992 0.622910 0.766199
O O9 0.082983 0.775802 0.500000
O O10 0.134439 0.644094 0.291314
O O11 0.000610 0.719969 0.288773
O O12 0.088708 0.268473 0.500000
O O13 0.778022 0.399977 0.500000
#
# Coordination Sequence:
#
# PCOD9443542 Si02
#       5
#     8   8   8   8   8
#     4  11  25  43  64  93 126 162 206 255 312 372
#     4   9  17  30  52  87 126 159 196 248 307 361
#     4   9  19  37  61  89 120 161 210 255 305 368
#     4  10  20  36  61  89 122 163 206 253 307 368
#     4  10  24  45  65  89 123 163 208 255 306 370
#
# _framework density 20.965252
#
# number of rings (size 3 to 8) (size 9 to 14) (size 15 to 20)
#    0.000    2.200    0.000    1.800    2.800    6.400 
#    0.000    4.000    0.000    0.000    0.000    0.000 
#    0.000    0.000    0.000    0.000    0.000    0.000 
#
# Total GULP energy -223540.334839 kJ/mol
# GULP energy per Si atom -5588.508371 kJ/mol
# Density = 2.091753 g / cm^3
# Si number density = 20.965252 Si / 1000 Ang^3
#
#
#
# Elastic Constant Matrix: (Units=GPa)
#
#
# Indices 1 2 3 4 5 6 
#
# 1 92.6076 55.6170 36.4859 0.0000 0.0000 0.0000
# 2 55.6170 147.6912 56.6792 0.0000 0.0000 0.0000
# 3 36.4859 56.6792 45.9361 0.0000 0.0000 0.0000
# 4 0.0000 0.0000 0.0000 31.2795 0.0000 0.0000
# 5 0.0000 0.0000 0.0000 0.0000 -37.2743 0.0000
# 6 0.0000 0.0000 0.0000 0.0000 0.0000 31.9741
#
#
#
# Elastic Compliance Matrix: (Units=1/GPa)
#
#
# Indices 1 2 3 4 5 6 
#
# 1 0.016082 -0.002192 -0.010069 0.000000 0.000000 0.000000
# 2 -0.002192 0.013159 -0.014496 0.000000 0.000000 0.000000
# 3 -0.010069 -0.014496 0.047653 0.000000 0.000000 0.000000
# 4 0.000000 0.000000 0.000000 0.031970 0.000000 0.000000
# 5 0.000000 0.000000 0.000000 0.000000 -0.026828 0.000000
# 6 0.000000 0.000000 0.000000 0.000000 0.000000 0.031275
#
#
# Mechanical properties :
#
#
# Convention : Reuss Voigt Hill
#
# Bulk Modulus (GPa) = 42.77034 64.86656 53.81845
# Shear Modulus (GPa) = 28.63397 14.35937 21.49667
#
# Velocity S-wave (km/s) = 3.69966 2.61992 3.20558
# Velocity P-wave (km/s) = 6.22052 6.33713 6.27909
#
# Compressibility (1/GPa) = 0.02338069
#
# Stress axis : x y z
#
# Youngs Moduli (GPa) = 62.18321 75.99110 20.98504
#
# Poissons Ratio (x) = 0.16656 0.21129
# Poissons Ratio (y) = 0.13630 0.30420
# Poissons Ratio (z) = 0.62610 1.10157
#
# Static dielectric constant tensor:
#      x y z
#    x 1.808710 0.000000 0.000000 
#    y 0.000000 1.727730 0.000000 
#    z 0.000000 0.000000 1.703550 
# 
# From -- ./inp_files/8795.got.cif
#   From: 2010.05.17/outbox.cif.g08.bks.cpg/sg58_5_cif.got.tgz:8795.got - 2010.06.03 14:20:14.
