data_PCOD9443990
_publ_section_title
;
Structure prediction by ZEFSAII (Michael W. Deem and Ramdas Pophale) SiO2 
 PCOD9443990
Probable space group: P N N M
;
_chemical_formula_sum "Si O2"
_cell_formula_units_Z 36
_cell_length_a 22.417740
_cell_length_b 5.085234
_cell_length_c 11.823490
_cell_angle_alpha 90.000000
_cell_angle_beta 90.000000
_cell_angle_gamma 90.000000
_cell_volume 1347.871400
_symmetry_space_group_name_H-M "P N N M"
_symmetry_group_IT_number 58
_symmetry_cell_setting 'orthorhombic'
loop_
_space_group_symop_operation_xyz
x,y,z
-x,-y,z
1/2+x,1/2-y,1/2-z
1/2-x,1/2+y,1/2-z
-x,-y,-z
x,y,-z
1/2-x,1/2+y,1/2+z
1/2+x,1/2-y,1/2+z
loop_
_atom_site_type_symbol
_atom_site_label
_atom_site_fract_x
_atom_site_fract_y
_atom_site_fract_z
Si Si1 0.184506 0.999337 0.845505
Si Si2 0.932474 0.378224 0.370015
Si Si3 0.078278 0.369992 0.128633
Si Si4 0.000000 0.000000 0.246050
Si Si5 0.738085 0.498920 0.114581
O O1 0.122116 0.116130 0.880653
O O2 0.233460 0.213297 0.884753
O O3 0.191766 0.019304 0.712668
O O4 0.207752 0.710434 0.876378
O O5 0.907953 0.399855 0.500000
O O6 0.903980 0.490286 0.250577
O O7 0.000000 0.500000 0.376369
O O8 0.946820 0.079946 0.330638
O O9 0.079718 0.487784 0.000000
O O10 0.015456 0.237021 0.161957
O O11 0.705504 0.439922 0.000000
#
# Coordination Sequence:
#
# PCOD9443990 Si02
#       5
#     8   8   8   4   8
#     4  10  23  38  63  93 124 166 209 256 323 385
#     4   9  20  39  60  82 115 157 205 257 310 365
#     4  11  23  38  60  92 126 165 208 261 322 386
#     4  10  22  38  62  88 122 166 216 266 316 378
#     4  10  20  40  63  89 124 162 208 263 316 381
#
# _framework density 26.708777999999999
#
# number of rings (size 3 to 8) (size 9 to 14) (size 15 to 20)
#    0.000    2.000    0.000    2.667    3.111    6.667 
#    0.000    0.000    0.000    0.000    0.000    0.000 
#    0.000    0.000    0.000    0.000    0.000    0.000 
#
# Total GULP energy -200631.191025 kJ/mol
# GULP energy per Si atom -5573.088640 kJ/mol
# Density = 2.664799 g / cm^3
# Si number density = 26.708778 Si / 1000 Ang^3
#
#
#
# Elastic Constant Matrix: (Units=GPa)
#
#
# Indices 1 2 3 4 5 6 
#
# 1 51.9191 4.7275 32.7139 0.0000 0.0000 0.0000
# 2 4.7275 92.8742 29.2810 0.0000 0.0000 0.0000
# 3 32.7139 29.2810 318.6030 0.0000 0.0000 0.0000
# 4 0.0000 0.0000 0.0000 135.3834 0.0000 0.0000
# 5 0.0000 0.0000 0.0000 0.0000 -93.9757 0.0000
# 6 0.0000 0.0000 0.0000 0.0000 0.0000 34.5477
#
#
#
# Elastic Compliance Matrix: (Units=1/GPa)
#
#
# Indices 1 2 3 4 5 6 
#
# 1 0.020607 -0.000393 -0.002080 0.000000 0.000000 0.000000
# 2 -0.000393 0.011096 -0.000979 0.000000 0.000000 0.000000
# 3 -0.002080 -0.000979 0.003442 0.000000 0.000000 0.000000
# 4 0.000000 0.000000 0.000000 0.007386 0.000000 0.000000
# 5 0.000000 0.000000 0.000000 0.000000 -0.010641 0.000000
# 6 0.000000 0.000000 0.000000 0.000000 0.000000 0.028945
#
#
# Mechanical properties :
#
#
# Convention : Reuss Voigt Hill
#
# Bulk Modulus (GPa) = 35.41014 66.31568 50.86291
# Shear Modulus (GPa) = 64.80507 41.63603 53.22055
#
# Velocity S-wave (km/s) = 4.93115 3.95256 4.46872
# Velocity P-wave (km/s) = 6.76079 6.76117 6.76098
#
# Compressibility (1/GPa) = 0.02824050
#
# Stress axis : x y z
#
# Youngs Moduli (GPa) = 48.52719 90.12220 290.50663
#
# Poissons Ratio (x) = 0.03544 0.60419
# Poissons Ratio (y) = 0.01908 0.28452
# Poissons Ratio (z) = 0.10093 0.08827
#
# Static dielectric constant tensor:
#      x y z
#    x 2.097650 0.000000 0.000000 
#    y 0.000000 2.164780 0.000000 
#    z 0.000000 0.000000 2.029580 
# 
# From -- ./inp_files/17642.got.cif
#   From: 2010.05.17/outbox.cif.g08.bks.cpg/sg58_9_cif.got.tgz:17642.got - 2010.06.03 14:20:14.
