data_PCOD9443731
_publ_section_title
;
Structure prediction by ZEFSAII (Michael W. Deem and Ramdas Pophale) SiO2 
 PCOD9443731
Probable space group: P N N M
;
_chemical_formula_sum "Si O2"
_cell_formula_units_Z 64
_cell_length_a 15.342774
_cell_length_b 24.940107
_cell_length_c 7.715576
_cell_angle_alpha 90.000000
_cell_angle_beta 90.000000
_cell_angle_gamma 90.000000
_cell_volume 2952.368437
_symmetry_space_group_name_H-M "P N N M"
_symmetry_group_IT_number 58
_symmetry_cell_setting 'orthorhombic'
loop_
_space_group_symop_operation_xyz
x,y,z
-x,-y,z
1/2+x,1/2-y,1/2-z
1/2-x,1/2+y,1/2-z
-x,-y,-z
x,y,-z
1/2-x,1/2+y,1/2+z
1/2+x,1/2-y,1/2+z
loop_
_atom_site_type_symbol
_atom_site_label
_atom_site_fract_x
_atom_site_fract_y
_atom_site_fract_z
Si Si1 0.064811 0.372241 0.708332
Si Si2 0.660383 0.730664 0.788363
Si Si3 0.359280 0.756804 0.297148
Si Si4 0.750118 0.434485 0.297974
Si Si5 0.062709 0.045740 0.203614
Si Si6 0.623786 0.849508 0.788744
Si Si7 0.097342 0.487652 0.202976
Si Si8 0.002980 0.163779 0.704698
O O1 0.067947 0.371806 0.500000
O O2 0.096568 0.314675 0.771979
O O3 0.114502 0.424429 0.773951
O O4 0.964470 0.378280 0.766662
O O5 0.760627 0.734342 0.727299
O O6 0.620292 0.787977 0.739679
O O7 0.590335 0.686528 0.728982
O O8 0.662843 0.726856 0.000000
O O9 0.349750 0.744342 0.500000
O O10 0.421680 0.709297 0.227884
O O11 0.732415 0.422670 0.500000
O O12 0.659875 0.453504 0.218435
O O13 0.791470 0.380215 0.222646
O O14 0.826743 0.477897 0.288342
O O15 0.027312 0.106341 0.216998
O O16 0.071985 0.032105 0.000000
O O17 0.000000 0.000000 0.279331
O O18 0.625478 0.851031 0.000000
O O19 0.000000 0.500000 0.273989
O O20 0.097293 0.501056 0.000000
O O21 0.994242 0.155258 0.500000
#
# Coordination Sequence:
#
# PCOD9443731 Si02
#       8
#     8   8   8   8   8   8   8   8
#     4  11  21  36  59  84 117 157 197 239 289 357
#     4   9  19  36  59  87 120 159 197 236 292 359
#     4  11  22  38  61  90 124 158 196 247 301 348
#     4  10  20  37  63  88 114 160 207 242 295 365
#     4  10  23  43  65  90 120 154 199 256 307 349
#     4   9  16  31  57  83 110 150 198 236 276 345
#     4  11  23  37  55  85 123 154 192 248 301 349
#     4  11  22  40  65  91 120 159 204 245 294 362
#
# _framework density 21.677509000000001
#
# number of rings (size 3 to 8) (size 9 to 14) (size 15 to 20)
#    0.000    1.750    2.500    2.250    0.000    4.250 
#    0.000    5.000    0.000    0.000    0.000    0.000 
#    0.000    0.000    0.000    0.000    0.000    0.000 
#
# Total GULP energy -357282.879739 kJ/mol
# GULP energy per Si atom -5582.544996 kJ/mol
# Density = 2.162817 g / cm^3
# Si number density = 21.677509 Si / 1000 Ang^3
#
#
#
# Elastic Constant Matrix: (Units=GPa)
#
#
# Indices 1 2 3 4 5 6 
#
# 1 129.6800 39.8171 -10.1334 0.0000 0.0000 0.0000
# 2 39.8171 95.7397 -31.0039 0.0000 0.0000 0.0000
# 3 -10.1334 -31.0039 32.8448 0.0000 0.0000 0.0000
# 4 0.0000 0.0000 0.0000 21.5228 0.0000 0.0000
# 5 0.0000 0.0000 0.0000 0.0000 12.3968 0.0000
# 6 0.0000 0.0000 0.0000 0.0000 0.0000 26.4136
#
#
#
# Elastic Compliance Matrix: (Units=1/GPa)
#
#
# Indices 1 2 3 4 5 6 
#
# 1 0.008866 -0.004035 -0.001073 0.000000 0.000000 0.000000
# 2 -0.004035 0.016880 0.014689 0.000000 0.000000 0.000000
# 3 -0.001073 0.014689 0.043981 0.000000 0.000000 0.000000
# 4 0.000000 0.000000 0.000000 0.046462 0.000000 0.000000
# 5 0.000000 0.000000 0.000000 0.000000 0.080666 0.000000
# 6 0.000000 0.000000 0.000000 0.000000 0.000000 0.037859
#
#
# Mechanical properties :
#
#
# Convention : Reuss Voigt Hill
#
# Bulk Modulus (GPa) = 11.25012 28.40267 19.82639
# Shear Modulus (GPa) = 20.39294 29.37228 24.88261
#
# Velocity S-wave (km/s) = 3.07048 3.68498 3.39167
# Velocity P-wave (km/s) = 4.21562 5.58894 4.95014
#
# Compressibility (1/GPa) = 0.08888794
#
# Stress axis : x y z
#
# Youngs Moduli (GPa) = 112.78619 59.24208 22.73726
#
# Poissons Ratio (x) = 0.23904 0.02441
# Poissons Ratio (y) = 0.45509 -0.33399
# Poissons Ratio (z) = 0.12106 -0.87020
#
# Static dielectric constant tensor:
#      x y z
#    x 1.845040 0.000000 0.000000 
#    y 0.000000 1.767070 0.000000 
#    z 0.000000 0.000000 1.800480 
# 
# From -- ./inp_files/6738.got.cif
#   From: 2010.05.17/outbox.cif.g08.bks.cpg/sg58_4_cif.got.tgz:6738.got - 2010.06.03 14:20:14.
