data_PCOD9443201
_publ_section_title
;
Structure prediction by ZEFSAII (Michael W. Deem and Ramdas Pophale) SiO2 
 PCOD9443201
Probable space group: P N N M
;
_chemical_formula_sum "Si O2"
_cell_formula_units_Z 48
_cell_length_a 19.396670
_cell_length_b 13.146316
_cell_length_c 7.627868
_cell_angle_alpha 90.000000
_cell_angle_beta 90.000000
_cell_angle_gamma 90.000000
_cell_volume 1945.066318
_symmetry_space_group_name_H-M "P N N M"
_symmetry_group_IT_number 58
_symmetry_cell_setting 'orthorhombic'
loop_
_space_group_symop_operation_xyz
x,y,z
-x,-y,z
1/2+x,1/2-y,1/2-z
1/2-x,1/2+y,1/2-z
-x,-y,-z
x,y,-z
1/2-x,1/2+y,1/2+z
1/2+x,1/2-y,1/2+z
loop_
_atom_site_type_symbol
_atom_site_label
_atom_site_fract_x
_atom_site_fract_y
_atom_site_fract_z
Si Si1 0.640640 0.748384 0.292709
Si Si2 0.230607 0.399978 0.791113
Si Si3 0.571931 0.550113 0.710889
Si Si4 0.393641 0.773910 0.202154
Si Si5 0.524157 0.889025 0.790279
Si Si6 0.191217 0.089417 0.304077
O O1 0.646420 0.752049 0.500000
O O2 0.711909 0.691121 0.236016
O O3 0.582616 0.666108 0.239027
O O4 0.603059 0.853497 0.241272
O O5 0.158914 0.367711 0.707483
O O6 0.253458 0.511973 0.722449
O O7 0.223134 0.409982 0.000000
O O8 0.500000 0.500000 0.749002
O O9 0.584341 0.541456 0.500000
O O10 0.628630 0.488810 0.814075
O O11 0.466255 0.809001 0.279975
O O12 0.346462 0.684712 0.285997
O O13 0.405190 0.741243 0.000000
O O14 0.500000 0.000000 0.725112
O O15 0.514863 0.889917 0.000000
O O16 0.215357 0.120469 0.500000
#
# Coordination Sequence:
#
# PCOD9443201 Si02
#       6
#     8   8   8   8   8   8
#     4  10  20  35  56  81 110 145 185 229 281 339
#     4  10  21  37  57  82 112 146 189 238 289 345
#     4   9  17  29  48  76 106 133 166 212 264 320
#     4  10  21  38  58  81 113 150 190 237 287 341
#     4  10  22  39  58  83 116 154 196 241 292 349
#     4   9  19  34  52  76 104 137 178 223 272 329
#
# _framework density 24.677821999999999
#
# number of rings (size 3 to 8) (size 9 to 14) (size 15 to 20)
#    0.000    2.333    0.000    2.000    0.000    4.667 
#    0.000    3.333    0.000    0.000    0.000    0.000 
#    0.000    0.000    0.000    0.000    0.000    0.000 
#
# Total GULP energy -267528.737135 kJ/mol
# GULP energy per Si atom -5573.515357 kJ/mol
# Density = 2.462165 g / cm^3
# Si number density = 24.677822 Si / 1000 Ang^3
#
#
#
# Elastic Constant Matrix: (Units=GPa)
#
#
# Indices 1 2 3 4 5 6 
#
# 1 102.6416 28.9072 -10.1005 0.0000 0.0000 0.0000
# 2 28.9072 80.9003 -5.5695 0.0000 0.0000 0.0000
# 3 -10.1005 -5.5695 41.6161 0.0000 0.0000 0.0000
# 4 0.0000 0.0000 0.0000 -96.3237 0.0000 0.0000
# 5 0.0000 0.0000 0.0000 0.0000 -1.0965 0.0000
# 6 0.0000 0.0000 0.0000 0.0000 0.0000 29.8304
#
#
#
# Elastic Compliance Matrix: (Units=1/GPa)
#
#
# Indices 1 2 3 4 5 6 
#
# 1 0.011023 -0.003790 0.002168 0.000000 0.000000 0.000000
# 2 -0.003790 0.013779 0.000924 0.000000 0.000000 0.000000
# 3 0.002168 0.000924 0.024679 0.000000 0.000000 0.000000
# 4 0.000000 0.000000 0.000000 -0.010382 0.000000 0.000000
# 5 0.000000 0.000000 0.000000 0.000000 -0.912024 0.000000
# 6 0.000000 0.000000 0.000000 0.000000 0.000000 0.033523
#
#
# Mechanical properties :
#
#
# Convention : Reuss Voigt Hill
#
# Bulk Modulus (GPa) = 20.79567 27.95914 24.37741
# Shear Modulus (GPa) = -6.08288 0.61008 -2.73640
#
# Velocity S-wave (km/s) = -1.57171 0.49775 -1.05416
# Velocity P-wave (km/s) = 2.26968 3.41827 2.90138
#
# Compressibility (1/GPa) = 0.04808694
#
# Stress axis : x y z
#
# Youngs Moduli (GPa) = 90.71714 72.57628 40.52006
#
# Poissons Ratio (x) = 0.27503 -0.08786
# Poissons Ratio (y) = 0.34378 -0.03745
# Poissons Ratio (z) = -0.19670 -0.06708
#
# Static dielectric constant tensor:
#      x y z
#    x -0.229640 0.000000 0.000000 
#    y 0.000000 2.271720 0.000000 
#    z 0.000000 0.000000 1.904750 
# 
# From -- ./inp_files/7741.got.cif
#   From: 2010.05.17/outbox.cif.g08.bks.cpg/sg58_4_cif.got.tgz:7741.got - 2010.06.03 14:20:14.
