data_PCOD9443492
_publ_section_title
;
Structure prediction by ZEFSAII (Michael W. Deem and Ramdas Pophale) SiO2 
 PCOD9443492
Probable space group: P N N M
;
_chemical_formula_sum "Si O2"
_cell_formula_units_Z 48
_cell_length_a 9.704526
_cell_length_b 28.681148
_cell_length_c 7.499940
_cell_angle_alpha 90.000000
_cell_angle_beta 90.000000
_cell_angle_gamma 90.000000
_cell_volume 2087.510398
_symmetry_space_group_name_H-M "P N N M"
_symmetry_group_IT_number 58
_symmetry_cell_setting 'orthorhombic'
loop_
_space_group_symop_operation_xyz
x,y,z
-x,-y,z
1/2+x,1/2-y,1/2-z
1/2-x,1/2+y,1/2-z
-x,-y,-z
x,y,-z
1/2-x,1/2+y,1/2+z
1/2+x,1/2-y,1/2+z
loop_
_atom_site_type_symbol
_atom_site_label
_atom_site_fract_x
_atom_site_fract_y
_atom_site_fract_z
Si Si1 0.496260 0.193512 0.290184
Si Si2 0.802220 0.384263 0.219222
Si Si3 0.990025 0.854658 0.703720
Si Si4 0.844724 0.490157 0.215671
Si Si5 0.082618 0.955618 0.205746
Si Si6 0.202755 0.777947 0.716348
O O1 0.520199 0.186188 0.500000
O O2 0.435813 0.144619 0.220860
O O3 0.641046 0.213314 0.218342
O O4 0.373072 0.230574 0.270067
O O5 0.662623 0.359021 0.282711
O O6 0.801664 0.438192 0.273407
O O7 0.800206 0.384241 0.000000
O O8 0.970149 0.839064 0.500000
O O9 0.050280 0.906851 0.704215
O O10 0.101399 0.819280 0.781282
O O11 0.740325 0.529041 0.283277
O O12 0.000000 0.500000 0.271198
O O13 0.839298 0.491347 0.000000
O O14 0.040256 0.950271 0.000000
O O15 0.000000 0.000000 0.282644
O O16 0.207277 0.778142 0.500000
#
# Coordination Sequence:
#
# PCOD9443492 Si02
#       6
#     8   8   8   8   8   8
#     4  10  21  38  60  85 118 149 183 234 289 342
#     4   9  18  34  56  84 112 146 188 235 284 329
#     4  10  20  36  60  84 111 148 196 241 279 333
#     4  10  21  36  60  87 113 150 196 239 281 334
#     4  11  23  38  56  83 120 156 190 232 284 340
#     4  10  22  38  60  89 115 146 189 237 284 339
#
# _framework density 22.993898999999999
#
# number of rings (size 3 to 8) (size 9 to 14) (size 15 to 20)
#    0.000    2.000    1.667    1.500    2.333    3.667 
#    0.000    1.667    0.000    0.000    0.000    0.000 
#    0.000    0.000    0.000    0.000    0.000    0.000 
#
# Total GULP energy -268260.922911 kJ/mol
# GULP energy per Si atom -5588.769227 kJ/mol
# Density = 2.294156 g / cm^3
# Si number density = 22.993899 Si / 1000 Ang^3
#
#
#
# Elastic Constant Matrix: (Units=GPa)
#
#
# Indices 1 2 3 4 5 6 
#
# 1 107.9744 -5.6869 -9.3535 0.0000 0.0000 0.0000
# 2 -5.6869 51.1821 -14.4887 0.0000 0.0000 0.0000
# 3 -9.3535 -14.4887 61.0125 0.0000 0.0000 0.0000
# 4 0.0000 0.0000 0.0000 17.2422 0.0000 0.0000
# 5 0.0000 0.0000 0.0000 0.0000 5.0075 0.0000
# 6 0.0000 0.0000 0.0000 0.0000 0.0000 45.5206
#
#
#
# Elastic Compliance Matrix: (Units=1/GPa)
#
#
# Indices 1 2 3 4 5 6 
#
# 1 0.009503 0.001574 0.001831 0.000000 0.000000 0.000000
# 2 0.001574 0.021207 0.005277 0.000000 0.000000 0.000000
# 3 0.001831 0.005277 0.017924 0.000000 0.000000 0.000000
# 4 0.000000 0.000000 0.000000 0.057997 0.000000 0.000000
# 5 0.000000 0.000000 0.000000 0.000000 0.199701 0.000000
# 6 0.000000 0.000000 0.000000 0.000000 0.000000 0.021968
#
#
# Mechanical properties :
#
#
# Convention : Reuss Voigt Hill
#
# Bulk Modulus (GPa) = 15.15198 17.90121 16.52660
# Shear Modulus (GPa) = 15.01795 30.20061 22.60928
#
# Velocity S-wave (km/s) = 2.55841 3.62804 3.13912
# Velocity P-wave (km/s) = 3.91550 5.03511 4.51018
#
# Compressibility (1/GPa) = 0.06599795
#
# Stress axis : x y z
#
# Youngs Moduli (GPa) = 105.23057 47.15445 55.79132
#
# Poissons Ratio (x) = -0.07423 -0.10213
# Poissons Ratio (y) = -0.16564 -0.29443
# Poissons Ratio (z) = -0.19264 -0.24885
#
# Static dielectric constant tensor:
#      x y z
#    x 1.858730 0.000000 0.000000 
#    y 0.000000 1.817420 0.000000 
#    z 0.000000 0.000000 1.889520 
# 
# From -- ./inp_files/2957.got.cif
#   From: 2010.05.17/outbox.cif.g08.bks.cpg/sg58_2_cif.got.tgz:2957.got - 2010.06.03 14:20:14.
