data_PCOD9443964
_publ_section_title
;
Structure prediction by ZEFSAII (Michael W. Deem and Ramdas Pophale) SiO2 
 PCOD9443964
Probable space group: P N N M
;
_chemical_formula_sum "Si O2"
_cell_formula_units_Z 48
_cell_length_a 9.523272
_cell_length_b 16.228045
_cell_length_c 15.617121
_cell_angle_alpha 90.000000
_cell_angle_beta 90.000000
_cell_angle_gamma 90.000000
_cell_volume 2413.533700
_symmetry_space_group_name_H-M "P N N M"
_symmetry_group_IT_number 58
_symmetry_cell_setting 'orthorhombic'
loop_
_space_group_symop_operation_xyz
x,y,z
-x,-y,z
1/2+x,1/2-y,1/2-z
1/2-x,1/2+y,1/2-z
-x,-y,-z
x,y,-z
1/2-x,1/2+y,1/2+z
1/2+x,1/2-y,1/2+z
loop_
_atom_site_type_symbol
_atom_site_label
_atom_site_fract_x
_atom_site_fract_y
_atom_site_fract_z
Si Si1 0.110241 0.067361 0.166749
Si Si2 0.439420 0.270173 0.710984
Si Si3 0.638163 0.166122 0.184147
Si Si4 0.504986 0.118049 0.399312
Si Si5 0.178416 0.485091 0.205367
Si Si6 0.794563 0.429725 0.500000
Si Si7 0.115629 0.380825 0.500000
O O1 0.025434 0.146525 0.197716
O O2 0.188257 0.025594 0.248413
O O3 0.213067 0.089519 0.088238
O O4 0.000000 0.000000 0.132885
O O5 0.503770 0.217973 0.788727
O O6 0.277596 0.293355 0.723754
O O7 0.470728 0.210102 0.630443
O O8 0.619640 0.071509 0.215802
O O9 0.663161 0.164985 0.084280
O O10 0.486458 0.105831 0.500000
O O11 0.659386 0.085483 0.368512
O O12 0.401788 0.060434 0.341573
O O13 0.821189 0.527813 0.500000
O O14 0.947311 0.388567 0.500000
#
# Coordination Sequence:
#
# PCOD9443964 Si02
#       7
#     8   8   8   8   8   4   4
#     4  12  23  41  65  94 131 176 219 271 331 399
#     4  11  25  41  69  95 135 169 224 272 341 388
#     4  11  24  43  65  96 132 176 216 276 329 402
#     4  10  23  40  68  96 123 169 224 275 324 401
#     4  10  20  39  67  90 124 168 221 258 325 395
#     4  11  25  36  66  98 129 170 214 267 328 406
#     4  11  24  40  66  96 139 163 216 269 337 402
#
# _framework density 19.887851999999999
#
# number of rings (size 3 to 8) (size 9 to 14) (size 15 to 20)
#    0.000    1.167    3.333    2.250   11.667    0.000 
#    0.000    0.000    1.833    2.000    0.000    0.000 
#    0.000    0.000    0.000    0.000    0.000    0.000 
#
# Total GULP energy -267494.203314 kJ/mol
# GULP energy per Si atom -5572.795902 kJ/mol
# Density = 1.984259 g / cm^3
# Si number density = 19.887852 Si / 1000 Ang^3
#
#
#
# Elastic Constant Matrix: (Units=GPa)
#
#
# Indices 1 2 3 4 5 6 
#
# 1 54.5690 16.9005 11.0735 0.0000 0.0000 0.0000
# 2 16.9005 94.0540 17.7427 0.0000 0.0000 0.0000
# 3 11.0735 17.7427 88.0594 0.0000 0.0000 0.0000
# 4 0.0000 0.0000 0.0000 19.1517 0.0000 0.0000
# 5 0.0000 0.0000 0.0000 0.0000 25.5222 0.0000
# 6 0.0000 0.0000 0.0000 0.0000 0.0000 31.3300
#
#
#
# Elastic Compliance Matrix: (Units=1/GPa)
#
#
# Indices 1 2 3 4 5 6 
#
# 1 0.019686 -0.003192 -0.001832 0.000000 0.000000 0.000000
# 2 -0.003192 0.011570 -0.001930 0.000000 0.000000 0.000000
# 3 -0.001832 -0.001930 0.011975 0.000000 0.000000 0.000000
# 4 0.000000 0.000000 0.000000 0.052215 0.000000 0.000000
# 5 0.000000 0.000000 0.000000 0.000000 0.039182 0.000000
# 6 0.000000 0.000000 0.000000 0.000000 0.000000 0.031918
#
#
# Mechanical properties :
#
#
# Convention : Reuss Voigt Hill
#
# Bulk Modulus (GPa) = 34.10292 36.45732 35.28012
# Shear Modulus (GPa) = 26.28433 27.93182 27.10807
#
# Velocity S-wave (km/s) = 3.63936 3.75169 3.69595
# Velocity P-wave (km/s) = 5.90295 6.09411 5.99929
#
# Compressibility (1/GPa) = 0.02932300
#
# Stress axis : x y z
#
# Youngs Moduli (GPa) = 50.79821 86.43242 83.50573
#
# Poissons Ratio (x) = 0.27586 0.15302
# Poissons Ratio (y) = 0.16213 0.16115
# Poissons Ratio (z) = 0.09308 0.16680
#
# Static dielectric constant tensor:
#      x y z
#    x 1.757130 0.000000 0.000000 
#    y 0.000000 1.700980 0.000000 
#    z 0.000000 0.000000 1.689510 
# 
# From -- ./inp_files/19868.got.cif
#   From: 2010.05.17/outbox.cif.g08.bks.cpg/sg58_10_cif.got.tgz:19868.got - 2010.06.03 14:20:14.
