data_PCOD9443205
_publ_section_title
;
Structure prediction by ZEFSAII (Michael W. Deem and Ramdas Pophale) SiO2 
 PCOD9443205
Probable space group: P N N M
;
_chemical_formula_sum "Si O2"
_cell_formula_units_Z 64
_cell_length_a 11.247047
_cell_length_b 33.244258
_cell_length_c 9.514251
_cell_angle_alpha 90.000000
_cell_angle_beta 90.000000
_cell_angle_gamma 90.000000
_cell_volume 3557.375901
_symmetry_space_group_name_H-M "P N N M"
_symmetry_group_IT_number 58
_symmetry_cell_setting 'orthorhombic'
loop_
_space_group_symop_operation_xyz
x,y,z
-x,-y,z
1/2+x,1/2-y,1/2-z
1/2-x,1/2+y,1/2-z
-x,-y,-z
x,y,-z
1/2-x,1/2+y,1/2+z
1/2+x,1/2-y,1/2+z
loop_
_atom_site_type_symbol
_atom_site_label
_atom_site_fract_x
_atom_site_fract_y
_atom_site_fract_z
Si Si1 0.710887 0.271349 0.331719
Si Si2 0.532777 0.321670 0.843660
Si Si3 0.752230 0.182621 0.338433
Si Si4 0.631916 0.482018 0.330819
Si Si5 0.117452 0.474855 0.670504
Si Si6 0.142524 0.653349 0.334459
Si Si7 0.618629 0.118172 0.834485
Si Si8 0.172143 0.099920 0.664933
O O1 0.706834 0.268630 0.500000
O O2 0.600167 0.295477 0.270499
O O3 0.711741 0.225769 0.278212
O O4 0.823101 0.300565 0.297926
O O5 0.393916 0.315033 0.840533
O O6 0.563913 0.368444 0.823764
O O7 0.578862 0.310674 0.000000
O O8 0.709930 0.178443 0.500000
O O9 0.711651 0.144477 0.250646
O O10 0.500000 0.500000 0.299643
O O11 0.636600 0.476123 0.500000
O O12 0.751396 0.507673 0.292304
O O13 0.645417 0.440335 0.248945
O O14 0.112560 0.475824 0.500000
O O15 0.108192 0.428129 0.713388
O O16 0.000000 0.500000 0.718899
O O17 0.174122 0.647402 0.500000
O O18 0.219838 0.623762 0.238253
O O19 0.006447 0.641215 0.318416
O O20 0.648783 0.117423 0.000000
O O21 0.194910 0.092311 0.500000
#
# Coordination Sequence:
#
# PCOD9443205 Si02
#       8
#     8   8   8   8   8   8   8   8
#     4   9  19  35  55  79 105 139 182 223 264 314
#     4   9  20  37  56  77 108 146 180 221 273 325
#     4  10  22  37  53  77 114 149 176 220 278 326
#     4  10  21  35  55  81 110 146 184 231 283 332
#     4   9  18  35  57  82 110 139 180 231 282 332
#     4   9  18  35  58  82 106 139 182 227 269 317
#     4  10  21  35  58  86 109 141 184 228 274 328
#     4  10  20  35  56  82 109 143 184 223 272 332
#
# _framework density 17.990790000000001
#
# number of rings (size 3 to 8) (size 9 to 14) (size 15 to 20)
#    0.000    2.500    0.000    1.125    3.500    4.250 
#    0.000    0.625    0.000    1.500    0.000    0.000 
#    0.000    0.000    0.000    0.000    0.000    0.000 
#
# Total GULP energy -356617.703284 kJ/mol
# GULP energy per Si atom -5572.151614 kJ/mol
# Density = 1.794984 g / cm^3
# Si number density = 17.990790 Si / 1000 Ang^3
#
#
#
# Elastic Constant Matrix: (Units=GPa)
#
#
# Indices 1 2 3 4 5 6 
#
# 1 59.8224 33.1617 9.5147 0.0000 0.0000 0.0000
# 2 33.1617 96.7325 15.5358 0.0000 0.0000 0.0000
# 3 9.5147 15.5358 7.2117 0.0000 0.0000 0.0000
# 4 0.0000 0.0000 0.0000 -11.4368 0.0000 0.0000
# 5 0.0000 0.0000 0.0000 0.0000 18.8403 0.0000
# 6 0.0000 0.0000 0.0000 0.0000 0.0000 10.8929
#
#
#
# Elastic Compliance Matrix: (Units=1/GPa)
#
#
# Indices 1 2 3 4 5 6 
#
# 1 0.022354 -0.004475 -0.019853 0.000000 0.000000 0.000000
# 2 -0.004475 0.016703 -0.030077 0.000000 0.000000 0.000000
# 3 -0.019853 -0.030077 0.229651 0.000000 0.000000 0.000000
# 4 0.000000 0.000000 0.000000 -0.087437 0.000000 0.000000
# 5 0.000000 0.000000 0.000000 0.000000 0.053078 0.000000
# 6 0.000000 0.000000 0.000000 0.000000 0.000000 0.091803
#
#
# Mechanical properties :
#
#
# Convention : Reuss Voigt Hill
#
# Bulk Modulus (GPa) = 6.25399 31.13231 18.69315
# Shear Modulus (GPa) = 10.24041 10.69625 10.46833
#
# Velocity S-wave (km/s) = 2.38839 2.44096 2.41482
# Velocity P-wave (km/s) = 3.33011 5.02857 4.26475
#
# Compressibility (1/GPa) = 0.15989789
#
# Stress axis : x y z
#
# Youngs Moduli (GPa) = 44.73401 59.87121 4.35442
#
# Poissons Ratio (x) = 0.26792 0.08645
# Poissons Ratio (y) = 0.20019 0.13097
# Poissons Ratio (z) = 0.88809 1.80077
#
# Static dielectric constant tensor:
#      x y z
#    x 1.623540 0.000000 0.000000 
#    y 0.000000 1.613470 0.000000 
#    z 0.000000 0.000000 1.607100 
# 
# From -- ./inp_files/4831.got.cif
#   From: 2010.05.17/outbox.cif.g08.bks.cpg/sg58_3_cif.got.tgz:4831.got - 2010.06.03 14:20:14.
