data_PCOD9443134
_publ_section_title
;
Structure prediction by ZEFSAII (Michael W. Deem and Ramdas Pophale) SiO2 
 PCOD9443134
Probable space group: P N N M
;
_chemical_formula_sum "Si O2"
_cell_formula_units_Z 44
_cell_length_a 14.651802
_cell_length_b 9.945762
_cell_length_c 15.612585
_cell_angle_alpha 90.000000
_cell_angle_beta 90.000000
_cell_angle_gamma 90.000000
_cell_volume 2275.117963
_symmetry_space_group_name_H-M "P N N M"
_symmetry_group_IT_number 58
_symmetry_cell_setting 'orthorhombic'
loop_
_space_group_symop_operation_xyz
x,y,z
-x,-y,z
1/2+x,1/2-y,1/2-z
1/2-x,1/2+y,1/2-z
-x,-y,-z
x,y,-z
1/2-x,1/2+y,1/2+z
1/2+x,1/2-y,1/2+z
loop_
_atom_site_type_symbol
_atom_site_label
_atom_site_fract_x
_atom_site_fract_y
_atom_site_fract_z
Si Si1 0.705425 0.873122 0.189365
Si Si2 0.991615 0.697411 0.310091
Si Si3 0.332686 0.890831 0.308586
Si Si4 0.000000 0.000000 0.351259
Si Si5 0.521344 0.184403 0.000000
Si Si6 0.306430 0.924559 0.500000
Si Si7 0.123781 0.033157 0.500000
Si Si8 0.695568 0.855660 0.000000
O O1 0.599132 0.830061 0.198064
O O2 0.770919 0.743809 0.198946
O O3 0.718476 0.923473 0.090835
O O4 0.719563 0.988218 0.259962
O O5 0.927555 0.632915 0.239641
O O6 0.957189 0.639605 0.402818
O O7 0.978933 0.859919 0.305769
O O8 0.352877 0.924330 0.407875
O O9 0.085306 0.964942 0.414154
O O10 0.571033 0.327177 0.000000
O O11 0.412084 0.174777 0.000000
O O12 0.246476 0.787420 0.500000
O O13 0.230902 0.041761 0.500000
#
# Coordination Sequence:
#
# PCOD9443134 Si02
#       8
#     8   8   8   4   4   4   4   4
#     4  10  22  39  59  87 117 151 193 239 293 352
#     4  10  20  35  58  86 122 144 190 234 302 345
#     4  11  24  38  60  85 116 158 198 235 288 343
#     4   9  16  28  58  93 110 140 174 247 308 359
#     4   8  16  28  56  91 112 142 170 241 315 359
#     4  10  20  35  53  75 118 162 196 227 278 339
#     4   9  14  26  52  85 118 134 184 232 300 350
#     4   8  16  36  56  80 120 147 170 240 316 362
#
# _framework density 19.339656000000002
#
# number of rings (size 3 to 8) (size 9 to 14) (size 15 to 20)
#    0.000    2.364    0.000    5.455    7.636    0.727 
#    0.000    5.455    0.000    0.545    0.000    0.000 
#    0.000    0.000    0.000    0.000    0.000    0.000 
#
# Total GULP energy -245144.172287 kJ/mol
# GULP energy per Si atom -5571.458461 kJ/mol
# Density = 1.929564 g / cm^3
# Si number density = 19.339656 Si / 1000 Ang^3
#
#
#
# Elastic Constant Matrix: (Units=GPa)
#
#
# Indices 1 2 3 4 5 6 
#
# 1 56.9287 -0.9802 35.6733 0.0000 0.0000 0.0000
# 2 -0.9802 84.2819 35.7479 0.0000 0.0000 0.0000
# 3 35.6733 35.7479 163.8841 0.0000 0.0000 0.0000
# 4 0.0000 0.0000 0.0000 152.2468 0.0000 0.0000
# 5 0.0000 0.0000 0.0000 0.0000 56.9297 0.0000
# 6 0.0000 0.0000 0.0000 0.0000 0.0000 20.6093
#
#
#
# Elastic Compliance Matrix: (Units=1/GPa)
#
#
# Indices 1 2 3 4 5 6 
#
# 1 0.020764 0.002379 -0.005039 0.000000 0.000000 0.000000
# 2 0.002379 0.013347 -0.003429 0.000000 0.000000 0.000000
# 3 -0.005039 -0.003429 0.007947 0.000000 0.000000 0.000000
# 4 0.000000 0.000000 0.000000 0.006568 0.000000 0.000000
# 5 0.000000 0.000000 0.000000 0.000000 0.017566 0.000000
# 6 0.000000 0.000000 0.000000 0.000000 0.000000 0.048522
#
#
# Mechanical properties :
#
#
# Convention : Reuss Voigt Hill
#
# Bulk Modulus (GPa) = 33.46775 49.55296 41.51036
# Shear Modulus (GPa) = 36.53591 61.60073 49.06832
#
# Velocity S-wave (km/s) = 4.35117 5.64988 5.04251
# Velocity P-wave (km/s) = 6.52583 8.26073 7.44399
#
# Compressibility (1/GPa) = 0.02987951
#
# Stress axis : x y z
#
# Youngs Moduli (GPa) = 48.15991 74.92277 125.83903
#
# Poissons Ratio (x) = -0.17821 0.63406
# Poissons Ratio (y) = -0.11455 0.43152
# Poissons Ratio (z) = 0.24266 0.25692
#
# Static dielectric constant tensor:
#      x y z
#    x 1.671660 0.000000 0.000000 
#    y 0.000000 1.768770 0.000000 
#    z 0.000000 0.000000 1.727400 
# 
# From -- ./inp_files/22088.got.cif
#   From: 2010.05.17/outbox.cif.g08.bks.cpg/sg58_12_cif.got.tgz:22088.got - 2010.06.03 14:20:14.
