data_PCOD9443679
_publ_section_title
;
Structure prediction by ZEFSAII (Michael W. Deem and Ramdas Pophale) SiO2 
 PCOD9443679
Probable space group: P N N M
;
_chemical_formula_sum "Si O2"
_cell_formula_units_Z 64
_cell_length_a 31.641412
_cell_length_b 12.108282
_cell_length_c 7.803219
_cell_angle_alpha 90.000000
_cell_angle_beta 90.000000
_cell_angle_gamma 90.000000
_cell_volume 2989.593761
_symmetry_space_group_name_H-M "P N N M"
_symmetry_group_IT_number 58
_symmetry_cell_setting 'orthorhombic'
loop_
_space_group_symop_operation_xyz
x,y,z
-x,-y,z
1/2+x,1/2-y,1/2-z
1/2-x,1/2+y,1/2-z
-x,-y,-z
x,y,-z
1/2-x,1/2+y,1/2+z
1/2+x,1/2-y,1/2+z
loop_
_atom_site_type_symbol
_atom_site_label
_atom_site_fract_x
_atom_site_fract_y
_atom_site_fract_z
Si Si1 0.631073 0.662748 0.292356
Si Si2 0.879701 0.909511 0.209962
Si Si3 0.048136 0.707649 0.793076
Si Si4 0.698820 0.258677 0.290806
Si Si5 0.064325 0.462203 0.693202
Si Si6 0.341192 0.970045 0.300547
Si Si7 0.039845 0.224685 0.197226
Si Si8 0.707278 0.812946 0.797494
O O1 0.631587 0.665747 0.500000
O O2 0.623139 0.536903 0.238898
O O3 0.592359 0.740506 0.233286
O O4 0.675521 0.711214 0.231258
O O5 0.838016 0.842402 0.263861
O O6 0.922152 0.847948 0.272231
O O7 0.880208 0.905746 0.000000
O O8 0.044749 0.578540 0.748986
O O9 0.007275 0.774080 0.726965
O O10 0.048023 0.714543 0.000000
O O11 0.699934 0.259864 0.500000
O O12 0.684987 0.135805 0.239390
O O13 0.745640 0.289542 0.231371
O O14 0.051256 0.437571 0.500000
O O15 0.114704 0.479614 0.703568
O O16 0.053675 0.353105 0.799683
O O17 0.352455 0.952361 0.500000
O O18 0.314137 0.080454 0.285701
O O19 0.035619 0.188013 0.000000
O O20 0.709952 0.834687 0.000000
#
# Coordination Sequence:
#
# PCOD9443679 Si02
#       8
#     8   8   8   8   8   8   8   8
#     4  10  21  37  59  84 115 154 196 236 282 342
#     4   9  18  36  60  84 111 149 194 242 287 333
#     4  10  21  36  57  87 117 151 194 239 288 347
#     4   9  20  37  59  85 116 149 186 238 290 336
#     4  12  23  36  57  87 120 152 190 241 293 345
#     4  11  21  39  64  86 115 155 196 237 286 342
#     4  10  20  37  61  84 114 153 194 241 291 345
#     4  11  23  38  58  88 121 151 189 237 291 343
#
# _framework density 21.407589999999999
#
# number of rings (size 3 to 8) (size 9 to 14) (size 15 to 20)
#    0.000    1.750    2.500    2.250    1.750    2.500 
#    0.000    5.000    0.000    0.000    0.000    2.625 
#    0.000    0.000    0.000    0.000    0.000    0.000 
#
# Total GULP energy -357668.172316 kJ/mol
# GULP energy per Si atom -5588.565192 kJ/mol
# Density = 2.135887 g / cm^3
# Si number density = 21.407590 Si / 1000 Ang^3
#
#
#
# Elastic Constant Matrix: (Units=GPa)
#
#
# Indices 1 2 3 4 5 6 
#
# 1 82.8631 -8.6336 2.6643 0.0000 0.0000 0.0000
# 2 -8.6336 64.1285 -5.9259 0.0000 0.0000 0.0000
# 3 2.6643 -5.9259 37.4005 0.0000 0.0000 0.0000
# 4 0.0000 0.0000 0.0000 -207.8418 0.0000 0.0000
# 5 0.0000 0.0000 0.0000 0.0000 11.5874 0.0000
# 6 0.0000 0.0000 0.0000 0.0000 0.0000 15.8535
#
#
#
# Elastic Compliance Matrix: (Units=1/GPa)
#
#
# Indices 1 2 3 4 5 6 
#
# 1 0.012254 0.001592 -0.000621 0.000000 0.000000 0.000000
# 2 0.001592 0.016032 0.002427 0.000000 0.000000 0.000000
# 3 -0.000621 0.002427 0.027166 0.000000 0.000000 0.000000
# 4 0.000000 0.000000 0.000000 -0.004811 0.000000 0.000000
# 5 0.000000 0.000000 0.000000 0.000000 0.086300 0.000000
# 6 0.000000 0.000000 0.000000 0.000000 0.000000 0.063077
#
#
# Mechanical properties :
#
#
# Convention : Reuss Voigt Hill
#
# Bulk Modulus (GPa) = 16.06430 17.84462 16.95446
# Shear Modulus (GPa) = 23.36756 -22.99434 0.18661
#
# Velocity S-wave (km/s) = 3.30745 -3.28093 0.29557
# Velocity P-wave (km/s) = 4.70170 2.44928 2.83787
#
# Compressibility (1/GPa) = 0.06224983
#
# Stress axis : x y z
#
# Youngs Moduli (GPa) = 81.60626 62.37400 36.81022
#
# Poissons Ratio (x) = -0.09932 0.02284
# Poissons Ratio (y) = -0.12995 -0.08933
# Poissons Ratio (z) = 0.05065 -0.15137
#
# Static dielectric constant tensor:
#      x y z
#    x 1.772600 0.000000 0.000000 
#    y 0.000000 1.728190 0.000000 
#    z 0.000000 0.000000 1.805640 
# 
# From -- ./inp_files/10941.got.cif
#   From: 2010.05.17/outbox.cif.g08.bks.cpg/sg58_6_cif.got.tgz:10941.got - 2010.06.03 14:20:14.
