data_PCOD9443699
_publ_section_title
;
Structure prediction by ZEFSAII (Michael W. Deem and Ramdas Pophale) SiO2 
 PCOD9443699
Probable space group: P N N M
;
_chemical_formula_sum "Si O2"
_cell_formula_units_Z 64
_cell_length_a 12.209436
_cell_length_b 8.530470
_cell_length_c 31.140895
_cell_angle_alpha 90.000000
_cell_angle_beta 90.000000
_cell_angle_gamma 90.000000
_cell_volume 3243.393581
_symmetry_space_group_name_H-M "P N N M"
_symmetry_group_IT_number 58
_symmetry_cell_setting 'orthorhombic'
loop_
_space_group_symop_operation_xyz
x,y,z
-x,-y,z
1/2+x,1/2-y,1/2-z
1/2-x,1/2+y,1/2-z
-x,-y,-z
x,y,-z
1/2-x,1/2+y,1/2+z
1/2+x,1/2-y,1/2+z
loop_
_atom_site_type_symbol
_atom_site_label
_atom_site_fract_x
_atom_site_fract_y
_atom_site_fract_z
Si Si1 0.535622 0.674264 0.585698
Si Si2 0.494691 0.318337 0.685003
Si Si3 0.386886 0.907183 0.251010
Si Si4 0.651830 0.157625 0.450442
Si Si5 0.843136 0.384445 0.448344
Si Si6 0.258659 0.128072 0.601088
Si Si7 0.073961 0.270949 0.551698
Si Si8 0.740437 0.830080 0.299594
O O1 0.500000 0.500000 0.572351
O O2 0.489475 0.695983 0.633962
O O3 0.473082 0.790578 0.554140
O O4 0.662330 0.722614 0.590148
O O5 0.500000 0.500000 0.697220
O O6 0.576448 0.203067 0.709390
O O7 0.372931 0.264224 0.696416
O O8 0.334628 0.787205 0.216801
O O9 0.500000 0.000000 0.238227
O O10 0.293578 0.028746 0.267383
O O11 0.677735 0.117411 0.500000
O O12 0.729110 0.304629 0.436683
O O13 0.677609 0.018767 0.418168
O O14 0.843612 0.393074 0.500000
O O15 0.874626 0.560039 0.434924
O O16 0.946431 0.276159 0.436221
O O17 0.145925 0.144335 0.575576
O O18 0.238339 0.114134 0.651758
O O19 0.082318 0.255380 0.500000
#
# Coordination Sequence:
#
# PCOD9443699 Si02
#       8
#     8   8   8   8   8   8   8   8
#     4  10  21  36  55  81 111 146 189 228 278 339
#     4   9  18  35  61  85 109 146 189 230 285 352
#     4  10  20  37  62  84 112 149 189 236 291 354
#     4  11  22  35  54  80 116 152 188 235 284 334
#     4   8  17  34  55  77 100 144 198 230 268 324
#     4  11  22  35  54  82 116 145 183 234 286 337
#     4   9  17  34  58  78 105 147 192 231 267 326
#     4  10  21  37  58  84 114 149 187 236 289 347
#
# _framework density 19.732417999999999
#
# number of rings (size 3 to 8) (size 9 to 14) (size 15 to 20)
#    0.000    2.250    0.000    3.750    0.000    4.250 
#    2.250    3.125   13.750    0.000    0.000    0.000 
#    0.000    0.000    0.000    0.000    0.000    0.000 
#
# Total GULP energy -356884.343912 kJ/mol
# GULP energy per Si atom -5576.317874 kJ/mol
# Density = 1.968751 g / cm^3
# Si number density = 19.732418 Si / 1000 Ang^3
#
#
#
# Elastic Constant Matrix: (Units=GPa)
#
#
# Indices 1 2 3 4 5 6 
#
# 1 67.2594 8.6316 27.0612 0.0000 0.0000 0.0000
# 2 8.6316 58.2956 27.4498 0.0000 0.0000 0.0000
# 3 27.0612 27.4498 60.7879 0.0000 0.0000 0.0000
# 4 0.0000 0.0000 0.0000 32.2868 0.0000 0.0000
# 5 0.0000 0.0000 0.0000 0.0000 -8.4520 0.0000
# 6 0.0000 0.0000 0.0000 0.0000 0.0000 29.2273
#
#
#
# Elastic Compliance Matrix: (Units=1/GPa)
#
#
# Indices 1 2 3 4 5 6 
#
# 1 0.018204 0.001423 -0.008747 0.000000 0.000000 0.000000
# 2 0.001423 0.021898 -0.010522 0.000000 0.000000 0.000000
# 3 -0.008747 -0.010522 0.025096 0.000000 0.000000 0.000000
# 4 0.000000 0.000000 0.000000 0.030972 0.000000 0.000000
# 5 0.000000 0.000000 0.000000 0.000000 -0.118315 0.000000
# 6 0.000000 0.000000 0.000000 0.000000 0.000000 0.034215
#
#
# Mechanical properties :
#
#
# Convention : Reuss Voigt Hill
#
# Bulk Modulus (GPa) = 33.89032 34.73647 34.31339
# Shear Modulus (GPa) = 86.81074 18.82575 52.81825
#
# Velocity S-wave (km/s) = 6.63999 3.09212 5.17932
# Velocity P-wave (km/s) = 8.71769 5.51274 7.29344
#
# Compressibility (1/GPa) = 0.02950695
#
# Stress axis : x y z
#
# Youngs Moduli (GPa) = 54.93184 45.66701 39.84730
#
# Poissons Ratio (x) = -0.06499 0.34854
# Poissons Ratio (y) = -0.07818 0.41927
# Poissons Ratio (z) = 0.48048 0.48050
#
# Static dielectric constant tensor:
#      x y z
#    x 1.695060 0.000000 0.000000 
#    y 0.000000 1.736180 0.000000 
#    z 0.000000 0.000000 1.673880 
# 
# From -- ./inp_files/34933.got.cif
#   From: 2010.05.17/outbox.cif.g08.bks.cpg/sg58_18_cif.got.tgz:34933.got - 2010.06.03 14:20:14.
