data_PCOD9443828
_publ_section_title
;
Structure prediction by ZEFSAII (Michael W. Deem and Ramdas Pophale) SiO2 
 PCOD9443828
Probable space group: P N N M
;
_chemical_formula_sum "Si O2"
_cell_formula_units_Z 48
_cell_length_a 19.214876
_cell_length_b 15.387130
_cell_length_c 8.538891
_cell_angle_alpha 90.000000
_cell_angle_beta 90.000000
_cell_angle_gamma 90.000000
_cell_volume 2524.623840
_symmetry_space_group_name_H-M "P N N M"
_symmetry_group_IT_number 58
_symmetry_cell_setting 'orthorhombic'
loop_
_space_group_symop_operation_xyz
x,y,z
-x,-y,z
1/2+x,1/2-y,1/2-z
1/2-x,1/2+y,1/2-z
-x,-y,-z
x,y,-z
1/2-x,1/2+y,1/2+z
1/2+x,1/2-y,1/2+z
loop_
_atom_site_type_symbol
_atom_site_label
_atom_site_fract_x
_atom_site_fract_y
_atom_site_fract_z
Si Si1 0.435221 0.058691 0.191025
Si Si2 0.675030 0.371649 0.187534
Si Si3 0.763070 0.204464 0.189116
Si Si4 0.978835 0.903294 0.812664
Si Si5 0.917270 0.243208 0.687615
Si Si6 0.216074 0.487911 0.310364
O O1 0.438108 0.159386 0.241223
O O2 0.500000 0.000000 0.244256
O O3 0.361061 0.018017 0.238222
O O4 0.436540 0.058459 0.000000
O O5 0.710920 0.281225 0.236559
O O6 0.599516 0.383803 0.260827
O O7 0.726574 0.447941 0.240659
O O8 0.668528 0.371919 0.000000
O O9 0.839279 0.222454 0.256641
O O10 0.733841 0.110522 0.235678
O O11 0.768319 0.205676 0.000000
O O12 0.030606 0.830213 0.748219
O O13 0.983357 0.902647 0.000000
O O14 0.000000 0.000000 0.757173
O O15 0.918642 0.243058 0.500000
O O16 0.219241 0.493322 0.500000
#
# Coordination Sequence:
#
# PCOD9443828 Si02
#       6
#     8   8   8   8   8   8
#     4   9  19  35  59  87 117 155 201 243 288 355
#     4  11  23  39  61  91 122 152 197 252 297 346
#     4  10  22  38  60  87 121 159 196 240 296 359
#     4  11  25  43  62  85 119 161 201 243 299 364
#     4  11  22  38  64  92 120 154 198 250 299 348
#     4  10  20  38  62  86 116 159 201 239 292 358
#
# _framework density 19.012732
#
# number of rings (size 3 to 8) (size 9 to 14) (size 15 to 20)
#    0.000    1.667    1.667    2.500    2.333    6.667 
#    0.000    0.000    0.000    2.500    0.000    0.000 
#    0.000    0.000    0.000    0.000    0.000    0.000 
#
# Total GULP energy -268269.595272 kJ/mol
# GULP energy per Si atom -5588.949902 kJ/mol
# Density = 1.896946 g / cm^3
# Si number density = 19.012732 Si / 1000 Ang^3
#
#
#
# Elastic Constant Matrix: (Units=GPa)
#
#
# Indices 1 2 3 4 5 6 
#
# 1 166.8810 115.9669 27.2994 0.0000 0.0000 0.0000
# 2 115.9669 226.3596 38.3972 0.0000 0.0000 0.0000
# 3 27.2994 38.3972 17.1381 0.0000 0.0000 0.0000
# 4 0.0000 0.0000 0.0000 9.8300 0.0000 0.0000
# 5 0.0000 0.0000 0.0000 0.0000 140.7937 0.0000
# 6 0.0000 0.0000 0.0000 0.0000 0.0000 42.6612
#
#
#
# Elastic Compliance Matrix: (Units=1/GPa)
#
#
# Indices 1 2 3 4 5 6 
#
# 1 0.009805 -0.003829 -0.007039 0.000000 0.000000 0.000000
# 2 -0.003829 0.008621 -0.013216 0.000000 0.000000 0.000000
# 3 -0.007039 -0.013216 0.099173 0.000000 0.000000 0.000000
# 4 0.000000 0.000000 0.000000 0.101729 0.000000 0.000000
# 5 0.000000 0.000000 0.000000 0.000000 0.007103 0.000000
# 6 0.000000 0.000000 0.000000 0.000000 0.000000 0.023440
#
#
# Mechanical properties :
#
#
# Convention : Reuss Voigt Hill
#
# Bulk Modulus (GPa) = 14.40309 85.96731 50.18520
# Shear Modulus (GPa) = 15.56747 53.90468 34.73608
#
# Velocity S-wave (km/s) = 2.86456 5.33043 4.27897
# Velocity P-wave (km/s) = 4.30498 9.12132 7.13201
#
# Compressibility (1/GPa) = 0.06942957
#
# Stress axis : x y z
#
# Youngs Moduli (GPa) = 101.99314 115.99235 10.08343
#
# Poissons Ratio (x) = 0.44413 0.07098
# Poissons Ratio (y) = 0.39053 0.13327
# Poissons Ratio (z) = 0.71794 1.53299
#
# Static dielectric constant tensor:
#      x y z
#    x 1.610610 0.000000 0.000000 
#    y 0.000000 1.640760 0.000000 
#    z 0.000000 0.000000 1.651800 
# 
# From -- ./inp_files/5864.got.cif
#   From: 2010.05.17/outbox.cif.g08.bks.cpg/sg58_3_cif.got.tgz:5864.got - 2010.06.03 14:20:14.
