data_PCOD9443355
_publ_section_title
;
Structure prediction by ZEFSAII (Michael W. Deem and Ramdas Pophale) SiO2 
 PCOD9443355
Probable space group: P N N M
;
_chemical_formula_sum "Si O2"
_cell_formula_units_Z 44
_cell_length_a 30.461949
_cell_length_b 7.253787
_cell_length_c 7.749521
_cell_angle_alpha 90.000000
_cell_angle_beta 90.000000
_cell_angle_gamma 90.000000
_cell_volume 1712.368953
_symmetry_space_group_name_H-M "P N N M"
_symmetry_group_IT_number 58
_symmetry_cell_setting 'orthorhombic'
loop_
_space_group_symop_operation_xyz
x,y,z
-x,-y,z
1/2+x,1/2-y,1/2-z
1/2-x,1/2+y,1/2-z
-x,-y,-z
x,y,-z
1/2-x,1/2+y,1/2+z
1/2+x,1/2-y,1/2+z
loop_
_atom_site_type_symbol
_atom_site_label
_atom_site_fract_x
_atom_site_fract_y
_atom_site_fract_z
Si Si1 0.583855 0.689944 0.305479
Si Si2 0.506844 0.211243 0.203151
Si Si3 0.600456 0.129522 0.297534
Si Si4 0.291724 0.339956 0.312167
Si Si5 0.647846 0.680881 0.000000
Si Si6 0.194887 0.274419 0.801099
O O1 0.596957 0.637836 0.500000
O O2 0.531389 0.667785 0.286567
O O3 0.591301 0.911573 0.278927
O O4 0.613230 0.612717 0.152649
O O5 0.558501 0.241141 0.229049
O O6 0.500000 0.000000 0.268496
O O7 0.497329 0.213467 0.000000
O O8 0.602886 0.172172 0.500000
O O9 0.648323 0.168310 0.221676
O O10 0.303859 0.263212 0.500000
O O11 0.239364 0.332613 0.291303
O O12 0.304122 0.554047 0.303610
O O13 0.317106 0.253297 0.152374
O O14 0.197594 0.339475 0.000000
#
# Coordination Sequence:
#
# PCOD9443355 Si02
#       6
#     8   8   8   8   4   8
#     4  10  20  35  62  94 128 170 209 256 317 370
#     4   9  16  30  52  89 131 165 206 261 308 364
#     4   9  19  34  60  92 128 166 212 259 314 371
#     4  11  26  43  66  89 123 163 206 259 314 368
#     4  12  24  42  59  91 128 164 206 268 297 382
#     4  10  23  44  64  92 124 162 207 259 311 373
#
# _framework density 25.695395000000001
#
# number of rings (size 3 to 8) (size 9 to 14) (size 15 to 20)
#    0.000    2.000    1.818    1.091    5.091    2.909 
#    0.000    0.000    0.000    2.182    0.000    5.091 
#    0.000    0.000    0.000    0.000    0.000    0.000 
#
# Total GULP energy -245279.738735 kJ/mol
# GULP energy per Si atom -5574.539517 kJ/mol
# Density = 2.563691 g / cm^3
# Si number density = 25.695395 Si / 1000 Ang^3
#
#
#
# Elastic Constant Matrix: (Units=GPa)
#
#
# Indices 1 2 3 4 5 6 
#
# 1 219.5622 28.7804 78.6947 0.0000 0.0000 0.0000
# 2 28.7804 77.9108 11.4232 0.0000 0.0000 0.0000
# 3 78.6947 11.4232 170.8034 0.0000 0.0000 0.0000
# 4 0.0000 0.0000 0.0000 -5.2643 0.0000 0.0000
# 5 0.0000 0.0000 0.0000 0.0000 36.3955 0.0000
# 6 0.0000 0.0000 0.0000 0.0000 0.0000 37.2753
#
#
#
# Elastic Compliance Matrix: (Units=1/GPa)
#
#
# Indices 1 2 3 4 5 6 
#
# 1 0.005677 -0.001731 -0.002500 0.000000 0.000000 0.000000
# 2 -0.001731 0.013490 -0.000105 0.000000 0.000000 0.000000
# 3 -0.002500 -0.000105 0.007014 0.000000 0.000000 0.000000
# 4 0.000000 0.000000 0.000000 -0.189960 0.000000 0.000000
# 5 0.000000 0.000000 0.000000 0.000000 0.027476 0.000000
# 6 0.000000 0.000000 0.000000 0.000000 0.000000 0.026827
#
#
# Mechanical properties :
#
#
# Convention : Reuss Voigt Hill
#
# Bulk Modulus (GPa) = 57.11093 78.45254 67.78173
# Shear Modulus (GPa) = -52.64939 36.97319 -7.83810
#
# Velocity S-wave (km/s) = -4.53148 3.79740 -1.74843
# Velocity P-wave (km/s) = 2.25935 7.05869 4.72866
#
# Compressibility (1/GPa) = 0.01750978
#
# Stress axis : x y z
#
# Youngs Moduli (GPa) = 176.13601 74.12968 142.58140
#
# Poissons Ratio (x) = 0.12830 0.35646
# Poissons Ratio (y) = 0.30484 0.01494
# Poissons Ratio (z) = 0.44035 0.00777
#
# Static dielectric constant tensor:
#      x y z
#    x 2.035870 0.000000 0.000000 
#    y 0.000000 2.076160 0.000000 
#    z 0.000000 0.000000 2.001700 
# 
# From -- ./inp_files/10691.got.cif
#   From: 2010.05.17/outbox.cif.g08.bks.cpg/sg58_6_cif.got.tgz:10691.got - 2010.06.03 14:20:14.
