data_PCOD9443290
_publ_section_title
;
Structure prediction by ZEFSAII (Michael W. Deem and Ramdas Pophale) SiO2 
 PCOD9443290
Probable space group: P N N M
;
_chemical_formula_sum "Si O2"
_cell_formula_units_Z 58
_cell_length_a 10.679870
_cell_length_b 17.626001
_cell_length_c 15.211962
_cell_angle_alpha 90.000000
_cell_angle_beta 90.000000
_cell_angle_gamma 90.000000
_cell_volume 2863.551437
_symmetry_space_group_name_H-M "P N N M"
_symmetry_group_IT_number 58
_symmetry_cell_setting 'orthorhombic'
loop_
_space_group_symop_operation_xyz
x,y,z
-x,-y,z
1/2+x,1/2-y,1/2-z
1/2-x,1/2+y,1/2-z
-x,-y,-z
x,y,-z
1/2-x,1/2+y,1/2+z
1/2+x,1/2-y,1/2+z
loop_
_atom_site_type_symbol
_atom_site_label
_atom_site_fract_x
_atom_site_fract_y
_atom_site_fract_z
Si Si1 0.009125 0.161914 0.775648
Si Si2 0.500000 0.000000 0.000000
Si Si3 0.369110 0.545739 0.402828
Si Si4 0.117723 0.555708 0.176808
Si Si5 0.887451 0.281464 0.098616
Si Si6 0.509002 0.121036 0.841492
Si Si7 0.239678 0.937180 0.767499
Si Si8 0.598684 0.275718 0.900839
O O1 0.966859 0.238777 0.826314
O O2 0.883542 0.113035 0.758485
O O3 0.098709 0.116705 0.842251
O O4 0.076397 0.171058 0.682528
O O5 0.509244 0.065094 0.922867
O O6 0.500000 0.500000 0.410057
O O7 0.323359 0.565642 0.500000
O O8 0.278814 0.487072 0.355358
O O9 0.122537 0.627778 0.113066
O O10 0.233294 0.497862 0.190057
O O11 0.000000 0.500000 0.157921
O O12 0.095276 0.594894 0.272165
O O13 0.744612 0.251196 0.101987
O O14 0.936365 0.265226 0.000000
O O15 0.636765 0.111793 0.784501
O O16 0.508407 0.205204 0.879585
O O17 0.576544 0.304860 0.000000
#
# Coordination Sequence:
#
# PCOD9443290 Si02
#       8
#     8   2   8   8   8   8   8   8
#     4  11  21  38  61  83 120 157 196 244 299 355
#     4  12  20  32  56  96 120 144 192 240 306 364
#     4   9  19  32  52  84 117 148 190 238 290 352
#     4  10  21  39  58  85 117 152 201 242 290 346
#     4  11  23  38  63  88 116 162 203 243 297 356
#     4  11  20  33  57  87 118 152 186 239 291 357
#     4  10  20  35  58  84 115 159 189 237 304 351
#     4  11  23  38  59  88 120 153 198 245 295 350
#
# _framework density 20.254567999999999
#
# number of rings (size 3 to 8) (size 9 to 14) (size 15 to 20)
#    0.000    1.517    5.517    1.241    0.966    0.828 
#    0.000    0.690    0.000   10.345    0.000    0.000 
#    0.000    0.000    0.000    0.000    0.000    0.000 
#
# Total GULP energy -323095.899648 kJ/mol
# GULP energy per Si atom -5570.618959 kJ/mol
# Density = 2.020847 g / cm^3
# Si number density = 20.254568 Si / 1000 Ang^3
#
#
#
# Elastic Constant Matrix: (Units=GPa)
#
#
# Indices 1 2 3 4 5 6 
#
# 1 23.4898 -10.8691 4.1817 0.0000 0.0000 0.0000
# 2 -10.8691 64.4763 17.4454 0.0000 0.0000 0.0000
# 3 4.1817 17.4454 103.7501 0.0000 0.0000 0.0000
# 4 0.0000 0.0000 0.0000 16.5081 0.0000 0.0000
# 5 0.0000 0.0000 0.0000 0.0000 -5.8408 0.0000
# 6 0.0000 0.0000 0.0000 0.0000 0.0000 21.2888
#
#
#
# Elastic Compliance Matrix: (Units=1/GPa)
#
#
# Indices 1 2 3 4 5 6 
#
# 1 0.047292 0.008893 -0.003401 0.000000 0.000000 0.000000
# 2 0.008893 0.017921 -0.003372 0.000000 0.000000 0.000000
# 3 -0.003401 -0.003372 0.010343 0.000000 0.000000 0.000000
# 4 0.000000 0.000000 0.000000 0.060576 0.000000 0.000000
# 5 0.000000 0.000000 0.000000 0.000000 -0.171210 0.000000
# 6 0.000000 0.000000 0.000000 0.000000 0.000000 0.046973
#
#
# Mechanical properties :
#
#
# Convention : Reuss Voigt Hill
#
# Bulk Modulus (GPa) = 12.53224 23.69246 18.11235
# Shear Modulus (GPa) = 145.96832 18.45512 82.21172
#
# Velocity S-wave (km/s) = 8.49843 3.02181 6.37788
# Velocity P-wave (km/s) = 10.12416 4.88855 7.94973
#
# Compressibility (1/GPa) = 0.07979420
#
# Stress axis : x y z
#
# Youngs Moduli (GPa) = 21.14529 55.80058 96.68749
#
# Poissons Ratio (x) = -0.49621 0.32887
# Poissons Ratio (y) = -0.18804 0.32601
# Poissons Ratio (z) = 0.07192 0.18815
#
# Static dielectric constant tensor:
#      x y z
#    x 1.755850 0.000000 0.000000 
#    y 0.000000 1.746920 0.000000 
#    z 0.000000 0.000000 1.714180 
# 
# From -- ./inp_files/21469.got.cif
#   From: 2010.05.17/outbox.cif.g08.bks.cpg/sg58_11_cif.got.tgz:21469.got - 2010.06.03 14:20:14.
