data_PCOD9443652
_publ_section_title
;
Structure prediction by ZEFSAII (Michael W. Deem and Ramdas Pophale) SiO2 
 PCOD9443652
Probable space group: P N N M
;
_chemical_formula_sum "Si O2"
_cell_formula_units_Z 48
_cell_length_a 31.786767
_cell_length_b 9.182441
_cell_length_c 8.555419
_cell_angle_alpha 90.000000
_cell_angle_beta 90.000000
_cell_angle_gamma 90.000000
_cell_volume 2497.156661
_symmetry_space_group_name_H-M "P N N M"
_symmetry_group_IT_number 58
_symmetry_cell_setting 'orthorhombic'
loop_
_space_group_symop_operation_xyz
x,y,z
-x,-y,z
1/2+x,1/2-y,1/2-z
1/2-x,1/2+y,1/2-z
-x,-y,-z
x,y,-z
1/2-x,1/2+y,1/2+z
1/2+x,1/2-y,1/2+z
loop_
_atom_site_type_symbol
_atom_site_label
_atom_site_fract_x
_atom_site_fract_y
_atom_site_fract_z
Si Si1 0.957808 0.417192 0.309274
Si Si2 0.707089 0.580736 0.187440
Si Si3 0.625941 0.088339 0.189163
Si Si4 0.789500 0.418771 0.310920
Si Si5 0.543047 0.580251 0.810719
Si Si6 0.874869 0.916470 0.814121
O O1 0.958071 0.417513 0.500000
O O2 0.915861 0.502060 0.259704
O O3 0.957364 0.248858 0.260403
O O4 0.000000 0.500000 0.257844
O O5 0.748791 0.498032 0.243033
O O6 0.708798 0.749805 0.236938
O O7 0.666043 0.502001 0.254059
O O8 0.704819 0.576841 0.000000
O O9 0.626073 0.251766 0.251539
O O10 0.667974 0.002196 0.236831
O O11 0.625413 0.093662 0.000000
O O12 0.787065 0.423175 0.500000
O O13 0.500000 0.500000 0.763884
O O14 0.583444 0.496889 0.746644
O O15 0.545141 0.577329 0.000000
O O16 0.874722 0.914592 0.000000
#
# Coordination Sequence:
#
# PCOD9443652 Si02
#       6
#     8   8   8   8   8   8
#     4   9  17  32  58  90 117 145 188 237 281 333
#     4  11  23  40  62  86 115 151 192 236 286 346
#     4  10  20  37  60  84 115 153 193 237 285 339
#     4  10  22  39  60  88 118 149 190 240 290 341
#     4  10  20  37  63  90 116 150 192 236 286 344
#     4  12  25  39  57  84 119 154 193 239 286 339
#
# _framework density 19.221861000000001
#
# number of rings (size 3 to 8) (size 9 to 14) (size 15 to 20)
#    0.000    1.667    0.000    5.000    0.000   10.333 
#    0.000    2.500    0.000    2.000    0.000    0.000 
#    0.000    0.000    0.000    0.000    0.000    0.000 
#
# Total GULP energy -268383.040648 kJ/mol
# GULP energy per Si atom -5591.313347 kJ/mol
# Density = 1.917811 g / cm^3
# Si number density = 19.221861 Si / 1000 Ang^3
#
#
#
# Elastic Constant Matrix: (Units=GPa)
#
#
# Indices 1 2 3 4 5 6 
#
# 1 241.8203 149.4383 46.7284 0.0000 0.0000 0.0000
# 2 149.4383 242.3080 44.8543 0.0000 0.0000 0.0000
# 3 46.7284 44.8543 23.4614 0.0000 0.0000 0.0000
# 4 0.0000 0.0000 0.0000 18.8153 0.0000 0.0000
# 5 0.0000 0.0000 0.0000 0.0000 20.5679 0.0000
# 6 0.0000 0.0000 0.0000 0.0000 0.0000 46.2217
#
#
#
# Elastic Compliance Matrix: (Units=1/GPa)
#
#
# Indices 1 2 3 4 5 6 
#
# 1 0.007957 -0.003055 -0.010008 0.000000 0.000000 0.000000
# 2 -0.003055 0.007560 -0.008370 0.000000 0.000000 0.000000
# 3 -0.010008 -0.008370 0.078558 0.000000 0.000000 0.000000
# 4 0.000000 0.000000 0.000000 0.053148 0.000000 0.000000
# 5 0.000000 0.000000 0.000000 0.000000 0.048619 0.000000
# 6 0.000000 0.000000 0.000000 0.000000 0.000000 0.021635
#
#
# Mechanical properties :
#
#
# Convention : Reuss Voigt Hill
#
# Bulk Modulus (GPa) = 19.52735 109.95909 64.74322
# Shear Modulus (GPa) = 18.02370 34.89224 26.45797
#
# Velocity S-wave (km/s) = 3.06546 4.26518 3.71408
# Velocity P-wave (km/s) = 4.76554 9.03245 7.22134
#
# Compressibility (1/GPa) = 0.05121022
#
# Stress axis : x y z
#
# Youngs Moduli (GPa) = 125.67761 132.27058 12.72944
#
# Poissons Ratio (x) = 0.40404 0.12739
# Poissons Ratio (y) = 0.38390 0.10655
# Poissons Ratio (z) = 1.25776 1.10710
#
# Static dielectric constant tensor:
#      x y z
#    x 1.630160 0.000000 0.000000 
#    y 0.000000 1.638940 0.000000 
#    z 0.000000 0.000000 1.659380 
# 
# From -- ./inp_files/2885.got.cif
#   From: 2010.05.17/outbox.cif.g08.bks.cpg/sg58_2_cif.got.tgz:2885.got - 2010.06.03 14:20:14.
