data_PCOD9443352
_publ_section_title
;
Structure prediction by ZEFSAII (Michael W. Deem and Ramdas Pophale) SiO2 
 PCOD9443352
Probable space group: P N N M
;
_chemical_formula_sum "Si O2"
_cell_formula_units_Z 48
_cell_length_a 19.431800
_cell_length_b 9.164703
_cell_length_c 13.834728
_cell_angle_alpha 90.000000
_cell_angle_beta 90.000000
_cell_angle_gamma 90.000000
_cell_volume 2463.780720
_symmetry_space_group_name_H-M "P N N M"
_symmetry_group_IT_number 58
_symmetry_cell_setting 'orthorhombic'
loop_
_space_group_symop_operation_xyz
x,y,z
-x,-y,z
1/2+x,1/2-y,1/2-z
1/2-x,1/2+y,1/2-z
-x,-y,-z
x,y,-z
1/2-x,1/2+y,1/2+z
1/2+x,1/2-y,1/2+z
loop_
_atom_site_type_symbol
_atom_site_label
_atom_site_fract_x
_atom_site_fract_y
_atom_site_fract_z
Si Si1 0.579468 0.295377 0.889447
Si Si2 0.543436 0.866904 0.197302
Si Si3 0.611536 0.573648 0.781994
Si Si4 0.171836 0.441443 0.695363
Si Si5 0.757654 0.615780 0.887698
Si Si6 0.808435 0.949655 0.107688
O O1 0.510341 0.198683 0.879723
O O2 0.572030 0.456907 0.847808
O O3 0.637101 0.214067 0.825079
O O4 0.601547 0.299364 0.000000
O O5 0.569810 0.718695 0.246788
O O6 0.500000 0.000000 0.246888
O O7 0.613538 0.943739 0.163534
O O8 0.680548 0.611731 0.843921
O O9 0.635673 0.491968 0.686097
O O10 0.194555 0.464236 0.807240
O O11 0.240130 0.458940 0.633112
O O12 0.784781 0.781714 0.886279
O O13 0.759395 0.564920 0.000000
O O14 0.832408 0.980189 0.000000
#
# Coordination Sequence:
#
# PCOD9443352 Si02
#       6
#     8   8   8   8   8   8
#     4  11  23  37  58  88 119 157 198 239 289 349
#     4  10  23  39  59  80 118 160 193 236 294 346
#     4  11  21  39  59  89 123 152 195 248 291 347
#     4  10  20  39  57  89 122 155 190 244 292 349
#     4  10  20  35  62  91 119 156 192 240 301 351
#     4  10  20  35  62  89 117 157 194 239 298 355
#
# _framework density 19.482251999999999
#
# number of rings (size 3 to 8) (size 9 to 14) (size 15 to 20)
#    0.000    1.667    3.333    1.500    0.000    5.667 
#    0.000    2.500    0.000   12.000    0.000    0.000 
#    0.000    0.000    0.000    0.000    0.000    0.000 
#
# Total GULP energy -267459.412282 kJ/mol
# GULP energy per Si atom -5572.071089 kJ/mol
# Density = 1.943791 g / cm^3
# Si number density = 19.482252 Si / 1000 Ang^3
#
#
#
# Elastic Constant Matrix: (Units=GPa)
#
#
# Indices 1 2 3 4 5 6 
#
# 1 58.9334 18.2407 28.4455 0.0000 0.0000 0.0000
# 2 18.2407 87.5398 21.3140 0.0000 0.0000 0.0000
# 3 28.4455 21.3140 129.3938 0.0000 0.0000 0.0000
# 4 0.0000 0.0000 0.0000 14.8228 0.0000 0.0000
# 5 0.0000 0.0000 0.0000 0.0000 9.8468 0.0000
# 6 0.0000 0.0000 0.0000 0.0000 0.0000 36.7374
#
#
#
# Elastic Compliance Matrix: (Units=1/GPa)
#
#
# Indices 1 2 3 4 5 6 
#
# 1 0.019805 -0.003195 -0.003828 0.000000 0.000000 0.000000
# 2 -0.003195 0.012416 -0.001343 0.000000 0.000000 0.000000
# 3 -0.003828 -0.001343 0.008791 0.000000 0.000000 0.000000
# 4 0.000000 0.000000 0.000000 0.067464 0.000000 0.000000
# 5 0.000000 0.000000 0.000000 0.000000 0.101556 0.000000
# 6 0.000000 0.000000 0.000000 0.000000 0.000000 0.027220
#
#
# Mechanical properties :
#
#
# Convention : Reuss Voigt Hill
#
# Bulk Modulus (GPa) = 41.18402 45.76306 43.47354
# Shear Modulus (GPa) = 19.07845 26.13917 22.60881
#
# Velocity S-wave (km/s) = 3.13273 3.66688 3.41028
# Velocity P-wave (km/s) = 5.85410 6.43962 6.15383
#
# Compressibility (1/GPa) = 0.02428126
#
# Stress axis : x y z
#
# Youngs Moduli (GPa) = 50.49334 80.54106 113.75302
#
# Poissons Ratio (x) = 0.25731 0.43539
# Poissons Ratio (y) = 0.16131 0.15276
# Poissons Ratio (z) = 0.19326 0.10816
#
# Static dielectric constant tensor:
#      x y z
#    x 1.697300 0.000000 0.000000 
#    y 0.000000 1.720330 0.000000 
#    z 0.000000 0.000000 1.647020 
# 
# From -- ./inp_files/19851.got.cif
#   From: 2010.05.17/outbox.cif.g08.bks.cpg/sg58_10_cif.got.tgz:19851.got - 2010.06.03 14:20:14.
