data_PCOD9443029
_publ_section_title
;
Structure prediction by ZEFSAII (Michael W. Deem and Ramdas Pophale) SiO2 
 PCOD9443029
Probable space group: P N N M
;
_chemical_formula_sum "Si O2"
_cell_formula_units_Z 40
_cell_length_a 28.772288
_cell_length_b 7.416007
_cell_length_c 9.192146
_cell_angle_alpha 90.000000
_cell_angle_beta 90.000000
_cell_angle_gamma 90.000000
_cell_volume 1961.378650
_symmetry_space_group_name_H-M "P N N M"
_symmetry_group_IT_number 58
_symmetry_cell_setting 'orthorhombic'
loop_
_space_group_symop_operation_xyz
x,y,z
-x,-y,z
1/2+x,1/2-y,1/2-z
1/2-x,1/2+y,1/2-z
-x,-y,-z
x,y,-z
1/2-x,1/2+y,1/2+z
1/2+x,1/2-y,1/2+z
loop_
_atom_site_type_symbol
_atom_site_label
_atom_site_fract_x
_atom_site_fract_y
_atom_site_fract_z
Si Si1 0.404369 0.101672 0.171577
Si Si2 0.951279 0.093299 0.173069
Si Si3 0.383901 0.678907 0.830077
Si Si4 0.185864 0.664274 0.165804
Si Si5 0.787419 0.678349 0.332302
O O1 0.444244 0.211499 0.253796
O O2 0.356542 0.195824 0.225450
O O3 0.398858 0.887493 0.202566
O O4 0.409767 0.121640 0.000000
O O5 0.911429 0.958791 0.230657
O O6 0.948605 0.111516 0.000000
O O7 0.000000 0.000000 0.212206
O O8 0.327709 0.671873 0.814580
O O9 0.394820 0.644411 0.000000
O O10 0.201651 0.463689 0.207954
O O11 0.233784 0.771472 0.180019
O O12 0.169140 0.679249 0.000000
O O13 0.794917 0.609030 0.500000
#
# Coordination Sequence:
#
# PCOD9443029 Si02
#       5
#     8   8   8   8   8
#     4  10  22  41  63  87 120 158 200 250 299 356
#     4  11  25  42  62  91 122 155 199 251 309 366
#     4   9  20  40  62  86 119 158 201 248 297 354
#     4  10  20  34  55  85 118 155 197 239 291 349
#     4   9  20  36  53  82 118 154 196 238 287 348
#
# _framework density 20.393818
#
# number of rings (size 3 to 8) (size 9 to 14) (size 15 to 20)
#    0.000    2.200    0.000    3.000    2.800    8.000 
#    0.000    4.000    0.000    0.000    0.000    0.000 
#    0.000    0.000    0.000    0.000    0.000    0.000 
#
# Total GULP energy -223139.123906 kJ/mol
# GULP energy per Si atom -5578.478098 kJ/mol
# Density = 2.034740 g / cm^3
# Si number density = 20.393818 Si / 1000 Ang^3
#
#
#
# Elastic Constant Matrix: (Units=GPa)
#
#
# Indices 1 2 3 4 5 6 
#
# 1 15.4696 4.5325 0.5622 0.0000 0.0000 0.0000
# 2 4.5325 39.2268 11.4423 0.0000 0.0000 0.0000
# 3 0.5622 11.4423 23.2251 0.0000 0.0000 0.0000
# 4 0.0000 0.0000 0.0000 -9.7153 0.0000 0.0000
# 5 0.0000 0.0000 0.0000 0.0000 -1.2975 0.0000
# 6 0.0000 0.0000 0.0000 0.0000 0.0000 25.2378
#
#
#
# Elastic Compliance Matrix: (Units=1/GPa)
#
#
# Indices 1 2 3 4 5 6 
#
# 1 0.067038 -0.008493 0.002562 0.000000 0.000000 0.000000
# 2 -0.008493 0.030847 -0.014992 0.000000 0.000000 0.000000
# 3 0.002562 -0.014992 0.050381 0.000000 0.000000 0.000000
# 4 0.000000 0.000000 0.000000 -0.102930 0.000000 0.000000
# 5 0.000000 0.000000 0.000000 0.000000 -0.770721 0.000000
# 6 0.000000 0.000000 0.000000 0.000000 0.000000 0.039623
#
#
# Mechanical properties :
#
#
# Convention : Reuss Voigt Hill
#
# Bulk Modulus (GPa) = 9.39677 12.33284 10.86480
# Shear Modulus (GPa) = -8.21773 6.93729 -0.64022
#
# Velocity S-wave (km/s) = -2.00954 1.84636 -0.56090
# Velocity P-wave (km/s) = 0.87561 3.25666 2.21801
#
# Compressibility (1/GPa) = 0.10641953
#
# Stress axis : x y z
#
# Youngs Moduli (GPa) = 14.91682 32.41777 19.84873
#
# Poissons Ratio (x) = 0.27533 -0.05085
# Poissons Ratio (y) = 0.12669 0.29757
# Poissons Ratio (z) = -0.03821 0.48601
#
# Static dielectric constant tensor:
#      x y z
#    x 1.767110 0.000000 0.000000 
#    y 0.000000 1.761770 0.000000 
#    z 0.000000 0.000000 1.692730 
# 
# From -- ./inp_files/2421.got.cif
#   From: 2010.05.17/outbox.cif.g08.bks.cpg/sg58_2_cif.got.tgz:2421.got - 2010.06.03 14:20:14.
