data_PCOD9443388
_publ_section_title
;
Structure prediction by ZEFSAII (Michael W. Deem and Ramdas Pophale) SiO2 
 PCOD9443388
Probable space group: P N N M
;
_chemical_formula_sum "Si O2"
_cell_formula_units_Z 56
_cell_length_a 14.046455
_cell_length_b 19.730367
_cell_length_c 7.539092
_cell_angle_alpha 90.000000
_cell_angle_beta 90.000000
_cell_angle_gamma 90.000000
_cell_volume 2089.396865
_symmetry_space_group_name_H-M "P N N M"
_symmetry_group_IT_number 58
_symmetry_cell_setting 'orthorhombic'
loop_
_space_group_symop_operation_xyz
x,y,z
-x,-y,z
1/2+x,1/2-y,1/2-z
1/2-x,1/2+y,1/2-z
-x,-y,-z
x,y,-z
1/2-x,1/2+y,1/2+z
1/2+x,1/2-y,1/2+z
loop_
_atom_site_type_symbol
_atom_site_label
_atom_site_fract_x
_atom_site_fract_y
_atom_site_fract_z
Si Si1 0.534493 0.570553 0.295471
Si Si2 0.713357 0.500322 0.789648
Si Si3 0.282685 0.790989 0.783444
Si Si4 0.060117 0.784413 0.785226
Si Si5 0.606281 0.075874 0.786414
Si Si6 0.702978 0.354214 0.797140
Si Si7 0.919990 0.363773 0.705091
O O1 0.500000 0.500000 0.209417
O O2 0.504974 0.570945 0.500000
O O3 0.648744 0.558841 0.292858
O O4 0.512709 0.645116 0.222411
O O5 0.824182 0.514157 0.756176
O O6 0.679517 0.427341 0.716951
O O7 0.699595 0.501332 0.000000
O O8 0.171599 0.791731 0.734398
O O9 0.337364 0.857266 0.721702
O O10 0.322621 0.718478 0.716877
O O11 0.286530 0.789767 0.000000
O O12 0.031076 0.711109 0.713194
O O13 0.054458 0.782432 0.000000
O O14 0.498080 0.083707 0.723395
O O15 0.599805 0.078621 0.000000
O O16 0.819185 0.356619 0.800025
O O17 0.671347 0.354842 0.000000
O O18 0.898523 0.379243 0.500000
#
# Coordination Sequence:
#
# PCOD9443388 Si02
#       7
#     8   8   8   8   8   8   8
#     4  10  21  38  60  84 114 154 191 225 281 351
#     4  11  23  37  57  85 115 150 191 240 288 332
#     4   8  14  31  57  74  94 142 190 221 267 334
#     4   9  17  34  57  77 106 146 182 223 280 339
#     4  10  20  36  57  81 111 148 191 234 285 346
#     4   9  20  38  56  77 112 154 191 229 286 346
#     4  10  21  34  55  86 112 143 190 244 286 326
#
# _framework density 26.801995000000002
#
# number of rings (size 3 to 8) (size 9 to 14) (size 15 to 20)
#    0.000    2.429    1.429    1.714    0.000    4.857 
#    0.000    4.286    0.000    0.000    0.000    0.000 
#    0.000    0.000    0.000    0.000    0.000    0.000 
#
# Total GULP energy -313305.683554 kJ/mol
# GULP energy per Si atom -5594.744349 kJ/mol
# Density = 2.674099 g / cm^3
# Si number density = 26.801995 Si / 1000 Ang^3
#
#
#
# Elastic Constant Matrix: (Units=GPa)
#
#
# Indices 1 2 3 4 5 6 
#
# 1 89.2758 8.9930 19.5369 0.0000 0.0000 0.0000
# 2 8.9930 138.6623 0.9768 0.0000 0.0000 0.0000
# 3 19.5369 0.9768 96.4877 0.0000 0.0000 0.0000
# 4 0.0000 0.0000 0.0000 16.5523 0.0000 0.0000
# 5 0.0000 0.0000 0.0000 0.0000 146.0284 0.0000
# 6 0.0000 0.0000 0.0000 0.0000 0.0000 55.2590
#
#
#
# Elastic Compliance Matrix: (Units=1/GPa)
#
#
# Indices 1 2 3 4 5 6 
#
# 1 0.011798 -0.000748 -0.002381 0.000000 0.000000 0.000000
# 2 -0.000748 0.007260 0.000078 0.000000 0.000000 0.000000
# 3 -0.002381 0.000078 0.010845 0.000000 0.000000 0.000000
# 4 0.000000 0.000000 0.000000 0.060415 0.000000 0.000000
# 5 0.000000 0.000000 0.000000 0.000000 0.006848 0.000000
# 6 0.000000 0.000000 0.000000 0.000000 0.000000 0.018097
#
#
# Mechanical properties :
#
#
# Convention : Reuss Voigt Hill
#
# Bulk Modulus (GPa) = 42.01728 42.60433 42.31081
# Shear Modulus (GPa) = 38.67024 63.22923 50.94973
#
# Velocity S-wave (km/s) = 3.80256 4.86235 4.36474
# Velocity P-wave (km/s) = 5.91525 6.88867 6.42043
#
# Compressibility (1/GPa) = 0.02379973
#
# Stress axis : x y z
#
# Youngs Moduli (GPa) = 84.76202 137.74576 92.20515
#
# Poissons Ratio (x) = 0.10309 0.21956
# Poissons Ratio (y) = 0.06343 -0.00720
# Poissons Ratio (z) = 0.20184 -0.01075
#
# Static dielectric constant tensor:
#      x y z
#    x 2.185440 0.000000 0.000000 
#    y 0.000000 2.132740 0.000000 
#    z 0.000000 0.000000 1.959390 
# 
# From -- ./inp_files/6341.got.cif
#   From: 2010.05.17/outbox.cif.g08.bks.cpg/sg58_4_cif.got.tgz:6341.got - 2010.06.03 14:20:14.
