data_PCOD9443541
_publ_section_title
;
Structure prediction by ZEFSAII (Michael W. Deem and Ramdas Pophale) SiO2 
 PCOD9443541
Probable space group: P N N M
;
_chemical_formula_sum "Si O2"
_cell_formula_units_Z 64
_cell_length_a 10.819478
_cell_length_b 33.637912
_cell_length_c 7.597576
_cell_angle_alpha 90.000000
_cell_angle_beta 90.000000
_cell_angle_gamma 90.000000
_cell_volume 2765.097129
_symmetry_space_group_name_H-M "P N N M"
_symmetry_group_IT_number 58
_symmetry_cell_setting 'orthorhombic'
loop_
_space_group_symop_operation_xyz
x,y,z
-x,-y,z
1/2+x,1/2-y,1/2-z
1/2-x,1/2+y,1/2-z
-x,-y,-z
x,y,-z
1/2-x,1/2+y,1/2+z
1/2+x,1/2-y,1/2+z
loop_
_atom_site_type_symbol
_atom_site_label
_atom_site_fract_x
_atom_site_fract_y
_atom_site_fract_z
Si Si1 0.927084 0.133432 0.291667
Si Si2 0.550784 0.200030 0.698594
Si Si3 0.546599 0.288692 0.288085
Si Si4 0.326543 0.589830 0.789082
Si Si5 0.796850 0.332723 0.291440
Si Si6 0.157336 0.382221 0.217222
Si Si7 0.406064 0.966511 0.706247
Si Si8 0.141679 0.000811 0.799281
O O1 0.929698 0.127005 0.500000
O O2 0.799880 0.115452 0.226682
O O3 0.938246 0.180880 0.263743
O O4 0.047830 0.111059 0.220872
O O5 0.602571 0.203965 0.500000
O O6 0.552634 0.243836 0.781016
O O7 0.408702 0.187415 0.693682
O O8 0.612317 0.160932 0.780181
O O9 0.542037 0.286580 0.500000
O O10 0.670720 0.311467 0.233782
O O11 0.218256 0.620720 0.747038
O O12 0.318326 0.546759 0.707464
O O13 0.332172 0.585073 0.000000
O O14 0.811826 0.326783 0.500000
O O15 0.085801 0.421537 0.278131
O O16 0.151377 0.381694 0.000000
O O17 0.437865 0.963526 0.500000
O O18 0.500000 0.000000 0.780681
O O19 0.260398 0.978508 0.717752
O O20 0.130722 0.986474 0.000000
O O21 0.000000 0.000000 0.723124
#
# Coordination Sequence:
#
# PCOD9443541 Si02
#       8
#     8   8   8   8   8   8   8   8
#     4   9  18  34  59  85 112 149 190 236 286 340
#     4  10  21  36  56  80 111 151 191 232 283 347
#     4   9  20  36  54  80 113 149 186 234 290 338
#     4  10  20  36  61  89 116 150 193 241 289 344
#     4  10  21  37  56  82 115 149 189 236 289 347
#     4   9  19  36  58  83 113 148 190 236 287 348
#     4  10  22  40  63  91 120 156 203 254 308 368
#     4  11  24  40  61  91 125 161 199 249 308 361
#
# _framework density 23.145661
#
# number of rings (size 3 to 8) (size 9 to 14) (size 15 to 20)
#    0.000    2.250    0.000    1.875    3.500    3.750 
#    0.000    1.875    0.000    0.000    0.000    0.000 
#    0.000    0.000    0.000    0.000    0.000    0.000 
#
# Total GULP energy -357223.937704 kJ/mol
# GULP energy per Si atom -5581.624027 kJ/mol
# Density = 2.309298 g / cm^3
# Si number density = 23.145661 Si / 1000 Ang^3
#
#
#
# Elastic Constant Matrix: (Units=GPa)
#
#
# Indices 1 2 3 4 5 6 
#
# 1 49.7047 14.1420 -7.1098 0.0000 0.0000 0.0000
# 2 14.1420 140.3862 -10.3481 0.0000 0.0000 0.0000
# 3 -7.1098 -10.3481 55.9352 0.0000 0.0000 0.0000
# 4 0.0000 0.0000 0.0000 -5.4428 0.0000 0.0000
# 5 0.0000 0.0000 0.0000 0.0000 13.5007 0.0000
# 6 0.0000 0.0000 0.0000 0.0000 0.0000 28.6651
#
#
#
# Elastic Compliance Matrix: (Units=1/GPa)
#
#
# Indices 1 2 3 4 5 6 
#
# 1 0.021003 -0.001945 0.002310 0.000000 0.000000 0.000000
# 2 -0.001945 0.007402 0.001122 0.000000 0.000000 0.000000
# 3 0.002310 0.001122 0.018379 0.000000 0.000000 0.000000
# 4 0.000000 0.000000 0.000000 -0.183730 0.000000 0.000000
# 5 0.000000 0.000000 0.000000 0.000000 0.074070 0.000000
# 6 0.000000 0.000000 0.000000 0.000000 0.000000 0.034886
#
#
# Mechanical properties :
#
#
# Convention : Reuss Voigt Hill
#
# Bulk Modulus (GPa) = 20.09800 26.59936 23.34868
# Shear Modulus (GPa) = -347.75962 23.96740 -161.89611
#
# Velocity S-wave (km/s) = -12.27088 3.22141 -8.37248
# Velocity P-wave (km/s) = 13.85871 5.03525 9.12990
#
# Compressibility (1/GPa) = 0.04975620
#
# Stress axis : x y z
#
# Youngs Moduli (GPa) = 47.61287 135.10042 54.40990
#
# Poissons Ratio (x) = 0.26284 -0.12567
# Poissons Ratio (y) = 0.09263 -0.06105
# Poissons Ratio (z) = -0.10997 -0.15159
#
# Static dielectric constant tensor:
#      x y z
#    x 1.896510 0.000000 0.000000 
#    y 0.000000 1.884470 0.000000 
#    z 0.000000 0.000000 1.890920 
# 
# From -- ./inp_files/4843.got.cif
#   From: 2010.05.17/outbox.cif.g08.bks.cpg/sg58_3_cif.got.tgz:4843.got - 2010.06.03 14:20:14.
