data_PCOD9443217
_publ_section_title
;
Structure prediction by ZEFSAII (Michael W. Deem and Ramdas Pophale) SiO2 
 PCOD9443217
Probable space group: P N N M
;
_chemical_formula_sum "Si O2"
_cell_formula_units_Z 64
_cell_length_a 14.277576
_cell_length_b 23.584298
_cell_length_c 10.104769
_cell_angle_alpha 90.000000
_cell_angle_beta 90.000000
_cell_angle_gamma 90.000000
_cell_volume 3402.544581
_symmetry_space_group_name_H-M "P N N M"
_symmetry_group_IT_number 58
_symmetry_cell_setting 'orthorhombic'
loop_
_space_group_symop_operation_xyz
x,y,z
-x,-y,z
1/2+x,1/2-y,1/2-z
1/2-x,1/2+y,1/2-z
-x,-y,-z
x,y,-z
1/2-x,1/2+y,1/2+z
1/2+x,1/2-y,1/2+z
loop_
_atom_site_type_symbol
_atom_site_label
_atom_site_fract_x
_atom_site_fract_y
_atom_site_fract_z
Si Si1 0.047850 0.938059 0.649181
Si Si2 0.435265 0.662577 0.262276
Si Si3 0.312637 0.767456 0.842196
Si Si4 0.730119 0.411170 0.349790
Si Si5 0.789648 0.038416 0.839468
Si Si6 0.907041 0.246838 0.153648
Si Si7 0.886273 0.611843 0.659581
Si Si8 0.917374 0.352112 0.339898
O O1 0.086776 0.937577 0.500000
O O2 0.126708 0.931621 0.761304
O O3 0.976755 0.885269 0.664335
O O4 0.000000 0.000000 0.668698
O O5 0.370502 0.713127 0.205801
O O6 0.362673 0.626428 0.349191
O O7 0.523273 0.693774 0.329406
O O8 0.201688 0.766102 0.815034
O O9 0.353511 0.826637 0.789274
O O10 0.322880 0.768430 0.000000
O O11 0.760019 0.422874 0.500000
O O12 0.709918 0.473017 0.293870
O O13 0.818540 0.377622 0.292344
O O14 0.689836 0.065424 0.802021
O O15 0.803179 0.042522 0.000000
O O16 0.935176 0.294788 0.259072
O O17 0.912021 0.265864 0.000000
O O18 0.880793 0.613505 0.500000
O O19 0.996021 0.605866 0.689229
O O20 0.915135 0.341265 0.500000
#
# Coordination Sequence:
#
# PCOD9443217 Si02
#       8
#     8   8   8   8   8   8   8   8
#     4  11  24  40  59  89 119 152 200 247 296 358
#     4  12  21  37  61  84 117 160 193 245 293 357
#     4  10  20  35  56  84 115 155 196 235 294 356
#     4  10  21  36  58  90 118 152 201 247 293 349
#     4  10  21  40  64  88 118 160 201 246 303 354
#     4  11  23  37  58  89 122 154 197 246 296 357
#     4   9  18  35  60  85 115 152 197 245 291 350
#     4  10  20  37  59  86 121 155 196 247 293 351
#
# _framework density 18.809453000000001
#
# number of rings (size 3 to 8) (size 9 to 14) (size 15 to 20)
#    0.000    1.625    3.750    1.500    0.000    3.250 
#    0.000    3.750    0.000    0.000    0.000    1.750 
#    0.000    0.000    0.000    0.000    0.000    0.000 
#
# Total GULP energy -356572.836507 kJ/mol
# GULP energy per Si atom -5571.450570 kJ/mol
# Density = 1.876664 g / cm^3
# Si number density = 18.809453 Si / 1000 Ang^3
#
#
#
# Elastic Constant Matrix: (Units=GPa)
#
#
# Indices 1 2 3 4 5 6 
#
# 1 114.4655 51.5349 34.3309 0.0000 0.0000 0.0000
# 2 51.5349 89.0280 12.9152 0.0000 0.0000 0.0000
# 3 34.3309 12.9152 45.0805 0.0000 0.0000 0.0000
# 4 0.0000 0.0000 0.0000 14.9743 0.0000 0.0000
# 5 0.0000 0.0000 0.0000 0.0000 19.1619 0.0000
# 6 0.0000 0.0000 0.0000 0.0000 0.0000 32.9105
#
#
#
# Elastic Compliance Matrix: (Units=1/GPa)
#
#
# Indices 1 2 3 4 5 6 
#
# 1 0.014718 -0.007193 -0.009148 0.000000 0.000000 0.000000
# 2 -0.007193 0.015235 0.001113 0.000000 0.000000 0.000000
# 3 -0.009148 0.001113 0.028830 0.000000 0.000000 0.000000
# 4 0.000000 0.000000 0.000000 0.066781 0.000000 0.000000
# 5 0.000000 0.000000 0.000000 0.000000 0.052187 0.000000
# 6 0.000000 0.000000 0.000000 0.000000 0.000000 0.030385
#
#
# Mechanical properties :
#
#
# Convention : Reuss Voigt Hill
#
# Bulk Modulus (GPa) = 35.30110 49.57064 42.43587
# Shear Modulus (GPa) = 20.15849 23.39555 21.77702
#
# Velocity S-wave (km/s) = 3.27727 3.53061 3.40629
# Velocity P-wave (km/s) = 5.75579 6.55985 6.17093
#
# Compressibility (1/GPa) = 0.02832773
#
# Stress axis : x y z
#
# Youngs Moduli (GPa) = 67.94262 65.64021 34.68574
#
# Poissons Ratio (x) = 0.47213 0.31731
# Poissons Ratio (y) = 0.48870 -0.03861
# Poissons Ratio (z) = 0.62154 -0.07306
#
# Static dielectric constant tensor:
#      x y z
#    x 1.688880 0.000000 0.000000 
#    y 0.000000 1.676210 0.000000 
#    z 0.000000 0.000000 1.639750 
# 
# From -- ./inp_files/14833.got.cif
#   From: 2010.05.17/outbox.cif.g08.bks.cpg/sg58_8_cif.got.tgz:14833.got - 2010.06.03 14:20:14.
