data_PCOD9443717
_publ_section_title
;
Structure prediction by ZEFSAII (Michael W. Deem and Ramdas Pophale) SiO2 
 PCOD9443717
Probable space group: P N N M
;
_chemical_formula_sum "Si O2"
_cell_formula_units_Z 56
_cell_length_a 14.910084
_cell_length_b 21.720942
_cell_length_c 8.109219
_cell_angle_alpha 90.000000
_cell_angle_beta 90.000000
_cell_angle_gamma 90.000000
_cell_volume 2626.260340
_symmetry_space_group_name_H-M "P N N M"
_symmetry_group_IT_number 58
_symmetry_cell_setting 'orthorhombic'
loop_
_space_group_symop_operation_xyz
x,y,z
-x,-y,z
1/2+x,1/2-y,1/2-z
1/2-x,1/2+y,1/2-z
-x,-y,-z
x,y,-z
1/2-x,1/2+y,1/2+z
1/2+x,1/2-y,1/2+z
loop_
_atom_site_type_symbol
_atom_site_label
_atom_site_fract_x
_atom_site_fract_y
_atom_site_fract_z
Si Si1 0.100183 0.877928 0.800955
Si Si2 0.581746 0.176362 0.701111
Si Si3 0.084763 0.462774 0.804180
Si Si4 0.392775 0.236277 0.300361
Si Si5 0.096366 0.087640 0.308459
Si Si6 0.226785 0.983140 0.807359
Si Si7 0.197138 0.208686 0.196440
O O1 0.104649 0.807438 0.743790
O O2 0.181139 0.920682 0.739889
O O3 0.005673 0.907378 0.750725
O O4 0.103540 0.877451 0.000000
O O5 0.584591 0.175541 0.500000
O O6 0.593505 0.106845 0.762215
O O7 0.484137 0.202333 0.749403
O O8 0.656835 0.225591 0.753499
O O9 0.178812 0.496573 0.777072
O O10 0.000000 0.500000 0.735244
O O11 0.070036 0.456636 0.000000
O O12 0.389954 0.235916 0.500000
O O13 0.302100 0.205878 0.235397
O O14 0.097923 0.071492 0.500000
O O15 0.142545 0.153710 0.279606
O O16 0.154787 0.036994 0.214741
O O17 0.245205 0.974839 0.000000
O O18 0.182612 0.203477 0.000000
#
# Coordination Sequence:
#
# PCOD9443717 Si02
#       7
#     8   8   8   8   8   8   8
#     4  10  21  41  65  91 126 165 202 251 312 373
#     4   9  19  38  62  86 122 164 199 245 305 361
#     4  10  22  40  63  91 124 165 211 254 302 362
#     4  10  20  37  62  90 123 162 204 248 302 366
#     4  12  25  40  62  91 123 160 207 260 312 372
#     4  11  24  41  63  90 123 164 205 253 314 371
#     4  11  22  39  61  89 124 163 206 255 311 367
#
# _framework density 21.323096
#
# number of rings (size 3 to 8) (size 9 to 14) (size 15 to 20)
#    0.000    1.571    1.429    3.429    2.000    3.714 
#    0.000    1.429    0.000    0.000    0.000    0.000 
#    0.000    0.000    0.000    0.000    0.000    0.000 
#
# Total GULP energy -313148.942760 kJ/mol
# GULP energy per Si atom -5591.945406 kJ/mol
# Density = 2.127456 g / cm^3
# Si number density = 21.323096 Si / 1000 Ang^3
#
#
#
# Elastic Constant Matrix: (Units=GPa)
#
#
# Indices 1 2 3 4 5 6 
#
# 1 93.2869 -5.8734 -10.8743 0.0000 0.0000 0.0000
# 2 -5.8734 45.3729 -3.4929 0.0000 0.0000 0.0000
# 3 -10.8743 -3.4929 14.2814 0.0000 0.0000 0.0000
# 4 0.0000 0.0000 0.0000 11.4937 0.0000 0.0000
# 5 0.0000 0.0000 0.0000 0.0000 28.4416 0.0000
# 6 0.0000 0.0000 0.0000 0.0000 0.0000 30.7487
#
#
#
# Elastic Compliance Matrix: (Units=1/GPa)
#
#
# Indices 1 2 3 4 5 6 
#
# 1 0.011995 0.002299 0.009695 0.000000 0.000000 0.000000
# 2 0.002299 0.022903 0.007352 0.000000 0.000000 0.000000
# 3 0.009695 0.007352 0.079202 0.000000 0.000000 0.000000
# 4 0.000000 0.000000 0.000000 0.087004 0.000000 0.000000
# 5 0.000000 0.000000 0.000000 0.000000 0.035160 0.000000
# 6 0.000000 0.000000 0.000000 0.000000 0.000000 0.032522
#
#
# Mechanical properties :
#
#
# Convention : Reuss Voigt Hill
#
# Bulk Modulus (GPa) = 6.54484 12.49555 9.52020
# Shear Modulus (GPa) = 17.79218 25.68227 21.73723
#
# Velocity S-wave (km/s) = 2.89175 3.47426 3.19630
# Velocity P-wave (km/s) = 3.77169 4.68688 4.25397
#
# Compressibility (1/GPa) = 0.15279221
#
# Stress axis : x y z
#
# Youngs Moduli (GPa) = 83.37137 43.66204 12.62601
#
# Poissons Ratio (x) = -0.10038 -0.12241
# Poissons Ratio (y) = -0.19167 -0.09283
# Poissons Ratio (z) = -0.80831 -0.32101
#
# Static dielectric constant tensor:
#      x y z
#    x 1.727170 0.000000 0.000000 
#    y 0.000000 1.771510 0.000000 
#    z 0.000000 0.000000 1.743570 
# 
# From -- ./inp_files/6381.got.cif
#   From: 2010.05.17/outbox.cif.g08.bks.cpg/sg58_4_cif.got.tgz:6381.got - 2010.06.03 14:20:14.
