data_PCOD9443367
_publ_section_title
;
Structure prediction by ZEFSAII (Michael W. Deem and Ramdas Pophale) SiO2 
 PCOD9443367
Probable space group: P N N M
;
_chemical_formula_sum "Si O2"
_cell_formula_units_Z 32
_cell_length_a 12.704210
_cell_length_b 4.869562
_cell_length_c 24.315714
_cell_angle_alpha 90.000000
_cell_angle_beta 90.000000
_cell_angle_gamma 90.000000
_cell_volume 1504.265830
_symmetry_space_group_name_H-M "P N N M"
_symmetry_group_IT_number 58
_symmetry_cell_setting 'orthorhombic'
loop_
_space_group_symop_operation_xyz
x,y,z
-x,-y,z
1/2+x,1/2-y,1/2-z
1/2-x,1/2+y,1/2-z
-x,-y,-z
x,y,-z
1/2-x,1/2+y,1/2+z
1/2+x,1/2-y,1/2+z
loop_
_atom_site_type_symbol
_atom_site_label
_atom_site_fract_x
_atom_site_fract_y
_atom_site_fract_z
Si Si1 0.817882 0.057390 0.759308
Si Si2 0.377921 0.002677 0.436292
Si Si3 0.429742 0.736945 0.841081
Si Si4 0.288300 0.494286 0.619104
O O1 0.786616 0.365224 0.743693
O O2 0.849087 0.046095 0.822830
O O3 0.889976 0.921524 0.713408
O O4 0.371324 0.921006 0.500000
O O5 0.304073 0.807744 0.398968
O O6 0.500000 0.000000 0.418970
O O7 0.340837 0.312040 0.427610
O O8 0.500000 0.500000 0.870960
O O9 0.327885 0.867367 0.871371
O O10 0.500000 0.000000 0.827839
#
# Coordination Sequence:
#
# PCOD9443367 Si02
#       4
#     8   8   8   8
#     4  10  20  36  55  84 121 156 196 235 277 339
#     4  11  24  42  64  89 114 148 199 257 314 359
#     4  11  22  37  59  89 127 165 198 235 288 359
#     4  11  22  40  63  88 121 159 198 244 298 357
#
# _framework density 21.272836000000002
#
# number of rings (size 3 to 8) (size 9 to 14) (size 15 to 20)
#    0.000    1.250    0.000    9.000    0.000    5.000 
#    0.000    0.000    0.000   15.000    0.000    0.000 
#    0.000    0.000    0.000    0.000    0.000    0.000 
#
# Total GULP energy -178663.197487 kJ/mol
# GULP energy per Si atom -5583.224921 kJ/mol
# Density = 2.122442 g / cm^3
# Si number density = 21.272836 Si / 1000 Ang^3
#
#
#
# Elastic Constant Matrix: (Units=GPa)
#
#
# Indices 1 2 3 4 5 6 
#
# 1 75.3402 -12.4191 18.5004 0.0000 0.0000 0.0000
# 2 -12.4191 63.4125 4.6963 0.0000 0.0000 0.0000
# 3 18.5004 4.6963 55.3007 0.0000 0.0000 0.0000
# 4 0.0000 0.0000 0.0000 71.4499 0.0000 0.0000
# 5 0.0000 0.0000 0.0000 0.0000 14.0118 0.0000
# 6 0.0000 0.0000 0.0000 0.0000 0.0000 42.1032
#
#
#
# Elastic Compliance Matrix: (Units=1/GPa)
#
#
# Indices 1 2 3 4 5 6 
#
# 1 0.015141 0.003362 -0.005351 0.000000 0.000000 0.000000
# 2 0.003362 0.016616 -0.002536 0.000000 0.000000 0.000000
# 3 -0.005351 -0.002536 0.020088 0.000000 0.000000 0.000000
# 4 0.000000 0.000000 0.000000 0.013996 0.000000 0.000000
# 5 0.000000 0.000000 0.000000 0.000000 0.071368 0.000000
# 6 0.000000 0.000000 0.000000 0.000000 0.000000 0.023751
#
#
# Mechanical properties :
#
#
# Convention : Reuss Voigt Hill
#
# Bulk Modulus (GPa) = 23.36684 23.95651 23.66168
# Shear Modulus (GPa) = 27.13324 37.73136 32.43230
#
# Velocity S-wave (km/s) = 3.57527 4.21609 3.90883
# Velocity P-wave (km/s) = 5.29638 5.91494 5.61418
#
# Compressibility (1/GPa) = 0.04279568
#
# Stress axis : x y z
#
# Youngs Moduli (GPa) = 66.04500 60.18333 49.78003
#
# Poissons Ratio (x) = -0.20231 0.26636
# Poissons Ratio (y) = -0.22202 0.12623
# Poissons Ratio (z) = 0.35340 0.15260
#
# Static dielectric constant tensor:
#      x y z
#    x 1.834620 0.000000 0.000000 
#    y 0.000000 1.718460 0.000000 
#    z 0.000000 0.000000 1.742070 
# 
# From -- ./inp_files/27929.got.cif
#   From: 2010.05.17/outbox.cif.g08.bks.cpg/sg58_14_cif.got.tgz:27929.got - 2010.06.03 14:20:14.
