data_PCOD9443486
_publ_section_title
;
Structure prediction by ZEFSAII (Michael W. Deem and Ramdas Pophale) SiO2 
 PCOD9443486
Probable space group: P N N M
;
_chemical_formula_sum "Si O2"
_cell_formula_units_Z 48
_cell_length_a 15.108344
_cell_length_b 12.326687
_cell_length_c 14.026643
_cell_angle_alpha 90.000000
_cell_angle_beta 90.000000
_cell_angle_gamma 90.000000
_cell_volume 2612.263467
_symmetry_space_group_name_H-M "P N N M"
_symmetry_group_IT_number 58
_symmetry_cell_setting 'orthorhombic'
loop_
_space_group_symop_operation_xyz
x,y,z
-x,-y,z
1/2+x,1/2-y,1/2-z
1/2-x,1/2+y,1/2-z
-x,-y,-z
x,y,-z
1/2-x,1/2+y,1/2+z
1/2+x,1/2-y,1/2+z
loop_
_atom_site_type_symbol
_atom_site_label
_atom_site_fract_x
_atom_site_fract_y
_atom_site_fract_z
Si Si1 0.533737 0.236078 0.110348
Si Si2 0.746869 0.613433 0.793658
Si Si3 0.604480 0.975633 0.387374
Si Si4 0.331885 0.956590 0.891865
Si Si5 0.137239 0.678271 0.713755
Si Si6 0.600912 0.462990 0.888009
O O1 0.582761 0.121343 0.115469
O O2 0.453155 0.237580 0.183292
O O3 0.601277 0.334209 0.131016
O O4 0.503153 0.252892 0.000000
O O5 0.835576 0.575803 0.849238
O O6 0.762576 0.590010 0.682846
O O7 0.715689 0.736758 0.802875
O O8 0.670494 0.533285 0.830721
O O9 0.620708 0.957397 0.500000
O O10 0.631122 0.874974 0.318833
O O11 0.500000 0.000000 0.373971
O O12 0.354819 0.076752 0.857530
O O13 0.301199 0.954981 0.000000
O O14 0.500000 0.500000 0.870225
O O15 0.619283 0.480067 0.000000
#
# Coordination Sequence:
#
# PCOD9443486 Si02
#       6
#     8   8   8   8   8   8
#     4  10  20  36  62  88 119 154 195 251 309 362
#     4  11  23  38  62  88 120 161 203 253 304 364
#     4  10  23  43  63  89 126 169 211 248 300 377
#     4  10  23  38  56  86 121 158 197 243 305 363
#     4  11  21  37  62  90 120 153 202 257 306 356
#     4  10  20  36  59  91 122 153 199 254 307 360
#
# _framework density 18.374870000000001
#
# number of rings (size 3 to 8) (size 9 to 14) (size 15 to 20)
#    0.000    1.667    1.667    3.500    4.667    4.000 
#    0.000    0.000    0.000    0.500    0.000    0.000 
#    0.000    0.000    0.000    0.000    0.000    0.000 
#
# Total GULP energy -267981.096923 kJ/mol
# GULP energy per Si atom -5582.939519 kJ/mol
# Density = 1.833305 g / cm^3
# Si number density = 18.374870 Si / 1000 Ang^3
#
#
#
# Elastic Constant Matrix: (Units=GPa)
#
#
# Indices 1 2 3 4 5 6 
#
# 1 80.5828 43.0047 51.2225 0.0000 0.0000 0.0000
# 2 43.0047 108.0082 43.4135 0.0000 0.0000 0.0000
# 3 51.2225 43.4135 120.4645 0.0000 0.0000 0.0000
# 4 0.0000 0.0000 0.0000 16.4450 0.0000 0.0000
# 5 0.0000 0.0000 0.0000 0.0000 21.0967 0.0000
# 6 0.0000 0.0000 0.0000 0.0000 0.0000 31.0239
#
#
#
# Elastic Compliance Matrix: (Units=1/GPa)
#
#
# Indices 1 2 3 4 5 6 
#
# 1 0.019128 -0.005083 -0.006301 0.000000 0.000000 0.000000
# 2 -0.005083 0.012178 -0.002227 0.000000 0.000000 0.000000
# 3 -0.006301 -0.002227 0.011783 0.000000 0.000000 0.000000
# 4 0.000000 0.000000 0.000000 0.060809 0.000000 0.000000
# 5 0.000000 0.000000 0.000000 0.000000 0.047401 0.000000
# 6 0.000000 0.000000 0.000000 0.000000 0.000000 0.032233
#
#
# Mechanical properties :
#
#
# Convention : Reuss Voigt Hill
#
# Bulk Modulus (GPa) = 63.03113 64.92632 63.97872
# Shear Modulus (GPa) = 23.14350 25.14079 24.14214
#
# Velocity S-wave (km/s) = 3.55282 3.70295 3.62866
# Velocity P-wave (km/s) = 7.15594 7.32758 7.24227
#
# Compressibility (1/GPa) = 0.01586518
#
# Stress axis : x y z
#
# Youngs Moduli (GPa) = 52.27991 82.11729 84.86600
#
# Poissons Ratio (x) = 0.41741 0.53478
# Poissons Ratio (y) = 0.26575 0.18902
# Poissons Ratio (z) = 0.32944 0.18290
#
# Static dielectric constant tensor:
#      x y z
#    x 1.644430 0.000000 0.000000 
#    y 0.000000 1.661790 0.000000 
#    z 0.000000 0.000000 1.625800 
# 
# From -- ./inp_files/22114.got.cif
#   From: 2010.05.17/outbox.cif.g08.bks.cpg/sg58_12_cif.got.tgz:22114.got - 2010.06.03 14:20:14.
