data_PCOD9443427
_publ_section_title
;
Structure prediction by ZEFSAII (Michael W. Deem and Ramdas Pophale) SiO2 
 PCOD9443427
Probable space group: P N N M
;
_chemical_formula_sum "Si O2"
_cell_formula_units_Z 40
_cell_length_a 14.170121
_cell_length_b 10.283962
_cell_length_c 13.471281
_cell_angle_alpha 90.000000
_cell_angle_beta 90.000000
_cell_angle_gamma 90.000000
_cell_volume 1963.102234
_symmetry_space_group_name_H-M "P N N M"
_symmetry_group_IT_number 58
_symmetry_cell_setting 'orthorhombic'
loop_
_space_group_symop_operation_xyz
x,y,z
-x,-y,z
1/2+x,1/2-y,1/2-z
1/2-x,1/2+y,1/2-z
-x,-y,-z
x,y,-z
1/2-x,1/2+y,1/2+z
1/2+x,1/2-y,1/2+z
loop_
_atom_site_type_symbol
_atom_site_label
_atom_site_fract_x
_atom_site_fract_y
_atom_site_fract_z
Si Si1 0.059060 0.824387 0.615830
Si Si2 0.632634 0.403010 0.804573
Si Si3 0.397162 0.053676 0.810797
Si Si4 0.298481 0.469984 0.383697
Si Si5 0.666010 0.825427 0.614609
O O1 0.037165 0.836354 0.500000
O O2 0.115563 0.693333 0.636296
O O3 0.960449 0.820156 0.674986
O O4 0.112030 0.953629 0.651084
O O5 0.653430 0.425410 0.688632
O O6 0.724082 0.349034 0.859473
O O7 0.388998 0.087245 0.694121
O O8 0.500000 0.000000 0.836434
O O9 0.310310 0.965232 0.846369
O O10 0.300901 0.501729 0.500000
O O11 0.347578 0.329365 0.370153
O O12 0.646995 0.856613 0.500000
#
# Coordination Sequence:
#
# PCOD9443427 Si02
#       5
#     8   8   8   8   8
#     4  11  21  36  58  86 115 146 187 236 286 336
#     4  10  20  36  58  85 112 146 191 233 279 342
#     4  11  23  37  58  88 118 147 192 241 281 339
#     4  10  21  39  61  84 114 151 190 234 292 342
#     4  10  20  38  60  81 114 154 188 231 289 342
#
# _framework density 20.375912
#
# number of rings (size 3 to 8) (size 9 to 14) (size 15 to 20)
#    0.000    1.600    2.000    4.200    0.000    3.600 
#    0.000    3.000    0.000    0.000    0.000    0.000 
#    0.000    0.000    0.000    0.000    0.000    0.000 
#
# Total GULP energy -223477.714145 kJ/mol
# GULP energy per Si atom -5586.942854 kJ/mol
# Density = 2.032954 g / cm^3
# Si number density = 20.375912 Si / 1000 Ang^3
#
#
#
# Elastic Constant Matrix: (Units=GPa)
#
#
# Indices 1 2 3 4 5 6 
#
# 1 27.2370 -5.1243 9.4895 0.0000 0.0000 0.0000
# 2 -5.1243 34.8474 0.0345 0.0000 0.0000 0.0000
# 3 9.4895 0.0345 141.4809 0.0000 0.0000 0.0000
# 4 0.0000 0.0000 0.0000 21.1427 0.0000 0.0000
# 5 0.0000 0.0000 0.0000 0.0000 14.7436 0.0000
# 6 0.0000 0.0000 0.0000 0.0000 0.0000 15.6338
#
#
#
# Elastic Compliance Matrix: (Units=1/GPa)
#
#
# Indices 1 2 3 4 5 6 
#
# 1 0.038690 0.005692 -0.002596 0.000000 0.000000 0.000000
# 2 0.005692 0.029534 -0.000389 0.000000 0.000000 0.000000
# 3 -0.002596 -0.000389 0.007242 0.000000 0.000000 0.000000
# 4 0.000000 0.000000 0.000000 0.047298 0.000000 0.000000
# 5 0.000000 0.000000 0.000000 0.000000 0.067826 0.000000
# 6 0.000000 0.000000 0.000000 0.000000 0.000000 0.063964
#
#
# Mechanical properties :
#
#
# Convention : Reuss Voigt Hill
#
# Bulk Modulus (GPa) = 12.36407 23.59610 17.98008
# Shear Modulus (GPa) = 18.10931 23.58172 20.84552
#
# Velocity S-wave (km/s) = 2.98444 3.40565 3.20198
# Velocity P-wave (km/s) = 4.23757 5.20290 4.74485
#
# Compressibility (1/GPa) = 0.08087950
#
# Stress axis : x y z
#
# Youngs Moduli (GPa) = 25.84633 33.85937 138.07694
#
# Poissons Ratio (x) = -0.19273 0.35851
# Poissons Ratio (y) = -0.14712 0.05371
# Poissons Ratio (z) = 0.06711 0.01317
#
# Static dielectric constant tensor:
#      x y z
#    x 1.711900 0.000000 0.000000 
#    y 0.000000 1.724220 0.000000 
#    z 0.000000 0.000000 1.718150 
# 
# From -- ./inp_files/14103.got.cif
#   From: 2010.05.17/outbox.cif.g08.bks.cpg/sg58_8_cif.got.tgz:14103.got - 2010.06.03 14:20:14.
