data_PCOD9443031
_publ_section_title
;
Structure prediction by ZEFSAII (Michael W. Deem and Ramdas Pophale) SiO2 
 PCOD9443031
Probable space group: P N N M
;
_chemical_formula_sum "Si O2"
_cell_formula_units_Z 64
_cell_length_a 9.003003
_cell_length_b 8.850981
_cell_length_c 36.848415
_cell_angle_alpha 90.000000
_cell_angle_beta 90.000000
_cell_angle_gamma 90.000000
_cell_volume 2936.281002
_symmetry_space_group_name_H-M "P N N M"
_symmetry_group_IT_number 58
_symmetry_cell_setting 'orthorhombic'
loop_
_space_group_symop_operation_xyz
x,y,z
-x,-y,z
1/2+x,1/2-y,1/2-z
1/2-x,1/2+y,1/2-z
-x,-y,-z
x,y,-z
1/2-x,1/2+y,1/2+z
1/2+x,1/2-y,1/2+z
loop_
_atom_site_type_symbol
_atom_site_label
_atom_site_fract_x
_atom_site_fract_y
_atom_site_fract_z
Si Si1 0.475391 0.824744 0.180761
Si Si2 0.154133 0.095910 0.263355
Si Si3 0.864140 0.888982 0.180338
Si Si4 0.659122 0.917565 0.615481
Si Si5 0.760132 0.603302 0.179859
Si Si6 0.335015 0.433735 0.540816
Si Si7 0.232271 0.407403 0.618281
Si Si8 0.164797 0.571068 0.961933
O O1 0.371242 0.742636 0.211024
O O2 0.619655 0.716966 0.179006
O O3 0.408475 0.838443 0.139909
O O4 0.500000 0.000000 0.191683
O O5 0.196491 0.119831 0.221805
O O6 0.270376 0.988025 0.283227
O O7 0.000000 0.000000 0.264329
O O8 0.897624 0.714264 0.173077
O O9 0.779923 0.960903 0.146008
O O10 0.000000 0.000000 0.183910
O O11 0.654998 0.735710 0.617612
O O12 0.733266 0.963995 0.577022
O O13 0.500000 0.000000 0.615876
O O14 0.752758 0.982570 0.648411
O O15 0.500000 0.500000 0.547743
O O16 0.287849 0.486845 0.500000
O O17 0.232683 0.463091 0.576467
O O18 0.348446 0.252442 0.538070
O O19 0.000000 0.500000 0.961930
O O20 0.237979 0.523932 0.000000
#
# Coordination Sequence:
#
# PCOD9443031 Si02
#       8
#     8   8   8   8   8   8   8   8
#     4  11  22  42  60  82 108 159 205 239 285 350
#     4   9  22  40  59  82 111 148 202 241 292 342
#     4  11  23  38  57  88 118 149 189 250 299 350
#     4  10  20  34  55  86 116 150 185 241 300 349
#     4  11  22  37  60  79 114 154 194 239 286 355
#     4   9  18  33  56  86 118 155 190 235 301 354
#     4  11  21  36  60  83 121 152 198 245 285 354
#     4   8  15  29  49  76 111 145 178 221 277 346
#
# _framework density 21.796278000000001
#
# number of rings (size 3 to 8) (size 9 to 14) (size 15 to 20)
#    0.000    2.000    2.500    1.125    1.750    2.000 
#    0.000    3.125    0.000    1.125    0.000    3.500 
#    0.000    0.000    0.000    0.000    0.000    0.000 
#
# Total GULP energy -356325.261285 kJ/mol
# GULP energy per Si atom -5567.582208 kJ/mol
# Density = 2.174667 g / cm^3
# Si number density = 21.796278 Si / 1000 Ang^3
#
#
#
# Elastic Constant Matrix: (Units=GPa)
#
#
# Indices 1 2 3 4 5 6 
#
# 1 17.3151 -1.5259 21.8051 0.0000 0.0000 0.0000
# 2 -1.5259 78.8834 42.0815 0.0000 0.0000 0.0000
# 3 21.8051 42.0815 212.4288 0.0000 0.0000 0.0000
# 4 0.0000 0.0000 0.0000 16.0282 0.0000 0.0000
# 5 0.0000 0.0000 0.0000 0.0000 25.0686 0.0000
# 6 0.0000 0.0000 0.0000 0.0000 0.0000 22.5023
#
#
#
# Elastic Compliance Matrix: (Units=1/GPa)
#
#
# Indices 1 2 3 4 5 6 
#
# 1 0.068528 0.005678 -0.008159 0.000000 0.000000 0.000000
# 2 0.005678 0.014645 -0.003484 0.000000 0.000000 0.000000
# 3 -0.008159 -0.003484 0.006235 0.000000 0.000000 0.000000
# 4 0.000000 0.000000 0.000000 0.062390 0.000000 0.000000
# 5 0.000000 0.000000 0.000000 0.000000 0.039890 0.000000
# 6 0.000000 0.000000 0.000000 0.000000 0.000000 0.044440
#
#
# Mechanical properties :
#
#
# Convention : Reuss Voigt Hill
#
# Bulk Modulus (GPa) = 12.90677 48.14987 30.52832
# Shear Modulus (GPa) = 18.25584 29.13760 23.69672
#
# Velocity S-wave (km/s) = 2.89721 3.66022 3.30084
# Velocity P-wave (km/s) = 4.13838 6.32469 5.34453
#
# Compressibility (1/GPa) = 0.07747870
#
# Stress axis : x y z
#
# Youngs Moduli (GPa) = 14.59256 68.28090 160.38163
#
# Poissons Ratio (x) = -0.38770 1.30855
# Poissons Ratio (y) = -0.08286 0.55878
# Poissons Ratio (z) = 0.11906 0.23789
#
# Static dielectric constant tensor:
#      x y z
#    x 1.920490 0.000000 0.000000 
#    y 0.000000 1.809810 0.000000 
#    z 0.000000 0.000000 1.848190 
# 
# From -- ./inp_files/34950.got.cif
#   From: 2010.05.17/outbox.cif.g08.bks.cpg/sg58_18_cif.got.tgz:34950.got - 2010.06.03 14:20:14.
