data_PCOD9443306
_publ_section_title
;
Structure prediction by ZEFSAII (Michael W. Deem and Ramdas Pophale) SiO2 
 PCOD9443306
Probable space group: P N N M
;
_chemical_formula_sum "Si O2"
_cell_formula_units_Z 56
_cell_length_a 24.427216
_cell_length_b 13.207686
_cell_length_c 8.905927
_cell_angle_alpha 90.000000
_cell_angle_beta 90.000000
_cell_angle_gamma 90.000000
_cell_volume 2873.292499
_symmetry_space_group_name_H-M "P N N M"
_symmetry_group_IT_number 58
_symmetry_cell_setting 'orthorhombic'
loop_
_space_group_symop_operation_xyz
x,y,z
-x,-y,z
1/2+x,1/2-y,1/2-z
1/2-x,1/2+y,1/2-z
-x,-y,-z
x,y,-z
1/2-x,1/2+y,1/2+z
1/2+x,1/2-y,1/2+z
loop_
_atom_site_type_symbol
_atom_site_label
_atom_site_fract_x
_atom_site_fract_y
_atom_site_fract_z
Si Si1 0.652899 0.755761 0.321421
Si Si2 0.338397 0.009284 0.678965
Si Si3 0.948422 0.793879 0.178134
Si Si4 0.133310 0.058597 0.675960
Si Si5 0.550559 0.073922 0.820550
Si Si6 0.771157 0.066640 0.820753
Si Si7 0.556320 0.637924 0.174652
O O1 0.641117 0.745903 0.500000
O O2 0.669336 0.870847 0.291257
O O3 0.700177 0.674411 0.285266
O O4 0.598906 0.722931 0.231064
O O5 0.343033 0.995244 0.500000
O O6 0.393672 0.973870 0.758614
O O7 0.286774 0.948606 0.742371
O O8 0.894841 0.844372 0.250898
O O9 0.957135 0.682103 0.243035
O O10 0.001635 0.857339 0.228613
O O11 0.943527 0.792325 0.000000
O O12 0.144860 0.074624 0.500000
O O13 0.187033 0.018525 0.759785
O O14 0.089023 0.967352 0.688529
O O15 0.500000 0.000000 0.785686
O O16 0.553415 0.086702 0.000000
O O17 0.765707 0.058905 0.000000
O O18 0.542079 0.653147 0.000000
#
# Coordination Sequence:
#
# PCOD9443306 Si02
#       7
#     8   8   8   8   8   8   8
#     4   9  20  38  60  84 114 154 196 242 293 346
#     4  11  23  40  62  88 118 154 196 242 295 350
#     4  12  24  37  58  87 120 158 196 240 294 350
#     4  10  21  38  59  86 121 157 196 244 295 347
#     4  11  25  44  64  87 116 151 194 243 294 351
#     4  10  21  39  61  87 119 156 200 245 292 347
#     4  10  20  35  58  87 119 156 197 241 290 346
#
# _framework density 19.489837000000001
#
# number of rings (size 3 to 8) (size 9 to 14) (size 15 to 20)
#    0.000    1.571    0.000    4.714    0.000    9.714 
#    0.000    4.286    0.000    0.000    0.000    0.000 
#    0.000    0.000    0.000    0.000    0.000    0.000 
#
# Total GULP energy -313191.786113 kJ/mol
# GULP energy per Si atom -5592.710466 kJ/mol
# Density = 1.944548 g / cm^3
# Si number density = 19.489837 Si / 1000 Ang^3
#
#
#
# Elastic Constant Matrix: (Units=GPa)
#
#
# Indices 1 2 3 4 5 6 
#
# 1 84.8118 4.9465 22.3879 0.0000 0.0000 0.0000
# 2 4.9465 31.7493 22.7238 0.0000 0.0000 0.0000
# 3 22.3879 22.7238 65.4470 0.0000 0.0000 0.0000
# 4 0.0000 0.0000 0.0000 29.6646 0.0000 0.0000
# 5 0.0000 0.0000 0.0000 0.0000 37.8068 0.0000
# 6 0.0000 0.0000 0.0000 0.0000 0.0000 20.5117
#
#
#
# Elastic Compliance Matrix: (Units=1/GPa)
#
#
# Indices 1 2 3 4 5 6 
#
# 1 0.013018 0.001542 -0.004989 0.000000 0.000000 0.000000
# 2 0.001542 0.042095 -0.015143 0.000000 0.000000 0.000000
# 3 -0.004989 -0.015143 0.022244 0.000000 0.000000 0.000000
# 4 0.000000 0.000000 0.000000 0.033710 0.000000 0.000000
# 5 0.000000 0.000000 0.000000 0.000000 0.026450 0.000000
# 6 0.000000 0.000000 0.000000 0.000000 0.000000 0.048753
#
#
# Mechanical properties :
#
#
# Convention : Reuss Voigt Hill
#
# Bulk Modulus (GPa) = 24.88962 31.34718 28.11840
# Shear Modulus (GPa) = 21.11117 26.39328 23.75222
#
# Velocity S-wave (km/s) = 3.29475 3.68395 3.49477
# Velocity P-wave (km/s) = 5.22227 5.84928 5.54465
#
# Compressibility (1/GPa) = 0.04017739
#
# Stress axis : x y z
#
# Youngs Moduli (GPa) = 76.81849 23.75580 44.95613
#
# Poissons Ratio (x) = -0.03664 0.22427
# Poissons Ratio (y) = -0.11848 0.68079
# Poissons Ratio (z) = 0.38321 0.35974
#
# Static dielectric constant tensor:
#      x y z
#    x 1.655700 0.000000 0.000000 
#    y 0.000000 1.686310 0.000000 
#    z 0.000000 0.000000 1.646030 
# 
# From -- ./inp_files/9029.got.cif
#   From: 2010.05.17/outbox.cif.g08.bks.cpg/sg58_5_cif.got.tgz:9029.got - 2010.06.03 14:20:14.
