data_PCOD9443064
_publ_section_title
;
Structure prediction by ZEFSAII (Michael W. Deem and Ramdas Pophale) SiO2 
 PCOD9443064
Probable space group: P N N M
;
_chemical_formula_sum "Si O2"
_cell_formula_units_Z 64
_cell_length_a 12.847823
_cell_length_b 13.904905
_cell_length_c 17.119612
_cell_angle_alpha 90.000000
_cell_angle_beta 90.000000
_cell_angle_gamma 90.000000
_cell_volume 3058.380306
_symmetry_space_group_name_H-M "P N N M"
_symmetry_group_IT_number 58
_symmetry_cell_setting 'orthorhombic'
loop_
_space_group_symop_operation_xyz
x,y,z
-x,-y,z
1/2+x,1/2-y,1/2-z
1/2-x,1/2+y,1/2-z
-x,-y,-z
x,y,-z
1/2-x,1/2+y,1/2+z
1/2+x,1/2-y,1/2+z
loop_
_atom_site_type_symbol
_atom_site_label
_atom_site_fract_x
_atom_site_fract_y
_atom_site_fract_z
Si Si1 0.280539 0.115303 0.863459
Si Si2 0.563258 0.402370 0.299172
Si Si3 0.745318 0.168334 0.409243
Si Si4 0.533800 0.608253 0.868865
Si Si5 0.581523 0.708947 0.406241
Si Si6 0.004427 0.676104 0.590770
Si Si7 0.019054 0.394488 0.095185
Si Si8 0.284426 0.898193 0.909690
O O1 0.188550 0.100422 0.799998
O O2 0.253178 0.216019 0.905564
O O3 0.403723 0.135843 0.853717
O O4 0.273807 0.012877 0.906574
O O5 0.500000 0.500000 0.317985
O O6 0.519682 0.376980 0.214674
O O7 0.520725 0.333846 0.366692
O O8 0.755934 0.139377 0.500000
O O9 0.840875 0.117319 0.365036
O O10 0.632730 0.139105 0.378550
O O11 0.500000 0.500000 0.896098
O O12 0.504409 0.707398 0.912843
O O13 0.575162 0.696569 0.500000
O O14 0.573757 0.821192 0.386427
O O15 0.683547 0.654832 0.375251
O O16 0.022361 0.642351 0.500000
O O17 0.894855 0.636845 0.621760
O O18 0.000000 0.500000 0.125273
O O19 0.023797 0.396309 0.000000
O O20 0.287093 0.867440 0.000000
#
# Coordination Sequence:
#
# PCOD9443064 Si02
#       8
#     8   8   8   8   8   8   8   8
#     4  11  19  34  61  89 119 156 194 247 306 364
#     4  11  22  39  58  88 122 158 201 251 302 363
#     4  10  20  36  63  91 116 155 207 257 306 368
#     4  10  23  41  59  83 116 163 209 248 306 349
#     4  10  20  34  56  88 119 155 198 244 301 358
#     4  10  22  40  62  93 122 156 207 254 307 365
#     4   9  18  33  56  88 123 152 193 255 312 355
#     4  10  20  34  57  92 128 155 187 247 311 365
#
# _framework density 20.926109
#
# number of rings (size 3 to 8) (size 9 to 14) (size 15 to 20)
#    0.000    1.875    2.500    2.625    0.000    4.250 
#    4.500    2.500    0.000    0.000    0.000    0.000 
#    0.000    0.000    0.000    0.000    0.000    0.250 
#
# Total GULP energy -356336.459993 kJ/mol
# GULP energy per Si atom -5567.757187 kJ/mol
# Density = 2.087848 g / cm^3
# Si number density = 20.926109 Si / 1000 Ang^3
#
#
#
# Elastic Constant Matrix: (Units=GPa)
#
#
# Indices 1 2 3 4 5 6 
#
# 1 166.4089 58.1348 28.8321 0.0000 0.0000 0.0000
# 2 58.1348 113.6134 9.6279 0.0000 0.0000 0.0000
# 3 28.8321 9.6279 29.6217 0.0000 0.0000 0.0000
# 4 0.0000 0.0000 0.0000 23.8331 0.0000 0.0000
# 5 0.0000 0.0000 0.0000 0.0000 21.1336 0.0000
# 6 0.0000 0.0000 0.0000 0.0000 0.0000 35.1318
#
#
#
# Elastic Compliance Matrix: (Units=1/GPa)
#
#
# Indices 1 2 3 4 5 6 
#
# 1 0.008560 -0.003778 -0.007104 0.000000 0.000000 0.000000
# 2 -0.003778 0.010719 0.000193 0.000000 0.000000 0.000000
# 3 -0.007104 0.000193 0.040611 0.000000 0.000000 0.000000
# 4 0.000000 0.000000 0.000000 0.041958 0.000000 0.000000
# 5 0.000000 0.000000 0.000000 0.000000 0.047318 0.000000
# 6 0.000000 0.000000 0.000000 0.000000 0.000000 0.028464
#
#
# Mechanical properties :
#
#
# Convention : Reuss Voigt Hill
#
# Bulk Modulus (GPa) = 25.96565 55.87040 40.91803
# Shear Modulus (GPa) = 23.60227 30.22299 26.91263
#
# Velocity S-wave (km/s) = 3.36205 3.80448 3.59008
# Velocity P-wave (km/s) = 5.24465 6.78643 6.06473
#
# Compressibility (1/GPa) = 0.03851242
#
# Stress axis : x y z
#
# Youngs Moduli (GPa) = 116.82294 93.29603 24.62408
#
# Poissons Ratio (x) = 0.35248 0.17492
# Poissons Ratio (y) = 0.44136 -0.00476
# Poissons Ratio (z) = 0.82989 -0.01805
#
# Static dielectric constant tensor:
#      x y z
#    x 1.775890 0.000000 0.000000 
#    y 0.000000 1.782800 0.000000 
#    z 0.000000 0.000000 0.046140 
# 
# From -- ./inp_files/26354.got.cif
#   From: 2010.05.17/outbox.cif.g08.bks.cpg/sg58_14_cif.got.tgz:26354.got - 2010.06.03 14:20:14.
