data_PCOD9443676
_publ_section_title
;
Structure prediction by ZEFSAII (Michael W. Deem and Ramdas Pophale) SiO2 
 PCOD9443676
Probable space group: P N N M
;
_chemical_formula_sum "Si O2"
_cell_formula_units_Z 56
_cell_length_a 12.419999
_cell_length_b 15.318564
_cell_length_c 13.942224
_cell_angle_alpha 90.000000
_cell_angle_beta 90.000000
_cell_angle_gamma 90.000000
_cell_volume 2652.599431
_symmetry_space_group_name_H-M "P N N M"
_symmetry_group_IT_number 58
_symmetry_cell_setting 'orthorhombic'
loop_
_space_group_symop_operation_xyz
x,y,z
-x,-y,z
1/2+x,1/2-y,1/2-z
1/2-x,1/2+y,1/2-z
-x,-y,-z
x,y,-z
1/2-x,1/2+y,1/2+z
1/2+x,1/2-y,1/2+z
loop_
_atom_site_type_symbol
_atom_site_label
_atom_site_fract_x
_atom_site_fract_y
_atom_site_fract_z
Si Si1 0.594330 0.065841 0.115338
Si Si2 0.334658 0.452873 0.699027
Si Si3 0.767690 0.544030 0.112686
Si Si4 0.595278 0.267685 0.114297
Si Si5 0.544229 0.364424 0.703909
Si Si6 0.321777 0.158048 0.385314
Si Si7 0.941470 0.689628 0.885253
O O1 0.714985 0.050612 0.155627
O O2 0.565258 0.167336 0.133550
O O3 0.500000 0.000000 0.149716
O O4 0.601683 0.055783 0.000000
O O5 0.323389 0.432747 0.812017
O O6 0.426071 0.386726 0.661057
O O7 0.384858 0.549298 0.690943
O O8 0.795443 0.443159 0.132426
O O9 0.868164 0.606522 0.136262
O O10 0.741741 0.553294 0.000000
O O11 0.537314 0.335108 0.184903
O O12 0.721557 0.281559 0.140955
O O13 0.582566 0.285463 0.000000
O O14 0.598644 0.281806 0.653107
O O15 0.330759 0.166236 0.500000
O O16 0.438285 0.179090 0.344469
O O17 0.945527 0.693731 0.000000
#
# Coordination Sequence:
#
# PCOD9443676 Si02
#       7
#     8   8   8   8   8   8   8
#     4  10  23  45  68  92 122 165 219 264 309 368
#     4  11  24  41  62  89 126 168 208 257 312 374
#     4  10  20  37  60  90 125 159 202 258 320 375
#     4  10  20  39  64  90 124 166 210 259 312 372
#     4  11  24  40  59  89 126 167 212 252 310 383
#     4   9  17  33  60  89 119 155 197 251 317 379
#     4  10  21  36  57  89 123 156 203 262 318 374
#
# _framework density 21.111366
#
# number of rings (size 3 to 8) (size 9 to 14) (size 15 to 20)
#    0.000    1.857    1.429    2.143    0.000    6.857 
#    5.143    2.857    0.000    0.000    0.000    0.000 
#    0.000    0.000    0.000    0.000    0.000    0.000 
#
# Total GULP energy -312543.886768 kJ/mol
# GULP energy per Si atom -5581.140835 kJ/mol
# Density = 2.106332 g / cm^3
# Si number density = 21.111366 Si / 1000 Ang^3
#
#
#
# Elastic Constant Matrix: (Units=GPa)
#
#
# Indices 1 2 3 4 5 6 
#
# 1 72.0497 30.7163 26.5380 0.0000 0.0000 0.0000
# 2 30.7163 86.7987 7.2682 0.0000 0.0000 0.0000
# 3 26.5380 7.2682 19.7194 0.0000 0.0000 0.0000
# 4 0.0000 0.0000 0.0000 29.2185 0.0000 0.0000
# 5 0.0000 0.0000 0.0000 0.0000 25.8353 0.0000
# 6 0.0000 0.0000 0.0000 0.0000 0.0000 31.9438
#
#
#
# Elastic Compliance Matrix: (Units=1/GPa)
#
#
# Indices 1 2 3 4 5 6 
#
# 1 0.032128 -0.007996 -0.040291 0.000000 0.000000 0.000000
# 2 -0.007996 0.013878 0.005646 0.000000 0.000000 0.000000
# 3 -0.040291 0.005646 0.102853 0.000000 0.000000 0.000000
# 4 0.000000 0.000000 0.000000 0.034225 0.000000 0.000000
# 5 0.000000 0.000000 0.000000 0.000000 0.038707 0.000000
# 6 0.000000 0.000000 0.000000 0.000000 0.000000 0.031305
#
#
# Mechanical properties :
#
#
# Convention : Reuss Voigt Hill
#
# Bulk Modulus (GPa) = 15.72888 34.17920 24.95404
# Shear Modulus (GPa) = 13.90551 25.00254 19.45403
#
# Velocity S-wave (km/s) = 2.56925 3.44512 3.03891
# Velocity P-wave (km/s) = 4.03336 5.66130 4.91519
#
# Compressibility (1/GPa) = 0.06357732
#
# Stress axis : x y z
#
# Youngs Moduli (GPa) = 31.12523 72.05792 9.72262
#
# Poissons Ratio (x) = 0.57616 0.39173
# Poissons Ratio (y) = 0.24887 -0.05489
# Poissons Ratio (z) = 1.25405 -0.40681
#
# Static dielectric constant tensor:
#      x y z
#    x 1.774970 0.000000 0.000000 
#    y 0.000000 1.833450 0.000000 
#    z 0.000000 0.000000 1.787060 
# 
# From -- ./inp_files/21242.got.cif
#   From: 2010.05.17/outbox.cif.g08.bks.cpg/sg58_11_cif.got.tgz:21242.got - 2010.06.03 14:20:14.
