data_PCOD9443034
_publ_section_title
;
Structure prediction by ZEFSAII (Michael W. Deem and Ramdas Pophale) SiO2 
 PCOD9443034
Probable space group: P N N M
;
_chemical_formula_sum "Si O2"
_cell_formula_units_Z 40
_cell_length_a 19.085038
_cell_length_b 10.792107
_cell_length_c 9.476374
_cell_angle_alpha 90.000000
_cell_angle_beta 90.000000
_cell_angle_gamma 90.000000
_cell_volume 1951.827641
_symmetry_space_group_name_H-M "P N N M"
_symmetry_group_IT_number 58
_symmetry_cell_setting 'orthorhombic'
loop_
_space_group_symop_operation_xyz
x,y,z
-x,-y,z
1/2+x,1/2-y,1/2-z
1/2-x,1/2+y,1/2-z
-x,-y,-z
x,y,-z
1/2-x,1/2+y,1/2+z
1/2+x,1/2-y,1/2+z
loop_
_atom_site_type_symbol
_atom_site_label
_atom_site_fract_x
_atom_site_fract_y
_atom_site_fract_z
Si Si1 0.571294 0.746561 0.834712
Si Si2 0.570840 0.231298 0.667341
Si Si3 0.286301 0.891785 0.332078
Si Si4 0.216727 0.633735 0.665814
Si Si5 0.915068 0.007615 0.840966
O O1 0.499998 0.783220 0.755205
O O2 0.633172 0.845640 0.819779
O O3 0.598924 0.617916 0.766565
O O4 0.557359 0.727269 0.000000
O O5 0.553830 0.233641 0.500000
O O6 0.630691 0.130469 0.691353
O O7 0.604169 0.367283 0.698846
O O8 0.274346 0.905586 0.500000
O O9 0.250185 0.763600 0.286601
O O10 0.261316 0.012472 0.250168
O O11 0.233475 0.619279 0.500000
O O12 0.890003 0.035847 0.000000
O O13 0.000000 0.000000 0.846967
#
# Coordination Sequence:
#
# PCOD9443034 Si02
#       5
#     8   8   8   8   8
#     4  10  20  34  55  86 122 153 188 241 299 352
#     4   9  19  36  58  85 116 152 198 245 286 342
#     4  10  23  43  64  87 118 158 203 246 292 353
#     4  10  24  43  61  88 123 156 196 247 300 354
#     4   8  15  29  51  81 114 150 190 232 281 339
#
# _framework density 20.493611999999999
#
# number of rings (size 3 to 8) (size 9 to 14) (size 15 to 20)
#    0.000    2.600    0.000    1.800    2.800    7.600 
#    0.000    4.000    0.000    0.000    0.000    0.000 
#    0.000    0.000    0.000    0.000    0.000    0.000 
#
# Total GULP energy -223339.463906 kJ/mol
# GULP energy per Si atom -5583.486598 kJ/mol
# Density = 2.044697 g / cm^3
# Si number density = 20.493612 Si / 1000 Ang^3
#
#
#
# Elastic Constant Matrix: (Units=GPa)
#
#
# Indices 1 2 3 4 5 6 
#
# 1 74.9722 36.3357 43.0634 0.0000 0.0000 0.0000
# 2 36.3357 135.3518 68.3054 0.0000 0.0000 0.0000
# 3 43.0634 68.3054 70.8079 0.0000 0.0000 0.0000
# 4 0.0000 0.0000 0.0000 15.1863 0.0000 0.0000
# 5 0.0000 0.0000 0.0000 0.0000 19.8021 0.0000
# 6 0.0000 0.0000 0.0000 0.0000 0.0000 27.0103
#
#
#
# Elastic Compliance Matrix: (Units=1/GPa)
#
#
# Indices 1 2 3 4 5 6 
#
# 1 0.020665 0.001549 -0.014062 0.000000 0.000000 0.000000
# 2 0.001549 0.014513 -0.014942 0.000000 0.000000 0.000000
# 3 -0.014062 -0.014942 0.037088 0.000000 0.000000 0.000000
# 4 0.000000 0.000000 0.000000 0.065849 0.000000 0.000000
# 5 0.000000 0.000000 0.000000 0.000000 0.050500 0.000000
# 6 0.000000 0.000000 0.000000 0.000000 0.000000 0.037023
#
#
# Mechanical properties :
#
#
# Convention : Reuss Voigt Hill
#
# Bulk Modulus (GPa) = 57.61582 64.06011 60.83797
# Shear Modulus (GPa) = 17.46225 21.29488 19.37857
#
# Velocity S-wave (km/s) = 2.92221 3.22700 3.07838
# Velocity P-wave (km/s) = 6.28974 6.72392 6.51045
#
# Compressibility (1/GPa) = 0.01735634
#
# Stress axis : x y z
#
# Youngs Moduli (GPa) = 48.39206 68.90489 26.96268
#
# Poissons Ratio (x) = -0.10671 0.37914
# Poissons Ratio (y) = -0.07495 0.40287
# Poissons Ratio (z) = 0.68047 1.02956
#
# Static dielectric constant tensor:
#      x y z
#    x 1.777790 0.000000 0.000000 
#    y 0.000000 1.735450 0.000000 
#    z 0.000000 0.000000 1.685780 
# 
# From -- ./inp_files/4012.got.cif
#   From: 2010.05.17/outbox.cif.g08.bks.cpg/sg58_3_cif.got.tgz:4012.got - 2010.06.03 14:20:14.
