data_PCOD9443195
_publ_section_title
;
Structure prediction by ZEFSAII (Michael W. Deem and Ramdas Pophale) SiO2 
 PCOD9443195
Probable space group: P N N M
;
_chemical_formula_sum "Si O2"
_cell_formula_units_Z 64
_cell_length_a 19.590748
_cell_length_b 8.705216
_cell_length_c 19.781521
_cell_angle_alpha 90.000000
_cell_angle_beta 90.000000
_cell_angle_gamma 90.000000
_cell_volume 3373.574080
_symmetry_space_group_name_H-M "P N N M"
_symmetry_group_IT_number 58
_symmetry_cell_setting 'orthorhombic'
loop_
_space_group_symop_operation_xyz
x,y,z
-x,-y,z
1/2+x,1/2-y,1/2-z
1/2-x,1/2+y,1/2-z
-x,-y,-z
x,y,-z
1/2-x,1/2+y,1/2+z
1/2+x,1/2-y,1/2+z
loop_
_atom_site_type_symbol
_atom_site_label
_atom_site_fract_x
_atom_site_fract_y
_atom_site_fract_z
Si Si1 0.564451 0.113127 0.424771
Si Si2 0.219455 0.462524 0.922505
Si Si3 0.549579 0.363057 0.308389
Si Si4 0.757536 0.733283 0.207400
Si Si5 0.668613 0.028819 0.804805
Si Si6 0.758079 0.687445 0.420456
Si Si7 0.851945 0.125560 0.183560
Si Si8 0.045516 0.643618 0.759160
O O1 0.565524 0.184585 0.500000
O O2 0.559916 0.241271 0.367526
O O3 0.500000 0.000000 0.423276
O O4 0.637112 0.027358 0.417102
O O5 0.242818 0.341268 0.866575
O O6 0.252659 0.628767 0.909324
O O7 0.235148 0.417641 0.000000
O O8 0.500000 0.500000 0.332399
O O9 0.617143 0.461169 0.297268
O O10 0.511601 0.276319 0.246165
O O11 0.731744 0.908169 0.202040
O O12 0.823280 0.658487 0.246003
O O13 0.699160 0.671099 0.257185
O O14 0.599191 0.931250 0.793707
O O15 0.681478 0.113320 0.875899
O O16 0.762935 0.657067 0.500000
O O17 0.687840 0.625196 0.387090
O O18 0.907634 0.263813 0.187322
O O19 0.000000 0.500000 0.781532
#
# Coordination Sequence:
#
# PCOD9443195 Si02
#       8
#     8   8   8   8   8   8   8   8
#     4  10  23  37  50  71 106 153 194 226 269 328
#     4  10  22  37  55  80 112 151 194 237 285 346
#     4  10  22  34  52  79 109 145 188 233 278 334
#     4  10  20  35  56  80 112 143 186 239 288 343
#     4  10  22  37  57  85 110 147 192 242 294 337
#     4  10  22  39  58  81 116 154 193 242 291 342
#     4   9  21  38  53  86 116 147 184 239 293 335
#     4  10  21  35  56  81 113 146 188 234 281 345
#
# _framework density 18.970977999999999
#
# number of rings (size 3 to 8) (size 9 to 14) (size 15 to 20)
#    0.000    2.125    0.000    2.625   12.250    2.250 
#    0.000    0.000    0.000    0.750    0.000    0.875 
#    0.000    9.000    0.000    0.000    0.000    0.000 
#
# Total GULP energy -356380.444207 kJ/mol
# GULP energy per Si atom -5568.444441 kJ/mol
# Density = 1.892780 g / cm^3
# Si number density = 18.970978 Si / 1000 Ang^3
#
#
#
# Elastic Constant Matrix: (Units=GPa)
#
#
# Indices 1 2 3 4 5 6 
#
# 1 57.5559 23.4062 27.4744 0.0000 0.0000 0.0000
# 2 23.4062 106.3580 52.2523 0.0000 0.0000 0.0000
# 3 27.4744 52.2523 96.4265 0.0000 0.0000 0.0000
# 4 0.0000 0.0000 0.0000 24.8325 0.0000 0.0000
# 5 0.0000 0.0000 0.0000 0.0000 10.7196 0.0000
# 6 0.0000 0.0000 0.0000 0.0000 0.0000 36.9214
#
#
#
# Elastic Compliance Matrix: (Units=1/GPa)
#
#
# Indices 1 2 3 4 5 6 
#
# 1 0.020493 -0.002237 -0.004627 0.000000 0.000000 0.000000
# 2 -0.002237 0.013058 -0.006438 0.000000 0.000000 0.000000
# 3 -0.004627 -0.006438 0.015178 0.000000 0.000000 0.000000
# 4 0.000000 0.000000 0.000000 0.040270 0.000000 0.000000
# 5 0.000000 0.000000 0.000000 0.000000 0.093287 0.000000
# 6 0.000000 0.000000 0.000000 0.000000 0.000000 0.027085
#
#
# Mechanical properties :
#
#
# Convention : Reuss Voigt Hill
#
# Bulk Modulus (GPa) = 45.19970 51.84514 48.52242
# Shear Modulus (GPa) = 20.54668 24.97519 22.76094
#
# Velocity S-wave (km/s) = 3.29456 3.63229 3.46754
# Velocity P-wave (km/s) = 6.19270 6.70666 6.45480
#
# Compressibility (1/GPa) = 0.02212404
#
# Stress axis : x y z
#
# Youngs Moduli (GPa) = 48.79805 76.58395 65.88572
#
# Poissons Ratio (x) = 0.17130 0.30484
# Poissons Ratio (y) = 0.10915 0.42420
# Poissons Ratio (z) = 0.22578 0.49308
#
# Static dielectric constant tensor:
#      x y z
#    x 1.779890 0.000000 0.000000 
#    y 0.000000 1.711740 0.000000 
#    z 0.000000 0.000000 1.635350 
# 
# From -- ./inp_files/30455.got.cif
#   From: 2010.05.17/outbox.cif.g08.bks.cpg/sg58_16_cif.got.tgz:30455.got - 2010.06.03 14:20:14.
