data_PCOD9443001
_publ_section_title
;
Structure prediction by ZEFSAII (Michael W. Deem and Ramdas Pophale) SiO2 
 PCOD9443001
Probable space group: P N N M
;
_chemical_formula_sum "Si O2"
_cell_formula_units_Z 36
_cell_length_a 23.136852
_cell_length_b 5.971682
_cell_length_c 13.856524
_cell_angle_alpha 90.000000
_cell_angle_beta 90.000000
_cell_angle_gamma 90.000000
_cell_volume 1914.499423
_symmetry_space_group_name_H-M "P N N M"
_symmetry_group_IT_number 58
_symmetry_cell_setting 'orthorhombic'
loop_
_space_group_symop_operation_xyz
x,y,z
-x,-y,z
1/2+x,1/2-y,1/2-z
1/2-x,1/2+y,1/2-z
-x,-y,-z
x,y,-z
1/2-x,1/2+y,1/2+z
1/2+x,1/2-y,1/2+z
loop_
_atom_site_type_symbol
_atom_site_label
_atom_site_fract_x
_atom_site_fract_y
_atom_site_fract_z
Si Si1 0.327390 0.768912 0.754312
Si Si2 0.137460 0.648048 0.891938
Si Si3 0.435425 0.532680 0.312319
Si Si4 0.529906 0.246596 0.500000
Si Si5 0.745047 0.511941 0.392271
O O1 0.382737 0.603914 0.757299
O O2 0.275869 0.661361 0.689608
O O3 0.348305 0.979378 0.692506
O O4 0.300413 0.853628 0.853805
O O5 0.083199 0.801121 0.863283
O O6 0.191440 0.817815 0.897494
O O7 0.130968 0.552195 0.000000
O O8 0.500000 0.500000 0.271640
O O9 0.437965 0.719708 0.397403
O O10 0.500000 0.500000 0.500000
O O11 0.500000 0.000000 0.500000
O O12 0.753010 0.415149 0.500000
#
# Coordination Sequence:
#
# PCOD9443001 Si02
#       5
#     8   8   8   4   8
#     4  11  21  35  58  80 115 150 191 244 300 364
#     4  10  20  34  55  80 114 153 186 237 294 360
#     4  10  23  34  50  82 118 156 198 239 297 366
#     4  10  22  36  54  82 126 166 204 246 301 378
#     4  10  21  38  54  84 113 145 195 242 296 362
#
# _framework density 18.803871000000001
#
# number of rings (size 3 to 8) (size 9 to 14) (size 15 to 20)
#    0.000    1.778    3.333    0.667    9.333    0.000 
#    0.000    0.000    0.000    0.667    0.000    1.556 
#    0.000    0.000    0.000    0.000    0.000    0.000 
#
# Total GULP energy -200633.746207 kJ/mol
# GULP energy per Si atom -5573.159617 kJ/mol
# Density = 1.876107 g / cm^3
# Si number density = 18.803871 Si / 1000 Ang^3
#
#
#
# Elastic Constant Matrix: (Units=GPa)
#
#
# Indices 1 2 3 4 5 6 
#
# 1 99.0237 10.8457 23.5315 0.0000 0.0000 0.0000
# 2 10.8457 50.3945 5.3348 0.0000 0.0000 0.0000
# 3 23.5315 5.3348 38.0283 0.0000 0.0000 0.0000
# 4 0.0000 0.0000 0.0000 8.1868 0.0000 0.0000
# 5 0.0000 0.0000 0.0000 0.0000 10.8926 0.0000
# 6 0.0000 0.0000 0.0000 0.0000 0.0000 37.9012
#
#
#
# Elastic Compliance Matrix: (Units=1/GPa)
#
#
# Indices 1 2 3 4 5 6 
#
# 1 0.012002 -0.001824 -0.007171 0.000000 0.000000 0.000000
# 2 -0.001824 0.020420 -0.001736 0.000000 0.000000 0.000000
# 3 -0.007171 -0.001736 0.030977 0.000000 0.000000 0.000000
# 4 0.000000 0.000000 0.000000 0.122148 0.000000 0.000000
# 5 0.000000 0.000000 0.000000 0.000000 0.091805 0.000000
# 6 0.000000 0.000000 0.000000 0.000000 0.000000 0.026384
#
#
# Mechanical properties :
#
#
# Convention : Reuss Voigt Hill
#
# Bulk Modulus (GPa) = 23.84511 29.65227 26.74869
# Shear Modulus (GPa) = 14.74151 21.24509 17.99330
#
# Velocity S-wave (km/s) = 2.80297 3.36493 3.09673
# Velocity P-wave (km/s) = 4.81498 5.55882 5.20022
#
# Compressibility (1/GPa) = 0.04193732
#
# Stress axis : x y z
#
# Youngs Moduli (GPa) = 83.31618 48.97219 32.28189
#
# Poissons Ratio (x) = 0.08932 0.23150
# Poissons Ratio (y) = 0.15197 0.05604
# Poissons Ratio (z) = 0.59747 0.08501
#
# Static dielectric constant tensor:
#      x y z
#    x 1.731610 0.000000 0.000000 
#    y 0.000000 1.721570 0.000000 
#    z 0.000000 0.000000 1.642590 
# 
# From -- ./inp_files/23415.got.cif
#   From: 2010.05.17/outbox.cif.g08.bks.cpg/sg58_12_cif.got.tgz:23415.got - 2010.06.03 14:20:14.
