data_PCOD9443904
_publ_section_title
;
Structure prediction by ZEFSAII (Michael W. Deem and Ramdas Pophale) SiO2 
 PCOD9443904
Probable space group: P N N M
;
_chemical_formula_sum "Si O2"
_cell_formula_units_Z 44
_cell_length_a 8.119243
_cell_length_b 9.263963
_cell_length_c 27.539030
_cell_angle_alpha 90.000000
_cell_angle_beta 90.000000
_cell_angle_gamma 90.000000
_cell_volume 2071.385780
_symmetry_space_group_name_H-M "P N N M"
_symmetry_group_IT_number 58
_symmetry_cell_setting 'orthorhombic'
loop_
_space_group_symop_operation_xyz
x,y,z
-x,-y,z
1/2+x,1/2-y,1/2-z
1/2-x,1/2+y,1/2-z
-x,-y,-z
x,y,-z
1/2-x,1/2+y,1/2+z
1/2+x,1/2-y,1/2+z
loop_
_atom_site_type_symbol
_atom_site_label
_atom_site_fract_x
_atom_site_fract_y
_atom_site_fract_z
Si Si1 0.394116 0.866823 0.793803
Si Si2 0.911220 0.843649 0.135770
Si Si3 0.000000 0.000000 0.624437
Si Si4 0.695017 0.985342 0.944291
Si Si5 0.188869 0.824662 0.705875
Si Si6 0.761940 0.268705 0.890586
O O1 0.276546 0.907763 0.749445
O O2 0.528129 0.754388 0.773864
O O3 0.304479 0.796135 0.839414
O O4 0.500000 0.000000 0.812439
O O5 0.781666 0.875516 0.092612
O O6 0.812359 0.791371 0.182487
O O7 0.043170 0.719654 0.120855
O O8 0.000000 0.000000 0.143626
O O9 0.872275 0.892655 0.597223
O O10 0.123615 0.916672 0.660736
O O11 0.500000 0.000000 0.936752
O O12 0.759739 0.144528 0.931148
O O13 0.728400 0.947247 0.000000
#
# Coordination Sequence:
#
# PCOD9443904 Si02
#       6
#     8   8   4   8   8   8
#     4  11  23  36  56  79 117 157 204 249 293 350
#     4  10  21  38  63  89 119 152 202 255 308 357
#     4  10  24  40  57  82 126 162 203 242 304 372
#     4  10  20  38  66  94 119 151 199 259 315 360
#     4  11  24  37  57  84 118 163 201 249 298 361
#     4  10  21  40  57  86 120 161 198 252 301 363
#
# _framework density 21.241817999999999
#
# number of rings (size 3 to 8) (size 9 to 14) (size 15 to 20)
#    0.000    1.636    0.000    6.000    7.636    3.273 
#    6.545    0.455    0.000    1.091    0.000    8.909 
#    0.000    0.000    0.000    0.000    0.000    0.000 
#
# Total GULP energy -245563.667918 kJ/mol
# GULP energy per Si atom -5580.992453 kJ/mol
# Density = 2.119347 g / cm^3
# Si number density = 21.241818 Si / 1000 Ang^3
#
#
#
# Elastic Constant Matrix: (Units=GPa)
#
#
# Indices 1 2 3 4 5 6 
#
# 1 98.0175 15.9301 39.0769 0.0000 0.0000 0.0000
# 2 15.9301 37.3407 10.4455 0.0000 0.0000 0.0000
# 3 39.0769 10.4455 81.3019 0.0000 0.0000 0.0000
# 4 0.0000 0.0000 0.0000 -20.9578 0.0000 0.0000
# 5 0.0000 0.0000 0.0000 0.0000 25.6877 0.0000
# 6 0.0000 0.0000 0.0000 0.0000 0.0000 38.7359
#
#
#
# Elastic Compliance Matrix: (Units=1/GPa)
#
#
# Indices 1 2 3 4 5 6 
#
# 1 0.013170 -0.003991 -0.005817 0.000000 0.000000 0.000000
# 2 -0.003991 0.028988 -0.001806 0.000000 0.000000 0.000000
# 3 -0.005817 -0.001806 0.015328 0.000000 0.000000 0.000000
# 4 0.000000 0.000000 0.000000 -0.047715 0.000000 0.000000
# 5 0.000000 0.000000 0.000000 0.000000 0.038929 0.000000
# 6 0.000000 0.000000 0.000000 0.000000 0.000000 0.025816
#
#
# Mechanical properties :
#
#
# Convention : Reuss Voigt Hill
#
# Bulk Modulus (GPa) = 29.19088 38.61833 33.90461
# Shear Modulus (GPa) = 45.80238 18.77367 32.28802
#
# Velocity S-wave (km/s) = 4.64857 2.97611 3.90298
# Velocity P-wave (km/s) = 6.52566 5.47992 6.02552
#
# Compressibility (1/GPa) = 0.03425727
#
# Stress axis : x y z
#
# Youngs Moduli (GPa) = 75.92939 34.49657 65.24049
#
# Poissons Ratio (x) = 0.13768 0.37952
# Poissons Ratio (y) = 0.30305 0.11783
# Poissons Ratio (z) = 0.44170 0.06230
#
# Static dielectric constant tensor:
#      x y z
#    x 1.909230 0.000000 0.000000 
#    y 0.000000 1.843330 0.000000 
#    z 0.000000 0.000000 1.712100 
# 
# From -- ./inp_files/34483.got.cif
#   From: 2010.05.17/outbox.cif.g08.bks.cpg/sg58_18_cif.got.tgz:34483.got - 2010.06.03 14:20:14.
