data_PCOD9443177
_publ_section_title
;
Structure prediction by ZEFSAII (Michael W. Deem and Ramdas Pophale) SiO2 
 PCOD9443177
Probable space group: P N N M
;
_chemical_formula_sum "Si O2"
_cell_formula_units_Z 64
_cell_length_a 15.752681
_cell_length_b 24.145752
_cell_length_c 7.572883
_cell_angle_alpha 90.000000
_cell_angle_beta 90.000000
_cell_angle_gamma 90.000000
_cell_volume 2880.424268
_symmetry_space_group_name_H-M "P N N M"
_symmetry_group_IT_number 58
_symmetry_cell_setting 'orthorhombic'
loop_
_space_group_symop_operation_xyz
x,y,z
-x,-y,z
1/2+x,1/2-y,1/2-z
1/2-x,1/2+y,1/2-z
-x,-y,-z
x,y,-z
1/2-x,1/2+y,1/2+z
1/2+x,1/2-y,1/2+z
loop_
_atom_site_type_symbol
_atom_site_label
_atom_site_fract_x
_atom_site_fract_y
_atom_site_fract_z
Si Si1 0.751140 0.425779 0.789924
Si Si2 0.664340 0.121403 0.202993
Si Si3 0.511920 0.328898 0.201974
Si Si4 0.479332 0.796209 0.295343
Si Si5 0.826317 0.312100 0.215117
Si Si6 0.904295 0.507244 0.713496
Si Si7 0.181585 0.811133 0.215553
Si Si8 0.065183 0.048638 0.716162
O O1 0.771192 0.363861 0.720761
O O2 0.836314 0.460429 0.757918
O O3 0.664309 0.455294 0.727143
O O4 0.739739 0.420453 0.000000
O O5 0.591795 0.167713 0.203189
O O6 0.630672 0.065249 0.283786
O O7 0.748538 0.146822 0.282869
O O8 0.685936 0.108527 0.000000
O O9 0.537632 0.269644 0.282659
O O10 0.410197 0.326143 0.212618
O O11 0.538943 0.388932 0.273485
O O12 0.542152 0.327106 0.000000
O O13 0.477381 0.811788 0.500000
O O14 0.574326 0.811098 0.228634
O O15 0.793199 0.251492 0.264746
O O16 0.827452 0.314534 0.000000
O O17 0.909405 0.509463 0.500000
O O18 0.000000 0.500000 0.778976
O O19 0.176031 0.812070 0.000000
O O20 0.061479 0.047399 0.500000
O O21 0.000000 0.000000 0.775024
#
# Coordination Sequence:
#
# PCOD9443177 Si02
#       8
#     8   8   8   8   8   8   8   8
#     4  10  20  35  60  84 107 146 195 238 279 332
#     4  10  21  35  56  81 109 149 190 226 279 344
#     4  10  20  35  58  82 111 147 187 228 285 347
#     4  10  20  35  55  82 116 144 180 233 281 335
#     4   8  16  32  53  77 103 137 178 224 276 327
#     4  10  22  39  56  81 119 154 184 230 290 344
#     4   9  19  35  55  78 109 142 181 233 282 338
#     4   9  20  36  55  82 113 147 191 244 287 332
#
# _framework density 22.218948999999999
#
# number of rings (size 3 to 8) (size 9 to 14) (size 15 to 20)
#    0.000    2.500    0.000    2.250    3.500    1.250 
#    0.000    3.750    0.000    1.875    0.000    0.000 
#    0.000    0.000    0.000    0.000    0.000    0.000 
#
# Total GULP energy -357203.029604 kJ/mol
# GULP energy per Si atom -5581.297338 kJ/mol
# Density = 2.216838 g / cm^3
# Si number density = 22.218949 Si / 1000 Ang^3
#
#
#
# Elastic Constant Matrix: (Units=GPa)
#
#
# Indices 1 2 3 4 5 6 
#
# 1 82.1970 48.1105 -6.2179 0.0000 0.0000 0.0000
# 2 48.1105 103.2310 -6.2739 0.0000 0.0000 0.0000
# 3 -6.2179 -6.2739 49.0438 0.0000 0.0000 0.0000
# 4 0.0000 0.0000 0.0000 11.5299 0.0000 0.0000
# 5 0.0000 0.0000 0.0000 0.0000 7.1039 0.0000
# 6 0.0000 0.0000 0.0000 0.0000 0.0000 35.6153
#
#
#
# Elastic Compliance Matrix: (Units=1/GPa)
#
#
# Indices 1 2 3 4 5 6 
#
# 1 0.016792 -0.007757 0.001137 0.000000 0.000000 0.000000
# 2 -0.007757 0.013346 0.000724 0.000000 0.000000 0.000000
# 3 0.001137 0.000724 0.020627 0.000000 0.000000 0.000000
# 4 0.000000 0.000000 0.000000 0.086731 0.000000 0.000000
# 5 0.000000 0.000000 0.000000 0.000000 0.140769 0.000000
# 6 0.000000 0.000000 0.000000 0.000000 0.000000 0.028078
#
#
# Mechanical properties :
#
#
# Convention : Reuss Voigt Hill
#
# Bulk Modulus (GPa) = 25.65938 33.96771 29.81355
# Shear Modulus (GPa) = 15.10002 24.10668 19.60335
#
# Velocity S-wave (km/s) = 2.60974 3.29745 2.97354
# Velocity P-wave (km/s) = 4.54472 5.46063 5.02359
#
# Compressibility (1/GPa) = 0.03897210
#
# Stress axis : x y z
#
# Youngs Moduli (GPa) = 59.55225 74.92865 48.48099
#
# Poissons Ratio (x) = 0.58120 -0.05511
# Poissons Ratio (y) = 0.46193 -0.03509
# Poissons Ratio (z) = -0.06769 -0.05424
#
# Static dielectric constant tensor:
#      x y z
#    x 1.794660 0.000000 0.000000 
#    y 0.000000 1.805200 0.000000 
#    z 0.000000 0.000000 1.775790 
# 
# From -- ./inp_files/6892.got.cif
#   From: 2010.05.17/outbox.cif.g08.bks.cpg/sg58_4_cif.got.tgz:6892.got - 2010.06.03 14:20:14.
