data_PCOD9443254
_publ_section_title
;
Structure prediction by ZEFSAII (Michael W. Deem and Ramdas Pophale) SiO2 
 PCOD9443254
Probable space group: P N N M
;
_chemical_formula_sum "Si O2"
_cell_formula_units_Z 64
_cell_length_a 15.262730
_cell_length_b 25.126164
_cell_length_c 8.059016
_cell_angle_alpha 90.000000
_cell_angle_beta 90.000000
_cell_angle_gamma 90.000000
_cell_volume 3090.583130
_symmetry_space_group_name_H-M "P N N M"
_symmetry_group_IT_number 58
_symmetry_cell_setting 'orthorhombic'
loop_
_space_group_symop_operation_xyz
x,y,z
-x,-y,z
1/2+x,1/2-y,1/2-z
1/2-x,1/2+y,1/2-z
-x,-y,-z
x,y,-z
1/2-x,1/2+y,1/2+z
1/2+x,1/2-y,1/2+z
loop_
_atom_site_type_symbol
_atom_site_label
_atom_site_fract_x
_atom_site_fract_y
_atom_site_fract_z
Si Si1 0.360983 0.358287 0.808158
Si Si2 0.358309 0.741641 0.695137
Si Si3 0.947424 0.551983 0.299209
Si Si4 0.595277 0.479876 0.299182
Si Si5 0.998398 0.670202 0.199990
Si Si6 0.748300 0.053873 0.805865
Si Si7 0.945452 0.866772 0.698773
Si Si8 0.160598 0.741167 0.804677
O O1 0.282518 0.386031 0.712164
O O2 0.454974 0.377583 0.743551
O O3 0.361083 0.295312 0.790023
O O4 0.351493 0.373051 0.000000
O O5 0.342211 0.750882 0.500000
O O6 0.418955 0.790696 0.757780
O O7 0.411780 0.687240 0.720307
O O8 0.263958 0.732669 0.778534
O O9 0.945428 0.550255 0.500000
O O10 0.986393 0.609471 0.253898
O O11 0.848000 0.548562 0.233355
O O12 0.000000 0.500000 0.241478
O O13 0.500000 0.500000 0.238436
O O14 0.593560 0.482315 0.500000
O O15 0.674416 0.516737 0.236434
O O16 0.608349 0.419032 0.245562
O O17 0.092190 0.695646 0.250408
O O18 0.995507 0.671346 0.000000
O O19 0.741773 0.040599 0.000000
O O20 0.946822 0.859588 0.500000
O O21 0.144657 0.750097 0.000000
#
# Coordination Sequence:
#
# PCOD9443254 Si02
#       8
#     8   8   8   8   8   8   8   8
#     4  11  22  36  58  89 122 158 204 251 300 362
#     4  11  23  41  63  91 125 161 203 249 303 368
#     4  10  23  42  63  88 118 153 201 254 299 351
#     4  10  20  35  57  84 118 159 203 247 303 369
#     4  10  23  42  64  90 122 158 200 248 302 361
#     4  10  21  38  61  87 117 160 207 254 310 366
#     4  11  23  37  57  87 124 161 200 248 304 361
#     4  11  23  40  62  90 124 161 202 251 306 362
#
# _framework density 20.708065000000001
#
# number of rings (size 3 to 8) (size 9 to 14) (size 15 to 20)
#    0.000    1.500    2.500    2.250    0.000    7.500 
#    0.000    1.250    0.000    0.000    0.000    0.000 
#    0.000    0.000    0.000    0.000    0.000    0.000 
#
# Total GULP energy -357494.307877 kJ/mol
# GULP energy per Si atom -5585.848561 kJ/mol
# Density = 2.066093 g / cm^3
# Si number density = 20.708065 Si / 1000 Ang^3
#
#
#
# Elastic Constant Matrix: (Units=GPa)
#
#
# Indices 1 2 3 4 5 6 
#
# 1 149.7583 77.2915 12.0711 0.0000 0.0000 0.0000
# 2 77.2915 154.5928 -0.8002 0.0000 0.0000 0.0000
# 3 12.0711 -0.8002 21.7292 0.0000 0.0000 0.0000
# 4 0.0000 0.0000 0.0000 20.7889 0.0000 0.0000
# 5 0.0000 0.0000 0.0000 0.0000 18.4049 0.0000
# 6 0.0000 0.0000 0.0000 0.0000 0.0000 26.8004
#
#
#
# Elastic Compliance Matrix: (Units=1/GPa)
#
#
# Indices 1 2 3 4 5 6 
#
# 1 0.009619 -0.004838 -0.005522 0.000000 0.000000 0.000000
# 2 -0.004838 0.008903 0.003015 0.000000 0.000000 0.000000
# 3 -0.005522 0.003015 0.049200 0.000000 0.000000 0.000000
# 4 0.000000 0.000000 0.000000 0.048103 0.000000 0.000000
# 5 0.000000 0.000000 0.000000 0.000000 0.054333 0.000000
# 6 0.000000 0.000000 0.000000 0.000000 0.000000 0.037313
#
#
# Mechanical properties :
#
#
# Convention : Reuss Voigt Hill
#
# Bulk Modulus (GPa) = 18.85611 55.91168 37.38390
# Shear Modulus (GPa) = 20.84742 29.03337 24.94039
#
# Velocity S-wave (km/s) = 3.17634 3.74843 3.47418
# Velocity P-wave (km/s) = 4.75159 6.76705 5.84682
#
# Compressibility (1/GPa) = 0.05303320
#
# Stress axis : x y z
#
# Youngs Moduli (GPa) = 103.95608 112.32091 20.32532
#
# Poissons Ratio (x) = 0.54341 0.11224
# Poissons Ratio (y) = 0.50294 -0.06129
# Poissons Ratio (z) = 0.57404 -0.33870
#
# Static dielectric constant tensor:
#      x y z
#    x 1.778970 0.000000 0.000000 
#    y 0.000000 1.720620 0.000000 
#    z 0.000000 0.000000 1.734050 
# 
# From -- ./inp_files/6767.got.cif
#   From: 2010.05.17/outbox.cif.g08.bks.cpg/sg58_4_cif.got.tgz:6767.got - 2010.06.03 14:20:14.
