data_PCOD9443526
_publ_section_title
;
Structure prediction by ZEFSAII (Michael W. Deem and Ramdas Pophale) SiO2 
 PCOD9443526
Probable space group: P N N M
;
_chemical_formula_sum "Si O2"
_cell_formula_units_Z 44
_cell_length_a 8.282917
_cell_length_b 27.769595
_cell_length_c 9.793459
_cell_angle_alpha 90.000000
_cell_angle_beta 90.000000
_cell_angle_gamma 90.000000
_cell_volume 2252.625338
_symmetry_space_group_name_H-M "P N N M"
_symmetry_group_IT_number 58
_symmetry_cell_setting 'orthorhombic'
loop_
_space_group_symop_operation_xyz
x,y,z
-x,-y,z
1/2+x,1/2-y,1/2-z
1/2-x,1/2+y,1/2-z
-x,-y,-z
x,y,-z
1/2-x,1/2+y,1/2+z
1/2+x,1/2-y,1/2+z
loop_
_atom_site_type_symbol
_atom_site_label
_atom_site_fract_x
_atom_site_fract_y
_atom_site_fract_z
Si Si1 0.500000 0.500000 0.299079
Si Si2 0.290731 0.129142 0.341493
Si Si3 0.639486 0.960001 0.847536
Si Si4 0.741978 0.191930 0.660974
Si Si5 0.563424 0.788129 0.159802
Si Si6 0.920425 0.098537 0.654783
O O1 0.675380 0.480736 0.355100
O O2 0.564534 0.547432 0.224402
O O3 0.344956 0.133648 0.500000
O O4 0.363280 0.081981 0.265889
O O5 0.327866 0.175284 0.248481
O O6 0.099032 0.121003 0.344759
O O7 0.500000 0.000000 0.819854
O O8 0.604482 0.940434 0.000000
O O9 0.693204 0.188896 0.500000
O O10 0.604973 0.208324 0.763270
O O11 0.876399 0.233287 0.665977
O O12 0.803317 0.139751 0.709170
O O13 0.558843 0.802051 0.000000
O O14 0.869938 0.089557 0.500000
#
# Coordination Sequence:
#
# PCOD9443526 Si02
#       6
#     4   8   8   8   8   8
#     4  10  20  36  60  90 123 168 205 258 315 372
#     4  10  21  39  62  87 118 158 202 249 304 365
#     4  10  22  39  59  87 125 163 206 259 309 369
#     4  10  22  39  60  86 118 158 201 247 301 365
#     4  11  23  39  60  89 123 158 200 252 307 365
#     4   9  19  37  60  87 119 157 203 255 305 361
#
# _framework density 19.532765000000001
#
# number of rings (size 3 to 8) (size 9 to 14) (size 15 to 20)
#    0.000    2.000    0.000    2.727    2.545    4.000 
#    0.000    4.545    0.000    0.000    0.000    0.000 
#    0.000    0.000    0.000    0.000    0.000    0.000 
#
# Total GULP energy -245057.458119 kJ/mol
# GULP energy per Si atom -5569.487685 kJ/mol
# Density = 1.948831 g / cm^3
# Si number density = 19.532765 Si / 1000 Ang^3
#
#
#
# Elastic Constant Matrix: (Units=GPa)
#
#
# Indices 1 2 3 4 5 6 
#
# 1 36.7280 25.7709 18.2637 0.0000 0.0000 0.0000
# 2 25.7709 107.1442 57.1246 0.0000 0.0000 0.0000
# 3 18.2637 57.1246 102.3864 0.0000 0.0000 0.0000
# 4 0.0000 0.0000 0.0000 65.7409 0.0000 0.0000
# 5 0.0000 0.0000 0.0000 0.0000 -226.9106 0.0000
# 6 0.0000 0.0000 0.0000 0.0000 0.0000 38.2079
#
#
#
# Elastic Compliance Matrix: (Units=1/GPa)
#
#
# Indices 1 2 3 4 5 6 
#
# 1 0.033063 -0.006844 -0.002079 0.000000 0.000000 0.000000
# 2 -0.006844 0.014702 -0.006982 0.000000 0.000000 0.000000
# 3 -0.002079 -0.006982 0.014033 0.000000 0.000000 0.000000
# 4 0.000000 0.000000 0.000000 0.015211 0.000000 0.000000
# 5 0.000000 0.000000 0.000000 0.000000 -0.004407 0.000000
# 6 0.000000 0.000000 0.000000 0.000000 0.000000 0.026173
#
#
# Mechanical properties :
#
#
# Convention : Reuss Voigt Hill
#
# Bulk Modulus (GPa) = 33.34653 49.84187 41.59420
# Shear Modulus (GPa) = 35.56667 -14.91906 10.32381
#
# Velocity S-wave (km/s) = 4.27180 -2.76668 2.30149
# Velocity P-wave (km/s) = 6.43740 3.92000 5.32947
#
# Compressibility (1/GPa) = 0.02998813
#
# Stress axis : x y z
#
# Youngs Moduli (GPa) = 30.24498 68.01941 71.25978
#
# Poissons Ratio (x) = 0.46552 0.14818
# Poissons Ratio (y) = 0.20699 0.49752
# Poissons Ratio (z) = 0.06289 0.47489
#
# Static dielectric constant tensor:
#      x y z
#    x 1.841210 0.000000 0.000000 
#    y 0.000000 1.692850 0.000000 
#    z 0.000000 0.000000 1.670590 
# 
# From -- ./inp_files/2770.got.cif
#   From: 2010.05.17/outbox.cif.g08.bks.cpg/sg58_2_cif.got.tgz:2770.got - 2010.06.03 14:20:14.
