data_PCOD9443528
_publ_section_title
;
Structure prediction by ZEFSAII (Michael W. Deem and Ramdas Pophale) SiO2 
 PCOD9443528
Probable space group: P N N M
;
_chemical_formula_sum "Si O2"
_cell_formula_units_Z 46
_cell_length_a 9.975485
_cell_length_b 19.018386
_cell_length_c 12.432993
_cell_angle_alpha 90.000000
_cell_angle_beta 90.000000
_cell_angle_gamma 90.000000
_cell_volume 2358.757894
_symmetry_space_group_name_H-M "P N N M"
_symmetry_group_IT_number 58
_symmetry_cell_setting 'orthorhombic'
loop_
_space_group_symop_operation_xyz
x,y,z
-x,-y,z
1/2+x,1/2-y,1/2-z
1/2-x,1/2+y,1/2-z
-x,-y,-z
x,y,-z
1/2-x,1/2+y,1/2+z
1/2+x,1/2-y,1/2+z
loop_
_atom_site_type_symbol
_atom_site_label
_atom_site_fract_x
_atom_site_fract_y
_atom_site_fract_z
Si Si1 0.556412 0.131403 0.622337
Si Si2 0.146377 0.133807 0.620620
Si Si3 0.797064 0.979186 0.804141
Si Si4 0.000000 0.000000 0.000000
Si Si5 0.354168 0.255712 0.376259
Si Si6 0.500000 0.000000 0.223156
Si Si7 0.850772 0.128003 0.304943
O O1 0.519988 0.112507 0.500000
O O2 0.474421 0.201709 0.649456
O O3 0.518906 0.068305 0.701510
O O4 0.714845 0.143343 0.631261
O O5 0.181769 0.107006 0.500000
O O6 0.192727 0.083988 0.718055
O O7 0.220318 0.208498 0.632441
O O8 0.986766 0.139071 0.630158
O O9 0.894709 0.972922 0.905020
O O10 0.641147 0.989869 0.837216
O O11 0.841170 0.048537 0.737916
O O12 0.368641 0.279157 0.500000
O O13 0.353582 0.320897 0.297583
#
# Coordination Sequence:
#
# PCOD9443528 Si02
#       7
#     8   8   8   2   8   4   8
#     4  10  20  36  60  92 122 160 202 255 319 375
#     4  11  22  41  65  97 129 164 212 272 325 369
#     4  11  24  40  66  93 125 167 212 265 307 386
#     4  12  24  46  62  96 120 170 220 240 328 370
#     4  10  22  38  62  87 125 173 211 258 320 381
#     4  10  21  39  64  92 122 154 204 262 318 364
#     4  11  22  37  59  93 126 166 207 262 315 383
#
# _framework density 19.50179
#
# number of rings (size 3 to 8) (size 9 to 14) (size 15 to 20)
#    0.000    1.391    3.478    1.826    1.217    4.522 
#    0.000    0.000    1.913    0.000    0.000    0.000 
#    0.000    0.000    0.000    0.000    0.000    0.000 
#
# Total GULP energy -256408.930340 kJ/mol
# GULP energy per Si atom -5574.107181 kJ/mol
# Density = 1.945740 g / cm^3
# Si number density = 19.501790 Si / 1000 Ang^3
#
#
#
# Elastic Constant Matrix: (Units=GPa)
#
#
# Indices 1 2 3 4 5 6 
#
# 1 116.3293 -14.3437 3.8328 0.0000 0.0000 0.0000
# 2 -14.3437 32.0770 12.9557 0.0000 0.0000 0.0000
# 3 3.8328 12.9557 78.0094 0.0000 0.0000 0.0000
# 4 0.0000 0.0000 0.0000 12.7785 0.0000 0.0000
# 5 0.0000 0.0000 0.0000 0.0000 18.1918 0.0000
# 6 0.0000 0.0000 0.0000 0.0000 0.0000 10.5196
#
#
#
# Elastic Compliance Matrix: (Units=1/GPa)
#
#
# Indices 1 2 3 4 5 6 
#
# 1 0.009205 0.004608 -0.001217 0.000000 0.000000 0.000000
# 2 0.004608 0.035723 -0.006159 0.000000 0.000000 0.000000
# 3 -0.001217 -0.006159 0.013902 0.000000 0.000000 0.000000
# 4 0.000000 0.000000 0.000000 0.078256 0.000000 0.000000
# 5 0.000000 0.000000 0.000000 0.000000 0.054970 0.000000
# 6 0.000000 0.000000 0.000000 0.000000 0.000000 0.095060
#
#
# Mechanical properties :
#
#
# Convention : Reuss Voigt Hill
#
# Bulk Modulus (GPa) = 18.76483 25.70059 22.23271
# Shear Modulus (GPa) = 16.10735 23.22939 19.66837
#
# Velocity S-wave (km/s) = 2.87704 3.45504 3.17920
# Velocity P-wave (km/s) = 4.54747 5.39662 4.99014
#
# Compressibility (1/GPa) = 0.05329117
#
# Stress axis : x y z
#
# Youngs Moduli (GPa) = 108.64207 27.99316 71.93362
#
# Poissons Ratio (x) = -0.12898 0.08758
# Poissons Ratio (y) = -0.50059 0.44306
# Poissons Ratio (z) = 0.13227 0.17242
#
# Static dielectric constant tensor:
#      x y z
#    x 1.724650 0.000000 0.000000 
#    y 0.000000 1.651710 0.000000 
#    z 0.000000 0.000000 1.645810 
# 
# From -- ./inp_files/14415.got.cif
#   From: 2010.05.17/outbox.cif.g08.bks.cpg/sg58_8_cif.got.tgz:14415.got - 2010.06.03 14:20:14.
