data_PCOD9443578
_publ_section_title
;
Structure prediction by ZEFSAII (Michael W. Deem and Ramdas Pophale) SiO2 
 PCOD9443578
Probable space group: P N N M
;
_chemical_formula_sum "Si O2"
_cell_formula_units_Z 32
_cell_length_a 19.233479
_cell_length_b 9.123145
_cell_length_c 8.185399
_cell_angle_alpha 90.000000
_cell_angle_beta 90.000000
_cell_angle_gamma 90.000000
_cell_volume 1436.290471
_symmetry_space_group_name_H-M "P N N M"
_symmetry_group_IT_number 58
_symmetry_cell_setting 'orthorhombic'
loop_
_space_group_symop_operation_xyz
x,y,z
-x,-y,z
1/2+x,1/2-y,1/2-z
1/2-x,1/2+y,1/2-z
-x,-y,-z
x,y,-z
1/2-x,1/2+y,1/2+z
1/2+x,1/2-y,1/2+z
loop_
_atom_site_type_symbol
_atom_site_label
_atom_site_fract_x
_atom_site_fract_y
_atom_site_fract_z
Si Si1 0.513130 0.674169 0.000000
Si Si2 0.423644 0.932501 0.000000
Si Si3 0.930911 0.101022 0.820319
Si Si4 0.704911 0.402872 0.310613
Si Si5 0.665822 0.062477 0.683089
O O1 0.500000 0.500000 0.000000
O O2 0.440717 0.758574 0.000000
O O3 0.555178 0.704573 0.833842
O O4 0.384029 0.970629 0.834360
O O5 0.500000 0.000000 0.000000
O O6 0.865062 0.997402 0.785519
O O7 0.921265 0.170345 0.000000
O O8 0.000000 0.000000 0.832170
O O9 0.725722 0.428132 0.500000
O O10 0.689788 0.231283 0.292777
O O11 0.766694 0.460180 0.198692
O O12 0.635513 0.051541 0.500000
#
# Coordination Sequence:
#
# PCOD9443578 Si02
#       5
#     4   4   8   8   8
#     4  10  20  36  64  92 122 171 221 266 322 395
#     4  12  28  48  66  98 147 175 226 290 343 413
#     4   9  18  34  59  93 127 162 215 277 326 383
#     4  10  22  42  67 100 142 176 231 284 337 415
#     4  11  25  44  70  99 135 188 225 279 348 405
#
# _framework density 22.279616999999998
#
# number of rings (size 3 to 8) (size 9 to 14) (size 15 to 20)
#    0.000    1.750    1.250    3.000    3.500    5.500 
#    0.000    2.500    0.000    0.000    0.000    0.000 
#    0.000    0.000    0.000    0.000    0.000    0.000 
#
# Total GULP energy -178833.280905 kJ/mol
# GULP energy per Si atom -5588.540028 kJ/mol
# Density = 2.222891 g / cm^3
# Si number density = 22.279617 Si / 1000 Ang^3
#
#
#
# Elastic Constant Matrix: (Units=GPa)
#
#
# Indices 1 2 3 4 5 6 
#
# 1 100.8000 27.9287 73.7544 0.0000 0.0000 0.0000
# 2 27.9287 45.5832 34.6010 0.0000 0.0000 0.0000
# 3 73.7544 34.6010 210.3253 0.0000 0.0000 0.0000
# 4 0.0000 0.0000 0.0000 -24.0314 0.0000 0.0000
# 5 0.0000 0.0000 0.0000 0.0000 -7.3452 0.0000
# 6 0.0000 0.0000 0.0000 0.0000 0.0000 30.1274
#
#
#
# Elastic Compliance Matrix: (Units=1/GPa)
#
#
# Indices 1 2 3 4 5 6 
#
# 1 0.014560 -0.005765 -0.004157 0.000000 0.000000 0.000000
# 2 -0.005765 0.027351 -0.002478 0.000000 0.000000 0.000000
# 3 -0.004157 -0.002478 0.006620 0.000000 0.000000 0.000000
# 4 0.000000 0.000000 0.000000 -0.041612 0.000000 0.000000
# 5 0.000000 0.000000 0.000000 0.000000 -0.136143 0.000000
# 6 0.000000 0.000000 0.000000 0.000000 0.000000 0.033192
#
#
# Mechanical properties :
#
#
# Convention : Reuss Voigt Hill
#
# Bulk Modulus (GPa) = 42.14010 69.91963 56.02986
# Shear Modulus (GPa) = -78.96233 14.44510 -32.25861
#
# Velocity S-wave (km/s) = -5.95974 2.54904 -3.80925
# Velocity P-wave (km/s) = 5.32942 6.33359 2.41989
#
# Compressibility (1/GPa) = 0.02373037
#
# Stress axis : x y z
#
# Youngs Moduli (GPa) = 68.68233 36.56153 151.05744
#
# Poissons Ratio (x) = 0.21078 0.62798
# Poissons Ratio (y) = 0.39596 0.37431
# Poissons Ratio (z) = 0.28553 0.09060
#
# Static dielectric constant tensor:
#      x y z
#    x 1.784860 0.000000 0.000000 
#    y 0.000000 1.901410 0.000000 
#    z 0.000000 0.000000 1.903270 
# 
# From -- ./inp_files/5074.got.cif
#   From: 2010.05.17/outbox.cif.g08.bks.cpg/sg58_3_cif.got.tgz:5074.got - 2010.06.03 14:20:14.
