data_PCOD9443917
_publ_section_title
;
Structure prediction by ZEFSAII (Michael W. Deem and Ramdas Pophale) SiO2 
 PCOD9443917
Probable space group: P N N M
;
_chemical_formula_sum "Si O2"
_cell_formula_units_Z 58
_cell_length_a 12.571956
_cell_length_b 9.623027
_cell_length_c 26.888940
_cell_angle_alpha 90.000000
_cell_angle_beta 90.000000
_cell_angle_gamma 90.000000
_cell_volume 3253.031276
_symmetry_space_group_name_H-M "P N N M"
_symmetry_group_IT_number 58
_symmetry_cell_setting 'orthorhombic'
loop_
_space_group_symop_operation_xyz
x,y,z
-x,-y,z
1/2+x,1/2-y,1/2-z
1/2-x,1/2+y,1/2-z
-x,-y,-z
x,y,-z
1/2-x,1/2+y,1/2+z
1/2+x,1/2-y,1/2+z
loop_
_atom_site_type_symbol
_atom_site_label
_atom_site_fract_x
_atom_site_fract_y
_atom_site_fract_z
Si Si1 0.396504 0.585434 0.059608
Si Si2 0.258993 0.012765 0.848060
Si Si3 0.626054 0.987481 0.746921
Si Si4 0.632770 0.211142 0.670247
Si Si5 0.340730 0.032421 0.592691
Si Si6 0.000000 0.500000 0.000000
Si Si7 0.890108 0.585357 0.558006
Si Si8 0.111995 0.755610 0.175017
O O1 0.500000 0.500000 0.077239
O O2 0.285642 0.533586 0.082495
O O3 0.408032 0.750837 0.068537
O O4 0.389504 0.566407 0.000000
O O5 0.346275 0.009806 0.804434
O O6 0.207463 0.164283 0.846237
O O7 0.307965 0.973240 0.901392
O O8 0.171505 0.900036 0.831244
O O9 0.656357 0.844381 0.718961
O O10 0.500000 0.000000 0.739506
O O11 0.672519 0.119881 0.717205
O O12 0.514822 0.269155 0.681415
O O13 0.626798 0.098806 0.626235
O O14 0.367716 0.168371 0.624798
O O15 0.409418 0.028206 0.543228
O O16 0.854298 0.573155 0.500000
O O17 0.000000 0.500000 0.562369
#
# Coordination Sequence:
#
# PCOD9443917 Si02
#       8
#     8   8   8   8   8   2   8   8
#     4  10  21  37  60  84 111 154 203 250 291 343
#     4  12  21  36  62  87 115 157 195 239 296 366
#     4   9  20  39  61  82 113 151 201 243 294 356
#     4  10  22  37  57  88 119 151 190 247 305 351
#     4  11  20  38  59  87 115 156 203 251 286 348
#     4  12  20  36  70  86 114 162 224 236 290 348
#     4  10  23  41  56  82 122 161 193 237 299 352
#     4  10  20  39  59  83 120 153 189 248 306 345
#
# _framework density 17.829525
#
# number of rings (size 3 to 8) (size 9 to 14) (size 15 to 20)
#    0.000    1.655    3.448    2.483    1.931    0.000 
#    1.241    0.000    0.000    1.655    0.000    0.000 
#    0.000    0.000    0.000    0.000    0.000    0.000 
#
# Total GULP energy -323044.425520 kJ/mol
# GULP energy per Si atom -5569.731474 kJ/mol
# Density = 1.778894 g / cm^3
# Si number density = 17.829525 Si / 1000 Ang^3
#
#
#
# Elastic Constant Matrix: (Units=GPa)
#
#
# Indices 1 2 3 4 5 6 
#
# 1 58.8264 6.4148 9.6688 0.0000 0.0000 0.0000
# 2 6.4148 63.2582 17.2806 0.0000 0.0000 0.0000
# 3 9.6688 17.2806 84.5526 0.0000 0.0000 0.0000
# 4 0.0000 0.0000 0.0000 13.6515 0.0000 0.0000
# 5 0.0000 0.0000 0.0000 0.0000 28.1318 0.0000
# 6 0.0000 0.0000 0.0000 0.0000 0.0000 28.7352
#
#
#
# Elastic Compliance Matrix: (Units=1/GPa)
#
#
# Indices 1 2 3 4 5 6 
#
# 1 0.017424 -0.001295 -0.001728 0.000000 0.000000 0.000000
# 2 -0.001295 0.016839 -0.003293 0.000000 0.000000 0.000000
# 3 -0.001728 -0.003293 0.012698 0.000000 0.000000 0.000000
# 4 0.000000 0.000000 0.000000 0.073252 0.000000 0.000000
# 5 0.000000 0.000000 0.000000 0.000000 0.035547 0.000000
# 6 0.000000 0.000000 0.000000 0.000000 0.000000 0.034801
#
#
# Mechanical properties :
#
#
# Convention : Reuss Voigt Hill
#
# Bulk Modulus (GPa) = 29.13015 30.37398 29.75206
# Shear Modulus (GPa) = 23.29524 25.65522 24.47523
#
# Velocity S-wave (km/s) = 3.61855 3.79742 3.70906
# Velocity P-wave (km/s) = 5.81654 6.02495 5.92166
#
# Compressibility (1/GPa) = 0.03432869
#
# Stress axis : x y z
#
# Youngs Moduli (GPa) = 57.39088 59.38508 78.75471
#
# Poissons Ratio (x) = 0.07690 0.13608
# Poissons Ratio (y) = 0.07432 0.25938
# Poissons Ratio (z) = 0.09916 0.19558
#
# Static dielectric constant tensor:
#      x y z
#    x 1.615580 0.000000 0.000000 
#    y 0.000000 1.601940 0.000000 
#    z 0.000000 0.000000 1.591620 
# 
# From -- ./inp_files/33573.got.cif
#   From: 2010.05.17/outbox.cif.g08.bks.cpg/sg58_17_cif.got.tgz:33573.got - 2010.06.03 14:20:14.
