data_PCOD9443619
_publ_section_title
;
Structure prediction by ZEFSAII (Michael W. Deem and Ramdas Pophale) SiO2 
 PCOD9443619
Probable space group: P N N M
;
_chemical_formula_sum "Si O2"
_cell_formula_units_Z 48
_cell_length_a 28.486833
_cell_length_b 7.694385
_cell_length_c 10.086379
_cell_angle_alpha 90.000000
_cell_angle_beta 90.000000
_cell_angle_gamma 90.000000
_cell_volume 2210.819903
_symmetry_space_group_name_H-M "P N N M"
_symmetry_group_IT_number 58
_symmetry_cell_setting 'orthorhombic'
loop_
_space_group_symop_operation_xyz
x,y,z
-x,-y,z
1/2+x,1/2-y,1/2-z
1/2-x,1/2+y,1/2-z
-x,-y,-z
x,y,-z
1/2-x,1/2+y,1/2+z
1/2+x,1/2-y,1/2+z
loop_
_atom_site_type_symbol
_atom_site_label
_atom_site_fract_x
_atom_site_fract_y
_atom_site_fract_z
Si Si1 0.900890 0.847010 0.342744
Si Si2 0.945200 0.127935 0.848413
Si Si3 0.142264 0.656721 0.143424
Si Si4 0.308515 0.476000 0.758686
Si Si5 0.712026 0.887282 0.854925
Si Si6 0.535437 0.152480 0.654391
O O1 0.909819 0.831627 0.500000
O O2 0.922457 0.690999 0.254963
O O3 0.927189 0.011561 0.273054
O O4 0.846286 0.891163 0.317258
O O5 0.912358 0.301574 0.839398
O O6 0.999125 0.184477 0.842001
O O7 0.935769 0.060953 0.000000
O O8 0.165362 0.851866 0.150991
O O9 0.169977 0.557486 0.257571
O O10 0.151221 0.578935 0.000000
O O11 0.293056 0.322271 0.858017
O O12 0.262411 0.565981 0.703433
O O13 0.706514 0.963214 0.000000
O O14 0.549746 0.130448 0.500000
O O15 0.500000 0.000000 0.693553
#
# Coordination Sequence:
#
# PCOD9443619 Si02
#       6
#     8   8   8   8   8   8
#     4  11  22  38  60  86 117 151 194 241 288 341
#     4   9  18  36  61  85 112 151 195 234 280 339
#     4   8  17  32  54  80 111 143 186 236 280 331
#     4   9  21  37  58  81 116 149 191 233 285 343
#     4  10  20  37  59  82 113 151 193 236 285 341
#     4  10  22  40  60  84 119 155 192 238 289 345
#
# _framework density 21.711404000000002
#
# number of rings (size 3 to 8) (size 9 to 14) (size 15 to 20)
#    1.000    1.500    0.000    2.000    0.000    6.333 
#    3.000    0.000    0.000    0.000    0.000    0.000 
#    0.000    0.000    0.000    0.000    0.000    0.000 
#
# Total GULP energy -267472.992551 kJ/mol
# GULP energy per Si atom -5572.354011 kJ/mol
# Density = 2.166199 g / cm^3
# Si number density = 21.711404 Si / 1000 Ang^3
#
#
#
# Elastic Constant Matrix: (Units=GPa)
#
#
# Indices 1 2 3 4 5 6 
#
# 1 130.4444 8.3367 53.9781 0.0000 0.0000 0.0000
# 2 8.3367 51.9268 4.0658 0.0000 0.0000 0.0000
# 3 53.9781 4.0658 138.9251 0.0000 0.0000 0.0000
# 4 0.0000 0.0000 0.0000 12.6643 0.0000 0.0000
# 5 0.0000 0.0000 0.0000 0.0000 17.8267 0.0000
# 6 0.0000 0.0000 0.0000 0.0000 0.0000 45.4542
#
#
#
# Elastic Compliance Matrix: (Units=1/GPa)
#
#
# Indices 1 2 3 4 5 6 
#
# 1 0.009209 -0.001201 -0.003543 0.000000 0.000000 0.000000
# 2 -0.001201 0.019459 -0.000103 0.000000 0.000000 0.000000
# 3 -0.003543 -0.000103 0.008578 0.000000 0.000000 0.000000
# 4 0.000000 0.000000 0.000000 0.078962 0.000000 0.000000
# 5 0.000000 0.000000 0.000000 0.000000 0.056096 0.000000
# 6 0.000000 0.000000 0.000000 0.000000 0.000000 0.022000
#
#
# Mechanical properties :
#
#
# Convention : Reuss Voigt Hill
#
# Bulk Modulus (GPa) = 36.29523 50.45083 43.37303
# Shear Modulus (GPa) = 23.45427 32.18342 27.81884
#
# Velocity S-wave (km/s) = 3.29032 3.85428 3.58341
# Velocity P-wave (km/s) = 5.58465 6.56466 6.09439
#
# Compressibility (1/GPa) = 0.02755183
#
# Stress axis : x y z
#
# Youngs Moduli (GPa) = 108.59037 51.39070 116.58144
#
# Poissons Ratio (x) = 0.06172 0.41304
# Poissons Ratio (y) = 0.13042 0.01199
# Poissons Ratio (z) = 0.38472 0.00528
#
# Static dielectric constant tensor:
#      x y z
#    x 1.789950 0.000000 0.000000 
#    y 0.000000 1.928740 0.000000 
#    z 0.000000 0.000000 1.744050 
# 
# From -- ./inp_files/10751.got.cif
#   From: 2010.05.17/outbox.cif.g08.bks.cpg/sg58_6_cif.got.tgz:10751.got - 2010.06.03 14:20:14.
