data_PCOD9443324
_publ_section_title
;
Structure prediction by ZEFSAII (Michael W. Deem and Ramdas Pophale) SiO2 
 PCOD9443324
Probable space group: P N N M
;
_chemical_formula_sum "Si O2"
_cell_formula_units_Z 58
_cell_length_a 12.188083
_cell_length_b 28.153178
_cell_length_c 7.546362
_cell_angle_alpha 90.000000
_cell_angle_beta 90.000000
_cell_angle_gamma 90.000000
_cell_volume 2589.407871
_symmetry_space_group_name_H-M "P N N M"
_symmetry_group_IT_number 58
_symmetry_cell_setting 'orthorhombic'
loop_
_space_group_symop_operation_xyz
x,y,z
-x,-y,z
1/2+x,1/2-y,1/2-z
1/2-x,1/2+y,1/2-z
-x,-y,-z
x,y,-z
1/2-x,1/2+y,1/2+z
1/2+x,1/2-y,1/2+z
loop_
_atom_site_type_symbol
_atom_site_label
_atom_site_fract_x
_atom_site_fract_y
_atom_site_fract_z
Si Si1 0.158282 0.999404 0.796203
Si Si2 0.447426 0.120057 0.286877
Si Si3 0.641717 0.059932 0.299587
Si Si4 0.500000 0.500000 0.000000
Si Si5 0.306377 0.605340 0.710895
Si Si6 0.078030 0.287230 0.785477
Si Si7 0.517491 0.318376 0.282695
Si Si8 0.722907 0.651520 0.292721
O O1 0.163623 0.053137 0.721503
O O2 0.280528 0.978135 0.791405
O O3 0.076772 0.975174 0.658003
O O4 0.121972 0.997128 0.000000
O O5 0.458658 0.119219 0.500000
O O6 0.525597 0.077183 0.221109
O O7 0.320761 0.115423 0.243524
O O8 0.497744 0.170249 0.225060
O O9 0.623952 0.043045 0.500000
O O10 0.713484 0.108515 0.299813
O O11 0.322038 0.602533 0.500000
O O12 0.386721 0.646247 0.777600
O O13 0.041166 0.235410 0.725149
O O14 0.199260 0.302547 0.725764
O O15 0.077620 0.287094 0.000000
O O16 0.517012 0.317917 0.500000
O O17 0.398406 0.337033 0.227110
O O18 0.715691 0.638131 0.500000
#
# Coordination Sequence:
#
# PCOD9443324 Si02
#       8
#     8   8   8   2   8   8   8   8
#     4  11  25  43  66  98 131 169 221 269 326 383
#     4   9  20  37  62  87 122 162 207 262 315 381
#     4  10  21  41  64  91 122 167 213 260 320 383
#     4  12  26  44  68  92 132 180 210 264 318 398
#     4  10  23  40  59  90 125 164 207 262 326 386
#     4   9  19  38  58  82 115 160 203 250 315 380
#     4   9  20  37  57  80 119 160 198 252 318 381
#     4  10  20  35  59  87 116 152 204 260 312 377
#
# _framework density 22.398942999999999
#
# number of rings (size 3 to 8) (size 9 to 14) (size 15 to 20)
#    0.000    2.207    0.690    1.862    4.828    3.310 
#    0.000    5.517    0.000    0.000    0.000    0.000 
#    0.000    0.000    0.000    0.000    0.000    0.000 
#
# Total GULP energy -323588.108870 kJ/mol
# GULP energy per Si atom -5579.105325 kJ/mol
# Density = 2.234796 g / cm^3
# Si number density = 22.398943 Si / 1000 Ang^3
#
#
#
# Elastic Constant Matrix: (Units=GPa)
#
#
# Indices 1 2 3 4 5 6 
#
# 1 149.8679 26.6462 -3.6725 0.0000 0.0000 0.0000
# 2 26.6462 57.4253 -4.4186 0.0000 0.0000 0.0000
# 3 -3.6725 -4.4186 85.8345 0.0000 0.0000 0.0000
# 4 0.0000 0.0000 0.0000 13.8291 0.0000 0.0000
# 5 0.0000 0.0000 0.0000 0.0000 16.2690 0.0000
# 6 0.0000 0.0000 0.0000 0.0000 0.0000 21.5949
#
#
#
# Elastic Compliance Matrix: (Units=1/GPa)
#
#
# Indices 1 2 3 4 5 6 
#
# 1 0.007274 -0.003365 0.000138 0.000000 0.000000 0.000000
# 2 -0.003365 0.019040 0.000836 0.000000 0.000000 0.000000
# 3 0.000138 0.000836 0.011699 0.000000 0.000000 0.000000
# 4 0.000000 0.000000 0.000000 0.072311 0.000000 0.000000
# 5 0.000000 0.000000 0.000000 0.000000 0.061466 0.000000
# 6 0.000000 0.000000 0.000000 0.000000 0.000000 0.046307
#
#
# Mechanical properties :
#
#
# Convention : Reuss Voigt Hill
#
# Bulk Modulus (GPa) = 30.09152 36.69308 33.39230
# Shear Modulus (GPa) = 21.37151 28.64345 25.00748
#
# Velocity S-wave (km/s) = 3.09225 3.57989 3.34497
# Velocity P-wave (km/s) = 5.11985 5.78832 5.46432
#
# Compressibility (1/GPa) = 0.03323195
#
# Stress axis : x y z
#
# Youngs Moduli (GPa) = 137.47288 52.52229 85.47539
#
# Poissons Ratio (x) = 0.17672 -0.01180
# Poissons Ratio (y) = 0.46255 -0.07147
# Poissons Ratio (z) = -0.01897 -0.04392
#
# Static dielectric constant tensor:
#      x y z
#    x 1.838020 0.000000 0.000000 
#    y 0.000000 1.837080 0.000000 
#    z 0.000000 0.000000 1.889150 
# 
# From -- ./inp_files/4589.got.cif
#   From: 2010.05.17/outbox.cif.g08.bks.cpg/sg58_3_cif.got.tgz:4589.got - 2010.06.03 14:20:14.
