data_PCOD9443781
_publ_section_title
;
Structure prediction by ZEFSAII (Michael W. Deem and Ramdas Pophale) SiO2 
 PCOD9443781
Probable space group: P N N M
;
_chemical_formula_sum "Si O2"
_cell_formula_units_Z 48
_cell_length_a 15.288149
_cell_length_b 18.944612
_cell_length_c 7.623219
_cell_angle_alpha 90.000000
_cell_angle_beta 90.000000
_cell_angle_gamma 90.000000
_cell_volume 2207.898061
_symmetry_space_group_name_H-M "P N N M"
_symmetry_group_IT_number 58
_symmetry_cell_setting 'orthorhombic'
loop_
_space_group_symop_operation_xyz
x,y,z
-x,-y,z
1/2+x,1/2-y,1/2-z
1/2-x,1/2+y,1/2-z
-x,-y,-z
x,y,-z
1/2-x,1/2+y,1/2+z
1/2+x,1/2-y,1/2+z
loop_
_atom_site_type_symbol
_atom_site_label
_atom_site_fract_x
_atom_site_fract_y
_atom_site_fract_z
Si Si1 0.817085 0.728801 0.704404
Si Si2 0.494882 0.279369 0.785934
Si Si3 0.338790 0.174859 0.787341
Si Si4 0.439651 0.435040 0.785216
Si Si5 0.257453 0.923389 0.297964
Si Si6 0.908218 0.474176 0.296970
O O1 0.826380 0.710408 0.500000
O O2 0.912797 0.748024 0.774598
O O3 0.753112 0.795376 0.721781
O O4 0.773563 0.660450 0.790982
O O5 0.414528 0.229668 0.734305
O O6 0.478143 0.359564 0.729437
O O7 0.497180 0.279920 0.000000
O O8 0.366007 0.097338 0.723379
O O9 0.333614 0.174799 0.000000
O O10 0.500000 0.500000 0.729708
O O11 0.338906 0.440386 0.726370
O O12 0.437917 0.434653 0.000000
O O13 0.259391 0.946286 0.500000
O O14 0.336860 0.964167 0.208479
O O15 0.928105 0.456221 0.500000
O O16 0.000000 0.500000 0.217094
#
# Coordination Sequence:
#
# PCOD9443781 Si02
#       6
#     8   8   8   8   8   8
#     4  11  22  36  60  88 116 152 196 239 286 352
#     4   9  18  35  58  81 110 152 196 231 277 347
#     4  10  20  38  60  84 115 151 192 240 291 342
#     4   9  18  33  56  83 111 149 194 236 281 341
#     4  11  22  38  62  87 118 153 193 246 296 342
#     4  10  22  40  62  85 117 159 198 238 293 360
#
# _framework density 21.740134999999999
#
# number of rings (size 3 to 8) (size 9 to 14) (size 15 to 20)
#    0.000    2.000    1.667    2.000    2.333    3.667 
#    0.000    3.333    0.000    2.000    0.000    0.000 
#    0.000    0.000    0.000    0.000    0.000    0.000 
#
# Total GULP energy -268266.276624 kJ/mol
# GULP energy per Si atom -5588.880763 kJ/mol
# Density = 2.169065 g / cm^3
# Si number density = 21.740135 Si / 1000 Ang^3
#
#
#
# Elastic Constant Matrix: (Units=GPa)
#
#
# Indices 1 2 3 4 5 6 
#
# 1 118.8783 8.8533 -3.3685 0.0000 0.0000 0.0000
# 2 8.8533 82.0427 -5.9626 0.0000 0.0000 0.0000
# 3 -3.3685 -5.9626 45.0234 0.0000 0.0000 0.0000
# 4 0.0000 0.0000 0.0000 10.5009 0.0000 0.0000
# 5 0.0000 0.0000 0.0000 0.0000 6.0154 0.0000
# 6 0.0000 0.0000 0.0000 0.0000 0.0000 37.0861
#
#
#
# Elastic Compliance Matrix: (Units=1/GPa)
#
#
# Indices 1 2 3 4 5 6 
#
# 1 0.008492 -0.000879 0.000519 0.000000 0.000000 0.000000
# 2 -0.000879 0.012398 0.001576 0.000000 0.000000 0.000000
# 3 0.000519 0.001576 0.022458 0.000000 0.000000 0.000000
# 4 0.000000 0.000000 0.000000 0.095230 0.000000 0.000000
# 5 0.000000 0.000000 0.000000 0.000000 0.166239 0.000000
# 6 0.000000 0.000000 0.000000 0.000000 0.000000 0.026964
#
#
# Mechanical properties :
#
#
# Convention : Reuss Voigt Hill
#
# Bulk Modulus (GPa) = 21.84288 27.22098 24.53193
# Shear Modulus (GPa) = 14.50921 27.14864 20.82892
#
# Velocity S-wave (km/s) = 2.58620 3.53764 3.09865
# Velocity P-wave (km/s) = 4.35740 5.40692 4.91028
#
# Compressibility (1/GPa) = 0.04578151
#
# Stress axis : x y z
#
# Youngs Moduli (GPa) = 117.75634 80.65724 44.52706
#
# Poissons Ratio (x) = 0.07087 -0.02311
# Poissons Ratio (y) = 0.10347 -0.07018
# Poissons Ratio (z) = -0.06111 -0.12713
#
# Static dielectric constant tensor:
#      x y z
#    x 1.753400 0.000000 0.000000 
#    y 0.000000 1.744380 0.000000 
#    z 0.000000 0.000000 1.822930 
# 
# From -- ./inp_files/5759.got.cif
#   From: 2010.05.17/outbox.cif.g08.bks.cpg/sg58_3_cif.got.tgz:5759.got - 2010.06.03 14:20:14.
