data_PCOD9443573
_publ_section_title
;
Structure prediction by ZEFSAII (Michael W. Deem and Ramdas Pophale) SiO2 
 PCOD9443573
Probable space group: P N N M
;
_chemical_formula_sum "Si O2"
_cell_formula_units_Z 56
_cell_length_a 13.308302
_cell_length_b 15.210139
_cell_length_c 14.319144
_cell_angle_alpha 90.000000
_cell_angle_beta 90.000000
_cell_angle_gamma 90.000000
_cell_volume 2898.497213
_symmetry_space_group_name_H-M "P N N M"
_symmetry_group_IT_number 58
_symmetry_cell_setting 'orthorhombic'
loop_
_space_group_symop_operation_xyz
x,y,z
-x,-y,z
1/2+x,1/2-y,1/2-z
1/2-x,1/2+y,1/2-z
-x,-y,-z
x,y,-z
1/2-x,1/2+y,1/2+z
1/2+x,1/2-y,1/2+z
loop_
_atom_site_type_symbol
_atom_site_label
_atom_site_fract_x
_atom_site_fract_y
_atom_site_fract_z
Si Si1 0.271339 0.000006 0.809104
Si Si2 0.435436 0.922419 0.296569
Si Si3 0.449160 0.708759 0.891198
Si Si4 0.978896 0.249296 0.111393
Si Si5 0.062065 0.087533 0.779493
Si Si6 0.050406 0.615115 0.392066
Si Si7 0.240711 0.806709 0.111527
O O1 0.324934 0.961148 0.716163
O O2 0.241529 0.909737 0.861660
O O3 0.177046 0.059216 0.784705
O O4 0.347995 0.063755 0.865929
O O5 0.462212 0.831690 0.345019
O O6 0.472765 0.913236 0.188583
O O7 0.500000 0.000000 0.342083
O O8 0.463924 0.629439 0.820743
O O9 0.540490 0.779164 0.884557
O O10 0.344782 0.758276 0.860979
O O11 0.439023 0.684135 0.000000
O O12 0.033563 0.161343 0.145419
O O13 0.862105 0.240560 0.144724
O O14 0.978945 0.256308 0.000000
O O15 0.000000 0.000000 0.797349
O O16 0.021491 0.596121 0.500000
O O17 0.239377 0.802933 0.000000
#
# Coordination Sequence:
#
# PCOD9443573 Si02
#       7
#     8   8   8   8   8   8   8
#     4  11  22  37  62  95 126 159 211 264 319 376
#     4  10  22  40  63  95 124 163 211 262 314 370
#     4  10  22  40  63  93 124 164 213 260 320 380
#     4  11  24  43  63  90 131 172 212 255 311 380
#     4  12  25  42  64  88 126 173 209 263 321 383
#     4  10  20  36  64  94 125 156 200 264 317 366
#     4  10  20  36  63  91 123 165 207 255 311 377
#
# _framework density 19.320356
#
# number of rings (size 3 to 8) (size 9 to 14) (size 15 to 20)
#    0.000    1.429    4.286    0.429    4.000    4.571 
#    2.571    0.714    0.000    0.000    0.000    0.000 
#    0.000    0.000    0.000    0.000    0.000    0.000 
#
# Total GULP energy -312224.954352 kJ/mol
# GULP energy per Si atom -5575.445613 kJ/mol
# Density = 1.927638 g / cm^3
# Si number density = 19.320356 Si / 1000 Ang^3
#
#
#
# Elastic Constant Matrix: (Units=GPa)
#
#
# Indices 1 2 3 4 5 6 
#
# 1 80.1434 43.1462 23.4465 0.0000 0.0000 0.0000
# 2 43.1462 129.6564 38.2991 0.0000 0.0000 0.0000
# 3 23.4465 38.2991 70.3379 0.0000 0.0000 0.0000
# 4 0.0000 0.0000 0.0000 -7.8798 0.0000 0.0000
# 5 0.0000 0.0000 0.0000 0.0000 14.8318 0.0000
# 6 0.0000 0.0000 0.0000 0.0000 0.0000 -3.3254
#
#
#
# Elastic Compliance Matrix: (Units=1/GPa)
#
#
# Indices 1 2 3 4 5 6 
#
# 1 0.015663 -0.004373 -0.002840 0.000000 0.000000 0.000000
# 2 -0.004373 0.010412 -0.004212 0.000000 0.000000 0.000000
# 3 -0.002840 -0.004212 0.017457 0.000000 0.000000 0.000000
# 4 0.000000 0.000000 0.000000 -0.126906 0.000000 0.000000
# 5 0.000000 0.000000 0.000000 0.000000 0.067423 0.000000
# 6 0.000000 0.000000 0.000000 0.000000 0.000000 -0.300718
#
#
# Mechanical properties :
#
#
# Convention : Reuss Voigt Hill
#
# Bulk Modulus (GPa) = 48.35016 54.43569 51.39292
# Shear Modulus (GPa) = -17.42609 12.40837 -2.50886
#
# Velocity S-wave (km/s) = -3.00651 2.53700 -1.14078
# Velocity P-wave (km/s) = 3.60938 6.06781 4.99229
#
# Compressibility (1/GPa) = 0.02068246
#
# Stress axis : x y z
#
# Youngs Moduli (GPa) = 63.84521 96.04221 57.28391
#
# Poissons Ratio (x) = 0.42003 0.16267
# Poissons Ratio (y) = 0.27922 0.24126
# Poissons Ratio (z) = 0.18131 0.40449
#
# Static dielectric constant tensor:
#      x y z
#    x 1.733520 0.000000 0.000000 
#    y 0.000000 1.682240 0.000000 
#    z 0.000000 0.000000 1.662980 
# 
# From -- ./inp_files/21277.got.cif
#   From: 2010.05.17/outbox.cif.g08.bks.cpg/sg58_11_cif.got.tgz:21277.got - 2010.06.03 14:20:14.
