data_PCOD9443144
_publ_section_title
;
Structure prediction by ZEFSAII (Michael W. Deem and Ramdas Pophale) SiO2 
 PCOD9443144
Probable space group: P N N M
;
_chemical_formula_sum "Si O2"
_cell_formula_units_Z 48
_cell_length_a 10.496757
_cell_length_b 30.157503
_cell_length_c 8.563583
_cell_angle_alpha 90.000000
_cell_angle_beta 90.000000
_cell_angle_gamma 90.000000
_cell_volume 2710.853415
_symmetry_space_group_name_H-M "P N N M"
_symmetry_group_IT_number 58
_symmetry_cell_setting 'orthorhombic'
loop_
_space_group_symop_operation_xyz
x,y,z
-x,-y,z
1/2+x,1/2-y,1/2-z
1/2-x,1/2+y,1/2-z
-x,-y,-z
x,y,-z
1/2-x,1/2+y,1/2+z
1/2+x,1/2-y,1/2+z
loop_
_atom_site_type_symbol
_atom_site_label
_atom_site_fract_x
_atom_site_fract_y
_atom_site_fract_z
Si Si1 0.490019 0.882394 0.188713
Si Si2 0.726077 0.384844 0.185573
Si Si3 0.007476 0.281542 0.688520
Si Si4 0.213705 0.212636 0.186980
Si Si5 0.624436 0.027669 0.190175
Si Si6 0.127180 0.025779 0.188933
O O1 0.631445 0.893095 0.249025
O O2 0.458743 0.832138 0.236268
O O3 0.395149 0.921384 0.239356
O O4 0.495960 0.882813 0.000000
O O5 0.687271 0.336393 0.246956
O O6 0.638921 0.424792 0.245699
O O7 0.729311 0.384408 0.000000
O O8 0.013107 0.278969 0.500000
O O9 0.859060 0.274486 0.735232
O O10 0.107477 0.247050 0.757366
O O11 0.213824 0.210075 0.000000
O O12 0.500000 0.000000 0.238257
O O13 0.751044 0.002858 0.242795
O O14 0.626937 0.027435 0.000000
O O15 0.130840 0.028535 0.000000
O O16 0.000000 0.000000 0.234463
#
# Coordination Sequence:
#
# PCOD9443144 Si02
#       6
#     8   8   8   8   8   8
#     4   9  17  33  56  80 107 140 182 224 269 318
#     4  11  21  34  55  79 109 143 181 222 273 324
#     4   9  19  35  55  81 112 141 179 230 278 324
#     4  10  21  38  60  82 109 144 184 225 272 331
#     4   9  15  28  55  80 103 136 176 221 258 303
#     4  10  20  35  54  78 109 143 184 222 263 326
#
# _framework density 17.706600000000002
#
# number of rings (size 3 to 8) (size 9 to 14) (size 15 to 20)
#    0.000    2.333    1.667    3.000    0.000    3.667 
#    3.000    1.667    0.000    0.000    0.000    0.000 
#    0.000    0.000    0.000    0.000    0.000    0.000 
#
# Total GULP energy -267739.748846 kJ/mol
# GULP energy per Si atom -5577.911434 kJ/mol
# Density = 1.766630 g / cm^3
# Si number density = 17.706600 Si / 1000 Ang^3
#
#
#
# Elastic Constant Matrix: (Units=GPa)
#
#
# Indices 1 2 3 4 5 6 
#
# 1 118.1476 97.3193 23.8855 0.0000 0.0000 0.0000
# 2 97.3193 162.8209 32.7273 0.0000 0.0000 0.0000
# 3 23.8855 32.7273 18.1668 0.0000 0.0000 0.0000
# 4 0.0000 0.0000 0.0000 24.3971 0.0000 0.0000
# 5 0.0000 0.0000 0.0000 0.0000 17.1393 0.0000
# 6 0.0000 0.0000 0.0000 0.0000 0.0000 35.7189
#
#
#
# Elastic Compliance Matrix: (Units=1/GPa)
#
#
# Indices 1 2 3 4 5 6 
#
# 1 0.017133 -0.008956 -0.006393 0.000000 0.000000 0.000000
# 2 -0.008956 0.014309 -0.014003 0.000000 0.000000 0.000000
# 3 -0.006393 -0.014003 0.088678 0.000000 0.000000 0.000000
# 4 0.000000 0.000000 0.000000 0.040988 0.000000 0.000000
# 5 0.000000 0.000000 0.000000 0.000000 0.058345 0.000000
# 6 0.000000 0.000000 0.000000 0.000000 0.000000 0.027996
#
#
# Mechanical properties :
#
#
# Convention : Reuss Voigt Hill
#
# Bulk Modulus (GPa) = 16.28233 67.44438 41.86336
# Shear Modulus (GPa) = 15.30801 25.13129 20.21965
#
# Velocity S-wave (km/s) = 2.94349 3.77147 3.38291
# Velocity P-wave (km/s) = 4.55717 7.55897 6.24122
#
# Compressibility (1/GPa) = 0.06141626
#
# Stress axis : x y z
#
# Youngs Moduli (GPa) = 58.36568 69.88472 11.27681
#
# Poissons Ratio (x) = 0.62587 0.07209
# Poissons Ratio (y) = 0.52271 0.15791
# Poissons Ratio (z) = 0.37314 0.97861
#
# Static dielectric constant tensor:
#      x y z
#    x 1.586810 0.000000 0.000000 
#    y 0.000000 1.607780 0.000000 
#    z 0.000000 0.000000 1.601450 
# 
# From -- ./inp_files/4311.got.cif
#   From: 2010.05.17/outbox.cif.g08.bks.cpg/sg58_3_cif.got.tgz:4311.got - 2010.06.03 14:20:14.
