data_PCOD9443825
_publ_section_title
;
Structure prediction by ZEFSAII (Michael W. Deem and Ramdas Pophale) SiO2 
 PCOD9443825
Probable space group: P N N M
;
_chemical_formula_sum "Si O2"
_cell_formula_units_Z 40
_cell_length_a 21.438030
_cell_length_b 10.668020
_cell_length_c 8.346632
_cell_angle_alpha 90.000000
_cell_angle_beta 90.000000
_cell_angle_gamma 90.000000
_cell_volume 1908.885863
_symmetry_space_group_name_H-M "P N N M"
_symmetry_group_IT_number 58
_symmetry_cell_setting 'orthorhombic'
loop_
_space_group_symop_operation_xyz
x,y,z
-x,-y,z
1/2+x,1/2-y,1/2-z
1/2-x,1/2+y,1/2-z
-x,-y,-z
x,y,-z
1/2-x,1/2+y,1/2+z
1/2+x,1/2-y,1/2+z
loop_
_atom_site_type_symbol
_atom_site_label
_atom_site_fract_x
_atom_site_fract_y
_atom_site_fract_z
Si Si1 0.065752 0.056810 0.693807
Si Si2 0.051178 0.333517 0.187101
Si Si3 0.582255 0.900637 0.811472
Si Si4 0.280855 0.194134 0.806760
Si Si5 0.802095 0.033839 0.692684
O O1 0.064384 0.058050 0.500000
O O2 0.072784 0.198587 0.753486
O O3 0.125890 0.977321 0.745494
O O4 0.000000 0.000000 0.750053
O O5 0.081043 0.450221 0.281131
O O6 0.976866 0.345148 0.218193
O O7 0.064469 0.349379 0.000000
O O8 0.648445 0.844392 0.763469
O O9 0.572253 0.874966 0.000000
O O10 0.270977 0.336770 0.749896
O O11 0.234202 0.090324 0.742113
O O12 0.276624 0.191486 0.000000
O O13 0.802698 0.039698 0.500000
#
# Coordination Sequence:
#
# PCOD9443825 Si02
#       5
#     8   8   8   8   8
#     4  10  21  40  64  86 117 161 209 252 300 368
#     4  11  22  35  57  92 126 154 196 254 313 361
#     4  10  20  38  62  85 118 162 208 247 295 369
#     4  10  23  42  63  89 121 160 206 253 302 364
#     4  10  23  41  63  91 122 160 206 253 306 364
#
# _framework density 20.954630999999999
#
# number of rings (size 3 to 8) (size 9 to 14) (size 15 to 20)
#    0.000    1.800    0.000    4.800    2.800    6.800 
#    0.000    2.000    0.000    0.000    0.000    0.000 
#    0.000    0.000    0.000    0.000    0.000    0.000 
#
# Total GULP energy -223618.711288 kJ/mol
# GULP energy per Si atom -5590.467782 kJ/mol
# Density = 2.090694 g / cm^3
# Si number density = 20.954631 Si / 1000 Ang^3
#
#
#
# Elastic Constant Matrix: (Units=GPa)
#
#
# Indices 1 2 3 4 5 6 
#
# 1 67.8779 56.4872 9.6666 0.0000 0.0000 0.0000
# 2 56.4872 131.0801 2.3064 0.0000 0.0000 0.0000
# 3 9.6666 2.3064 9.7092 0.0000 0.0000 0.0000
# 4 0.0000 0.0000 0.0000 30.4608 0.0000 0.0000
# 5 0.0000 0.0000 0.0000 0.0000 19.6530 0.0000
# 6 0.0000 0.0000 0.0000 0.0000 0.0000 29.4344
#
#
#
# Elastic Compliance Matrix: (Units=1/GPa)
#
#
# Indices 1 2 3 4 5 6 
#
# 1 0.027967 -0.011611 -0.025086 0.000000 0.000000 0.000000
# 2 -0.011611 0.012481 0.008595 0.000000 0.000000 0.000000
# 3 -0.025086 0.008595 0.125930 0.000000 0.000000 0.000000
# 4 0.000000 0.000000 0.000000 0.032829 0.000000 0.000000
# 5 0.000000 0.000000 0.000000 0.000000 0.050883 0.000000
# 6 0.000000 0.000000 0.000000 0.000000 0.000000 0.033974
#
#
# Mechanical properties :
#
#
# Convention : Reuss Voigt Hill
#
# Bulk Modulus (GPa) = 9.07656 38.39862 23.73759
# Shear Modulus (GPa) = 13.26285 25.25679 19.25982
#
# Velocity S-wave (km/s) = 2.51854 3.47552 3.03499
# Velocity P-wave (km/s) = 3.57748 5.87112 4.86150
#
# Compressibility (1/GPa) = 0.11017386
#
# Stress axis : x y z
#
# Youngs Moduli (GPa) = 35.75617 80.12076 7.94092
#
# Poissons Ratio (x) = 0.93026 0.19921
# Poissons Ratio (y) = 0.41515 -0.06825
# Poissons Ratio (z) = 0.89699 -0.68863
#
# Static dielectric constant tensor:
#      x y z
#    x 1.748890 0.000000 0.000000 
#    y 0.000000 1.753380 0.000000 
#    z 0.000000 0.000000 1.726350 
# 
# From -- ./inp_files/4018.got.cif
#   From: 2010.05.17/outbox.cif.g08.bks.cpg/sg58_3_cif.got.tgz:4018.got - 2010.06.03 14:20:14.
