data_PCOD9443060
_publ_section_title
;
Structure prediction by ZEFSAII (Michael W. Deem and Ramdas Pophale) SiO2 
 PCOD9443060
Probable space group: P N N M
;
_chemical_formula_sum "Si O2"
_cell_formula_units_Z 64
_cell_length_a 25.092172
_cell_length_b 14.783831
_cell_length_c 8.443933
_cell_angle_alpha 90.000000
_cell_angle_beta 90.000000
_cell_angle_gamma 90.000000
_cell_volume 3132.348131
_symmetry_space_group_name_H-M "P N N M"
_symmetry_group_IT_number 58
_symmetry_cell_setting 'orthorhombic'
loop_
_space_group_symop_operation_xyz
x,y,z
-x,-y,z
1/2+x,1/2-y,1/2-z
1/2-x,1/2+y,1/2-z
-x,-y,-z
x,y,-z
1/2-x,1/2+y,1/2+z
1/2+x,1/2-y,1/2+z
loop_
_atom_site_type_symbol
_atom_site_label
_atom_site_fract_x
_atom_site_fract_y
_atom_site_fract_z
Si Si1 0.589575 0.251415 0.690551
Si Si2 0.707510 0.301597 0.689900
Si Si3 0.453075 0.935781 0.184493
Si Si4 0.138072 0.901231 0.817615
Si Si5 0.853119 0.467731 0.182836
Si Si6 0.268440 0.500288 0.815363
Si Si7 0.672065 0.776632 0.816660
Si Si8 0.053833 0.050128 0.806790
O O1 0.588760 0.251540 0.500000
O O2 0.652644 0.252088 0.737217
O O3 0.557431 0.163412 0.744554
O O4 0.564384 0.347130 0.746312
O O5 0.703095 0.319521 0.500000
O O6 0.713666 0.396924 0.779336
O O7 0.765150 0.255292 0.714522
O O8 0.500000 0.000000 0.252830
O O9 0.398267 0.990023 0.209400
O O10 0.464833 0.922688 0.000000
O O11 0.136259 0.809775 0.719193
O O12 0.197549 0.938267 0.798908
O O13 0.101233 0.982894 0.759411
O O14 0.124849 0.882167 0.000000
O O15 0.794433 0.507442 0.213028
O O16 0.846044 0.361074 0.212169
O O17 0.866984 0.486099 0.000000
O O18 0.278892 0.478051 0.000000
O O19 0.668478 0.803562 0.000000
O O20 0.053571 0.053553 0.000000
O O21 0.000000 0.000000 0.756086
#
# Coordination Sequence:
#
# PCOD9443060 Si02
#       8
#     8   8   8   8   8   8   8   8
#     4  10  20  38  63  90 119 156 204 252 301 361
#     4   9  18  35  57  84 119 158 198 243 297 359
#     4  11  26  45  63  88 122 159 204 259 316 368
#     4  11  21  35  56  86 124 162 203 246 297 363
#     4  10  22  41  63  88 117 157 208 254 304 369
#     4  10  20  34  56  86 121 155 195 248 302 362
#     4  10  21  36  57  88 129 166 199 248 308 364
#     4   9  19  37  61  89 119 154 198 249 295 344
#
# _framework density 20.431957000000001
#
# number of rings (size 3 to 8) (size 9 to 14) (size 15 to 20)
#    0.000    2.000    1.250    1.875    1.750    4.500 
#    0.000    1.250    0.000    2.625    0.000    0.000 
#    0.000    0.000    0.000    0.000    0.000    0.000 
#
# Total GULP energy -357202.942080 kJ/mol
# GULP energy per Si atom -5581.295970 kJ/mol
# Density = 2.038545 g / cm^3
# Si number density = 20.431957 Si / 1000 Ang^3
#
#
#
# Elastic Constant Matrix: (Units=GPa)
#
#
# Indices 1 2 3 4 5 6 
#
# 1 67.2780 49.4395 12.3713 0.0000 0.0000 0.0000
# 2 49.4395 95.9846 3.5417 0.0000 0.0000 0.0000
# 3 12.3713 3.5417 6.6591 0.0000 0.0000 0.0000
# 4 0.0000 0.0000 0.0000 28.0114 0.0000 0.0000
# 5 0.0000 0.0000 0.0000 0.0000 18.6254 0.0000
# 6 0.0000 0.0000 0.0000 0.0000 0.0000 25.7946
#
#
#
# Elastic Compliance Matrix: (Units=1/GPa)
#
#
# Indices 1 2 3 4 5 6 
#
# 1 0.040366 -0.018385 -0.065214 0.000000 0.000000 0.000000
# 2 -0.018385 0.019001 0.024051 0.000000 0.000000 0.000000
# 3 -0.065214 0.024051 0.258533 0.000000 0.000000 0.000000
# 4 0.000000 0.000000 0.000000 0.035700 0.000000 0.000000
# 5 0.000000 0.000000 0.000000 0.000000 0.053690 0.000000
# 6 0.000000 0.000000 0.000000 0.000000 0.000000 0.038768
#
#
# Mechanical properties :
#
#
# Convention : Reuss Voigt Hill
#
# Bulk Modulus (GPa) = 5.03011 33.40298 19.21654
# Shear Modulus (GPa) = 7.91863 21.45755 14.68809
#
# Velocity S-wave (km/s) = 1.97079 3.24419 2.68410
# Velocity P-wave (km/s) = 2.76513 5.51515 4.36250
#
# Compressibility (1/GPa) = 0.19880286
#
# Stress axis : x y z
#
# Youngs Moduli (GPa) = 24.77334 52.62948 3.86798
#
# Poissons Ratio (x) = 0.96761 0.25225
# Poissons Ratio (y) = 0.45547 -0.09303
# Poissons Ratio (z) = 1.61556 -1.26577
#
# Static dielectric constant tensor:
#      x y z
#    x 1.739910 0.000000 0.000000 
#    y 0.000000 1.728420 0.000000 
#    z 0.000000 0.000000 1.695410 
# 
# From -- ./inp_files/9933.got.cif
#   From: 2010.05.17/outbox.cif.g08.bks.cpg/sg58_5_cif.got.tgz:9933.got - 2010.06.03 14:20:14.
