data_PCOD9443663
_publ_section_title
;
Structure prediction by ZEFSAII (Michael W. Deem and Ramdas Pophale) SiO2 
 PCOD9443663
Probable space group: P N N M
;
_chemical_formula_sum "Si O2"
_cell_formula_units_Z 64
_cell_length_a 11.937240
_cell_length_b 31.954046
_cell_length_c 7.692435
_cell_angle_alpha 90.000000
_cell_angle_beta 90.000000
_cell_angle_gamma 90.000000
_cell_volume 2934.226377
_symmetry_space_group_name_H-M "P N N M"
_symmetry_group_IT_number 58
_symmetry_cell_setting 'orthorhombic'
loop_
_space_group_symop_operation_xyz
x,y,z
-x,-y,z
1/2+x,1/2-y,1/2-z
1/2-x,1/2+y,1/2-z
-x,-y,-z
x,y,-z
1/2-x,1/2+y,1/2+z
1/2+x,1/2-y,1/2+z
loop_
_atom_site_type_symbol
_atom_site_label
_atom_site_fract_x
_atom_site_fract_y
_atom_site_fract_z
Si Si1 0.160569 0.622889 0.797880
Si Si2 0.227571 0.038406 0.290922
Si Si3 0.504360 0.333791 0.710130
Si Si4 0.761590 0.552088 0.201276
Si Si5 0.091139 0.370177 0.299207
Si Si6 0.761158 0.199530 0.213187
Si Si7 0.769178 0.793196 0.297744
Si Si8 0.509024 0.570887 0.292495
O O1 0.213595 0.580475 0.721739
O O2 0.205457 0.666538 0.719786
O O3 0.026963 0.621795 0.790251
O O4 0.196699 0.623352 0.000000
O O5 0.240311 0.037262 0.500000
O O6 0.095493 0.041644 0.252009
O O7 0.277893 0.994666 0.225356
O O8 0.510975 0.331647 0.500000
O O9 0.380366 0.319948 0.762866
O O10 0.600269 0.304455 0.785105
O O11 0.523511 0.381901 0.762302
O O12 0.828555 0.589443 0.290268
O O13 0.628357 0.559976 0.211703
O O14 0.796627 0.552928 0.000000
O O15 0.064755 0.361472 0.500000
O O16 0.161173 0.330778 0.227542
O O17 0.751953 0.247158 0.275963
O O18 0.757070 0.199116 0.000000
O O19 0.734583 0.790370 0.500000
O O20 0.525033 0.570721 0.500000
#
# Coordination Sequence:
#
# PCOD9443663 Si02
#       8
#     8   8   8   8   8   8   8   8
#     4  10  22  40  60  84 115 151 194 240 287 341
#     4  10  22  40  60  85 118 154 192 242 293 341
#     4  10  20  37  60  85 119 154 186 233 291 340
#     4  11  23  39  61  86 115 153 196 239 291 348
#     4  11  23  41  61  83 118 155 192 240 293 345
#     4   9  20  39  59  84 119 154 187 237 294 339
#     4  10  21  38  62  87 115 153 196 238 282 341
#     4  11  21  36  60  89 121 155 190 235 292 348
#
# _framework density 21.811541999999999
#
# number of rings (size 3 to 8) (size 9 to 14) (size 15 to 20)
#    0.000    1.750    2.500    1.500    1.750    4.500 
#    0.000    3.750    0.000    0.000    0.000    0.000 
#    0.000    0.000    0.000    0.000    0.000    0.000 
#
# Total GULP energy -357666.376621 kJ/mol
# GULP energy per Si atom -5588.537135 kJ/mol
# Density = 2.176190 g / cm^3
# Si number density = 21.811542 Si / 1000 Ang^3
#
#
#
# Elastic Constant Matrix: (Units=GPa)
#
#
# Indices 1 2 3 4 5 6 
#
# 1 82.9807 30.1818 -14.8932 0.0000 0.0000 0.0000
# 2 30.1818 140.5575 4.5138 0.0000 0.0000 0.0000
# 3 -14.8932 4.5138 40.0397 0.0000 0.0000 0.0000
# 4 0.0000 0.0000 0.0000 13.0348 0.0000 0.0000
# 5 0.0000 0.0000 0.0000 0.0000 170.2518 0.0000
# 6 0.0000 0.0000 0.0000 0.0000 0.0000 16.6467
#
#
#
# Elastic Compliance Matrix: (Units=1/GPa)
#
#
# Indices 1 2 3 4 5 6 
#
# 1 0.014246 -0.003241 0.005665 0.000000 0.000000 0.000000
# 2 -0.003241 0.007878 -0.002094 0.000000 0.000000 0.000000
# 3 0.005665 -0.002094 0.027318 0.000000 0.000000 0.000000
# 4 0.000000 0.000000 0.000000 0.076718 0.000000 0.000000
# 5 0.000000 0.000000 0.000000 0.000000 0.005874 0.000000
# 6 0.000000 0.000000 0.000000 0.000000 0.000000 0.060072
#
#
# Mechanical properties :
#
#
# Convention : Reuss Voigt Hill
#
# Bulk Modulus (GPa) = 19.95924 33.68696 26.82310
# Shear Modulus (GPa) = 24.02154 56.23837 40.12996
#
# Velocity S-wave (km/s) = 3.32222 5.08328 4.29400
# Velocity P-wave (km/s) = 4.88741 7.06619 6.07527
#
# Compressibility (1/GPa) = 0.05010210
#
# Stress axis : x y z
#
# Youngs Moduli (GPa) = 70.19277 126.94052 36.60561
#
# Poissons Ratio (x) = 0.41142 -0.20735
# Poissons Ratio (y) = 0.22750 0.07664
# Poissons Ratio (z) = -0.39761 0.26576
#
# Static dielectric constant tensor:
#      x y z
#    x 1.732200 0.000000 0.000000 
#    y 0.000000 1.818960 0.000000 
#    z 0.000000 0.000000 1.827640 
# 
# From -- ./inp_files/4781.got.cif
#   From: 2010.05.17/outbox.cif.g08.bks.cpg/sg58_3_cif.got.tgz:4781.got - 2010.06.03 14:20:14.
