data_PCOD9443646
_publ_section_title
;
Structure prediction by ZEFSAII (Michael W. Deem and Ramdas Pophale) SiO2 
 PCOD9443646
Probable space group: P N N M
;
_chemical_formula_sum "Si O2"
_cell_formula_units_Z 48
_cell_length_a 24.395218
_cell_length_b 11.521080
_cell_length_c 8.788474
_cell_angle_alpha 90.000000
_cell_angle_beta 90.000000
_cell_angle_gamma 90.000000
_cell_volume 2470.081983
_symmetry_space_group_name_H-M "P N N M"
_symmetry_group_IT_number 58
_symmetry_cell_setting 'orthorhombic'
loop_
_space_group_symop_operation_xyz
x,y,z
-x,-y,z
1/2+x,1/2-y,1/2-z
1/2-x,1/2+y,1/2-z
-x,-y,-z
x,y,-z
1/2-x,1/2+y,1/2+z
1/2+x,1/2-y,1/2+z
loop_
_atom_site_type_symbol
_atom_site_label
_atom_site_fract_x
_atom_site_fract_y
_atom_site_fract_z
Si Si1 0.194270 0.310680 0.816210
Si Si2 0.527504 0.286610 0.318611
Si Si3 0.919699 0.298242 0.681418
Si Si4 0.370930 0.593763 0.182560
Si Si5 0.909830 0.546281 0.180992
Si Si6 0.181501 0.849896 0.684940
O O1 0.168172 0.196746 0.741728
O O2 0.152602 0.416238 0.782616
O O3 0.256101 0.333345 0.763925
O O4 0.193278 0.295790 0.000000
O O5 0.526641 0.299058 0.500000
O O6 0.466866 0.282163 0.251955
O O7 0.568813 0.380166 0.248218
O O8 0.554091 0.159856 0.282614
O O9 0.923345 0.291315 0.500000
O O10 0.926906 0.430242 0.734565
O O11 0.860056 0.251821 0.730823
O O12 0.345287 0.471592 0.232357
O O13 0.373502 0.596299 0.000000
O O14 0.914703 0.526153 0.000000
O O15 0.183364 0.851011 0.500000
#
# Coordination Sequence:
#
# PCOD9443646 Si02
#       6
#     8   8   8   8   8   8
#     4   9  19  38  59  79 112 151 184 224 280 334
#     4  10  21  39  59  80 112 150 184 228 284 334
#     4  11  22  35  55  84 115 146 186 233 275 325
#     4  10  20  37  60  83 108 144 190 229 271 330
#     4   9  19  35  57  81 109 147 185 226 281 333
#     4   9  21  38  55  80 116 153 181 222 284 333
#
# _framework density 19.432554
#
# number of rings (size 3 to 8) (size 9 to 14) (size 15 to 20)
#    0.000    2.333    0.000    3.000    2.333    6.000 
#    0.000    9.167    0.000    0.000    0.000    0.000 
#    0.000    0.000    0.000    0.000    0.000    0.000 
#
# Total GULP energy -268033.219934 kJ/mol
# GULP energy per Si atom -5584.025415 kJ/mol
# Density = 1.938832 g / cm^3
# Si number density = 19.432554 Si / 1000 Ang^3
#
#
#
# Elastic Constant Matrix: (Units=GPa)
#
#
# Indices 1 2 3 4 5 6 
#
# 1 92.5189 -21.2475 12.2312 0.0000 0.0000 0.0000
# 2 -21.2475 16.8069 5.8114 0.0000 0.0000 0.0000
# 3 12.2312 5.8114 21.6673 0.0000 0.0000 0.0000
# 4 0.0000 0.0000 0.0000 17.7537 0.0000 0.0000
# 5 0.0000 0.0000 0.0000 0.0000 28.2442 0.0000
# 6 0.0000 0.0000 0.0000 0.0000 0.0000 14.7494
#
#
#
# Elastic Compliance Matrix: (Units=1/GPa)
#
#
# Indices 1 2 3 4 5 6 
#
# 1 0.021664 0.034849 -0.021577 0.000000 0.000000 0.000000
# 2 0.034849 0.121640 -0.052298 0.000000 0.000000 0.000000
# 3 -0.021577 -0.052298 0.072360 0.000000 0.000000 0.000000
# 4 0.000000 0.000000 0.000000 0.056326 0.000000 0.000000
# 5 0.000000 0.000000 0.000000 0.000000 0.035406 0.000000
# 6 0.000000 0.000000 0.000000 0.000000 0.000000 0.067799
#
#
# Mechanical properties :
#
#
# Convention : Reuss Voigt Hill
#
# Bulk Modulus (GPa) = 7.26675 13.84259 10.55467
# Shear Modulus (GPa) = 10.01771 21.09597 15.55684
#
# Velocity S-wave (km/s) = 2.27295 3.29842 2.83248
# Velocity P-wave (km/s) = 3.26129 4.65241 4.01752
#
# Compressibility (1/GPa) = 0.13761314
#
# Stress axis : x y z
#
# Youngs Moduli (GPa) = 46.15873 8.22101 13.81988
#
# Poissons Ratio (x) = -0.28649 0.29819
# Poissons Ratio (y) = -1.60859 0.72275
# Poissons Ratio (z) = 0.99595 0.42994
#
# Static dielectric constant tensor:
#      x y z
#    x 1.693640 0.000000 0.000000 
#    y 0.000000 1.655690 0.000000 
#    z 0.000000 0.000000 1.650980 
# 
# From -- ./inp_files/4211.got.cif
#   From: 2010.05.17/outbox.cif.g08.bks.cpg/sg58_3_cif.got.tgz:4211.got - 2010.06.03 14:20:14.
