data_PCOD9443957
_publ_section_title
;
Structure prediction by ZEFSAII (Michael W. Deem and Ramdas Pophale) SiO2 
 PCOD9443957
Probable space group: P N N M
;
_chemical_formula_sum "Si O2"
_cell_formula_units_Z 58
_cell_length_a 12.276150
_cell_length_b 29.610189
_cell_length_c 8.679489
_cell_angle_alpha 90.000000
_cell_angle_beta 90.000000
_cell_angle_gamma 90.000000
_cell_volume 3154.986628
_symmetry_space_group_name_H-M "P N N M"
_symmetry_group_IT_number 58
_symmetry_cell_setting 'orthorhombic'
loop_
_space_group_symop_operation_xyz
x,y,z
-x,-y,z
1/2+x,1/2-y,1/2-z
1/2-x,1/2+y,1/2-z
-x,-y,-z
x,y,-z
1/2-x,1/2+y,1/2+z
1/2+x,1/2-y,1/2+z
loop_
_atom_site_type_symbol
_atom_site_label
_atom_site_fract_x
_atom_site_fract_y
_atom_site_fract_z
Si Si1 0.085289 0.316389 0.313501
Si Si2 0.342962 0.159729 0.813244
Si Si3 0.005273 0.135107 0.683597
Si Si4 0.776947 0.516424 0.169756
Si Si5 0.302694 0.575915 0.314771
Si Si6 0.137619 0.218092 0.814824
Si Si7 0.500000 0.000000 0.500000
Si Si8 0.270446 0.387973 0.683981
O O1 0.083189 0.313774 0.500000
O O2 0.964695 0.330756 0.258776
O O3 0.116861 0.267751 0.248114
O O4 0.174130 0.353773 0.269255
O O5 0.291230 0.111830 0.765579
O O6 0.256081 0.198224 0.768323
O O7 0.345894 0.159267 0.000000
O O8 0.012686 0.135581 0.500000
O O9 0.883039 0.126361 0.737812
O O10 0.085332 0.096677 0.750988
O O11 0.050440 0.182448 0.749590
O O12 0.725062 0.472966 0.250085
O O13 0.760488 0.561588 0.266200
O O14 0.724650 0.523014 0.000000
O O15 0.903777 0.507286 0.131825
O O16 0.307146 0.575371 0.500000
O O17 0.132082 0.217764 0.000000
O O18 0.283016 0.385553 0.500000
#
# Coordination Sequence:
#
# PCOD9443957 Si02
#       8
#     8   8   8   8   8   8   2   8
#     4  10  22  38  59  86 119 157 202 253 309 371
#     4   8  18  36  58  84 115 150 195 246 301 365
#     4  11  23  41  64  90 124 165 205 257 319 380
#     4  10  22  40  61  91 125 168 203 250 310 367
#     4  10  20  39  66  93 120 160 210 261 312 369
#     4  10  21  39  60  87 119 158 203 252 307 370
#     4   8  24  40  62  86 136 168 198 260 290 376
#     4  11  24  41  61  92 128 163 209 262 316 374
#
# _framework density 18.383597000000002
#
# number of rings (size 3 to 8) (size 9 to 14) (size 15 to 20)
#    0.414    1.655    0.000    3.724    3.862    1.655 
#    0.000    6.897    0.000    0.000    0.000    0.000 
#    0.000    0.000    0.000    0.000    0.000    0.000 
#
# Total GULP energy -323206.285297 kJ/mol
# GULP energy per Si atom -5572.522160 kJ/mol
# Density = 1.834176 g / cm^3
# Si number density = 18.383597 Si / 1000 Ang^3
#
#
#
# Elastic Constant Matrix: (Units=GPa)
#
#
# Indices 1 2 3 4 5 6 
#
# 1 143.8267 74.7217 32.2535 0.0000 0.0000 0.0000
# 2 74.7217 115.4008 20.4006 0.0000 0.0000 0.0000
# 3 32.2535 20.4006 51.5731 0.0000 0.0000 0.0000
# 4 0.0000 0.0000 0.0000 32.7612 0.0000 0.0000
# 5 0.0000 0.0000 0.0000 0.0000 18.2017 0.0000
# 6 0.0000 0.0000 0.0000 0.0000 0.0000 8.3678
#
#
#
# Elastic Compliance Matrix: (Units=1/GPa)
#
#
# Indices 1 2 3 4 5 6 
#
# 1 0.011379 -0.006569 -0.004518 0.000000 0.000000 0.000000
# 2 -0.006569 0.013109 -0.001077 0.000000 0.000000 0.000000
# 3 -0.004518 -0.001077 0.022641 0.000000 0.000000 0.000000
# 4 0.000000 0.000000 0.000000 0.030524 0.000000 0.000000
# 5 0.000000 0.000000 0.000000 0.000000 0.054940 0.000000
# 6 0.000000 0.000000 0.000000 0.000000 0.000000 0.119506
#
#
# Mechanical properties :
#
#
# Convention : Reuss Voigt Hill
#
# Bulk Modulus (GPa) = 43.85712 62.83912 53.34812
# Shear Modulus (GPa) = 17.60392 24.09446 20.84919
#
# Velocity S-wave (km/s) = 3.09785 3.62422 3.37132
# Velocity P-wave (km/s) = 6.05838 7.19511 6.65108
#
# Compressibility (1/GPa) = 0.02280131
#
# Stress axis : x y z
#
# Youngs Moduli (GPa) = 87.88357 76.28149 44.16675
#
# Poissons Ratio (x) = 0.50110 0.19953
# Poissons Ratio (y) = 0.57731 0.04758
# Poissons Ratio (z) = 0.39703 0.08218
#
# Static dielectric constant tensor:
#      x y z
#    x 1.620570 0.000000 0.000000 
#    y 0.000000 1.602360 0.000000 
#    z 0.000000 0.000000 1.625790 
# 
# From -- ./inp_files/4608.got.cif
#   From: 2010.05.17/outbox.cif.g08.bks.cpg/sg58_3_cif.got.tgz:4608.got - 2010.06.03 14:20:14.
