data_PCOD9443313
_publ_section_title
;
Structure prediction by ZEFSAII (Michael W. Deem and Ramdas Pophale) SiO2 
 PCOD9443313
Probable space group: P N N M
;
_chemical_formula_sum "Si O2"
_cell_formula_units_Z 64
_cell_length_a 18.681769
_cell_length_b 12.962484
_cell_length_c 13.771815
_cell_angle_alpha 90.000000
_cell_angle_beta 90.000000
_cell_angle_gamma 90.000000
_cell_volume 3335.012079
_symmetry_space_group_name_H-M "P N N M"
_symmetry_group_IT_number 58
_symmetry_cell_setting 'orthorhombic'
loop_
_space_group_symop_operation_xyz
x,y,z
-x,-y,z
1/2+x,1/2-y,1/2-z
1/2-x,1/2+y,1/2-z
-x,-y,-z
x,y,-z
1/2-x,1/2+y,1/2+z
1/2+x,1/2-y,1/2+z
loop_
_atom_site_type_symbol
_atom_site_label
_atom_site_fract_x
_atom_site_fract_y
_atom_site_fract_z
Si Si1 0.791796 0.663938 0.385129
Si Si2 0.919556 0.831198 0.390065
Si Si3 0.421606 0.549742 0.393880
Si Si4 0.510111 0.261416 0.299156
Si Si5 0.846528 0.238557 0.766162
Si Si6 0.652960 0.520819 0.801457
Si Si7 0.428701 0.934252 0.608843
Si Si8 0.188136 0.529504 0.755876
O O1 0.783493 0.645186 0.500000
O O2 0.853088 0.751922 0.373255
O O3 0.718126 0.707019 0.338484
O O4 0.812709 0.558546 0.328003
O O5 0.944180 0.818502 0.500000
O O6 0.893685 0.948266 0.370711
O O7 0.977651 0.803549 0.309066
O O8 0.500000 0.500000 0.393694
O O9 0.388406 0.537659 0.500000
O O10 0.442506 0.666026 0.368446
O O11 0.376281 0.501541 0.307536
O O12 0.424995 0.259370 0.316926
O O13 0.546839 0.152885 0.316200
O O14 0.829680 0.352921 0.725798
O O15 0.848367 0.144256 0.688764
O O16 0.733167 0.478509 0.801745
O O17 0.408377 0.897612 0.500000
O O18 0.500000 0.000000 0.597905
O O19 0.366887 0.998722 0.659741
#
# Coordination Sequence:
#
# PCOD9443313 Si02
#       8
#     8   8   8   8   8   8   8   8
#     4  10  22  40  65  94 121 162 213 255 303 369
#     4  10  21  40  66  89 116 165 213 247 296 369
#     4  10  20  35  58  90 124 158 200 255 316 370
#     4  11  21  39  60  91 130 161 202 258 320 370
#     4  11  22  38  63  89 125 163 204 254 316 369
#     4  10  22  38  60  89 124 162 204 255 309 360
#     4  11  23  37  59  92 126 161 203 254 313 374
#     4  11  22  40  60  91 130 163 202 258 311 368
#
# _framework density 19.190335000000001
#
# number of rings (size 3 to 8) (size 9 to 14) (size 15 to 20)
#    0.000    1.500    5.000    0.375    0.000    4.000 
#    0.000    2.500    0.000    3.750    0.000    0.000 
#    0.000    0.000    0.000    0.000    0.000    0.000 
#
# Total GULP energy -356911.089245 kJ/mol
# GULP energy per Si atom -5576.735769 kJ/mol
# Density = 1.914666 g / cm^3
# Si number density = 19.190335 Si / 1000 Ang^3
#
#
#
# Elastic Constant Matrix: (Units=GPa)
#
#
# Indices 1 2 3 4 5 6 
#
# 1 82.4409 17.2870 25.5056 0.0000 0.0000 0.0000
# 2 17.2870 114.1560 12.2506 0.0000 0.0000 0.0000
# 3 25.5056 12.2506 81.4334 0.0000 0.0000 0.0000
# 4 0.0000 0.0000 0.0000 14.7359 0.0000 0.0000
# 5 0.0000 0.0000 0.0000 0.0000 136.0094 0.0000
# 6 0.0000 0.0000 0.0000 0.0000 0.0000 26.6853
#
#
#
# Elastic Compliance Matrix: (Units=1/GPa)
#
#
# Indices 1 2 3 4 5 6 
#
# 1 0.013728 -0.001644 -0.004053 0.000000 0.000000 0.000000
# 2 -0.001644 0.009101 -0.000854 0.000000 0.000000 0.000000
# 3 -0.004053 -0.000854 0.013678 0.000000 0.000000 0.000000
# 4 0.000000 0.000000 0.000000 0.067862 0.000000 0.000000
# 5 0.000000 0.000000 0.000000 0.000000 0.007352 0.000000
# 6 0.000000 0.000000 0.000000 0.000000 0.000000 0.037474
#
#
# Mechanical properties :
#
#
# Convention : Reuss Voigt Hill
#
# Bulk Modulus (GPa) = 42.72532 43.12408 42.92470
# Shear Modulus (GPa) = 29.39484 50.35191 39.87337
#
# Velocity S-wave (km/s) = 3.91801 5.12788 4.56322
# Velocity P-wave (km/s) = 6.54064 7.58820 7.08381
#
# Compressibility (1/GPa) = 0.02340532
#
# Stress axis : x y z
#
# Youngs Moduli (GPa) = 72.84164 109.88331 73.11148
#
# Poissons Ratio (x) = 0.18065 0.29629
# Poissons Ratio (y) = 0.11975 0.06245
# Poissons Ratio (z) = 0.29519 0.09386
#
# Static dielectric constant tensor:
#      x y z
#    x 1.601800 0.000000 0.000000 
#    y 0.000000 1.708870 0.000000 
#    z 0.000000 0.000000 1.653990 
# 
# From -- ./inp_files/22945.got.cif
#   From: 2010.05.17/outbox.cif.g08.bks.cpg/sg58_12_cif.got.tgz:22945.got - 2010.06.03 14:20:14.
