data_PCOD9443043
_publ_section_title
;
Structure prediction by ZEFSAII (Michael W. Deem and Ramdas Pophale) SiO2 
 PCOD9443043
Probable space group: P N N M
;
_chemical_formula_sum "Si O2"
_cell_formula_units_Z 64
_cell_length_a 13.112779
_cell_length_b 28.567238
_cell_length_c 7.762523
_cell_angle_alpha 90.000000
_cell_angle_beta 90.000000
_cell_angle_gamma 90.000000
_cell_volume 2907.809123
_symmetry_space_group_name_H-M "P N N M"
_symmetry_group_IT_number 58
_symmetry_cell_setting 'orthorhombic'
loop_
_space_group_symop_operation_xyz
x,y,z
-x,-y,z
1/2+x,1/2-y,1/2-z
1/2-x,1/2+y,1/2-z
-x,-y,-z
x,y,-z
1/2-x,1/2+y,1/2+z
1/2+x,1/2-y,1/2+z
loop_
_atom_site_type_symbol
_atom_site_label
_atom_site_fract_x
_atom_site_fract_y
_atom_site_fract_z
Si Si1 0.631309 0.412088 0.205822
Si Si2 0.849746 0.706917 0.206001
Si Si3 0.532816 0.121051 0.701748
Si Si4 0.087510 0.940911 0.803531
Si Si5 0.137863 0.835268 0.709387
Si Si6 0.078946 0.192069 0.706361
Si Si7 0.306422 0.955296 0.204499
Si Si8 0.852229 0.444310 0.790826
O O1 0.528694 0.442396 0.237219
O O2 0.614938 0.358833 0.271935
O O3 0.738777 0.430975 0.272209
O O4 0.640193 0.409284 0.000000
O O5 0.937643 0.671943 0.274490
O O6 0.741819 0.687647 0.270231
O O7 0.864056 0.761402 0.239209
O O8 0.848345 0.700755 0.000000
O O9 0.509198 0.127365 0.500000
O O10 0.633441 0.088461 0.716741
O O11 0.437989 0.091672 0.774725
O O12 0.116965 0.885979 0.788449
O O13 0.190837 0.962806 0.723695
O O14 0.082583 0.956587 0.000000
O O15 0.139709 0.841364 0.500000
O O16 0.040074 0.803997 0.752948
O O17 0.085579 0.189657 0.500000
O O18 0.369386 0.002295 0.237372
O O19 0.298525 0.947002 0.000000
O O20 0.853634 0.443393 0.000000
#
# Coordination Sequence:
#
# PCOD9443043 Si02
#       8
#     8   8   8   8   8   8   8   8
#     4   9  20  39  58  79 112 152 189 230 280 335
#     4  10  20  34  56  83 108 140 185 230 273 326
#     4  10  21  38  59  82 110 147 193 237 272 328
#     4  10  20  34  56  83 109 141 184 231 277 329
#     4   9  18  35  55  76 105 143 183 226 274 325
#     4   9  19  34  54  80 110 142 178 224 279 332
#     4  11  23  37  56  85 116 146 183 233 292 339
#     4  10  22  39  59  82 111 150 193 230 276 335
#
# _framework density 22.009696999999999
#
# number of rings (size 3 to 8) (size 9 to 14) (size 15 to 20)
#    0.000    2.250    1.250    1.875    0.000    8.500 
#    0.000    3.750    0.000    0.000    0.000    0.000 
#    0.000    0.000    0.000    0.000    0.000    0.000 
#
# Total GULP energy -357199.117957 kJ/mol
# GULP energy per Si atom -5581.236218 kJ/mol
# Density = 2.195960 g / cm^3
# Si number density = 22.009697 Si / 1000 Ang^3
#
#
#
# Elastic Constant Matrix: (Units=GPa)
#
#
# Indices 1 2 3 4 5 6 
#
# 1 88.5814 12.8608 -5.3054 0.0000 0.0000 0.0000
# 2 12.8608 62.7719 -10.1477 0.0000 0.0000 0.0000
# 3 -5.3054 -10.1477 25.3984 0.0000 0.0000 0.0000
# 4 0.0000 0.0000 0.0000 11.3810 0.0000 0.0000
# 5 0.0000 0.0000 0.0000 0.0000 8.0897 0.0000
# 6 0.0000 0.0000 0.0000 0.0000 0.0000 31.0084
#
#
#
# Elastic Compliance Matrix: (Units=1/GPa)
#
#
# Indices 1 2 3 4 5 6 
#
# 1 0.011695 -0.002139 0.001588 0.000000 0.000000 0.000000
# 2 -0.002139 0.017422 0.006514 0.000000 0.000000 0.000000
# 3 0.001588 0.006514 0.042307 0.000000 0.000000 0.000000
# 4 0.000000 0.000000 0.000000 0.087865 0.000000 0.000000
# 5 0.000000 0.000000 0.000000 0.000000 0.123615 0.000000
# 6 0.000000 0.000000 0.000000 0.000000 0.000000 0.032249
#
#
# Mechanical properties :
#
#
# Convention : Reuss Voigt Hill
#
# Bulk Modulus (GPa) = 11.99772 19.06303 15.53037
# Shear Modulus (GPa) = 15.10526 22.05209 18.57867
#
# Velocity S-wave (km/s) = 2.62258 3.16876 2.90851
# Velocity P-wave (km/s) = 3.82537 4.69766 4.28378
#
# Compressibility (1/GPa) = 0.08334915
#
# Stress axis : x y z
#
# Youngs Moduli (GPa) = 85.50829 57.39860 23.63684
#
# Poissons Ratio (x) = 0.12279 -0.03754
# Poissons Ratio (y) = 0.18293 -0.15397
# Poissons Ratio (z) = -0.13580 -0.37389
#
# Static dielectric constant tensor:
#      x y z
#    x 1.847720 0.000000 0.000000 
#    y 0.000000 1.792640 0.000000 
#    z 0.000000 0.000000 1.863710 
# 
# From -- ./inp_files/4776.got.cif
#   From: 2010.05.17/outbox.cif.g08.bks.cpg/sg58_3_cif.got.tgz:4776.got - 2010.06.03 14:20:14.
