data_PCOD9443435
_publ_section_title
;
Structure prediction by ZEFSAII (Michael W. Deem and Ramdas Pophale) SiO2 
 PCOD9443435
Probable space group: P N N M
;
_chemical_formula_sum "Si O2"
_cell_formula_units_Z 56
_cell_length_a 14.851387
_cell_length_b 9.632680
_cell_length_c 20.146658
_cell_angle_alpha 90.000000
_cell_angle_beta 90.000000
_cell_angle_gamma 90.000000
_cell_volume 2882.153867
_symmetry_space_group_name_H-M "P N N M"
_symmetry_group_IT_number 58
_symmetry_cell_setting 'orthorhombic'
loop_
_space_group_symop_operation_xyz
x,y,z
-x,-y,z
1/2+x,1/2-y,1/2-z
1/2-x,1/2+y,1/2-z
-x,-y,-z
x,y,-z
1/2-x,1/2+y,1/2+z
1/2+x,1/2-y,1/2+z
loop_
_atom_site_type_symbol
_atom_site_label
_atom_site_fract_x
_atom_site_fract_y
_atom_site_fract_z
Si Si1 0.689347 0.284866 0.832158
Si Si2 0.148418 0.614840 0.243855
Si Si3 0.607490 0.508847 0.925632
Si Si4 0.603751 0.174605 0.305291
Si Si5 0.055991 0.869763 0.208643
Si Si6 0.765703 0.010836 0.862358
Si Si7 0.739441 0.225519 0.425140
O O1 0.787926 0.342568 0.816522
O O2 0.638206 0.402734 0.870125
O O3 0.644978 0.246194 0.761284
O O4 0.705652 0.146564 0.874943
O O5 0.092125 0.483243 0.219328
O O6 0.098726 0.759586 0.260372
O O7 0.214133 0.562528 0.301130
O O8 0.500000 0.500000 0.924379
O O9 0.662074 0.653930 0.916173
O O10 0.634947 0.462186 0.000000
O O11 0.516843 0.266080 0.325663
O O12 0.674343 0.175042 0.365803
O O13 0.135776 0.937399 0.163622
O O14 0.000000 0.000000 0.236034
O O15 0.764355 0.892483 0.917428
O O16 0.709408 0.188668 0.500000
#
# Coordination Sequence:
#
# PCOD9443435 Si02
#       7
#     8   8   8   8   8   8   8
#     4  10  20  36  63  86 119 165 195 260 307 360
#     4  10  20  36  58  86 127 157 198 263 307 367
#     4  10  23  42  65  94 122 159 213 261 313 383
#     4  11  21  37  58  92 124 157 212 253 310 376
#     4  11  21  35  59  91 120 160 202 260 306 362
#     4  10  22  38  56  87 126 159 203 250 310 371
#     4  11  22  39  62  85 125 169 200 256 320 373
#
# _framework density 19.429912000000002
#
# number of rings (size 3 to 8) (size 9 to 14) (size 15 to 20)
#    0.000    1.571    4.286    0.429    0.000    4.571 
#    0.000    3.571    0.000    5.143    0.000    0.000 
#    0.000    0.000    0.000    0.000    0.000    0.000 
#
# Total GULP energy -311790.747524 kJ/mol
# GULP energy per Si atom -5567.691920 kJ/mol
# Density = 1.938569 g / cm^3
# Si number density = 19.429912 Si / 1000 Ang^3
#
#
#
# Elastic Constant Matrix: (Units=GPa)
#
#
# Indices 1 2 3 4 5 6 
#
# 1 103.3516 46.3822 35.3484 0.0000 0.0000 0.0000
# 2 46.3822 128.8059 35.6801 0.0000 0.0000 0.0000
# 3 35.3484 35.6801 77.8669 0.0000 0.0000 0.0000
# 4 0.0000 0.0000 0.0000 10.6398 0.0000 0.0000
# 5 0.0000 0.0000 0.0000 0.0000 3.4271 0.0000
# 6 0.0000 0.0000 0.0000 0.0000 0.0000 45.0124
#
#
#
# Elastic Compliance Matrix: (Units=1/GPa)
#
#
# Indices 1 2 3 4 5 6 
#
# 1 0.012626 -0.003389 -0.004179 0.000000 0.000000 0.000000
# 2 -0.003389 0.009802 -0.002953 0.000000 0.000000 0.000000
# 3 -0.004179 -0.002953 0.016093 0.000000 0.000000 0.000000
# 4 0.000000 0.000000 0.000000 0.093987 0.000000 0.000000
# 5 0.000000 0.000000 0.000000 0.000000 0.291794 0.000000
# 6 0.000000 0.000000 0.000000 0.000000 0.000000 0.022216
#
#
# Mechanical properties :
#
#
# Convention : Reuss Voigt Hill
#
# Bulk Modulus (GPa) = 57.21165 60.53840 58.87503
# Shear Modulus (GPa) = 10.56223 24.65677 17.60950
#
# Velocity S-wave (km/s) = 2.33407 3.56618 3.01376
# Velocity P-wave (km/s) = 6.06407 6.94131 6.51747
#
# Compressibility (1/GPa) = 0.01747896
#
# Stress axis : x y z
#
# Youngs Moduli (GPa) = 79.20281 102.02042 62.14062
#
# Poissons Ratio (x) = 0.34574 0.25967
# Poissons Ratio (y) = 0.26841 0.18350
# Poissons Ratio (z) = 0.33097 0.30127
#
# Static dielectric constant tensor:
#      x y z
#    x 1.762810 0.000000 0.000000 
#    y 0.000000 1.760950 0.000000 
#    z 0.000000 0.000000 1.679660 
# 
# From -- ./inp_files/29999.got.cif
#   From: 2010.05.17/outbox.cif.g08.bks.cpg/sg58_15_cif.got.tgz:29999.got - 2010.06.03 14:20:14.
