data_PCOD9443078
_publ_section_title
;
Structure prediction by ZEFSAII (Michael W. Deem and Ramdas Pophale) SiO2 
 PCOD9443078
Probable space group: P N N M
;
_chemical_formula_sum "Si O2"
_cell_formula_units_Z 36
_cell_length_a 7.567973
_cell_length_b 12.237650
_cell_length_c 20.485209
_cell_angle_alpha 90.000000
_cell_angle_beta 90.000000
_cell_angle_gamma 90.000000
_cell_volume 1897.221341
_symmetry_space_group_name_H-M "P N N M"
_symmetry_group_IT_number 58
_symmetry_cell_setting 'orthorhombic'
loop_
_space_group_symop_operation_xyz
x,y,z
-x,-y,z
1/2+x,1/2-y,1/2-z
1/2-x,1/2+y,1/2-z
-x,-y,-z
x,y,-z
1/2-x,1/2+y,1/2+z
1/2+x,1/2-y,1/2+z
loop_
_atom_site_type_symbol
_atom_site_label
_atom_site_fract_x
_atom_site_fract_y
_atom_site_fract_z
Si Si1 0.020948 0.868197 0.861495
Si Si2 0.359232 0.402813 0.775653
Si Si3 0.612173 0.806519 0.856602
Si Si4 0.500000 0.000000 0.241090
Si Si5 0.074007 0.625335 0.500000
Si Si6 0.501245 0.369540 0.500000
O O1 0.824974 0.820566 0.856466
O O2 0.131554 0.846385 0.796543
O O3 0.087134 0.831642 0.932741
O O4 0.000000 0.000000 0.864365
O O5 0.500000 0.500000 0.775232
O O6 0.416044 0.313246 0.827857
O O7 0.166532 0.456682 0.782157
O O8 0.551077 0.900391 0.806717
O O9 0.529661 0.826808 0.928298
O O10 0.287247 0.646587 0.500000
O O11 0.000000 0.500000 0.500000
O O12 0.500000 0.500000 0.500000
#
# Coordination Sequence:
#
# PCOD9443078 Si02
#       6
#     8   8   8   4   4   4
#     4   9  16  34  50  79 114 149 188 234 290 348
#     4  11  23  39  57  88 121 159 203 245 294 362
#     4  11  21  37  59  88 124 157 193 252 304 352
#     4  12  22  35  62  89 118 158 194 248 300 357
#     4  10  20  34  57  90 119 150 200 246 303 356
#     4   8  16  26  52  73 111 153 172 229 300 341
#
# _framework density 18.975118999999999
#
# number of rings (size 3 to 8) (size 9 to 14) (size 15 to 20)
#    0.000    1.778    5.556    1.333    0.000    0.000 
#    0.000    0.556    0.000    0.667    0.000    0.000 
#    0.000    0.000    0.000    0.000    0.000    0.000 
#
# Total GULP energy -200526.916404 kJ/mol
# GULP energy per Si atom -5570.192122 kJ/mol
# Density = 1.893193 g / cm^3
# Si number density = 18.975119 Si / 1000 Ang^3
#
#
#
# Elastic Constant Matrix: (Units=GPa)
#
#
# Indices 1 2 3 4 5 6 
#
# 1 63.8083 20.7541 18.6314 0.0000 0.0000 0.0000
# 2 20.7541 88.8904 60.3935 0.0000 0.0000 0.0000
# 3 18.6314 60.3935 118.0541 0.0000 0.0000 0.0000
# 4 0.0000 0.0000 0.0000 29.8955 0.0000 0.0000
# 5 0.0000 0.0000 0.0000 0.0000 10.7245 0.0000
# 6 0.0000 0.0000 0.0000 0.0000 0.0000 20.0650
#
#
#
# Elastic Compliance Matrix: (Units=1/GPa)
#
#
# Indices 1 2 3 4 5 6 
#
# 1 0.017037 -0.003297 -0.001002 0.000000 0.000000 0.000000
# 2 -0.003297 0.017881 -0.008627 0.000000 0.000000 0.000000
# 3 -0.001002 -0.008627 0.013042 0.000000 0.000000 0.000000
# 4 0.000000 0.000000 0.000000 0.033450 0.000000 0.000000
# 5 0.000000 0.000000 0.000000 0.000000 0.093245 0.000000
# 6 0.000000 0.000000 0.000000 0.000000 0.000000 0.049838
#
#
# Mechanical properties :
#
#
# Convention : Reuss Voigt Hill
#
# Bulk Modulus (GPa) = 45.23296 52.25676 48.74486
# Shear Modulus (GPa) = 19.40132 23.53525 21.46829
#
# Velocity S-wave (km/s) = 3.20106 3.52564 3.36727
# Velocity P-wave (km/s) = 6.12798 6.64627 6.39238
#
# Compressibility (1/GPa) = 0.02210777
#
# Stress axis : x y z
#
# Youngs Moduli (GPa) = 58.69616 55.92534 76.67364
#
# Poissons Ratio (x) = 0.18438 0.07684
# Poissons Ratio (y) = 0.19351 0.66147
# Poissons Ratio (z) = 0.05882 0.48248
#
# Static dielectric constant tensor:
#      x y z
#    x 1.734220 0.000000 0.000000 
#    y 0.000000 1.663140 0.000000 
#    z 0.000000 0.000000 1.746860 
# 
# From -- ./inp_files/28688.got.cif
#   From: 2010.05.17/outbox.cif.g08.bks.cpg/sg58_15_cif.got.tgz:28688.got - 2010.06.03 14:20:14.
