data_PCOD9443616
_publ_section_title
;
Structure prediction by ZEFSAII (Michael W. Deem and Ramdas Pophale) SiO2 
 PCOD9443616
Probable space group: P N N M
;
_chemical_formula_sum "Si O2"
_cell_formula_units_Z 58
_cell_length_a 24.719983
_cell_length_b 12.689405
_cell_length_c 7.782239
_cell_angle_alpha 90.000000
_cell_angle_beta 90.000000
_cell_angle_gamma 90.000000
_cell_volume 2441.147328
_symmetry_space_group_name_H-M "P N N M"
_symmetry_group_IT_number 58
_symmetry_cell_setting 'orthorhombic'
loop_
_space_group_symop_operation_xyz
x,y,z
-x,-y,z
1/2+x,1/2-y,1/2-z
1/2-x,1/2+y,1/2-z
-x,-y,-z
x,y,-z
1/2-x,1/2+y,1/2+z
1/2+x,1/2-y,1/2+z
loop_
_atom_site_type_symbol
_atom_site_label
_atom_site_fract_x
_atom_site_fract_y
_atom_site_fract_z
Si Si1 0.837901 0.162507 0.707237
Si Si2 0.802820 0.484627 0.697033
Si Si3 0.522870 0.166198 0.694841
Si Si4 0.718459 0.211646 0.701535
Si Si5 0.000000 0.000000 0.000000
Si Si6 0.921290 0.462384 0.298197
Si Si7 0.813303 0.932268 0.692657
Si Si8 0.043377 0.854971 0.697505
O O1 0.833281 0.158531 0.500000
O O2 0.782013 0.219417 0.760808
O O3 0.898685 0.201259 0.738132
O O4 0.836028 0.040478 0.771801
O O5 0.793726 0.448289 0.500000
O O6 0.805074 0.611324 0.700816
O O7 0.860219 0.442323 0.757380
O O8 0.751016 0.454490 0.805710
O O9 0.539046 0.190939 0.500000
O O10 0.565400 0.086621 0.778329
O O11 0.506090 0.272562 0.789523
O O12 0.467198 0.099029 0.697215
O O13 0.718406 0.185806 0.500000
O O14 0.684233 0.317821 0.723899
O O15 0.966258 0.061751 0.846709
O O16 0.926606 0.434748 0.500000
O O17 0.834656 0.923799 0.500000
O O18 0.046763 0.894557 0.500000
#
# Coordination Sequence:
#
# PCOD9443616 Si02
#       8
#     8   8   8   8   2   8   8   8
#     4   8  19  39  62  84 118 162 206 246 304 372
#     4  10  21  37  56  85 120 156 201 244 303 372
#     4  11  22  39  62  94 124 154 214 264 308 380
#     4  10  20  37  58  87 121 156 200 247 299 368
#     4  12  26  48  64 104 124 148 238 260 320 382
#     4  10  21  38  61  89 125 166 199 247 322 388
#     4  10  20  37  58  86 121 157 202 249 303 366
#     4  11  23  46  70  90 127 171 207 271 324 370
#
# _framework density 23.759318
#
# number of rings (size 3 to 8) (size 9 to 14) (size 15 to 20)
#    0.000    1.931    0.690    4.759    1.931    2.207 
#    9.931    0.000    0.000    0.000    0.000    0.000 
#    0.000    0.000    0.000    0.000    0.000    0.000 
#
# Total GULP energy -323334.784188 kJ/mol
# GULP energy per Si atom -5574.737658 kJ/mol
# Density = 2.370524 g / cm^3
# Si number density = 23.759318 Si / 1000 Ang^3
#
#
#
# Elastic Constant Matrix: (Units=GPa)
#
#
# Indices 1 2 3 4 5 6 
#
# 1 38.3298 -0.5532 8.8177 0.0000 0.0000 0.0000
# 2 -0.5532 54.5920 5.0995 0.0000 0.0000 0.0000
# 3 8.8177 5.0995 89.7371 0.0000 0.0000 0.0000
# 4 0.0000 0.0000 0.0000 73.2077 0.0000 0.0000
# 5 0.0000 0.0000 0.0000 0.0000 16.7169 0.0000
# 6 0.0000 0.0000 0.0000 0.0000 0.0000 21.2167
#
#
#
# Elastic Compliance Matrix: (Units=1/GPa)
#
#
# Indices 1 2 3 4 5 6 
#
# 1 0.026707 0.000519 -0.002654 0.000000 0.000000 0.000000
# 2 0.000519 0.018426 -0.001098 0.000000 0.000000 0.000000
# 3 -0.002654 -0.001098 0.011467 0.000000 0.000000 0.000000
# 4 0.000000 0.000000 0.000000 0.013660 0.000000 0.000000
# 5 0.000000 0.000000 0.000000 0.000000 0.059820 0.000000
# 6 0.000000 0.000000 0.000000 0.000000 0.000000 0.047133
#
#
# Mechanical properties :
#
#
# Convention : Reuss Voigt Hill
#
# Bulk Modulus (GPa) = 19.94689 23.26520 21.60604
# Shear Modulus (GPa) = 24.95141 33.51458 29.23299
#
# Velocity S-wave (km/s) = 3.24415 3.75985 3.51148
# Velocity P-wave (km/s) = 4.73776 5.35369 5.05511
#
# Compressibility (1/GPa) = 0.05013314
#
# Stress axis : x y z
#
# Youngs Moduli (GPa) = 37.44290 54.27258 87.20812
#
# Poissons Ratio (x) = -0.02814 0.23143
# Poissons Ratio (y) = -0.01941 0.09576
# Poissons Ratio (z) = 0.09936 0.05959
#
# Static dielectric constant tensor:
#      x y z
#    x 1.890520 0.000000 0.000000 
#    y 0.000000 1.976500 0.000000 
#    z 0.000000 0.000000 1.840320 
# 
# From -- ./inp_files/10462.got.cif
#   From: 2010.05.17/outbox.cif.g08.bks.cpg/sg58_6_cif.got.tgz:10462.got - 2010.06.03 14:20:14.
