data_PCOD9443871
_publ_section_title
;
Structure prediction by ZEFSAII (Michael W. Deem and Ramdas Pophale) SiO2 
 PCOD9443871
Probable space group: P N N M
;
_chemical_formula_sum "Si O2"
_cell_formula_units_Z 40
_cell_length_a 11.387862
_cell_length_b 11.234884
_cell_length_c 15.527707
_cell_angle_alpha 90.000000
_cell_angle_beta 90.000000
_cell_angle_gamma 90.000000
_cell_volume 1986.635153
_symmetry_space_group_name_H-M "P N N M"
_symmetry_group_IT_number 58
_symmetry_cell_setting 'orthorhombic'
loop_
_space_group_symop_operation_xyz
x,y,z
-x,-y,z
1/2+x,1/2-y,1/2-z
1/2-x,1/2+y,1/2-z
-x,-y,-z
x,y,-z
1/2-x,1/2+y,1/2+z
1/2+x,1/2-y,1/2+z
loop_
_atom_site_type_symbol
_atom_site_label
_atom_site_fract_x
_atom_site_fract_y
_atom_site_fract_z
Si Si1 0.175438 0.336221 0.399549
Si Si2 0.701648 0.976554 0.248692
Si Si3 0.917803 0.250313 0.175475
Si Si4 0.398607 0.898160 0.406365
Si Si5 0.552644 0.384281 0.812651
O O1 0.159677 0.362817 0.500000
O O2 0.170932 0.451586 0.337459
O O3 0.305652 0.283238 0.380957
O O4 0.087974 0.230809 0.368679
O O5 0.685339 0.068256 0.328272
O O6 0.613099 0.868478 0.269352
O O7 0.829897 0.919798 0.259794
O O8 0.029205 0.280600 0.116499
O O9 0.954708 0.152035 0.243407
O O10 0.341242 0.893933 0.500000
O O11 0.500000 0.000000 0.410123
O O12 0.500000 0.500000 0.860202
#
# Coordination Sequence:
#
# PCOD9443871 Si02
#       5
#     8   8   8   8   8
#     4  11  23  40  64  94 129 166 206 255 311 376
#     4  10  21  37  62  88 124 161 209 257 312 368
#     4  10  20  38  64  88 122 161 207 261 311 364
#     4   9  17  33  61  90 111 146 202 257 307 361
#     4  11  22  39  64  89 123 165 204 255 315 363
#
# _framework density 20.134549
#
# number of rings (size 3 to 8) (size 9 to 14) (size 15 to 20)
#    0.000    1.800    4.000    0.600    0.000    5.200 
#    0.000    5.000    0.000    0.000    0.000    0.000 
#    0.000    0.000    0.000    0.000    0.000    0.000 
#
# Total GULP energy -223136.746974 kJ/mol
# GULP energy per Si atom -5578.418674 kJ/mol
# Density = 2.008872 g / cm^3
# Si number density = 20.134549 Si / 1000 Ang^3
#
#
#
# Elastic Constant Matrix: (Units=GPa)
#
#
# Indices 1 2 3 4 5 6 
#
# 1 32.1161 4.1323 12.5769 0.0000 0.0000 0.0000
# 2 4.1323 43.2588 39.0437 0.0000 0.0000 0.0000
# 3 12.5769 39.0437 145.1003 0.0000 0.0000 0.0000
# 4 0.0000 0.0000 0.0000 10.9387 0.0000 0.0000
# 5 0.0000 0.0000 0.0000 0.0000 11.3872 0.0000
# 6 0.0000 0.0000 0.0000 0.0000 0.0000 32.4448
#
#
#
# Elastic Compliance Matrix: (Units=1/GPa)
#
#
# Indices 1 2 3 4 5 6 
#
# 1 0.032249 -0.000737 -0.002597 0.000000 0.000000 0.000000
# 2 -0.000737 0.030548 -0.008156 0.000000 0.000000 0.000000
# 3 -0.002597 -0.008156 0.009312 0.000000 0.000000 0.000000
# 4 0.000000 0.000000 0.000000 0.091419 0.000000 0.000000
# 5 0.000000 0.000000 0.000000 0.000000 0.087818 0.000000
# 6 0.000000 0.000000 0.000000 0.000000 0.000000 0.030822
#
#
# Mechanical properties :
#
#
# Convention : Reuss Voigt Hill
#
# Bulk Modulus (GPa) = 20.35449 36.88678 28.62063
# Shear Modulus (GPa) = 15.55098 21.93561 18.74330
#
# Velocity S-wave (km/s) = 2.78214 3.30426 3.05438
# Velocity P-wave (km/s) = 4.52234 5.73737 5.16571
#
# Compressibility (1/GPa) = 0.04912921
#
# Stress axis : x y z
#
# Youngs Moduli (GPa) = 31.00890 32.73491 107.39351
#
# Poissons Ratio (x) = 0.02411 0.27890
# Poissons Ratio (y) = 0.02284 0.87592
# Poissons Ratio (z) = 0.08053 0.26699
#
# Static dielectric constant tensor:
#      x y z
#    x 1.729120 0.000000 0.000000 
#    y 0.000000 1.781000 0.000000 
#    z 0.000000 0.000000 1.695950 
# 
# From -- ./inp_files/20889.got.cif
#   From: 2010.05.17/outbox.cif.g08.bks.cpg/sg58_11_cif.got.tgz:20889.got - 2010.06.03 14:20:14.
