data_PCOD9443680
_publ_section_title
;
Structure prediction by ZEFSAII (Michael W. Deem and Ramdas Pophale) SiO2 
 PCOD9443680
Probable space group: P N N M
;
_chemical_formula_sum "Si O2"
_cell_formula_units_Z 48
_cell_length_a 13.628835
_cell_length_b 8.245118
_cell_length_c 19.963203
_cell_angle_alpha 90.000000
_cell_angle_beta 90.000000
_cell_angle_gamma 90.000000
_cell_volume 2243.292127
_symmetry_space_group_name_H-M "P N N M"
_symmetry_group_IT_number 58
_symmetry_cell_setting 'orthorhombic'
loop_
_space_group_symop_operation_xyz
x,y,z
-x,-y,z
1/2+x,1/2-y,1/2-z
1/2-x,1/2+y,1/2-z
-x,-y,-z
x,y,-z
1/2-x,1/2+y,1/2+z
1/2+x,1/2-y,1/2+z
loop_
_atom_site_type_symbol
_atom_site_label
_atom_site_fract_x
_atom_site_fract_y
_atom_site_fract_z
Si Si1 0.245250 0.205059 0.923313
Si Si2 0.726034 0.977454 0.788793
Si Si3 0.621419 0.317820 0.211326
Si Si4 0.882324 0.979252 0.573357
Si Si5 0.482298 0.806350 0.425606
Si Si6 0.947768 0.321139 0.784591
O O1 0.271290 0.077496 0.865777
O O2 0.321658 0.354492 0.917380
O O3 0.133314 0.269493 0.913424
O O4 0.251869 0.144310 0.000000
O O5 0.833470 0.955111 0.758644
O O6 0.658027 0.856855 0.744980
O O7 0.678055 0.150127 0.777203
O O8 0.638643 0.365326 0.135273
O O9 0.510278 0.283803 0.232316
O O10 0.853598 0.914625 0.500000
O O11 0.000000 0.000000 0.573291
O O12 0.508102 0.739954 0.500000
O O13 0.542729 0.751710 0.359990
O O14 0.500000 0.000000 0.429582
O O15 0.000000 0.500000 0.787713
#
# Coordination Sequence:
#
# PCOD9443680 Si02
#       6
#     8   8   8   8   8   8
#     4  10  20  37  61  85 116 154 198 247 296 355
#     4  11  22  37  57  87 119 155 198 242 299 355
#     4  11  22  36  58  84 119 157 194 245 296 353
#     4  10  22  39  59  85 117 154 195 243 301 361
#     4   9  17  31  55  83 108 145 195 240 283 337
#     4   9  19  34  53  79 111 148 193 241 281 342
#
# _framework density 21.397124000000002
#
# number of rings (size 3 to 8) (size 9 to 14) (size 15 to 20)
#    0.000    2.000    1.667    2.000    4.667    0.667 
#    0.000    0.000    0.000    6.000    0.000    2.333 
#    0.000    0.000    0.000    0.000    0.000    0.000 
#
# Total GULP energy -268055.351563 kJ/mol
# GULP energy per Si atom -5584.486491 kJ/mol
# Density = 2.134842 g / cm^3
# Si number density = 21.397124 Si / 1000 Ang^3
#
#
#
# Elastic Constant Matrix: (Units=GPa)
#
#
# Indices 1 2 3 4 5 6 
#
# 1 58.4432 13.5474 12.3322 0.0000 0.0000 0.0000
# 2 13.5474 33.1269 21.4123 0.0000 0.0000 0.0000
# 3 12.3322 21.4123 128.6770 0.0000 0.0000 0.0000
# 4 0.0000 0.0000 0.0000 25.0050 0.0000 0.0000
# 5 0.0000 0.0000 0.0000 0.0000 40.5073 0.0000
# 6 0.0000 0.0000 0.0000 0.0000 0.0000 20.7604
#
#
#
# Elastic Compliance Matrix: (Units=1/GPa)
#
#
# Indices 1 2 3 4 5 6 
#
# 1 0.018942 -0.007365 -0.000590 0.000000 0.000000 0.000000
# 2 -0.007365 0.036689 -0.005399 0.000000 0.000000 0.000000
# 3 -0.000590 -0.005399 0.008726 0.000000 0.000000 0.000000
# 4 0.000000 0.000000 0.000000 0.039992 0.000000 0.000000
# 5 0.000000 0.000000 0.000000 0.000000 0.024687 0.000000
# 6 0.000000 0.000000 0.000000 0.000000 0.000000 0.048169
#
#
# Mechanical properties :
#
#
# Convention : Reuss Voigt Hill
#
# Bulk Modulus (GPa) = 26.56118 34.98118 30.77118
# Shear Modulus (GPa) = 23.09856 28.78490 25.94173
#
# Velocity S-wave (km/s) = 3.28916 3.67177 3.48572
# Velocity P-wave (km/s) = 5.18316 5.86173 5.53286
#
# Compressibility (1/GPa) = 0.03764893
#
# Stress axis : x y z
#
# Youngs Moduli (GPa) = 52.79163 27.25617 114.59511
#
# Poissons Ratio (x) = 0.20075 0.06759
# Poissons Ratio (y) = 0.38883 0.61873
# Poissons Ratio (z) = 0.03114 0.14716
#
# Static dielectric constant tensor:
#      x y z
#    x 1.767920 0.000000 0.000000 
#    y 0.000000 1.774610 0.000000 
#    z 0.000000 0.000000 1.791770 
# 
# From -- ./inp_files/25268.got.cif
#   From: 2010.05.17/outbox.cif.g08.bks.cpg/sg58_13_cif.got.tgz:25268.got - 2010.06.03 14:20:14.
