data_PCOD9444436
_publ_section_title
;
Structure prediction by ZEFSAII (Michael W. Deem and Ramdas Pophale) SiO2 
 PCOD9444436
Probable space group: P N N M
;
_chemical_formula_sum "Si O2"
_cell_formula_units_Z 64
_cell_length_a 8.614979
_cell_length_b 11.473011
_cell_length_c 29.341271
_cell_angle_alpha 90.000000
_cell_angle_beta 90.000000
_cell_angle_gamma 90.000000
_cell_volume 2900.083856
_symmetry_space_group_name_H-M "P N N M"
_symmetry_group_IT_number 58
_symmetry_cell_setting 'orthorhombic'
loop_
_space_group_symop_operation_xyz
x,y,z
-x,-y,z
1/2+x,1/2-y,1/2-z
1/2-x,1/2+y,1/2-z
-x,-y,-z
x,y,-z
1/2-x,1/2+y,1/2+z
1/2+x,1/2-y,1/2+z
loop_
_atom_site_type_symbol
_atom_site_label
_atom_site_fract_x
_atom_site_fract_y
_atom_site_fract_z
Si Si1 0.111439 0.612612 0.049589
Si Si2 0.128063 0.692697 0.704903
Si Si3 0.914628 0.112817 0.842157
Si Si4 0.335665 0.047619 0.887483
Si Si5 0.829348 0.483216 0.782475
Si Si6 0.683007 0.507412 0.877864
Si Si7 0.796133 0.709502 0.733402
Si Si8 0.145728 0.250862 0.906250
O O1 0.228555 0.588784 0.091069
O O2 0.000000 0.500000 0.048751
O O3 0.987869 0.714218 0.058478
O O4 0.188254 0.623704 0.000000
O O5 0.131503 0.615431 0.660794
O O6 0.191971 0.638939 0.754015
O O7 0.260805 0.788033 0.710966
O O8 0.963398 0.750649 0.714908
O O9 0.830505 0.192700 0.806119
O O10 0.044556 0.188985 0.866751
O O11 0.788047 0.054301 0.876151
O O12 0.000000 0.000000 0.820119
O O13 0.263145 0.147485 0.919265
O O14 0.500000 0.000000 0.903432
O O15 0.713332 0.483851 0.824465
O O16 0.836368 0.567075 0.738576
O O17 0.000000 0.500000 0.803872
O O18 0.500000 0.500000 0.886887
O O19 0.758122 0.633438 0.891657
#
# Coordination Sequence:
#
# PCOD9444436 Si02
#       8
#     8   8   8   8   8   8   8   8
#     4   9  20  43  72  99 129 162 197 252 333 414
#     4  11  23  34  52  78 112 164 216 266 313 358
#     4  10  22  37  59  79 116 163 216 261 313 373
#     4  11  20  41  58  86 124 165 222 272 316 358
#     4  10  21  38  51  74 121 159 205 256 305 364
#     4  11  24  39  61  98 131 161 204 265 321 383
#     4  11  23  35  53  76 109 162 218 269 307 360
#     4  10  23  39  64  91 122 167 211 250 312 401
#
# _framework density 22.068328999999999
#
# number of rings (size 3 to 8) (size 9 to 14) (size 15 to 20)
#    0.000    1.625    2.500    2.250    8.750    3.750 
#    0.000    0.000    0.000    3.750    0.000    0.000 
#    0.000    0.000    0.000    0.000    0.000    0.000 
#
# Total GULP energy -356573.525895 kJ/mol
# GULP energy per Si atom -5571.461342 kJ/mol
# Density = 2.201810 g / cm^3
# Si number density = 22.068329 Si / 1000 Ang^3
#
#
#
# Elastic Constant Matrix: (Units=GPa)
#
#
# Indices 1 2 3 4 5 6 
#
# 1 117.9657 7.4766 9.5849 0.0000 0.0000 0.0000
# 2 7.4766 36.4090 8.1574 0.0000 0.0000 0.0000
# 3 9.5849 8.1574 45.8878 0.0000 0.0000 0.0000
# 4 0.0000 0.0000 0.0000 0.9403 0.0000 0.0000
# 5 0.0000 0.0000 0.0000 0.0000 7.1281 0.0000
# 6 0.0000 0.0000 0.0000 0.0000 0.0000 39.7925
#
#
#
# Elastic Compliance Matrix: (Units=1/GPa)
#
#
# Indices 1 2 3 4 5 6 
#
# 1 0.008695 -0.001436 -0.001561 0.000000 0.000000 0.000000
# 2 -0.001436 0.028842 -0.004827 0.000000 0.000000 0.000000
# 3 -0.001561 -0.004827 0.022976 0.000000 0.000000 0.000000
# 4 0.000000 0.000000 0.000000 1.063445 0.000000 0.000000
# 5 0.000000 0.000000 0.000000 0.000000 0.140289 0.000000
# 6 0.000000 0.000000 0.000000 0.000000 0.000000 0.025130
#
#
# Mechanical properties :
#
#
# Convention : Reuss Voigt Hill
#
# Bulk Modulus (GPa) = 22.28888 27.85559 25.07224
# Shear Modulus (GPa) = 3.78793 21.24177 12.51485
#
# Velocity S-wave (km/s) = 1.31156 3.10586 2.38396
# Velocity P-wave (km/s) = 3.52356 5.05090 4.35471
#
# Compressibility (1/GPa) = 0.04486543
#
# Stress axis : x y z
#
# Youngs Moduli (GPa) = 115.01042 34.67152 43.52283
#
# Poissons Ratio (x) = 0.04978 0.06794
# Poissons Ratio (y) = 0.16513 0.21010
# Poissons Ratio (z) = 0.17952 0.16737
#
# Static dielectric constant tensor:
#      x y z
#    x 2.648910 0.000000 0.000000 
#    y 0.000000 2.106670 0.000000 
#    z 0.000000 0.000000 1.817630 
# 
# From -- ./inp_files/34762.got.cif
#   From: 2010.05.17/outbox.cif.g08.bks.cpg/sg58_18_cif.got.tgz:34762.got - 2010.06.03 14:20:14.
