data_PCOD9444736
_publ_section_title
;
Structure prediction by ZEFSAII (Michael W. Deem and Ramdas Pophale) SiO2 
 PCOD9444736
Probable space group: P N N M
;
_chemical_formula_sum "Si O2"
_cell_formula_units_Z 48
_cell_length_a 15.396147
_cell_length_b 10.119095
_cell_length_c 16.278779
_cell_angle_alpha 90.000000
_cell_angle_beta 90.000000
_cell_angle_gamma 90.000000
_cell_volume 2536.153581
_symmetry_space_group_name_H-M "P N N M"
_symmetry_group_IT_number 58
_symmetry_cell_setting 'orthorhombic'
loop_
_space_group_symop_operation_xyz
x,y,z
-x,-y,z
1/2+x,1/2-y,1/2-z
1/2-x,1/2+y,1/2-z
-x,-y,-z
x,y,-z
1/2-x,1/2+y,1/2+z
1/2+x,1/2-y,1/2+z
loop_
_atom_site_type_symbol
_atom_site_label
_atom_site_fract_x
_atom_site_fract_y
_atom_site_fract_z
Si Si1 0.437345 0.378891 0.664722
Si Si2 0.252340 0.080261 0.306864
Si Si3 0.930731 0.397008 0.902812
Si Si4 0.237481 0.379048 0.663265
Si Si5 0.874112 0.594573 0.500000
Si Si6 0.566362 0.791663 0.000000
Si Si7 0.916182 0.087418 0.644227
O O1 0.500000 0.500000 0.646997
O O2 0.465728 0.246556 0.620760
O O3 0.337936 0.401014 0.638348
O O4 0.434467 0.360223 0.763515
O O5 0.335631 0.083119 0.365508
O O6 0.230350 0.235128 0.292843
O O7 0.279984 0.998293 0.226161
O O8 0.169516 0.004218 0.345942
O O9 0.000000 0.500000 0.869063
O O10 0.924339 0.410592 0.000000
O O11 0.178836 0.374960 0.582698
O O12 0.892934 0.437541 0.500000
O O13 0.963031 0.678540 0.500000
O O14 0.592677 0.705157 0.079344
O O15 0.000000 0.000000 0.619864
#
# Coordination Sequence:
#
# PCOD9444736 Si02
#       7
#     8   8   8   8   4   4   8
#     4   9  21  41  64  88 120 160 212 259 309 372
#     4  10  23  40  68  91 127 168 216 260 321 385
#     4  10  23  40  58  88 121 158 203 256 315 364
#     4  10  23  42  65  94 126 168 214 261 322 381
#     4  11  26  42  61  96 138 169 210 275 331 373
#     4  11  25  40  62  96 135 171 210 261 328 398
#     4  10  21  40  64  95 124 164 216 257 315 395
#
# _framework density 18.926297999999999
#
# number of rings (size 3 to 8) (size 9 to 14) (size 15 to 20)
#    0.000    2.000    0.000    1.250   12.833    5.667 
#    0.000    0.000    0.000    0.000    0.000    0.000 
#    0.000    0.000    0.000    0.000    0.000    0.000 
#
# Total GULP energy -267939.218241 kJ/mol
# GULP energy per Si atom -5582.067047 kJ/mol
# Density = 1.888322 g / cm^3
# Si number density = 18.926298 Si / 1000 Ang^3
#
#
#
# Elastic Constant Matrix: (Units=GPa)
#
#
# Indices 1 2 3 4 5 6 
#
# 1 50.2230 30.1663 27.2132 0.0000 0.0000 0.0000
# 2 30.1663 62.4766 38.1317 0.0000 0.0000 0.0000
# 3 27.2132 38.1317 52.2609 0.0000 0.0000 0.0000
# 4 0.0000 0.0000 0.0000 32.6500 0.0000 0.0000
# 5 0.0000 0.0000 0.0000 0.0000 25.8404 0.0000
# 6 0.0000 0.0000 0.0000 0.0000 0.0000 29.8501
#
#
#
# Elastic Compliance Matrix: (Units=1/GPa)
#
#
# Indices 1 2 3 4 5 6 
#
# 1 0.030317 -0.009020 -0.009205 0.000000 0.000000 0.000000
# 2 -0.009020 0.031540 -0.018316 0.000000 0.000000 0.000000
# 3 -0.009205 -0.018316 0.037292 0.000000 0.000000 0.000000
# 4 0.000000 0.000000 0.000000 0.030628 0.000000 0.000000
# 5 0.000000 0.000000 0.000000 0.000000 0.038699 0.000000
# 6 0.000000 0.000000 0.000000 0.000000 0.000000 0.033501
#
#
# Mechanical properties :
#
#
# Convention : Reuss Voigt Hill
#
# Bulk Modulus (GPa) = 38.36313 39.55365 38.95839
# Shear Modulus (GPa) = 17.62123 22.29805 19.95964
#
# Velocity S-wave (km/s) = 3.05461 3.43615 3.25098
# Velocity P-wave (km/s) = 5.72317 6.05697 5.89243
#
# Compressibility (1/GPa) = 0.02606670
#
# Stress axis : x y z
#
# Youngs Moduli (GPa) = 32.98497 31.70550 26.81519
#
# Poissons Ratio (x) = 0.28598 0.24684
# Poissons Ratio (y) = 0.29753 0.49115
# Poissons Ratio (z) = 0.30363 0.58072
#
# Static dielectric constant tensor:
#      x y z
#    x 1.652300 0.000000 0.000000 
#    y 0.000000 1.598610 0.000000 
#    z 0.000000 0.000000 1.641790 
# 
# From -- ./inp_files/26830.got.cif
#   From: 2010.05.17/outbox.cif.g08.bks.cpg/sg58_14_cif.got.tgz:26830.got - 2010.06.03 14:20:14.
