data_PCOD9444857
_publ_section_title
;
Structure prediction by ZEFSAII (Michael W. Deem and Ramdas Pophale) SiO2 
 PCOD9444857
Probable space group: P N N M
;
_chemical_formula_sum "Si O2"
_cell_formula_units_Z 50
_cell_length_a 26.522933
_cell_length_b 9.769054
_cell_length_c 9.526799
_cell_angle_alpha 90.000000
_cell_angle_beta 90.000000
_cell_angle_gamma 90.000000
_cell_volume 2468.431392
_symmetry_space_group_name_H-M "P N N M"
_symmetry_group_IT_number 58
_symmetry_cell_setting 'orthorhombic'
loop_
_space_group_symop_operation_xyz
x,y,z
-x,-y,z
1/2+x,1/2-y,1/2-z
1/2-x,1/2+y,1/2-z
-x,-y,-z
x,y,-z
1/2-x,1/2+y,1/2+z
1/2+x,1/2-y,1/2+z
loop_
_atom_site_type_symbol
_atom_site_label
_atom_site_fract_x
_atom_site_fract_y
_atom_site_fract_z
Si Si1 0.375763 0.980998 0.666325
Si Si2 0.696301 0.436047 0.333112
Si Si3 0.094831 0.031598 0.666129
Si Si4 0.232690 0.366853 0.832417
Si Si5 0.500000 0.000000 0.000000
Si Si6 0.967043 0.708949 0.256141
Si Si7 0.074427 0.760347 0.160115
O O1 0.371472 0.995448 0.500000
O O2 0.418641 0.869106 0.694385
O O3 0.321118 0.930866 0.715099
O O4 0.394861 0.128877 0.717605
O O5 0.688074 0.455189 0.500000
O O6 0.644267 0.418155 0.249738
O O7 0.724837 0.562607 0.261149
O O8 0.728308 0.296443 0.315518
O O9 0.104171 0.018887 0.500000
O O10 0.051387 0.142943 0.692599
O O11 0.081328 0.887427 0.736918
O O12 0.240046 0.394437 0.000000
O O13 0.485989 0.886700 0.880134
O O14 0.015330 0.723646 0.157059
O O15 0.090816 0.792478 0.000000
#
# Coordination Sequence:
#
# PCOD9444857 Si02
#       7
#     8   8   8   8   2   8   8
#     4  10  21  42  69  96 126 171 223 278 326 389
#     4  11  25  46  70  99 131 172 220 274 331 403
#     4  12  27  43  66  96 135 177 220 273 338 392
#     4  10  23  44  70  98 133 171 219 276 337 392
#     4  12  24  40  64 100 136 176 228 276 332 408
#     4  12  23  42  68  95 133 176 223 277 330 399
#     4  11  25  41  65  99 135 178 225 273 331 399
#
# _framework density 20.255779
#
# number of rings (size 3 to 8) (size 9 to 14) (size 15 to 20)
#    0.000    0.960    4.000    1.920    3.360    5.760 
#    1.440    0.000    0.000    0.000    0.000    0.000 
#    0.000    0.000    0.000    0.000    0.000    0.000 
#
# Total GULP energy -278860.263952 kJ/mol
# GULP energy per Si atom -5577.205279 kJ/mol
# Density = 2.020968 g / cm^3
# Si number density = 20.255779 Si / 1000 Ang^3
#
#
#
# Elastic Constant Matrix: (Units=GPa)
#
#
# Indices 1 2 3 4 5 6 
#
# 1 20.8917 -3.1125 11.9340 0.0000 0.0000 0.0000
# 2 -3.1125 72.4282 -3.5425 0.0000 0.0000 0.0000
# 3 11.9340 -3.5425 42.0737 0.0000 0.0000 0.0000
# 4 0.0000 0.0000 0.0000 -115.2490 0.0000 0.0000
# 5 0.0000 0.0000 0.0000 0.0000 20.1834 0.0000
# 6 0.0000 0.0000 0.0000 0.0000 0.0000 29.9010
#
#
#
# Elastic Compliance Matrix: (Units=1/GPa)
#
#
# Indices 1 2 3 4 5 6 
#
# 1 0.057323 0.001675 -0.016118 0.000000 0.000000 0.000000
# 2 0.001675 0.013913 0.000696 0.000000 0.000000 0.000000
# 3 -0.016118 0.000696 0.028398 0.000000 0.000000 0.000000
# 4 0.000000 0.000000 0.000000 -0.008677 0.000000 0.000000
# 5 0.000000 0.000000 0.000000 0.000000 0.049546 0.000000
# 6 0.000000 0.000000 0.000000 0.000000 0.000000 0.033444
#
#
# Mechanical properties :
#
#
# Convention : Reuss Voigt Hill
#
# Bulk Modulus (GPa) = 13.86195 16.21684 15.03939
# Shear Modulus (GPa) = 22.17426 -4.35861 8.90782
#
# Velocity S-wave (km/s) = 3.31223 -1.46849 2.09934
# Velocity P-wave (km/s) = 4.63532 2.26895 3.64927
#
# Compressibility (1/GPa) = 0.07213991
#
# Stress axis : x y z
#
# Youngs Moduli (GPa) = 17.44513 71.87615 35.21338
#
# Poissons Ratio (x) = -0.12039 0.56758
# Poissons Ratio (y) = -0.02922 -0.02452
# Poissons Ratio (z) = 0.28118 -0.05005
#
# Static dielectric constant tensor:
#      x y z
#    x 1.746390 0.000000 0.000000 
#    y 0.000000 1.718210 0.000000 
#    z 0.000000 0.000000 1.712470 
# 
# From -- ./inp_files/10795.got.cif
#   From: 2010.05.17/outbox.cif.g08.bks.cpg/sg58_6_cif.got.tgz:10795.got - 2010.06.03 14:20:14.
