data_PCOD9444539
_publ_section_title
;
Structure prediction by ZEFSAII (Michael W. Deem and Ramdas Pophale) SiO2 
 PCOD9444539
Probable space group: P N N M
;
_chemical_formula_sum "Si O2"
_cell_formula_units_Z 56
_cell_length_a 4.984136
_cell_length_b 15.717212
_cell_length_c 29.097358
_cell_angle_alpha 90.000000
_cell_angle_beta 90.000000
_cell_angle_gamma 90.000000
_cell_volume 2279.391649
_symmetry_space_group_name_H-M "P N N M"
_symmetry_group_IT_number 58
_symmetry_cell_setting 'orthorhombic'
loop_
_space_group_symop_operation_xyz
x,y,z
-x,-y,z
1/2+x,1/2-y,1/2-z
1/2-x,1/2+y,1/2-z
-x,-y,-z
x,y,-z
1/2-x,1/2+y,1/2+z
1/2+x,1/2-y,1/2+z
loop_
_atom_site_type_symbol
_atom_site_label
_atom_site_fract_x
_atom_site_fract_y
_atom_site_fract_z
Si Si1 0.266024 0.059801 0.591280
Si Si2 0.631903 0.256771 0.051492
Si Si3 0.764427 0.444775 0.197343
Si Si4 0.957465 0.781609 0.728407
Si Si5 0.433317 0.600827 0.450599
Si Si6 0.910353 0.310451 0.641301
Si Si7 0.457578 0.406784 0.652490
O O1 0.243898 0.151666 0.567044
O O2 0.339361 0.078765 0.644744
O O3 0.500000 0.000000 0.571634
O O4 0.000000 0.000000 0.588944
O O5 0.415358 0.228738 0.089688
O O6 0.840733 0.175933 0.050306
O O7 0.528210 0.268023 0.000000
O O8 0.500000 0.500000 0.192655
O O9 0.697027 0.369333 0.230798
O O10 0.000000 0.500000 0.217617
O O11 0.750709 0.714192 0.749755
O O12 0.978688 0.764614 0.673982
O O13 0.500000 0.500000 0.455204
O O14 0.282971 0.615467 0.500000
O O15 0.364673 0.595194 0.396118
O O16 0.151022 0.381300 0.644827
O O17 0.640449 0.331529 0.670652
O O18 0.500000 0.500000 0.672193
#
# Coordination Sequence:
#
# PCOD9444539 Si02
#       7
#     8   8   8   8   8   8   8
#     4  10  22  40  65  96 136 181 227 282 343 407
#     4  10  21  39  65  99 138 184 235 289 350 409
#     4  10  21  42  69  96 132 176 222 271 333 410
#     4  12  25  44  69 100 130 169 221 277 338 402
#     4   8  16  33  58  90 128 174 228 277 325 398
#     4  11  23  42  63  93 131 169 220 276 332 407
#     4  10  21  38  62  88 126 171 211 263 337 399
#
# _framework density 24.567957
#
# number of rings (size 3 to 8) (size 9 to 14) (size 15 to 20)
#    0.000    1.857    1.429    2.143    0.000    3.429 
#    0.000   10.000    0.000    8.571    0.000    0.000 
#    0.000    0.000    0.000    0.000    0.000    0.000 
#
# Total GULP energy -311893.427825 kJ/mol
# GULP energy per Si atom -5569.525497 kJ/mol
# Density = 2.451204 g / cm^3
# Si number density = 24.567957 Si / 1000 Ang^3
#
#
#
# Elastic Constant Matrix: (Units=GPa)
#
#
# Indices 1 2 3 4 5 6 
#
# 1 92.5977 4.5512 -16.8866 0.0000 0.0000 0.0000
# 2 4.5512 93.7953 -14.3357 0.0000 0.0000 0.0000
# 3 -16.8866 -14.3357 61.3961 0.0000 0.0000 0.0000
# 4 0.0000 0.0000 0.0000 115.6294 0.0000 0.0000
# 5 0.0000 0.0000 0.0000 0.0000 22.2935 0.0000
# 6 0.0000 0.0000 0.0000 0.0000 0.0000 3.8360
#
#
#
# Elastic Compliance Matrix: (Units=1/GPa)
#
#
# Indices 1 2 3 4 5 6 
#
# 1 0.011370 -0.000076 0.003109 0.000000 0.000000 0.000000
# 2 -0.000076 0.011057 0.002561 0.000000 0.000000 0.000000
# 3 0.003109 0.002561 0.017741 0.000000 0.000000 0.000000
# 4 0.000000 0.000000 0.000000 0.008648 0.000000 0.000000
# 5 0.000000 0.000000 0.000000 0.000000 0.044856 0.000000
# 6 0.000000 0.000000 0.000000 0.000000 0.000000 0.260689
#
#
# Mechanical properties :
#
#
# Convention : Reuss Voigt Hill
#
# Bulk Modulus (GPa) = 19.47233 21.60519 20.53876
# Shear Modulus (GPa) = 13.87762 46.64911 30.26337
#
# Velocity S-wave (km/s) = 2.37927 4.36223 3.51354
# Velocity P-wave (km/s) = 3.93586 5.84681 4.98378
#
# Compressibility (1/GPa) = 0.05135491
#
# Stress axis : x y z
#
# Youngs Moduli (GPa) = 87.94910 90.44372 56.36717
#
# Poissons Ratio (x) = 0.00692 -0.17527
# Poissons Ratio (y) = 0.00672 -0.14434
# Poissons Ratio (z) = -0.27347 -0.23159
#
# Static dielectric constant tensor:
#      x y z
#    x 0.520490 0.000000 0.000000 
#    y 0.000000 1.900370 0.000000 
#    z 0.000000 0.000000 1.369470 
# 
# From -- ./inp_files/34194.got.cif
#   From: 2010.05.17/outbox.cif.g08.bks.cpg/sg58_18_cif.got.tgz:34194.got - 2010.06.03 14:20:14.
