data_PCOD9444525
_publ_section_title
;
Structure prediction by ZEFSAII (Michael W. Deem and Ramdas Pophale) SiO2 
 PCOD9444525
Probable space group: P N N M
;
_chemical_formula_sum "Si O2"
_cell_formula_units_Z 40
_cell_length_a 7.238263
_cell_length_b 11.910405
_cell_length_c 18.278553
_cell_angle_alpha 90.000000
_cell_angle_beta 90.000000
_cell_angle_gamma 90.000000
_cell_volume 1575.805822
_symmetry_space_group_name_H-M "P N N M"
_symmetry_group_IT_number 58
_symmetry_cell_setting 'orthorhombic'
loop_
_space_group_symop_operation_xyz
x,y,z
-x,-y,z
1/2+x,1/2-y,1/2-z
1/2-x,1/2+y,1/2-z
-x,-y,-z
x,y,-z
1/2-x,1/2+y,1/2+z
1/2+x,1/2-y,1/2+z
loop_
_atom_site_type_symbol
_atom_site_label
_atom_site_fract_x
_atom_site_fract_y
_atom_site_fract_z
Si Si1 0.467002 0.870085 0.585189
Si Si2 0.532105 0.626011 0.913595
Si Si3 0.230530 0.305250 0.334176
Si Si4 0.414474 0.688250 0.309932
Si Si5 0.223026 0.022653 0.082228
O O1 0.520222 0.855910 0.500000
O O2 0.249659 0.849049 0.593441
O O3 0.550622 0.770487 0.636450
O O4 0.500000 0.000000 0.605311
O O5 0.500000 0.500000 0.885764
O O6 0.392107 0.709155 0.877219
O O7 0.491688 0.624338 0.000000
O O8 0.405059 0.381128 0.292403
O O9 0.154769 0.264015 0.253802
O O10 0.181614 0.410747 0.388917
O O11 0.269844 0.621416 0.357764
O O12 0.281817 0.056119 0.000000
O O13 0.000000 0.000000 0.075464
#
# Coordination Sequence:
#
# PCOD9444525 Si02
#       5
#     8   8   8   8   8
#     4  10  21  38  61  90 124 161 204 258 322 394
#     4  10  21  38  61  89 121 159 206 259 319 392
#     4  11  23  39  63  92 128 170 219 278 340 408
#     4  11  23  39  61  91 127 168 217 276 341 410
#     4   9  20  40  65  91 123 171 229 286 348 420
#
# _framework density 25.383837
#
# number of rings (size 3 to 8) (size 9 to 14) (size 15 to 20)
#    0.000    1.800    0.000    3.600    0.000    9.600 
#    0.000    3.000    0.000    7.200    0.000    0.000 
#    0.000    0.000    0.000    0.000    0.000    0.000 
#
# Total GULP energy -222792.979290 kJ/mol
# GULP energy per Si atom -5569.824482 kJ/mol
# Density = 2.532606 g / cm^3
# Si number density = 25.383837 Si / 1000 Ang^3
#
#
#
# Elastic Constant Matrix: (Units=GPa)
#
#
# Indices 1 2 3 4 5 6 
#
# 1 125.6051 35.0437 30.4756 0.0000 0.0000 0.0000
# 2 35.0437 169.4741 68.7222 0.0000 0.0000 0.0000
# 3 30.4756 68.7222 139.8037 0.0000 0.0000 0.0000
# 4 0.0000 0.0000 0.0000 33.9985 0.0000 0.0000
# 5 0.0000 0.0000 0.0000 0.0000 27.7403 0.0000
# 6 0.0000 0.0000 0.0000 0.0000 0.0000 39.2737
#
#
#
# Elastic Compliance Matrix: (Units=1/GPa)
#
#
# Indices 1 2 3 4 5 6 
#
# 1 0.008621 -0.001275 -0.001253 0.000000 0.000000 0.000000
# 2 -0.001275 0.007558 -0.003437 0.000000 0.000000 0.000000
# 3 -0.001253 -0.003437 0.009116 0.000000 0.000000 0.000000
# 4 0.000000 0.000000 0.000000 0.029413 0.000000 0.000000
# 5 0.000000 0.000000 0.000000 0.000000 0.036049 0.000000
# 6 0.000000 0.000000 0.000000 0.000000 0.000000 0.025462
#
#
# Mechanical properties :
#
#
# Convention : Reuss Voigt Hill
#
# Bulk Modulus (GPa) = 74.82114 78.15176 76.48645
# Shear Modulus (GPa) = 37.70642 40.24526 38.97584
#
# Velocity S-wave (km/s) = 3.85834 3.98611 3.92274
# Velocity P-wave (km/s) = 7.02772 7.21390 7.12142
#
# Compressibility (1/GPa) = 0.01336521
#
# Stress axis : x y z
#
# Youngs Moduli (GPa) = 115.99531 132.30921 109.70140
#
# Poissons Ratio (x) = 0.16865 0.13742
# Poissons Ratio (y) = 0.14786 0.37709
# Poissons Ratio (z) = 0.14531 0.45480
#
# Static dielectric constant tensor:
#      x y z
#    x 2.136390 0.000000 0.000000 
#    y 0.000000 2.261430 0.000000 
#    z 0.000000 0.000000 1.989310 
# 
# From -- ./inp_files/24976.got.cif
#   From: 2010.05.17/outbox.cif.g08.bks.cpg/sg58_13_cif.got.tgz:24976.got - 2010.06.03 14:20:14.
