data_PCOD9444544
_publ_section_title
;
Structure prediction by ZEFSAII (Michael W. Deem and Ramdas Pophale) SiO2 
 PCOD9444544
Probable space group: P N N M
;
_chemical_formula_sum "Si O2"
_cell_formula_units_Z 64
_cell_length_a 25.326137
_cell_length_b 14.653217
_cell_length_c 8.305701
_cell_angle_alpha 90.000000
_cell_angle_beta 90.000000
_cell_angle_gamma 90.000000
_cell_volume 3082.323559
_symmetry_space_group_name_H-M "P N N M"
_symmetry_group_IT_number 58
_symmetry_cell_setting 'orthorhombic'
loop_
_space_group_symop_operation_xyz
x,y,z
-x,-y,z
1/2+x,1/2-y,1/2-z
1/2-x,1/2+y,1/2-z
-x,-y,-z
x,y,-z
1/2-x,1/2+y,1/2+z
1/2+x,1/2-y,1/2+z
loop_
_atom_site_type_symbol
_atom_site_label
_atom_site_fract_x
_atom_site_fract_y
_atom_site_fract_z
Si Si1 0.245950 0.467170 0.810027
Si Si2 0.379660 0.692602 0.810299
Si Si3 0.980504 0.901815 0.192891
Si Si4 0.138114 0.393285 0.308304
Si Si5 0.262451 0.663183 0.688660
Si Si6 0.562875 0.748032 0.693210
Si Si7 0.943316 0.456755 0.805481
Si Si8 0.176778 0.812083 0.305389
O O1 0.194346 0.406670 0.776507
O O2 0.241795 0.561079 0.715067
O O3 0.297216 0.408835 0.761932
O O4 0.249016 0.487075 0.000000
O O5 0.420228 0.623305 0.729604
O O6 0.388003 0.797608 0.754958
O O7 0.318540 0.671731 0.775657
O O8 0.389173 0.688037 0.000000
O O9 0.017367 0.819435 0.255822
O O10 0.986774 0.903956 0.000000
O O11 0.000000 0.000000 0.255576
O O12 0.146664 0.387906 0.500000
O O13 0.101638 0.478947 0.266935
O O14 0.271152 0.681274 0.500000
O O15 0.218403 0.734351 0.747711
O O16 0.557324 0.752884 0.500000
O O17 0.619697 0.706506 0.734289
O O18 0.559593 0.852277 0.752612
O O19 0.000000 0.500000 0.766620
O O20 0.937195 0.457758 0.000000
O O21 0.173399 0.808048 0.500000
#
# Coordination Sequence:
#
# PCOD9444544 Si02
#       8
#     8   8   8   8   8   8   8   8
#     4  11  23  40  61  89 122 161 207 254 310 370
#     4  11  24  41  63  92 125 163 207 258 313 370
#     4  10  23  43  65  91 122 163 213 261 311 370
#     4  11  23  39  61  92 126 162 205 254 310 371
#     4  11  23  41  64  92 125 165 208 255 312 373
#     4  10  22  39  61  90 123 161 205 256 312 368
#     4  10  21  38  62  90 121 161 205 252 310 372
#     4  10  23  41  61  88 124 163 201 246 308 368
#
# _framework density 20.763556000000001
#
# number of rings (size 3 to 8) (size 9 to 14) (size 15 to 20)
#    0.000    1.500    1.250    3.000    1.750    8.000 
#    0.000    0.000    0.000    0.000    0.000    0.000 
#    0.000    0.000    0.000    0.000    0.000    0.000 
#
# Total GULP energy -357841.861369 kJ/mol
# GULP energy per Si atom -5591.279084 kJ/mol
# Density = 2.071630 g / cm^3
# Si number density = 20.763556 Si / 1000 Ang^3
#
#
#
# Elastic Constant Matrix: (Units=GPa)
#
#
# Indices 1 2 3 4 5 6 
#
# 1 49.8957 -18.7263 -4.8412 0.0000 0.0000 0.0000
# 2 -18.7263 45.2530 9.4480 0.0000 0.0000 0.0000
# 3 -4.8412 9.4480 6.2163 0.0000 0.0000 0.0000
# 4 0.0000 0.0000 0.0000 23.4130 0.0000 0.0000
# 5 0.0000 0.0000 0.0000 0.0000 70.6291 0.0000
# 6 0.0000 0.0000 0.0000 0.0000 0.0000 36.6721
#
#
#
# Elastic Compliance Matrix: (Units=1/GPa)
#
#
# Indices 1 2 3 4 5 6 
#
# 1 0.023842 0.008774 0.005233 0.000000 0.000000 0.000000
# 2 0.008774 0.035598 -0.047272 0.000000 0.000000 0.000000
# 3 0.005233 -0.047272 0.236791 0.000000 0.000000 0.000000
# 4 0.000000 0.000000 0.000000 0.042711 0.000000 0.000000
# 5 0.000000 0.000000 0.000000 0.000000 0.014158 0.000000
# 6 0.000000 0.000000 0.000000 0.000000 0.000000 0.027269
#
#
# Mechanical properties :
#
#
# Convention : Reuss Voigt Hill
#
# Bulk Modulus (GPa) = 4.35347 8.12510 6.23928
# Shear Modulus (GPa) = 9.55171 33.84180 21.69676
#
# Velocity S-wave (km/s) = 2.14714 4.04154 3.23607
# Velocity P-wave (km/s) = 2.87197 5.06955 4.11999
#
# Compressibility (1/GPa) = 0.22970192
#
# Stress axis : x y z
#
# Youngs Moduli (GPa) = 41.94204 28.09132 4.22314
#
# Poissons Ratio (x) = -0.24646 -0.02210
# Poissons Ratio (y) = -0.36799 0.19964
# Poissons Ratio (z) = -0.21950 1.32793
#
# Static dielectric constant tensor:
#      x y z
#    x 1.700740 0.000000 0.000000 
#    y 0.000000 1.754430 0.000000 
#    z 0.000000 0.000000 1.722120 
# 
# From -- ./inp_files/10052.got.cif
#   From: 2010.05.17/outbox.cif.g08.bks.cpg/sg58_6_cif.got.tgz:10052.got - 2010.06.03 14:20:14.
