data_PCOD9444297
_publ_section_title
;
Structure prediction by ZEFSAII (Michael W. Deem and Ramdas Pophale) SiO2 
 PCOD9444297
Probable space group: P N N M
;
_chemical_formula_sum "Si O2"
_cell_formula_units_Z 40
_cell_length_a 13.855086
_cell_length_b 18.571581
_cell_length_c 8.577213
_cell_angle_alpha 90.000000
_cell_angle_beta 90.000000
_cell_angle_gamma 90.000000
_cell_volume 2207.009984
_symmetry_space_group_name_H-M "P N N M"
_symmetry_group_IT_number 58
_symmetry_cell_setting 'orthorhombic'
loop_
_space_group_symop_operation_xyz
x,y,z
-x,-y,z
1/2+x,1/2-y,1/2-z
1/2-x,1/2+y,1/2-z
-x,-y,-z
x,y,-z
1/2-x,1/2+y,1/2+z
1/2+x,1/2-y,1/2+z
loop_
_atom_site_type_symbol
_atom_site_label
_atom_site_fract_x
_atom_site_fract_y
_atom_site_fract_z
Si Si1 0.599923 0.466452 0.189425
Si Si2 0.590365 0.169498 0.313209
Si Si3 0.315976 0.685465 0.813033
Si Si4 0.116281 0.628088 0.314505
Si Si5 0.691700 0.020963 0.688594
O O1 0.500000 0.500000 0.247679
O O2 0.618888 0.383594 0.234527
O O3 0.696386 0.510009 0.235010
O O4 0.596577 0.468106 0.000000
O O5 0.594361 0.174131 0.500000
O O6 0.637668 0.240517 0.241886
O O7 0.480584 0.159599 0.259219
O O8 0.648374 0.097496 0.264732
O O9 0.210574 0.671512 0.741589
O O10 0.307612 0.684100 0.000000
O O11 0.109586 0.630198 0.500000
O O12 0.132738 0.545997 0.258043
O O13 0.686511 0.015248 0.500000
#
# Coordination Sequence:
#
# PCOD9444297 Si02
#       5
#     8   8   8   8   8
#     4   8  15  31  55  79 104 139 181 221 265 324
#     4  11  22  36  56  82 113 147 185 230 282 337
#     4  10  21  37  56  81 113 145 182 230 282 335
#     4  11  22  37  57  79 108 146 187 232 282 332
#     4   9  19  35  55  80 110 145 184 227 277 334
#
# _framework density 18.124068000000001
#
# number of rings (size 3 to 8) (size 9 to 14) (size 15 to 20)
#    0.000    2.200    0.000    4.800    0.000    5.600 
#    0.000    4.000    0.000   15.000    0.000    0.000 
#    0.000    0.000    0.000    0.000    0.000    0.000 
#
# Total GULP energy -223333.267476 kJ/mol
# GULP energy per Si atom -5583.331687 kJ/mol
# Density = 1.808282 g / cm^3
# Si number density = 18.124068 Si / 1000 Ang^3
#
#
#
# Elastic Constant Matrix: (Units=GPa)
#
#
# Indices 1 2 3 4 5 6 
#
# 1 82.7956 63.4218 -6.1053 0.0000 0.0000 0.0000
# 2 63.4218 102.8143 -3.3021 0.0000 0.0000 0.0000
# 3 -6.1053 -3.3021 16.4353 0.0000 0.0000 0.0000
# 4 0.0000 0.0000 0.0000 31.0404 0.0000 0.0000
# 5 0.0000 0.0000 0.0000 0.0000 20.1730 0.0000
# 6 0.0000 0.0000 0.0000 0.0000 0.0000 24.0197
#
#
#
# Elastic Compliance Matrix: (Units=1/GPa)
#
#
# Indices 1 2 3 4 5 6 
#
# 1 0.023441 -0.014272 0.005840 0.000000 0.000000 0.000000
# 2 -0.014272 0.018479 -0.001589 0.000000 0.000000 0.000000
# 3 0.005840 -0.001589 0.062695 0.000000 0.000000 0.000000
# 4 0.000000 0.000000 0.000000 0.032216 0.000000 0.000000
# 5 0.000000 0.000000 0.000000 0.000000 0.049571 0.000000
# 6 0.000000 0.000000 0.000000 0.000000 0.000000 0.041632
#
#
# Mechanical properties :
#
#
# Convention : Reuss Voigt Hill
#
# Bulk Modulus (GPa) = 11.82408 34.45265 23.13836
# Shear Modulus (GPa) = 18.09835 24.91536 21.50685
#
# Velocity S-wave (km/s) = 3.16346 3.71173 3.44851
# Velocity P-wave (km/s) = 4.45886 6.11718 5.35263
#
# Compressibility (1/GPa) = 0.08457320
#
# Stress axis : x y z
#
# Youngs Moduli (GPa) = 42.65981 54.11477 15.95027
#
# Poissons Ratio (x) = 0.77234 -0.09315
# Poissons Ratio (y) = 0.60886 0.02535
# Poissons Ratio (z) = -0.24915 0.08599
#
# Static dielectric constant tensor:
#      x y z
#    x 1.607930 0.000000 0.000000 
#    y 0.000000 1.598440 0.000000 
#    z 0.000000 0.000000 1.612730 
# 
# From -- ./inp_files/3778.got.cif
#   From: 2010.05.17/outbox.cif.g08.bks.cpg/sg58_2_cif.got.tgz:3778.got - 2010.06.03 14:20:14.
