data_PCOD9444622
_publ_section_title
;
Structure prediction by ZEFSAII (Michael W. Deem and Ramdas Pophale) SiO2 
 PCOD9444622
Probable space group: P N N M
;
_chemical_formula_sum "Si O2"
_cell_formula_units_Z 64
_cell_length_a 14.610221
_cell_length_b 25.507341
_cell_length_c 8.575848
_cell_angle_alpha 90.000000
_cell_angle_beta 90.000000
_cell_angle_gamma 90.000000
_cell_volume 3195.943172
_symmetry_space_group_name_H-M "P N N M"
_symmetry_group_IT_number 58
_symmetry_cell_setting 'orthorhombic'
loop_
_space_group_symop_operation_xyz
x,y,z
-x,-y,z
1/2+x,1/2-y,1/2-z
1/2-x,1/2+y,1/2-z
-x,-y,-z
x,y,-z
1/2-x,1/2+y,1/2+z
1/2+x,1/2-y,1/2+z
loop_
_atom_site_type_symbol
_atom_site_label
_atom_site_fract_x
_atom_site_fract_y
_atom_site_fract_z
Si Si1 0.754779 0.336924 0.316330
Si Si2 0.231230 0.272764 0.686150
Si Si3 0.948557 0.216788 0.187222
Si Si4 0.713871 0.551363 0.186168
Si Si5 0.149635 0.063814 0.314540
Si Si6 0.968923 0.101256 0.812974
Si Si7 0.869320 0.620762 0.313772
Si Si8 0.541563 0.831993 0.686585
O O1 0.770651 0.336054 0.500000
O O2 0.707858 0.282052 0.267320
O O3 0.695554 0.386864 0.269317
O O4 0.852609 0.339971 0.229842
O O5 0.219362 0.266682 0.500000
O O6 0.339196 0.282638 0.715091
O O7 0.177402 0.324253 0.738331
O O8 0.985505 0.161152 0.244088
O O9 0.983622 0.272943 0.245991
O O10 0.961488 0.216988 0.000000
O O11 0.697875 0.490715 0.228546
O O12 0.633084 0.584303 0.267525
O O13 0.810853 0.574344 0.238923
O O14 0.704116 0.556354 0.000000
O O15 0.156744 0.070517 0.500000
O O16 0.043692 0.063986 0.264647
O O17 0.978296 0.099763 0.000000
O O18 0.862061 0.617420 0.500000
O O19 0.974000 0.626072 0.261870
O O20 0.532141 0.833165 0.500000
#
# Coordination Sequence:
#
# PCOD9444622 Si02
#       8
#     8   8   8   8   8   8   8   8
#     4  11  23  40  62  90 120 155 205 256 303 355
#     4   9  18  36  58  84 121 160 192 238 301 358
#     4   8  16  33  55  83 119 157 192 233 286 351
#     4  11  24  42  62  87 122 163 206 249 302 364
#     4  11  25  43  61  85 120 163 207 251 304 365
#     4  11  21  37  61  92 124 158 202 250 301 355
#     4  11  22  38  62  92 123 157 204 253 300 355
#     4  10  21  39  61  87 126 164 197 243 305 367
#
# _framework density 20.025389000000001
#
# number of rings (size 3 to 8) (size 9 to 14) (size 15 to 20)
#    0.000    1.750    1.250    4.125    1.750    4.500 
#    0.000    1.875    0.000    3.750    0.000    0.000 
#    0.000    0.000    0.000    0.000    0.000    0.000 
#
# Total GULP energy -357649.162349 kJ/mol
# GULP energy per Si atom -5588.268162 kJ/mol
# Density = 1.997981 g / cm^3
# Si number density = 20.025389 Si / 1000 Ang^3
#
#
#
# Elastic Constant Matrix: (Units=GPa)
#
#
# Indices 1 2 3 4 5 6 
#
# 1 23.3175 -0.1273 -5.1627 0.0000 0.0000 0.0000
# 2 -0.1273 66.1400 12.2259 0.0000 0.0000 0.0000
# 3 -5.1627 12.2259 25.6550 0.0000 0.0000 0.0000
# 4 0.0000 0.0000 0.0000 19.5750 0.0000 0.0000
# 5 0.0000 0.0000 0.0000 0.0000 29.3505 0.0000
# 6 0.0000 0.0000 0.0000 0.0000 0.0000 31.2291
#
#
#
# Elastic Compliance Matrix: (Units=1/GPa)
#
#
# Indices 1 2 3 4 5 6 
#
# 1 0.045069 -0.001743 0.009900 0.000000 0.000000 0.000000
# 2 -0.001743 0.016647 -0.008284 0.000000 0.000000 0.000000
# 3 0.009900 -0.008284 0.044919 0.000000 0.000000 0.000000
# 4 0.000000 0.000000 0.000000 0.051085 0.000000 0.000000
# 5 0.000000 0.000000 0.000000 0.000000 0.034071 0.000000
# 6 0.000000 0.000000 0.000000 0.000000 0.000000 0.032021
#
#
# Mechanical properties :
#
#
# Convention : Reuss Voigt Hill
#
# Bulk Modulus (GPa) = 9.40021 14.33158 11.86590
# Shear Modulus (GPa) = 19.26576 23.24268 21.25422
#
# Velocity S-wave (km/s) = 3.10509 3.41054 3.26139
# Velocity P-wave (km/s) = 4.19043 4.76249 4.48559
#
# Compressibility (1/GPa) = 0.10638060
#
# Stress axis : x y z
#
# Youngs Moduli (GPa) = 22.18830 60.06938 22.26234
#
# Poissons Ratio (x) = 0.10472 -0.22040
# Poissons Ratio (y) = 0.03868 0.18442
# Poissons Ratio (z) = -0.21967 0.49762
#
# Static dielectric constant tensor:
#      x y z
#    x 1.701490 0.000000 0.000000 
#    y 0.000000 1.715800 0.000000 
#    z 0.000000 0.000000 1.666210 
# 
# From -- ./inp_files/6827.got.cif
#   From: 2010.05.17/outbox.cif.g08.bks.cpg/sg58_4_cif.got.tgz:6827.got - 2010.06.03 14:20:14.
