data_PCOD9444300
_publ_section_title
;
Structure prediction by ZEFSAII (Michael W. Deem and Ramdas Pophale) SiO2 
 PCOD9444300
Probable space group: P N N M
;
_chemical_formula_sum "Si O2"
_cell_formula_units_Z 56
_cell_length_a 8.501764
_cell_length_b 21.704455
_cell_length_c 13.511747
_cell_angle_alpha 90.000000
_cell_angle_beta 90.000000
_cell_angle_gamma 90.000000
_cell_volume 2493.270710
_symmetry_space_group_name_H-M "P N N M"
_symmetry_group_IT_number 58
_symmetry_cell_setting 'orthorhombic'
loop_
_space_group_symop_operation_xyz
x,y,z
-x,-y,z
1/2+x,1/2-y,1/2-z
1/2-x,1/2+y,1/2-z
-x,-y,-z
x,y,-z
1/2-x,1/2+y,1/2+z
1/2+x,1/2-y,1/2+z
loop_
_atom_site_type_symbol
_atom_site_label
_atom_site_fract_x
_atom_site_fract_y
_atom_site_fract_z
Si Si1 0.485050 0.121425 0.699074
Si Si2 0.223072 0.035566 0.756607
Si Si3 0.402006 0.746204 0.303345
Si Si4 0.640533 0.069542 0.885819
Si Si5 0.435335 0.291352 0.882532
Si Si6 0.807092 0.073293 0.613277
Si Si7 0.496534 0.383339 0.387701
O O1 0.324558 0.084032 0.692621
O O2 0.493884 0.193169 0.675272
O O3 0.533348 0.110688 0.814165
O O4 0.624990 0.090934 0.635653
O O5 0.094655 0.071888 0.817963
O O6 0.330551 0.997141 0.835137
O O7 0.161341 0.983174 0.684168
O O8 0.423443 0.731951 0.186570
O O9 0.225610 0.760605 0.340130
O O10 0.467891 0.686489 0.358124
O O11 0.812776 0.101163 0.881339
O O12 0.591225 0.066307 0.000000
O O13 0.406738 0.364695 0.867551
O O14 0.451362 0.279662 0.000000
O O15 0.827690 0.056250 0.500000
O O16 0.547763 0.394670 0.500000
#
# Coordination Sequence:
#
# PCOD9444300 Si02
#       7
#     8   8   8   8   8   8   8
#     4  10  22  35  57  87 113 148 194 243 292 350
#     4  11  21  35  58  89 115 145 195 251 299 348
#     4  11  21  40  62  86 123 163 205 253 308 369
#     4  10  21  37  56  81 116 154 189 233 297 362
#     4  10  22  40  63  90 123 165 210 258 311 369
#     4   9  19  38  60  83 117 158 196 241 302 361
#     4  11  23  38  59  86 118 157 198 244 302 367
#
# _framework density 22.460459
#
# number of rings (size 3 to 8) (size 9 to 14) (size 15 to 20)
#    0.000    1.714    0.000    6.429    0.000    5.143 
#    0.000    2.143    0.000   12.000    0.000    0.000 
#    0.000    0.000    0.000    0.000    0.000    0.000 
#
# Total GULP energy -313436.952758 kJ/mol
# GULP energy per Si atom -5597.088442 kJ/mol
# Density = 2.240934 g / cm^3
# Si number density = 22.460459 Si / 1000 Ang^3
#
#
#
# Elastic Constant Matrix: (Units=GPa)
#
#
# Indices 1 2 3 4 5 6 
#
# 1 48.6896 35.7360 26.5361 0.0000 0.0000 0.0000
# 2 35.7360 136.4992 48.8066 0.0000 0.0000 0.0000
# 3 26.5361 48.8066 99.0247 0.0000 0.0000 0.0000
# 4 0.0000 0.0000 0.0000 18.0796 0.0000 0.0000
# 5 0.0000 0.0000 0.0000 0.0000 26.4266 0.0000
# 6 0.0000 0.0000 0.0000 0.0000 0.0000 17.7834
#
#
#
# Elastic Compliance Matrix: (Units=1/GPa)
#
#
# Indices 1 2 3 4 5 6 
#
# 1 0.027017 -0.005444 -0.004557 0.000000 0.000000 0.000000
# 2 -0.005444 0.009990 -0.003465 0.000000 0.000000 0.000000
# 3 -0.004557 -0.003465 0.013027 0.000000 0.000000 0.000000
# 4 0.000000 0.000000 0.000000 0.055311 0.000000 0.000000
# 5 0.000000 0.000000 0.000000 0.000000 0.037841 0.000000
# 6 0.000000 0.000000 0.000000 0.000000 0.000000 0.056232
#
#
# Mechanical properties :
#
#
# Convention : Reuss Voigt Hill
#
# Bulk Modulus (GPa) = 43.28363 56.26345 49.77354
# Shear Modulus (GPa) = 21.36281 24.00025 22.68153
#
# Velocity S-wave (km/s) = 3.08739 3.27242 3.18125
# Velocity P-wave (km/s) = 5.65881 6.27557 5.97515
#
# Compressibility (1/GPa) = 0.02310342
#
# Stress axis : x y z
#
# Youngs Moduli (GPa) = 37.01326 100.09741 76.76097
#
# Poissons Ratio (x) = 0.54492 0.34978
# Poissons Ratio (y) = 0.20150 0.26598
# Poissons Ratio (z) = 0.16866 0.34685
#
# Static dielectric constant tensor:
#      x y z
#    x 1.849080 0.000000 0.000000 
#    y 0.000000 1.819470 0.000000 
#    z 0.000000 0.000000 1.812370 
# 
# From -- ./inp_files/20152.got.cif
#   From: 2010.05.17/outbox.cif.g08.bks.cpg/sg58_11_cif.got.tgz:20152.got - 2010.06.03 14:20:14.
