data_PCOD9444788
_publ_section_title
;
Structure prediction by ZEFSAII (Michael W. Deem and Ramdas Pophale) SiO2 
 PCOD9444788
Probable space group: P N N M
;
_chemical_formula_sum "Si O2"
_cell_formula_units_Z 48
_cell_length_a 24.233545
_cell_length_b 11.398234
_cell_length_c 8.488534
_cell_angle_alpha 90.000000
_cell_angle_beta 90.000000
_cell_angle_gamma 90.000000
_cell_volume 2344.699607
_symmetry_space_group_name_H-M "P N N M"
_symmetry_group_IT_number 58
_symmetry_cell_setting 'orthorhombic'
loop_
_space_group_symop_operation_xyz
x,y,z
-x,-y,z
1/2+x,1/2-y,1/2-z
1/2-x,1/2+y,1/2-z
-x,-y,-z
x,y,-z
1/2-x,1/2+y,1/2+z
1/2+x,1/2-y,1/2+z
loop_
_atom_site_type_symbol
_atom_site_label
_atom_site_fract_x
_atom_site_fract_y
_atom_site_fract_z
Si Si1 0.630743 0.575787 0.187790
Si Si2 0.912927 0.437881 0.691029
Si Si3 0.421288 0.797114 0.187126
Si Si4 0.804745 0.312277 0.690629
Si Si5 0.179468 0.164222 0.187680
Si Si6 0.471202 0.295376 0.314758
O O1 0.668157 0.687968 0.235935
O O2 0.653185 0.461410 0.272832
O O3 0.568098 0.610891 0.229784
O O4 0.635162 0.560008 0.000000
O O5 0.917980 0.429201 0.500000
O O6 0.930203 0.568133 0.738446
O O7 0.849228 0.411424 0.735207
O O8 0.947772 0.332441 0.764234
O O9 0.359818 0.759033 0.231034
O O10 0.465164 0.709730 0.265164
O O11 0.429132 0.792164 0.000000
O O12 0.802905 0.313157 0.500000
O O13 0.742573 0.329640 0.746653
O O14 0.178983 0.183134 0.000000
O O15 0.465975 0.312061 0.500000
#
# Coordination Sequence:
#
# PCOD9444788 Si02
#       6
#     8   8   8   8   8   8
#     4  10  21  41  63  84 115 157 199 236 289 356
#     4   9  19  38  62  87 118 158 198 237 288 349
#     4  11  23  38  59  87 120 159 200 238 288 354
#     4   8  18  37  60  84 116 153 190 238 290 344
#     4  11  23  38  58  88 122 154 195 247 295 338
#     4  11  22  38  61  89 119 152 194 247 299 344
#
# _framework density 20.471706999999999
#
# number of rings (size 3 to 8) (size 9 to 14) (size 15 to 20)
#    0.000    2.000    0.000    4.500    2.333    4.000 
#    0.000   10.833    0.000    0.000    0.000    0.000 
#    0.000    0.000    0.000    0.000    0.000    0.000 
#
# Total GULP energy -268207.134943 kJ/mol
# GULP energy per Si atom -5587.648645 kJ/mol
# Density = 2.042511 g / cm^3
# Si number density = 20.471707 Si / 1000 Ang^3
#
#
#
# Elastic Constant Matrix: (Units=GPa)
#
#
# Indices 1 2 3 4 5 6 
#
# 1 90.8272 -15.0597 -0.3246 0.0000 0.0000 0.0000
# 2 -15.0597 26.5217 -3.6199 0.0000 0.0000 0.0000
# 3 -0.3246 -3.6199 10.0394 0.0000 0.0000 0.0000
# 4 0.0000 0.0000 0.0000 2.7499 0.0000 0.0000
# 5 0.0000 0.0000 0.0000 0.0000 4.6620 0.0000
# 6 0.0000 0.0000 0.0000 0.0000 0.0000 18.0388
#
#
#
# Elastic Compliance Matrix: (Units=1/GPa)
#
#
# Indices 1 2 3 4 5 6 
#
# 1 0.012243 0.007368 0.003053 0.000000 0.000000 0.000000
# 2 0.007368 0.044091 0.016136 0.000000 0.000000 0.000000
# 3 0.003053 0.016136 0.105524 0.000000 0.000000 0.000000
# 4 0.000000 0.000000 0.000000 0.363645 0.000000 0.000000
# 5 0.000000 0.000000 0.000000 0.000000 0.214499 0.000000
# 6 0.000000 0.000000 0.000000 0.000000 0.000000 0.055436
#
#
# Mechanical properties :
#
#
# Convention : Reuss Voigt Hill
#
# Bulk Modulus (GPa) = 4.65177 9.93110 7.29144
# Shear Modulus (GPa) = 6.14265 14.84967 10.49616
#
# Velocity S-wave (km/s) = 1.73409 2.69620 2.26678
# Velocity P-wave (km/s) = 2.50732 3.81501 3.22808
#
# Compressibility (1/GPa) = 0.21497179
#
# Stress axis : x y z
#
# Youngs Moduli (GPa) = 81.68245 22.68027 9.47651
#
# Poissons Ratio (x) = -0.16711 -0.02893
# Poissons Ratio (y) = -0.60186 -0.15291
# Poissons Ratio (z) = -0.24934 -0.36597
#
# Static dielectric constant tensor:
#      x y z
#    x 1.745300 0.000000 0.000000 
#    y 0.000000 1.713270 0.000000 
#    z 0.000000 0.000000 1.691440 
# 
# From -- ./inp_files/4195.got.cif
#   From: 2010.05.17/outbox.cif.g08.bks.cpg/sg58_3_cif.got.tgz:4195.got - 2010.06.03 14:20:14.
