data_PCOD9444800
_publ_section_title
;
Structure prediction by ZEFSAII (Michael W. Deem and Ramdas Pophale) SiO2 
 PCOD9444800
Probable space group: P N N M
;
_chemical_formula_sum "Si O2"
_cell_formula_units_Z 56
_cell_length_a 24.487391
_cell_length_b 13.531466
_cell_length_c 8.030262
_cell_angle_alpha 90.000000
_cell_angle_beta 90.000000
_cell_angle_gamma 90.000000
_cell_volume 2660.829713
_symmetry_space_group_name_H-M "P N N M"
_symmetry_group_IT_number 58
_symmetry_cell_setting 'orthorhombic'
loop_
_space_group_symop_operation_xyz
x,y,z
-x,-y,z
1/2+x,1/2-y,1/2-z
1/2-x,1/2+y,1/2-z
-x,-y,-z
x,y,-z
1/2-x,1/2+y,1/2+z
1/2+x,1/2-y,1/2+z
loop_
_atom_site_type_symbol
_atom_site_label
_atom_site_fract_x
_atom_site_fract_y
_atom_site_fract_z
Si Si1 0.869188 0.383363 0.298908
Si Si2 0.555994 0.055270 0.203074
Si Si3 0.072747 0.814278 0.192273
Si Si4 0.543537 0.279797 0.806046
Si Si5 0.672458 0.567506 0.807135
Si Si6 0.234413 0.737248 0.296298
Si Si7 0.344325 0.645576 0.692733
O O1 0.867846 0.385739 0.500000
O O2 0.893171 0.487815 0.240025
O O3 0.911158 0.296659 0.248073
O O4 0.809870 0.345284 0.241665
O O5 0.554807 0.168513 0.259045
O O6 0.500000 0.000000 0.250999
O O7 0.557541 0.056742 0.000000
O O8 0.111436 0.887787 0.293736
O O9 0.008534 0.826988 0.217431
O O10 0.087297 0.826864 0.000000
O O11 0.599025 0.340068 0.786331
O O12 0.528553 0.271800 0.000000
O O13 0.711436 0.656055 0.746094
O O14 0.675628 0.466800 0.707315
O O15 0.684970 0.547128 0.000000
O O16 0.234472 0.735550 0.500000
O O17 0.295202 0.713097 0.239932
O O18 0.354090 0.670342 0.500000
#
# Coordination Sequence:
#
# PCOD9444800 Si02
#       7
#     8   8   8   8   8   8   8
#     4   9  16  33  58  83 113 156 199 234 278 341
#     4   9  16  29  54  85 113 145 189 237 275 326
#     4  11  21  35  56  86 117 149 189 241 296 344
#     4  11  22  37  57  83 116 157 198 238 287 352
#     4  10  21  41  65  86 110 152 198 235 279 346
#     4   8  18  36  60  83 111 150 190 231 280 336
#     4  11  23  40  58  86 122 151 186 243 298 335
#
# _framework density 21.046068000000002
#
# number of rings (size 3 to 8) (size 9 to 14) (size 15 to 20)
#    0.000    2.143    1.429    3.429    0.000    1.714 
#    0.000   13.571    0.000    0.000    0.000    0.000 
#    0.000    0.000    0.000    0.000    0.000    0.000 
#
# Total GULP energy -312737.202087 kJ/mol
# GULP energy per Si atom -5584.592894 kJ/mol
# Density = 2.099817 g / cm^3
# Si number density = 21.046068 Si / 1000 Ang^3
#
#
#
# Elastic Constant Matrix: (Units=GPa)
#
#
# Indices 1 2 3 4 5 6 
#
# 1 80.6941 6.2806 -9.0132 0.0000 0.0000 0.0000
# 2 6.2806 52.4718 -6.1019 0.0000 0.0000 0.0000
# 3 -9.0132 -6.1019 28.6763 0.0000 0.0000 0.0000
# 4 0.0000 0.0000 0.0000 10.2333 0.0000 0.0000
# 5 0.0000 0.0000 0.0000 0.0000 8.3334 0.0000
# 6 0.0000 0.0000 0.0000 0.0000 0.0000 14.7431
#
#
#
# Elastic Compliance Matrix: (Units=1/GPa)
#
#
# Indices 1 2 3 4 5 6 
#
# 1 0.012905 -0.001100 0.003822 0.000000 0.000000 0.000000
# 2 -0.001100 0.019635 0.003832 0.000000 0.000000 0.000000
# 3 0.003822 0.003832 0.036889 0.000000 0.000000 0.000000
# 4 0.000000 0.000000 0.000000 0.097720 0.000000 0.000000
# 5 0.000000 0.000000 0.000000 0.000000 0.120000 0.000000
# 6 0.000000 0.000000 0.000000 0.000000 0.000000 0.067829
#
#
# Mechanical properties :
#
#
# Convention : Reuss Voigt Hill
#
# Bulk Modulus (GPa) = 12.11574 16.01924 14.06749
# Shear Modulus (GPa) = 13.53614 18.04039 15.78827
#
# Velocity S-wave (km/s) = 2.53883 2.93095 2.74191
# Velocity P-wave (km/s) = 3.78991 4.36829 4.08934
#
# Compressibility (1/GPa) = 0.08253727
#
# Stress axis : x y z
#
# Youngs Moduli (GPa) = 77.48922 50.92895 27.10852
#
# Poissons Ratio (x) = 0.05603 -0.10361
# Poissons Ratio (y) = 0.08525 -0.10389
# Poissons Ratio (z) = -0.29617 -0.19518
#
# Static dielectric constant tensor:
#      x y z
#    x 1.751330 0.000000 0.000000 
#    y 0.000000 1.744610 0.000000 
#    z 0.000000 0.000000 1.733760 
# 
# From -- ./inp_files/9012.got.cif
#   From: 2010.05.17/outbox.cif.g08.bks.cpg/sg58_5_cif.got.tgz:9012.got - 2010.06.03 14:20:14.
