data_PCOD9444419
_publ_section_title
;
Structure prediction by ZEFSAII (Michael W. Deem and Ramdas Pophale) SiO2 
 PCOD9444419
Probable space group: P N N M
;
_chemical_formula_sum "Si O2"
_cell_formula_units_Z 56
_cell_length_a 14.061932
_cell_length_b 12.785534
_cell_length_c 14.274377
_cell_angle_alpha 90.000000
_cell_angle_beta 90.000000
_cell_angle_gamma 90.000000
_cell_volume 2566.380387
_symmetry_space_group_name_H-M "P N N M"
_symmetry_group_IT_number 58
_symmetry_cell_setting 'orthorhombic'
loop_
_space_group_symop_operation_xyz
x,y,z
-x,-y,z
1/2+x,1/2-y,1/2-z
1/2-x,1/2+y,1/2-z
-x,-y,-z
x,y,-z
1/2-x,1/2+y,1/2+z
1/2+x,1/2-y,1/2+z
loop_
_atom_site_type_symbol
_atom_site_label
_atom_site_fract_x
_atom_site_fract_y
_atom_site_fract_z
Si Si1 0.018716 0.752134 0.226123
Si Si2 0.270457 0.269896 0.715085
Si Si3 0.423819 0.916503 0.389772
Si Si4 0.243290 0.979373 0.110620
Si Si5 0.876716 0.920140 0.266964
Si Si6 0.292339 0.410439 0.890877
Si Si7 0.435162 0.103156 0.894781
O O1 0.122457 0.749057 0.178501
O O2 0.028835 0.684998 0.320020
O O3 0.942806 0.692150 0.161649
O O4 0.977511 0.865189 0.251162
O O5 0.230173 0.367453 0.655663
O O6 0.199322 0.173245 0.713372
O O7 0.290459 0.311685 0.820973
O O8 0.558972 0.097648 0.500000
O O9 0.315775 0.953760 0.379003
O O10 0.500000 0.000000 0.352452
O O11 0.156517 0.022247 0.172105
O O12 0.329580 0.060412 0.124607
O O13 0.225162 0.970214 0.000000
O O14 0.863554 0.003231 0.350265
O O15 0.307013 0.385917 0.000000
O O16 0.500000 0.000000 0.891969
O O17 0.438689 0.146483 0.000000
#
# Coordination Sequence:
#
# PCOD9444419 Si02
#       7
#     8   8   8   8   8   8   8
#     4  12  23  37  64  92 126 158 210 258 300 370
#     4  11  23  40  63  94 124 167 206 256 315 360
#     4  10  21  37  62  92 120 159 209 262 311 358
#     4  10  23  42  62  88 128 168 206 253 310 373
#     4  11  23  40  63  94 124 167 206 256 315 360
#     4  10  23  42  62  88 128 168 206 253 310 373
#     4  10  21  37  62  92 120 159 209 262 311 358
#
# _framework density 21.820615
#
# number of rings (size 3 to 8) (size 9 to 14) (size 15 to 20)
#    0.000    1.429    2.857    2.143    4.000    5.714 
#    0.000    1.429    0.000    0.000    0.000    0.000 
#    0.000    0.000    0.000    0.000    0.000    0.000 
#
# Total GULP energy -313255.849988 kJ/mol
# GULP energy per Si atom -5593.854464 kJ/mol
# Density = 2.177095 g / cm^3
# Si number density = 21.820615 Si / 1000 Ang^3
#
#
#
# Elastic Constant Matrix: (Units=GPa)
#
#
# Indices 1 2 3 4 5 6 
#
# 1 64.2631 5.9073 5.0071 0.0000 0.0000 0.0000
# 2 5.9073 64.9253 20.5292 0.0000 0.0000 0.0000
# 3 5.0071 20.5292 96.7211 0.0000 0.0000 0.0000
# 4 0.0000 0.0000 0.0000 -3.9898 0.0000 0.0000
# 5 0.0000 0.0000 0.0000 0.0000 20.5490 0.0000
# 6 0.0000 0.0000 0.0000 0.0000 0.0000 42.6549
#
#
#
# Elastic Compliance Matrix: (Units=1/GPa)
#
#
# Indices 1 2 3 4 5 6 
#
# 1 0.015719 -0.001257 -0.000547 0.000000 0.000000 0.000000
# 2 -0.001257 0.016611 -0.003461 0.000000 0.000000 0.000000
# 3 -0.000547 -0.003461 0.011102 0.000000 0.000000 0.000000
# 4 0.000000 0.000000 0.000000 -0.250639 0.000000 0.000000
# 5 0.000000 0.000000 0.000000 0.000000 0.048664 0.000000
# 6 0.000000 0.000000 0.000000 0.000000 0.000000 0.023444
#
#
# Mechanical properties :
#
#
# Convention : Reuss Voigt Hill
#
# Bulk Modulus (GPa) = 30.39296 32.08855 31.24076
# Shear Modulus (GPa) = -44.01353 24.80722 -9.60316
#
# Velocity S-wave (km/s) = -4.49604 3.37541 -2.10012
# Velocity P-wave (km/s) = 3.60469 5.47071 2.90989
#
# Compressibility (1/GPa) = 0.03290235
#
# Stress axis : x y z
#
# Youngs Moduli (GPa) = 63.61644 60.20124 90.07522
#
# Poissons Ratio (x) = 0.07569 0.04926
# Poissons Ratio (y) = 0.07999 0.31172
# Poissons Ratio (z) = 0.03479 0.20833
#
# Static dielectric constant tensor:
#      x y z
#    x 1.849950 0.000000 0.000000 
#    y 0.000000 1.810640 0.000000 
#    z 0.000000 0.000000 1.759500 
# 
# From -- ./inp_files/22205.got.cif
#   From: 2010.05.17/outbox.cif.g08.bks.cpg/sg58_12_cif.got.tgz:22205.got - 2010.06.03 14:20:14.
