data_PCOD9444166
_publ_section_title
;
Structure prediction by ZEFSAII (Michael W. Deem and Ramdas Pophale) SiO2 
 PCOD9444166
Probable space group: P N N M
;
_chemical_formula_sum "Si O2"
_cell_formula_units_Z 58
_cell_length_a 18.544939
_cell_length_b 9.348557
_cell_length_c 17.626732
_cell_angle_alpha 90.000000
_cell_angle_beta 90.000000
_cell_angle_gamma 90.000000
_cell_volume 3055.918664
_symmetry_space_group_name_H-M "P N N M"
_symmetry_group_IT_number 58
_symmetry_cell_setting 'orthorhombic'
loop_
_space_group_symop_operation_xyz
x,y,z
-x,-y,z
1/2+x,1/2-y,1/2-z
1/2-x,1/2+y,1/2-z
-x,-y,-z
x,y,-z
1/2-x,1/2+y,1/2+z
1/2+x,1/2-y,1/2+z
loop_
_atom_site_type_symbol
_atom_site_label
_atom_site_fract_x
_atom_site_fract_y
_atom_site_fract_z
Si Si1 0.457257 0.137382 0.287211
Si Si2 0.170450 0.188593 0.590254
Si Si3 0.500000 0.000000 0.000000
Si Si4 0.187978 0.665308 0.290383
Si Si5 0.935561 0.115416 0.090161
Si Si6 0.138479 0.877797 0.589814
Si Si7 0.217029 0.904489 0.166776
Si Si8 0.504458 0.247468 0.874477
O O1 0.379739 0.093103 0.252182
O O2 0.450767 0.249566 0.355340
O O3 0.495800 0.204901 0.213389
O O4 0.500000 0.000000 0.313679
O O5 0.178784 0.189589 0.500000
O O6 0.223868 0.309018 0.621847
O O7 0.087590 0.222308 0.608862
O O8 0.178355 0.023215 0.616587
O O9 0.515313 0.879267 0.067030
O O10 0.167402 0.735378 0.370454
O O11 0.201652 0.802247 0.237905
O O12 0.250082 0.552300 0.304144
O O13 0.855732 0.068259 0.118530
O O14 0.933159 0.148126 0.000000
O O15 0.000000 0.000000 0.101649
O O16 0.146218 0.871443 0.500000
O O17 0.053473 0.873084 0.610126
#
# Coordination Sequence:
#
# PCOD9444166 Si02
#       8
#     8   8   2   8   8   8   8   8
#     4  10  21  37  61  93 120 157 198 247 310 371
#     4  11  22  35  56  85 120 162 199 240 300 369
#     4  12  20  32  54  92 138 168 212 250 284 380
#     4  10  23  38  59  88 122 152 192 243 299 379
#     4  10  24  46  66  86 114 154 215 277 324 373
#     4  10  21  36  54  82 123 160 198 238 284 354
#     4  11  23  40  63  87 119 157 198 254 322 383
#     4  11  21  33  57  88 131 168 205 242 297 371
#
# _framework density 18.979562000000001
#
# number of rings (size 3 to 8) (size 9 to 14) (size 15 to 20)
#    0.000    1.517    2.069    2.483    1.931    8.000 
#    0.000    0.000    0.000    3.310    0.000    0.000 
#    0.000    0.000    0.000    0.000    0.000    0.000 
#
# Total GULP energy -322972.969151 kJ/mol
# GULP energy per Si atom -5568.499468 kJ/mol
# Density = 1.893636 g / cm^3
# Si number density = 18.979562 Si / 1000 Ang^3
#
#
#
# Elastic Constant Matrix: (Units=GPa)
#
#
# Indices 1 2 3 4 5 6 
#
# 1 19.7555 21.4820 8.0469 0.0000 0.0000 0.0000
# 2 21.4820 48.4980 40.5462 0.0000 0.0000 0.0000
# 3 8.0469 40.5462 78.5065 0.0000 0.0000 0.0000
# 4 0.0000 0.0000 0.0000 3.8903 0.0000 0.0000
# 5 0.0000 0.0000 0.0000 0.0000 -35.2037 0.0000
# 6 0.0000 0.0000 0.0000 0.0000 0.0000 37.8933
#
#
#
# Elastic Compliance Matrix: (Units=1/GPa)
#
#
# Indices 1 2 3 4 5 6 
#
# 1 0.124420 -0.078226 0.027649 0.000000 0.000000 0.000000
# 2 -0.078226 0.085472 -0.036125 0.000000 0.000000 0.000000
# 3 0.027649 -0.036125 0.028561 0.000000 0.000000 0.000000
# 4 0.000000 0.000000 0.000000 0.257053 0.000000 0.000000
# 5 0.000000 0.000000 0.000000 0.000000 -0.028406 0.000000
# 6 0.000000 0.000000 0.000000 0.000000 0.000000 0.026390
#
#
# Mechanical properties :
#
#
# Convention : Reuss Voigt Hill
#
# Bulk Modulus (GPa) = 15.37366 31.87894 23.62630
# Shear Modulus (GPa) = 7.26134 6.42829 6.84482
#
# Velocity S-wave (km/s) = 1.95811 1.84237 1.90112
# Velocity P-wave (km/s) = 3.63730 4.62154 4.15864
#
# Compressibility (1/GPa) = 0.06504631
#
# Stress axis : x y z
#
# Youngs Moduli (GPa) = 8.03731 11.69979 35.01228
#
# Poissons Ratio (x) = 0.91523 -0.96804
# Poissons Ratio (y) = 0.62873 1.26483
# Poissons Ratio (z) = -0.22222 0.42266
#
# Static dielectric constant tensor:
#      x y z
#    x 1.646420 0.000000 0.000000 
#    y 0.000000 1.672880 0.000000 
#    z 0.000000 0.000000 1.653360 
# 
# From -- ./inp_files/27290.got.cif
#   From: 2010.05.17/outbox.cif.g08.bks.cpg/sg58_14_cif.got.tgz:27290.got - 2010.06.03 14:20:14.
