data_PCOD9444513
_publ_section_title
;
Structure prediction by ZEFSAII (Michael W. Deem and Ramdas Pophale) SiO2 
 PCOD9444513
Probable space group: P N N M
;
_chemical_formula_sum "Si O2"
_cell_formula_units_Z 48
_cell_length_a 18.253258
_cell_length_b 16.813233
_cell_length_c 8.941769
_cell_angle_alpha 90.000000
_cell_angle_beta 90.000000
_cell_angle_gamma 90.000000
_cell_volume 2744.195641
_symmetry_space_group_name_H-M "P N N M"
_symmetry_group_IT_number 58
_symmetry_cell_setting 'orthorhombic'
loop_
_space_group_symop_operation_xyz
x,y,z
-x,-y,z
1/2+x,1/2-y,1/2-z
1/2-x,1/2+y,1/2-z
-x,-y,-z
x,y,-z
1/2-x,1/2+y,1/2+z
1/2+x,1/2-y,1/2+z
loop_
_atom_site_type_symbol
_atom_site_label
_atom_site_fract_x
_atom_site_fract_y
_atom_site_fract_z
Si Si1 0.913551 0.504947 0.322324
Si Si2 0.522752 0.410204 0.178982
Si Si3 0.095492 0.329785 0.177095
Si Si4 0.667555 0.337241 0.321670
Si Si5 0.946358 0.236467 0.179119
Si Si6 0.175089 0.639492 0.179287
O O1 0.905286 0.495077 0.500000
O O2 0.887999 0.591945 0.270334
O O3 0.869631 0.436301 0.238315
O O4 0.000000 0.500000 0.285216
O O5 0.500000 0.500000 0.217592
O O6 0.600345 0.386525 0.251819
O O7 0.464341 0.345643 0.238911
O O8 0.528204 0.403726 0.000000
O O9 0.148916 0.255680 0.206347
O O10 0.014224 0.296063 0.212402
O O11 0.097264 0.348355 0.000000
O O12 0.668292 0.349093 0.500000
O O13 0.744854 0.358691 0.250379
O O14 0.872077 0.281884 0.220361
O O15 0.947621 0.222995 0.000000
O O16 0.179603 0.636582 0.000000
#
# Coordination Sequence:
#
# PCOD9444513 Si02
#       6
#     8   8   8   8   8   8
#     4  11  22  34  55  88 119 150 189 232 281 337
#     4  10  21  38  61  87 113 149 194 237 283 338
#     4   9  18  36  58  80 109 149 188 226 278 337
#     4  10  22  40  60  84 115 151 190 237 291 338
#     4   9  19  35  58  84 110 147 188 230 282 336
#     4  11  22  38  59  84 117 153 190 235 290 342
#
# _framework density 17.491465000000002
#
# number of rings (size 3 to 8) (size 9 to 14) (size 15 to 20)
#    0.000    2.000    1.667    3.000    0.000    6.667 
#    3.000    0.000    0.000    0.000    0.000    0.000 
#    0.000    0.000    0.000    0.000    0.000    0.000 
#
# Total GULP energy -267992.820968 kJ/mol
# GULP energy per Si atom -5583.183770 kJ/mol
# Density = 1.745165 g / cm^3
# Si number density = 17.491465 Si / 1000 Ang^3
#
#
#
# Elastic Constant Matrix: (Units=GPa)
#
#
# Indices 1 2 3 4 5 6 
#
# 1 115.6409 77.7810 60.6100 0.0000 0.0000 0.0000
# 2 77.7810 145.1897 72.9337 0.0000 0.0000 0.0000
# 3 60.6100 72.9337 65.8061 0.0000 0.0000 0.0000
# 4 0.0000 0.0000 0.0000 29.0874 0.0000 0.0000
# 5 0.0000 0.0000 0.0000 0.0000 294.7135 0.0000
# 6 0.0000 0.0000 0.0000 0.0000 0.0000 18.7265
#
#
#
# Elastic Compliance Matrix: (Units=1/GPa)
#
#
# Indices 1 2 3 4 5 6 
#
# 1 0.017221 -0.002838 -0.012716 0.000000 0.000000 0.000000
# 2 -0.002838 0.016006 -0.015126 0.000000 0.000000 0.000000
# 3 -0.012716 -0.015126 0.043672 0.000000 0.000000 0.000000
# 4 0.000000 0.000000 0.000000 0.034379 0.000000 0.000000
# 5 0.000000 0.000000 0.000000 0.000000 0.003393 0.000000
# 6 0.000000 0.000000 0.000000 0.000000 0.000000 0.053400
#
#
# Mechanical properties :
#
#
# Convention : Reuss Voigt Hill
#
# Bulk Modulus (GPa) = 64.35070 83.25401 73.80235
# Shear Modulus (GPa) = 21.31188 76.19294 48.75241
#
# Velocity S-wave (km/s) = 3.49437 6.60717 5.28513
# Velocity P-wave (km/s) = 7.29044 10.29109 8.91787
#
# Compressibility (1/GPa) = 0.01553985
#
# Stress axis : x y z
#
# Youngs Moduli (GPa) = 58.06870 62.47588 22.89798
#
# Poissons Ratio (x) = 0.17731 0.29116
# Poissons Ratio (y) = 0.16480 0.34635
# Poissons Ratio (z) = 0.73838 0.94500
#
# Static dielectric constant tensor:
#      x y z
#    x 1.576310 0.000000 0.000000 
#    y 0.000000 1.579080 0.000000 
#    z 0.000000 0.000000 1.580610 
# 
# From -- ./inp_files/5764.got.cif
#   From: 2010.05.17/outbox.cif.g08.bks.cpg/sg58_3_cif.got.tgz:5764.got - 2010.06.03 14:20:14.
