data_PCOD9444516
_publ_section_title
;
Structure prediction by ZEFSAII (Michael W. Deem and Ramdas Pophale) SiO2 
 PCOD9444516
Probable space group: P N N M
;
_chemical_formula_sum "Si O2"
_cell_formula_units_Z 48
_cell_length_a 7.403265
_cell_length_b 28.811542
_cell_length_c 9.915463
_cell_angle_alpha 90.000000
_cell_angle_beta 90.000000
_cell_angle_gamma 90.000000
_cell_volume 2114.963107
_symmetry_space_group_name_H-M "P N N M"
_symmetry_group_IT_number 58
_symmetry_cell_setting 'orthorhombic'
loop_
_space_group_symop_operation_xyz
x,y,z
-x,-y,z
1/2+x,1/2-y,1/2-z
1/2-x,1/2+y,1/2-z
-x,-y,-z
x,y,-z
1/2-x,1/2+y,1/2+z
1/2+x,1/2-y,1/2+z
loop_
_atom_site_type_symbol
_atom_site_label
_atom_site_fract_x
_atom_site_fract_y
_atom_site_fract_z
Si Si1 0.284897 0.006781 0.854243
Si Si2 0.641501 0.914184 0.343087
Si Si3 0.243505 0.404995 0.272141
Si Si4 0.427552 0.811043 0.140961
Si Si5 0.547913 0.742706 0.351949
Si Si6 0.104164 0.143883 0.165145
O O1 0.212998 0.954878 0.836473
O O2 0.500000 0.000000 0.864816
O O3 0.269631 0.039667 0.724470
O O4 0.223089 0.026470 0.000000
O O5 0.689756 0.907758 0.500000
O O6 0.420989 0.915829 0.332609
O O7 0.719030 0.875787 0.238939
O O8 0.144877 0.363429 0.352601
O O9 0.439838 0.382016 0.255115
O O10 0.534016 0.787166 0.259757
O O11 0.245889 0.779718 0.141333
O O12 0.528657 0.804995 0.000000
O O13 0.489937 0.757766 0.500000
O O14 0.427756 0.698346 0.311992
O O15 0.094729 0.136116 0.000000
#
# Coordination Sequence:
#
# PCOD9444516 Si02
#       6
#     8   8   8   8   8   8
#     4   9  18  36  63  91 120 160 212 259 301 363
#     4  11  25  41  62  94 131 167 203 253 318 377
#     4  10  22  41  65  90 122 164 211 259 306 360
#     4  10  21  38  61  87 118 155 197 249 304 358
#     4   9  21  39  57  86 121 153 197 248 300 361
#     4  10  22  42  66  91 123 163 212 261 303 365
#
# _framework density 22.695430999999999
#
# number of rings (size 3 to 8) (size 9 to 14) (size 15 to 20)
#    0.000    2.167    0.000    3.000    2.333    9.667 
#    0.000    5.833    0.000    0.000    0.000    0.000 
#    0.000    0.000    0.000    0.000    0.000    0.000 
#
# Total GULP energy -267339.621758 kJ/mol
# GULP energy per Si atom -5569.575453 kJ/mol
# Density = 2.264378 g / cm^3
# Si number density = 22.695431 Si / 1000 Ang^3
#
#
#
# Elastic Constant Matrix: (Units=GPa)
#
#
# Indices 1 2 3 4 5 6 
#
# 1 91.7732 1.3886 5.8685 0.0000 0.0000 0.0000
# 2 1.3886 124.1102 51.7601 0.0000 0.0000 0.0000
# 3 5.8685 51.7601 101.8845 0.0000 0.0000 0.0000
# 4 0.0000 0.0000 0.0000 0.5146 0.0000 0.0000
# 5 0.0000 0.0000 0.0000 0.0000 401.3115 0.0000
# 6 0.0000 0.0000 0.0000 0.0000 0.0000 33.6533
#
#
#
# Elastic Compliance Matrix: (Units=1/GPa)
#
#
# Indices 1 2 3 4 5 6 
#
# 1 0.010940 0.000178 -0.000721 0.000000 0.000000 0.000000
# 2 0.000178 0.010226 -0.005206 0.000000 0.000000 0.000000
# 3 -0.000721 -0.005206 0.012501 0.000000 0.000000 0.000000
# 4 0.000000 0.000000 0.000000 1.943437 0.000000 0.000000
# 5 0.000000 0.000000 0.000000 0.000000 0.002492 0.000000
# 6 0.000000 0.000000 0.000000 0.000000 0.000000 0.029715
#
#
# Mechanical properties :
#
#
# Convention : Reuss Voigt Hill
#
# Bulk Modulus (GPa) = 45.10352 48.42248 46.76300
# Shear Modulus (GPa) = 2.46524 104.34592 53.40558
#
# Velocity S-wave (km/s) = 1.04335 6.78796 4.85618
# Velocity P-wave (km/s) = 4.62255 9.10040 7.21752
#
# Compressibility (1/GPa) = 0.02217122
#
# Stress axis : x y z
#
# Youngs Moduli (GPa) = 91.40921 97.78685 79.99303
#
# Poissons Ratio (x) = -0.01742 0.05765
# Poissons Ratio (y) = -0.01628 0.41640
# Poissons Ratio (z) = 0.06587 0.50903
#
# Static dielectric constant tensor:
#      x y z
#    x 1.933690 0.000000 0.000000 
#    y 0.000000 1.863030 0.000000 
#    z 0.000000 0.000000 1.838400 
# 
# From -- ./inp_files/3010.got.cif
#   From: 2010.05.17/outbox.cif.g08.bks.cpg/sg58_2_cif.got.tgz:3010.got - 2010.06.03 14:20:14.
