data_PCOD9444833
_publ_section_title
;
Structure prediction by ZEFSAII (Michael W. Deem and Ramdas Pophale) SiO2 
 PCOD9444833
Probable space group: P N N M
;
_chemical_formula_sum "Si O2"
_cell_formula_units_Z 40
_cell_length_a 11.534676
_cell_length_b 9.331426
_cell_length_c 18.929545
_cell_angle_alpha 90.000000
_cell_angle_beta 90.000000
_cell_angle_gamma 90.000000
_cell_volume 2037.481113
_symmetry_space_group_name_H-M "P N N M"
_symmetry_group_IT_number 58
_symmetry_cell_setting 'orthorhombic'
loop_
_space_group_symop_operation_xyz
x,y,z
-x,-y,z
1/2+x,1/2-y,1/2-z
1/2-x,1/2+y,1/2-z
-x,-y,-z
x,y,-z
1/2-x,1/2+y,1/2+z
1/2+x,1/2-y,1/2+z
loop_
_atom_site_type_symbol
_atom_site_label
_atom_site_fract_x
_atom_site_fract_y
_atom_site_fract_z
Si Si1 0.365175 0.974328 0.917343
Si Si2 0.724752 0.737867 0.680419
Si Si3 0.245370 0.280621 0.916410
Si Si4 0.862041 0.025940 0.302255
Si Si5 0.986459 0.328748 0.918852
O O1 0.311860 0.855315 0.867104
O O2 0.500000 0.000000 0.902953
O O3 0.301986 0.125826 0.906496
O O4 0.352166 0.933583 0.000000
O O5 0.674552 0.638402 0.742077
O O6 0.617968 0.785008 0.631075
O O7 0.792903 0.877336 0.707870
O O8 0.315593 0.400929 0.874308
O O9 0.111209 0.272270 0.893538
O O10 0.244715 0.315127 0.000000
O O11 0.000000 0.000000 0.303513
O O12 0.000000 0.500000 0.919398
O O13 0.966105 0.280615 0.000000
#
# Coordination Sequence:
#
# PCOD9444833 Si02
#       5
#     8   8   8   8   8
#     4  10  22  42  68  97 130 169 214 268 326 387
#     4  12  26  42  66  93 135 174 217 271 322 394
#     4  10  22  44  70  98 132 167 218 274 326 386
#     4  12  28  43  64  97 130 177 221 265 329 391
#     4  10  21  41  71 101 129 168 218 275 330 382
#
# _framework density 19.632083000000002
#
# number of rings (size 3 to 8) (size 9 to 14) (size 15 to 20)
#    0.000    1.200    2.000    3.000    5.600    1.200 
#    0.000    3.000    0.000    0.000    0.000    0.000 
#    0.000    0.000    0.000    0.000    0.000    0.000 
#
# Total GULP energy -223754.213338 kJ/mol
# GULP energy per Si atom -5593.855333 kJ/mol
# Density = 1.958740 g / cm^3
# Si number density = 19.632083 Si / 1000 Ang^3
#
#
#
# Elastic Constant Matrix: (Units=GPa)
#
#
# Indices 1 2 3 4 5 6 
#
# 1 153.0792 65.1664 59.6918 0.0000 0.0000 0.0000
# 2 65.1664 94.7773 55.8863 0.0000 0.0000 0.0000
# 3 59.6918 55.8863 75.5407 0.0000 0.0000 0.0000
# 4 0.0000 0.0000 0.0000 263.5205 0.0000 0.0000
# 5 0.0000 0.0000 0.0000 0.0000 35.6519 0.0000
# 6 0.0000 0.0000 0.0000 0.0000 0.0000 28.3261
#
#
#
# Elastic Compliance Matrix: (Units=1/GPa)
#
#
# Indices 1 2 3 4 5 6 
#
# 1 0.010240 -0.004026 -0.005114 0.000000 0.000000 0.000000
# 2 -0.004026 0.020298 -0.011836 0.000000 0.000000 0.000000
# 3 -0.005114 -0.011836 0.026035 0.000000 0.000000 0.000000
# 4 0.000000 0.000000 0.000000 0.003795 0.000000 0.000000
# 5 0.000000 0.000000 0.000000 0.000000 0.028049 0.000000
# 6 0.000000 0.000000 0.000000 0.000000 0.000000 0.035303
#
#
# Mechanical properties :
#
#
# Convention : Reuss Voigt Hill
#
# Bulk Modulus (GPa) = 68.38432 76.09847 72.24139
# Shear Modulus (GPa) = 29.31783 75.00987 52.16385
#
# Velocity S-wave (km/s) = 3.86860 6.18795 5.16027
# Velocity P-wave (km/s) = 7.40698 9.48160 8.50776
#
# Compressibility (1/GPa) = 0.01462324
#
# Stress axis : x y z
#
# Youngs Moduli (GPa) = 97.65330 49.26573 38.41005
#
# Poissons Ratio (x) = 0.19833 0.19641
# Poissons Ratio (y) = 0.39313 0.45461
# Poissons Ratio (z) = 0.49935 0.58310
#
# Static dielectric constant tensor:
#      x y z
#    x 1.669630 0.000000 0.000000 
#    y 0.000000 1.673760 0.000000 
#    z 0.000000 0.000000 1.694500 
# 
# From -- ./inp_files/24966.got.cif
#   From: 2010.05.17/outbox.cif.g08.bks.cpg/sg58_13_cif.got.tgz:24966.got - 2010.06.03 14:20:14.
