data_PCOD9444871
_publ_section_title
;
Structure prediction by ZEFSAII (Michael W. Deem and Ramdas Pophale) SiO2 
 PCOD9444871
Probable space group: P N N M
;
_chemical_formula_sum "Si O2"
_cell_formula_units_Z 36
_cell_length_a 5.573423
_cell_length_b 11.730740
_cell_length_c 23.075544
_cell_angle_alpha 90.000000
_cell_angle_beta 90.000000
_cell_angle_gamma 90.000000
_cell_volume 1508.687746
_symmetry_space_group_name_H-M "P N N M"
_symmetry_group_IT_number 58
_symmetry_cell_setting 'orthorhombic'
loop_
_space_group_symop_operation_xyz
x,y,z
-x,-y,z
1/2+x,1/2-y,1/2-z
1/2-x,1/2+y,1/2-z
-x,-y,-z
x,y,-z
1/2-x,1/2+y,1/2+z
1/2+x,1/2-y,1/2+z
loop_
_atom_site_type_symbol
_atom_site_label
_atom_site_fract_x
_atom_site_fract_y
_atom_site_fract_z
Si Si1 0.070741 0.878456 0.891094
Si Si2 0.751351 0.567859 0.730371
Si Si3 0.000000 0.500000 0.900361
Si Si4 0.144157 0.175407 0.438302
Si Si5 0.233082 0.797434 0.339127
O O1 0.249418 0.901411 0.837395
O O2 0.178728 0.784108 0.933328
O O3 0.842653 0.821909 0.858823
O O4 0.000000 0.000000 0.917317
O O5 0.500000 0.500000 0.741776
O O6 0.722116 0.679468 0.771006
O O7 0.000000 0.500000 0.742169
O O8 0.790036 0.442258 0.936766
O O9 0.909307 0.602954 0.861153
O O10 0.009493 0.184329 0.500000
O O11 0.996274 0.179815 0.378973
#
# Coordination Sequence:
#
# PCOD9444871 Si02
#       5
#     8   8   4   8   8
#     4  10  27  44  67  98 140 189 244 299 359 428
#     4  11  25  44  75 107 145 187 236 302 371 439
#     4  10  21  44  68 106 138 176 233 298 368 434
#     4  11  25  43  71 102 141 189 243 300 364 434
#     4  11  24  42  71 104 140 185 233 298 370 437
#
# _framework density 23.861798
#
# number of rings (size 3 to 8) (size 9 to 14) (size 15 to 20)
#    0.000    1.333    1.111    2.333   12.444    5.778 
#    0.000    1.111    0.000    0.000    0.000    0.000 
#    0.000    0.000    0.000    0.000    0.000    0.000 
#
# Total GULP energy -201179.347354 kJ/mol
# GULP energy per Si atom -5588.315204 kJ/mol
# Density = 2.380749 g / cm^3
# Si number density = 23.861798 Si / 1000 Ang^3
#
#
#
# Elastic Constant Matrix: (Units=GPa)
#
#
# Indices 1 2 3 4 5 6 
#
# 1 100.7090 20.9932 13.0166 0.0000 0.0000 0.0000
# 2 20.9932 102.3525 2.5796 0.0000 0.0000 0.0000
# 3 13.0166 2.5796 73.3712 0.0000 0.0000 0.0000
# 4 0.0000 0.0000 0.0000 -3.0252 0.0000 0.0000
# 5 0.0000 0.0000 0.0000 0.0000 13.7659 0.0000
# 6 0.0000 0.0000 0.0000 0.0000 0.0000 37.0517
#
#
#
# Elastic Compliance Matrix: (Units=1/GPa)
#
#
# Indices 1 2 3 4 5 6 
#
# 1 0.010607 -0.002130 -0.001807 0.000000 0.000000 0.000000
# 2 -0.002130 0.010207 0.000019 0.000000 0.000000 0.000000
# 3 -0.001807 0.000019 0.013949 0.000000 0.000000 0.000000
# 4 0.000000 0.000000 0.000000 -0.330562 0.000000 0.000000
# 5 0.000000 0.000000 0.000000 0.000000 0.072643 0.000000
# 6 0.000000 0.000000 0.000000 0.000000 0.000000 0.026989
#
#
# Mechanical properties :
#
#
# Convention : Reuss Voigt Hill
#
# Bulk Modulus (GPa) = 37.13730 38.84573 37.99151
# Shear Modulus (GPa) = -27.87769 25.54805 -1.16482
#
# Velocity S-wave (km/s) = -3.42175 3.27565 -0.69944
# Velocity P-wave (km/s) = 0.11766 5.53366 3.91200
#
# Compressibility (1/GPa) = 0.02692711
#
# Stress axis : x y z
#
# Youngs Moduli (GPa) = 94.27593 97.97614 71.68858
#
# Poissons Ratio (x) = 0.20870 0.12953
# Poissons Ratio (y) = 0.20081 -0.00137
# Poissons Ratio (z) = 0.17035 -0.00187
#
# Static dielectric constant tensor:
#      x y z
#    x 1.989390 0.000000 0.000000 
#    y 0.000000 1.914880 0.000000 
#    z 0.000000 0.000000 1.959090 
# 
# From -- ./inp_files/30827.got.cif
#   From: 2010.05.17/outbox.cif.g08.bks.cpg/sg58_16_cif.got.tgz:30827.got - 2010.06.03 14:20:14.
