data_PCOD9444139
_publ_section_title
;
Structure prediction by ZEFSAII (Michael W. Deem and Ramdas Pophale) SiO2 
 PCOD9444139
Probable space group: P N N M
;
_chemical_formula_sum "Si O2"
_cell_formula_units_Z 32
_cell_length_a 7.085351
_cell_length_b 13.438883
_cell_length_c 13.522676
_cell_angle_alpha 90.000000
_cell_angle_beta 90.000000
_cell_angle_gamma 90.000000
_cell_volume 1287.618433
_symmetry_space_group_name_H-M "P N N M"
_symmetry_group_IT_number 58
_symmetry_cell_setting 'orthorhombic'
loop_
_space_group_symop_operation_xyz
x,y,z
-x,-y,z
1/2+x,1/2-y,1/2-z
1/2-x,1/2+y,1/2-z
-x,-y,-z
x,y,-z
1/2-x,1/2+y,1/2+z
1/2+x,1/2-y,1/2+z
loop_
_atom_site_type_symbol
_atom_site_label
_atom_site_fract_x
_atom_site_fract_y
_atom_site_fract_z
Si Si1 0.475294 0.135720 0.114973
Si Si2 0.229971 0.332826 0.115987
Si Si3 0.794541 0.470047 0.795489
Si Si4 0.191303 0.733325 0.881933
O O1 0.369645 0.240705 0.121943
O O2 0.353032 0.061793 0.183929
O O3 0.688017 0.168986 0.146780
O O4 0.474848 0.105999 0.000000
O O5 0.305103 0.427798 0.177068
O O6 0.027290 0.283955 0.148396
O O7 0.212969 0.361559 0.000000
O O8 0.720293 0.370126 0.844694
O O9 0.000000 0.500000 0.842096
O O10 0.194521 0.735258 0.000000
#
# Coordination Sequence:
#
# PCOD9444139 Si02
#       4
#     8   8   8   8
#     4  10  22  39  61  88 123 165 202 242 302 367
#     4   9  19  39  63  89 120 156 203 255 302 352
#     4  10  21  35  60  91 119 154 199 249 301 353
#     4   9  19  36  59  86 117 153 196 247 299 352
#
# _framework density 24.852084000000001
#
# number of rings (size 3 to 8) (size 9 to 14) (size 15 to 20)
#    0.000    2.500    0.000    0.750    7.000    4.500 
#    0.000    8.750    0.000    0.000    0.000    8.750 
#    0.000    0.000    0.000    0.000    0.000    0.000 
#
# Total GULP energy -178499.619680 kJ/mol
# GULP energy per Si atom -5578.113115 kJ/mol
# Density = 2.479552 g / cm^3
# Si number density = 24.852084 Si / 1000 Ang^3
#
#
#
# Elastic Constant Matrix: (Units=GPa)
#
#
# Indices 1 2 3 4 5 6 
#
# 1 72.3276 24.8591 13.3208 0.0000 0.0000 0.0000
# 2 24.8591 151.5293 64.9448 0.0000 0.0000 0.0000
# 3 13.3208 64.9448 126.4349 0.0000 0.0000 0.0000
# 4 0.0000 0.0000 0.0000 40.7440 0.0000 0.0000
# 5 0.0000 0.0000 0.0000 0.0000 18.8063 0.0000
# 6 0.0000 0.0000 0.0000 0.0000 0.0000 45.9439
#
#
#
# Elastic Compliance Matrix: (Units=1/GPa)
#
#
# Indices 1 2 3 4 5 6 
#
# 1 0.014668 -0.002236 -0.000397 0.000000 0.000000 0.000000
# 2 -0.002236 0.008803 -0.004286 0.000000 0.000000 0.000000
# 3 -0.000397 -0.004286 0.010153 0.000000 0.000000 0.000000
# 4 0.000000 0.000000 0.000000 0.024543 0.000000 0.000000
# 5 0.000000 0.000000 0.000000 0.000000 0.053174 0.000000
# 6 0.000000 0.000000 0.000000 0.000000 0.000000 0.021766
#
#
# Mechanical properties :
#
#
# Convention : Reuss Voigt Hill
#
# Bulk Modulus (GPa) = 50.54290 61.83791 56.19041
# Shear Modulus (GPa) = 32.56475 37.57665 35.07070
#
# Velocity S-wave (km/s) = 3.62379 3.89268 3.76064
# Velocity P-wave (km/s) = 6.15555 6.71866 6.44326
#
# Compressibility (1/GPa) = 0.01978517
#
# Stress axis : x y z
#
# Youngs Moduli (GPa) = 68.17729 113.59296 98.49568
#
# Poissons Ratio (x) = 0.25403 0.03907
# Poissons Ratio (y) = 0.15246 0.42219
# Poissons Ratio (z) = 0.02704 0.48690
#
# Static dielectric constant tensor:
#      x y z
#    x 2.088900 0.000000 0.000000 
#    y 0.000000 2.057900 0.000000 
#    z 0.000000 0.000000 1.981150 
# 
# From -- ./inp_files/19094.got.cif
#   From: 2010.05.17/outbox.cif.g08.bks.cpg/sg58_10_cif.got.tgz:19094.got - 2010.06.03 14:20:14.
