data_PCOD9444792
_publ_section_title
;
Structure prediction by ZEFSAII (Michael W. Deem and Ramdas Pophale) SiO2 
 PCOD9444792
Probable space group: P N N M
;
_chemical_formula_sum "Si O2"
_cell_formula_units_Z 64
_cell_length_a 21.518712
_cell_length_b 9.139336
_cell_length_c 15.010120
_cell_angle_alpha 90.000000
_cell_angle_beta 90.000000
_cell_angle_gamma 90.000000
_cell_volume 2951.991356
_symmetry_space_group_name_H-M "P N N M"
_symmetry_group_IT_number 58
_symmetry_cell_setting 'orthorhombic'
loop_
_space_group_symop_operation_xyz
x,y,z
-x,-y,z
1/2+x,1/2-y,1/2-z
1/2-x,1/2+y,1/2-z
-x,-y,-z
x,y,-z
1/2-x,1/2+y,1/2+z
1/2+x,1/2-y,1/2+z
loop_
_atom_site_type_symbol
_atom_site_label
_atom_site_fract_x
_atom_site_fract_y
_atom_site_fract_z
Si Si1 0.192618 0.405976 0.403957
Si Si2 0.016248 0.830343 0.268774
Si Si3 0.782746 0.898255 0.653062
Si Si4 0.947516 0.623151 0.395804
Si Si5 0.744620 0.328592 0.341381
Si Si6 0.364691 0.355982 0.893844
Si Si7 0.165397 0.433238 0.100007
Si Si8 0.552284 0.875204 0.395132
O O1 0.190784 0.331296 0.500000
O O2 0.215531 0.275894 0.343492
O O3 0.121243 0.444427 0.382573
O O4 0.237214 0.543238 0.408596
O O5 0.073786 0.823239 0.338442
O O6 0.033418 0.748919 0.176112
O O7 0.961580 0.745667 0.322006
O O8 0.000000 0.000000 0.253289
O O9 0.766399 0.927359 0.754971
O O10 0.845216 0.974096 0.619035
O O11 0.727029 0.967664 0.597673
O O12 0.951689 0.673655 0.500000
O O13 0.000000 0.500000 0.384241
O O14 0.806462 0.228479 0.348600
O O15 0.687058 0.220648 0.358853
O O16 0.369142 0.322265 0.000000
O O17 0.113025 0.537581 0.140366
O O18 0.143645 0.400035 0.000000
O O19 0.561543 0.827164 0.500000
O O20 0.500000 0.000000 0.396433
#
# Coordination Sequence:
#
# PCOD9444792 Si02
#       8
#     8   8   8   8   8   8   8   8
#     4  11  21  36  58  87 122 156 198 253 308 361
#     4  12  25  39  64  97 129 170 220 275 330 393
#     4  11  22  36  57  86 123 164 202 248 311 376
#     4  10  22  39  61  91 129 176 222 263 315 385
#     4  11  22  36  59  91 121 156 207 260 309 370
#     4  11  23  41  61  87 130 176 215 260 320 389
#     4  10  21  41  64  84 114 158 204 249 312 388
#     4  10  24  47  71  92 119 162 214 271 336 403
#
# _framework density 21.680281000000001
#
# number of rings (size 3 to 8) (size 9 to 14) (size 15 to 20)
#    0.000    1.250    0.000    7.500    0.000    7.250 
#    0.000    0.000    0.000    4.500    0.000    0.000 
#    0.000    0.000    0.000    0.000    0.000    0.000 
#
# Total GULP energy -357029.237300 kJ/mol
# GULP energy per Si atom -5578.581833 kJ/mol
# Density = 2.163094 g / cm^3
# Si number density = 21.680281 Si / 1000 Ang^3
#
#
#
# Elastic Constant Matrix: (Units=GPa)
#
#
# Indices 1 2 3 4 5 6 
#
# 1 46.3552 3.0971 21.4714 0.0000 0.0000 0.0000
# 2 3.0971 91.0177 37.6452 0.0000 0.0000 0.0000
# 3 21.4714 37.6452 121.1132 0.0000 0.0000 0.0000
# 4 0.0000 0.0000 0.0000 21.0053 0.0000 0.0000
# 5 0.0000 0.0000 0.0000 0.0000 18.2321 0.0000
# 6 0.0000 0.0000 0.0000 0.0000 0.0000 32.2977
#
#
#
# Elastic Compliance Matrix: (Units=1/GPa)
#
#
# Indices 1 2 3 4 5 6 
#
# 1 0.023592 0.001064 -0.004513 0.000000 0.000000 0.000000
# 2 0.001064 0.012656 -0.004122 0.000000 0.000000 0.000000
# 3 -0.004513 -0.004122 0.010338 0.000000 0.000000 0.000000
# 4 0.000000 0.000000 0.000000 0.047607 0.000000 0.000000
# 5 0.000000 0.000000 0.000000 0.000000 0.054848 0.000000
# 6 0.000000 0.000000 0.000000 0.000000 0.000000 0.030962
#
#
# Mechanical properties :
#
#
# Convention : Reuss Voigt Hill
#
# Bulk Modulus (GPa) = 31.80399 42.54594 37.17497
# Shear Modulus (GPa) = 24.31583 27.39184 25.85384
#
# Velocity S-wave (km/s) = 3.35261 3.55835 3.45701
# Velocity P-wave (km/s) = 5.44867 6.04561 5.75489
#
# Compressibility (1/GPa) = 0.03144259
#
# Stress axis : x y z
#
# Youngs Moduli (GPa) = 42.38740 79.01588 96.72890
#
# Poissons Ratio (x) = -0.08406 0.43655
# Poissons Ratio (y) = -0.04510 0.39875
# Poissons Ratio (z) = 0.19130 0.32573
#
# Static dielectric constant tensor:
#      x y z
#    x 1.828350 0.000000 0.000000 
#    y 0.000000 3.615780 0.000000 
#    z 0.000000 0.000000 1.781660 
# 
# From -- ./inp_files/23559.got.cif
#   From: 2010.05.17/outbox.cif.g08.bks.cpg/sg58_12_cif.got.tgz:23559.got - 2010.06.03 14:20:14.
