data_PCOD9444845
_publ_section_title
;
Structure prediction by ZEFSAII (Michael W. Deem and Ramdas Pophale) SiO2 
 PCOD9444845
Probable space group: P N N M
;
_chemical_formula_sum "Si O2"
_cell_formula_units_Z 44
_cell_length_a 7.955910
_cell_length_b 13.749990
_cell_length_c 17.919209
_cell_angle_alpha 90.000000
_cell_angle_beta 90.000000
_cell_angle_gamma 90.000000
_cell_volume 1960.248268
_symmetry_space_group_name_H-M "P N N M"
_symmetry_group_IT_number 58
_symmetry_cell_setting 'orthorhombic'
loop_
_space_group_symop_operation_xyz
x,y,z
-x,-y,z
1/2+x,1/2-y,1/2-z
1/2-x,1/2+y,1/2-z
-x,-y,-z
x,y,-z
1/2-x,1/2+y,1/2+z
1/2+x,1/2-y,1/2+z
loop_
_atom_site_type_symbol
_atom_site_label
_atom_site_fract_x
_atom_site_fract_y
_atom_site_fract_z
Si Si1 0.483034 0.615057 0.586344
Si Si2 0.287689 0.774018 0.650085
Si Si3 0.000000 0.500000 0.725965
Si Si4 0.844681 0.374640 0.157321
Si Si5 0.284319 0.818196 0.187097
Si Si6 0.766052 0.929750 0.500000
Si Si7 0.884120 0.150309 0.500000
O O1 0.500000 0.500000 0.587004
O O2 0.467219 0.648328 0.500000
O O3 0.331304 0.660629 0.634784
O O4 0.652830 0.651176 0.624480
O O5 0.473455 0.821826 0.658432
O O6 0.208455 0.806626 0.728693
O O7 0.191429 0.806744 0.576182
O O8 0.854464 0.457805 0.780348
O O9 0.925809 0.597143 0.686347
O O10 0.694328 0.297094 0.170047
O O11 0.833901 0.417175 0.075483
O O12 0.914668 0.849911 0.500000
O O13 0.835720 0.037715 0.500000
#
# Coordination Sequence:
#
# PCOD9444845 Si02
#       7
#     8   8   4   8   8   4   4
#     4  10  22  42  67  95 132 183 229 278 340 425
#     4  10  21  42  66  91 127 174 226 272 335 414
#     4  10  22  43  63  96 132 174 230 276 344 412
#     4  10  22  40  65  90 126 175 220 264 336 417
#     4  10  23  39  67  96 126 169 230 281 334 405
#     4  11  23  37  59  95 129 163 210 274 346 396
#     4  11  23  39  60  94 133 161 214 285 341 401
#
# _framework density 22.446135999999999
#
# number of rings (size 3 to 8) (size 9 to 14) (size 15 to 20)
#    0.000    1.818    0.909    2.727    6.364    5.455 
#    3.273    0.455    0.000    0.000    0.000    0.000 
#    0.000    0.000    0.000    0.000    0.000    0.000 
#
# Total GULP energy -245343.187096 kJ/mol
# GULP energy per Si atom -5575.981525 kJ/mol
# Density = 2.239505 g / cm^3
# Si number density = 22.446136 Si / 1000 Ang^3
#
#
#
# Elastic Constant Matrix: (Units=GPa)
#
#
# Indices 1 2 3 4 5 6 
#
# 1 36.7105 18.2884 -1.0426 0.0000 0.0000 0.0000
# 2 18.2884 96.6540 19.6377 0.0000 0.0000 0.0000
# 3 -1.0426 19.6377 68.7482 0.0000 0.0000 0.0000
# 4 0.0000 0.0000 0.0000 27.2103 0.0000 0.0000
# 5 0.0000 0.0000 0.0000 0.0000 2.0350 0.0000
# 6 0.0000 0.0000 0.0000 0.0000 0.0000 29.6099
#
#
#
# Elastic Compliance Matrix: (Units=1/GPa)
#
#
# Indices 1 2 3 4 5 6 
#
# 1 0.030395 -0.006205 0.002233 0.000000 0.000000 0.000000
# 2 -0.006205 0.012250 -0.003593 0.000000 0.000000 0.000000
# 3 0.002233 -0.003593 0.015606 0.000000 0.000000 0.000000
# 4 0.000000 0.000000 0.000000 0.036751 0.000000 0.000000
# 5 0.000000 0.000000 0.000000 0.000000 0.491400 0.000000
# 6 0.000000 0.000000 0.000000 0.000000 0.000000 0.033772
#
#
# Mechanical properties :
#
#
# Convention : Reuss Voigt Hill
#
# Bulk Modulus (GPa) = 23.19034 30.65329 26.92181
# Shear Modulus (GPa) = 7.69613 22.78634 15.24123
#
# Velocity S-wave (km/s) = 1.85369 3.18961 2.60862
# Velocity P-wave (km/s) = 3.86465 5.22023 4.59273
#
# Compressibility (1/GPa) = 0.04312141
#
# Stress axis : x y z
#
# Youngs Moduli (GPa) = 32.90043 81.63044 64.07735
#
# Poissons Ratio (x) = 0.50651 -0.14311
# Poissons Ratio (y) = 0.20414 0.23025
# Poissons Ratio (z) = -0.07348 0.29333
#
# Static dielectric constant tensor:
#      x y z
#    x 1.868890 0.000000 0.000000 
#    y 0.000000 1.933210 0.000000 
#    z 0.000000 0.000000 1.824490 
# 
# From -- ./inp_files/25234.got.cif
#   From: 2010.05.17/outbox.cif.g08.bks.cpg/sg58_13_cif.got.tgz:25234.got - 2010.06.03 14:20:14.
