data_PCOD9444552
_publ_section_title
;
Structure prediction by ZEFSAII (Michael W. Deem and Ramdas Pophale) SiO2 
 PCOD9444552
Probable space group: P N N M
;
_chemical_formula_sum "Si O2"
_cell_formula_units_Z 40
_cell_length_a 7.371957
_cell_length_b 18.435169
_cell_length_c 13.485756
_cell_angle_alpha 90.000000
_cell_angle_beta 90.000000
_cell_angle_gamma 90.000000
_cell_volume 1832.758381
_symmetry_space_group_name_H-M "P N N M"
_symmetry_group_IT_number 58
_symmetry_cell_setting 'orthorhombic'
loop_
_space_group_symop_operation_xyz
x,y,z
-x,-y,z
1/2+x,1/2-y,1/2-z
1/2-x,1/2+y,1/2-z
-x,-y,-z
x,y,-z
1/2-x,1/2+y,1/2+z
1/2+x,1/2-y,1/2+z
loop_
_atom_site_type_symbol
_atom_site_label
_atom_site_fract_x
_atom_site_fract_y
_atom_site_fract_z
Si Si1 0.564973 0.772662 0.114640
Si Si2 0.188439 0.832141 0.113764
Si Si3 0.793899 0.524393 0.286175
Si Si4 0.667137 0.371414 0.724296
Si Si5 0.583706 0.606906 0.886623
O O1 0.349226 0.775573 0.135670
O O2 0.662610 0.824483 0.192422
O O3 0.642988 0.691415 0.116791
O O4 0.586172 0.799029 0.000000
O O5 0.277036 0.910847 0.135120
O O6 0.008539 0.831066 0.179506
O O7 0.135263 0.824131 0.000000
O O8 0.689547 0.452034 0.320270
O O9 0.703165 0.557909 0.186689
O O10 0.000000 0.500000 0.268926
O O11 0.617148 0.388735 0.838060
O O12 0.585042 0.582955 0.000000
#
# Coordination Sequence:
#
# PCOD9444552 Si02
#       5
#     8   8   8   8   8
#     4  10  22  41  64  95 130 165 210 265 323 386
#     4  10  21  38  62  94 129 164 208 258 323 390
#     4  11  23  41  63  95 129 174 220 261 322 381
#     4  11  23  38  68  92 129 169 210 266 317 381
#     4  10  24  43  64  92 130 172 215 268 319 376
#
# _framework density 21.825025
#
# number of rings (size 3 to 8) (size 9 to 14) (size 15 to 20)
#    0.000    1.600    2.000    3.000    5.600    4.800 
#    0.000    0.000    0.000    0.000    0.000    0.000 
#    0.000    0.000    0.000    0.000    0.000    0.000 
#
# Total GULP energy -223347.469610 kJ/mol
# GULP energy per Si atom -5583.686740 kJ/mol
# Density = 2.177535 g / cm^3
# Si number density = 21.825025 Si / 1000 Ang^3
#
#
#
# Elastic Constant Matrix: (Units=GPa)
#
#
# Indices 1 2 3 4 5 6 
#
# 1 73.2287 -3.7361 22.6289 0.0000 0.0000 0.0000
# 2 -3.7361 66.7501 -20.4235 0.0000 0.0000 0.0000
# 3 22.6289 -20.4235 74.9304 0.0000 0.0000 0.0000
# 4 0.0000 0.0000 0.0000 16.4639 0.0000 0.0000
# 5 0.0000 0.0000 0.0000 0.0000 23.4845 0.0000
# 6 0.0000 0.0000 0.0000 0.0000 0.0000 31.9918
#
#
#
# Elastic Compliance Matrix: (Units=1/GPa)
#
#
# Indices 1 2 3 4 5 6 
#
# 1 0.015083 -0.000599 -0.004719 0.000000 0.000000 0.000000
# 2 -0.000599 0.016368 0.004642 0.000000 0.000000 0.000000
# 3 -0.004719 0.004642 0.016036 0.000000 0.000000 0.000000
# 4 0.000000 0.000000 0.000000 0.060739 0.000000 0.000000
# 5 0.000000 0.000000 0.000000 0.000000 0.042581 0.000000
# 6 0.000000 0.000000 0.000000 0.000000 0.000000 0.031258
#
#
# Mechanical properties :
#
#
# Convention : Reuss Voigt Hill
#
# Bulk Modulus (GPa) = 21.67485 23.53862 22.60674
# Shear Modulus (GPa) = 25.15143 28.81737 26.98440
#
# Velocity S-wave (km/s) = 3.39840 3.63765 3.52006
# Velocity P-wave (km/s) = 5.03504 5.33403 5.18669
#
# Compressibility (1/GPa) = 0.04613642
#
# Stress axis : x y z
#
# Youngs Moduli (GPa) = 66.29815 61.09429 62.35930
#
# Poissons Ratio (x) = 0.03663 0.29425
# Poissons Ratio (y) = 0.03975 -0.28950
# Poissons Ratio (z) = 0.31283 -0.28363
#
# Static dielectric constant tensor:
#      x y z
#    x 1.809530 0.000000 0.000000 
#    y 0.000000 1.837760 0.000000 
#    z 0.000000 0.000000 1.806220 
# 
# From -- ./inp_files/19664.got.cif
#   From: 2010.05.17/outbox.cif.g08.bks.cpg/sg58_10_cif.got.tgz:19664.got - 2010.06.03 14:20:14.
