data_PCOD9444244
_publ_section_title
;
Structure prediction by ZEFSAII (Michael W. Deem and Ramdas Pophale) SiO2 
 PCOD9444244
Probable space group: P N N M
;
_chemical_formula_sum "Si O2"
_cell_formula_units_Z 58
_cell_length_a 8.410047
_cell_length_b 16.675020
_cell_length_c 17.497347
_cell_angle_alpha 90.000000
_cell_angle_beta 90.000000
_cell_angle_gamma 90.000000
_cell_volume 2453.787733
_symmetry_space_group_name_H-M "P N N M"
_symmetry_group_IT_number 58
_symmetry_cell_setting 'orthorhombic'
loop_
_space_group_symop_operation_xyz
x,y,z
-x,-y,z
1/2+x,1/2-y,1/2-z
1/2-x,1/2+y,1/2-z
-x,-y,-z
x,y,-z
1/2-x,1/2+y,1/2+z
1/2+x,1/2-y,1/2+z
loop_
_atom_site_type_symbol
_atom_site_label
_atom_site_fract_x
_atom_site_fract_y
_atom_site_fract_z
Si Si1 0.000000 0.000000 0.500000
Si Si2 0.062038 0.650607 0.089742
Si Si3 0.780422 0.240143 0.590792
Si Si4 0.377077 0.603917 0.409547
Si Si5 0.968745 0.104853 0.351990
Si Si6 0.159386 0.469944 0.636489
Si Si7 0.295255 0.318179 0.407881
Si Si8 0.232208 0.529681 0.198202
O O1 0.025663 0.068387 0.432920
O O2 0.183236 0.724180 0.106454
O O3 0.110280 0.576653 0.143424
O O4 0.886768 0.690487 0.098613
O O5 0.075212 0.627579 0.000000
O O6 0.818978 0.237790 0.500000
O O7 0.752942 0.330886 0.616429
O O8 0.913968 0.194805 0.638008
O O9 0.392061 0.616731 0.500000
O O10 0.313255 0.514792 0.398623
O O11 0.542971 0.637973 0.379225
O O12 0.110571 0.086165 0.293856
O O13 0.812327 0.051356 0.334535
O O14 0.165606 0.374318 0.630973
O O15 0.163451 0.504885 0.721398
O O16 0.000000 0.500000 0.596514
O O17 0.278997 0.326695 0.500000
#
# Coordination Sequence:
#
# PCOD9444244 Si02
#       8
#     2   8   8   8   8   8   8   8
#     4   8  16  32  52  86 112 148 194 242 284 336
#     4   9  20  39  64  92 123 156 204 254 306 363
#     4   9  18  36  63  96 120 150 196 256 304 355
#     4   9  20  40  67  94 119 152 201 248 311 375
#     4  10  21  36  60  83 121 160 203 244 291 367
#     4  12  26  41  58  88 127 158 207 255 306 364
#     4   9  20  42  70  92 116 159 203 253 312 374
#     4  10  25  39  54  87 123 165 204 240 301 361
#
# _framework density 23.636927
#
# number of rings (size 3 to 8) (size 9 to 14) (size 15 to 20)
#    0.000    2.483    0.690    2.483    9.655    3.310 
#    2.483    4.138    0.000    0.000    0.000    0.000 
#    0.000    0.000    0.000    0.000    0.000    0.000 
#
# Total GULP energy -323314.217147 kJ/mol
# GULP energy per Si atom -5574.383054 kJ/mol
# Density = 2.358313 g / cm^3
# Si number density = 23.636927 Si / 1000 Ang^3
#
#
#
# Elastic Constant Matrix: (Units=GPa)
#
#
# Indices 1 2 3 4 5 6 
#
# 1 41.8681 7.4246 9.4228 0.0000 0.0000 0.0000
# 2 7.4246 98.6861 17.8382 0.0000 0.0000 0.0000
# 3 9.4228 17.8382 41.9130 0.0000 0.0000 0.0000
# 4 0.0000 0.0000 0.0000 40.7653 0.0000 0.0000
# 5 0.0000 0.0000 0.0000 0.0000 6.9753 0.0000
# 6 0.0000 0.0000 0.0000 0.0000 0.0000 40.6913
#
#
#
# Elastic Compliance Matrix: (Units=1/GPa)
#
#
# Indices 1 2 3 4 5 6 
#
# 1 0.025239 -0.000946 -0.005272 0.000000 0.000000 0.000000
# 2 -0.000946 0.011013 -0.004475 0.000000 0.000000 0.000000
# 3 -0.005272 -0.004475 0.026948 0.000000 0.000000 0.000000
# 4 0.000000 0.000000 0.000000 0.024531 0.000000 0.000000
# 5 0.000000 0.000000 0.000000 0.000000 0.143364 0.000000
# 6 0.000000 0.000000 0.000000 0.000000 0.000000 0.024575
#
#
# Mechanical properties :
#
#
# Convention : Reuss Voigt Hill
#
# Bulk Modulus (GPa) = 23.91415 27.98205 25.94810
# Shear Modulus (GPa) = 17.18256 27.53849 22.36052
#
# Velocity S-wave (km/s) = 2.69910 3.41700 3.07905
# Velocity P-wave (km/s) = 4.45565 5.23754 4.86234
#
# Compressibility (1/GPa) = 0.04181625
#
# Stress axis : x y z
#
# Youngs Moduli (GPa) = 39.62170 90.80095 37.10794
#
# Poissons Ratio (x) = 0.08589 0.19561
# Poissons Ratio (y) = 0.03748 0.16604
# Poissons Ratio (z) = 0.20887 0.40629
#
# Static dielectric constant tensor:
#      x y z
#    x 2.085650 0.000000 0.000000 
#    y 0.000000 1.884980 0.000000 
#    z 0.000000 0.000000 1.911830 
# 
# From -- ./inp_files/25550.got.cif
#   From: 2010.05.17/outbox.cif.g08.bks.cpg/sg58_13_cif.got.tgz:25550.got - 2010.06.03 14:20:14.
