data_PCOD9444960
_publ_section_title
;
Structure prediction by ZEFSAII (Michael W. Deem and Ramdas Pophale) SiO2 
 PCOD9444960
Probable space group: P N N M
;
_chemical_formula_sum "Si O2"
_cell_formula_units_Z 36
_cell_length_a 13.100552
_cell_length_b 10.847369
_cell_length_c 12.757788
_cell_angle_alpha 90.000000
_cell_angle_beta 90.000000
_cell_angle_gamma 90.000000
_cell_volume 1812.964877
_symmetry_space_group_name_H-M "P N N M"
_symmetry_group_IT_number 58
_symmetry_cell_setting 'orthorhombic'
loop_
_space_group_symop_operation_xyz
x,y,z
-x,-y,z
1/2+x,1/2-y,1/2-z
1/2-x,1/2+y,1/2-z
-x,-y,-z
x,y,-z
1/2-x,1/2+y,1/2+z
1/2+x,1/2-y,1/2+z
loop_
_atom_site_type_symbol
_atom_site_label
_atom_site_fract_x
_atom_site_fract_y
_atom_site_fract_z
Si Si1 0.828304 0.858908 0.381160
Si Si2 0.000000 0.500000 0.219536
Si Si3 0.109469 0.966802 0.807260
Si Si4 0.333640 0.936555 0.118316
Si Si5 0.099186 0.708783 0.119548
O O1 0.861493 0.888411 0.500000
O O2 0.844333 0.711711 0.364644
O O3 0.704957 0.867175 0.376930
O O4 0.877963 0.948448 0.295724
O O5 0.096519 0.500015 0.295982
O O6 0.007000 0.619400 0.147026
O O7 0.216074 0.978628 0.869248
O O8 0.103375 0.818750 0.796693
O O9 0.000000 0.000000 0.857102
O O10 0.366844 0.962794 0.000000
O O11 0.092692 0.757997 0.000000
#
# Coordination Sequence:
#
# PCOD9444960 Si02
#       5
#     8   4   8   8   8
#     4   9  19  39  60  85 121 157 195 241 296 356
#     4  12  20  40  64  86 120 152 202 242 286 364
#     4  11  21  38  62  87 120 157 199 245 297 354
#     4  10  22  38  60  87 119 158 195 243 302 350
#     4  10  22  38  62  90 120 159 197 244 303 350
#
# _framework density 19.856977000000001
#
# number of rings (size 3 to 8) (size 9 to 14) (size 15 to 20)
#    0.000    1.778    2.222    4.000    0.000    2.222 
#    0.000    2.222    0.000    0.000    0.000    0.000 
#    0.000    0.000    0.000    0.000    0.000    0.000 
#
# Total GULP energy -200568.360143 kJ/mol
# GULP energy per Si atom -5571.343337 kJ/mol
# Density = 1.981178 g / cm^3
# Si number density = 19.856977 Si / 1000 Ang^3
#
#
#
# Elastic Constant Matrix: (Units=GPa)
#
#
# Indices 1 2 3 4 5 6 
#
# 1 81.3156 14.6024 16.5942 0.0000 0.0000 0.0000
# 2 14.6024 44.9217 43.1430 0.0000 0.0000 0.0000
# 3 16.5942 43.1430 92.3103 0.0000 0.0000 0.0000
# 4 0.0000 0.0000 0.0000 32.2048 0.0000 0.0000
# 5 0.0000 0.0000 0.0000 0.0000 10.5591 0.0000
# 6 0.0000 0.0000 0.0000 0.0000 0.0000 33.0312
#
#
#
# Elastic Compliance Matrix: (Units=1/GPa)
#
#
# Indices 1 2 3 4 5 6 
#
# 1 0.013082 -0.003618 -0.000661 0.000000 0.000000 0.000000
# 2 -0.003618 0.041392 -0.018695 0.000000 0.000000 0.000000
# 3 -0.000661 -0.018695 0.019689 0.000000 0.000000 0.000000
# 4 0.000000 0.000000 0.000000 0.031051 0.000000 0.000000
# 5 0.000000 0.000000 0.000000 0.000000 0.094705 0.000000
# 6 0.000000 0.000000 0.000000 0.000000 0.000000 0.030274
#
#
# Mechanical properties :
#
#
# Convention : Reuss Voigt Hill
#
# Bulk Modulus (GPa) = 35.44086 40.80296 38.12191
# Shear Modulus (GPa) = 17.51033 24.77289 21.14161
#
# Velocity S-wave (km/s) = 2.97277 3.53592 3.26651
# Velocity P-wave (km/s) = 5.44701 6.10437 5.78504
#
# Compressibility (1/GPa) = 0.02821602
#
# Stress axis : x y z
#
# Youngs Moduli (GPa) = 76.43904 24.15955 50.78934
#
# Poissons Ratio (x) = 0.08741 0.03356
# Poissons Ratio (y) = 0.27655 0.94949
# Poissons Ratio (z) = 0.05052 0.45166
#
# Static dielectric constant tensor:
#      x y z
#    x 1.742510 0.000000 0.000000 
#    y 0.000000 1.701340 0.000000 
#    z 0.000000 0.000000 1.668370 
# 
# From -- ./inp_files/15334.got.cif
#   From: 2010.05.17/outbox.cif.g08.bks.cpg/sg58_8_cif.got.tgz:15334.got - 2010.06.03 14:20:14.
