data_PCOD9444696
_publ_section_title
;
Structure prediction by ZEFSAII (Michael W. Deem and Ramdas Pophale) SiO2 
 PCOD9444696
Probable space group: P N N M
;
_chemical_formula_sum "Si O2"
_cell_formula_units_Z 40
_cell_length_a 5.329737
_cell_length_b 25.363058
_cell_length_c 12.855920
_cell_angle_alpha 90.000000
_cell_angle_beta 90.000000
_cell_angle_gamma 90.000000
_cell_volume 1737.843065
_symmetry_space_group_name_H-M "P N N M"
_symmetry_group_IT_number 58
_symmetry_cell_setting 'orthorhombic'
loop_
_space_group_symop_operation_xyz
x,y,z
-x,-y,z
1/2+x,1/2-y,1/2-z
1/2-x,1/2+y,1/2-z
-x,-y,-z
x,y,-z
1/2-x,1/2+y,1/2+z
1/2+x,1/2-y,1/2+z
loop_
_atom_site_type_symbol
_atom_site_label
_atom_site_fract_x
_atom_site_fract_y
_atom_site_fract_z
Si Si1 0.433544 0.121792 0.780666
Si Si2 0.954480 0.914681 0.617386
Si Si3 0.796179 0.193409 0.323004
Si Si4 0.242462 0.968765 0.214986
Si Si5 0.899989 0.800194 0.111676
O O1 0.527012 0.168864 0.706202
O O2 0.673709 0.089688 0.823149
O O3 0.267209 0.148036 0.868871
O O4 0.265662 0.085878 0.703464
O O5 0.882694 0.927723 0.500000
O O6 0.061114 0.854849 0.621752
O O7 0.163574 0.953710 0.666137
O O8 0.769696 0.247583 0.383193
O O9 0.923904 0.203746 0.211809
O O10 0.500000 0.000000 0.199985
O O11 0.000000 0.000000 0.170941
O O12 0.029260 0.802078 0.000000
#
# Coordination Sequence:
#
# PCOD9444696 Si02
#       5
#     8   8   8   8   8
#     4  10  22  41  61  89 132 169 225 275 328 406
#     4  10  22  38  62  95 132 173 220 276 335 409
#     4  10  21  40  57  93 133 172 219 269 331 403
#     4  11  22  42  65  93 129 182 224 283 345 396
#     4  11  22  39  65  93 130 178 223 276 335 400
#
# _framework density 23.017039
#
# number of rings (size 3 to 8) (size 9 to 14) (size 15 to 20)
#    0.000    1.600    4.000    0.600    0.000    5.600 
#    0.000    0.000    0.000    1.200    0.000    0.000 
#    0.000    0.000    0.000    0.000    0.000    0.000 
#
# Total GULP energy -223124.855928 kJ/mol
# GULP energy per Si atom -5578.121398 kJ/mol
# Density = 2.296465 g / cm^3
# Si number density = 23.017039 Si / 1000 Ang^3
#
#
#
# Elastic Constant Matrix: (Units=GPa)
#
#
# Indices 1 2 3 4 5 6 
#
# 1 92.2124 21.1720 7.4344 0.0000 0.0000 0.0000
# 2 21.1720 54.8167 -7.8645 0.0000 0.0000 0.0000
# 3 7.4344 -7.8645 74.9723 0.0000 0.0000 0.0000
# 4 0.0000 0.0000 0.0000 6.4302 0.0000 0.0000
# 5 0.0000 0.0000 0.0000 0.0000 2.2416 0.0000
# 6 0.0000 0.0000 0.0000 0.0000 0.0000 47.2908
#
#
#
# Elastic Compliance Matrix: (Units=1/GPa)
#
#
# Indices 1 2 3 4 5 6 
#
# 1 0.012114 -0.004925 -0.001718 0.000000 0.000000 0.000000
# 2 -0.004925 0.020524 0.002641 0.000000 0.000000 0.000000
# 3 -0.001718 0.002641 0.013786 0.000000 0.000000 0.000000
# 4 0.000000 0.000000 0.000000 0.155516 0.000000 0.000000
# 5 0.000000 0.000000 0.000000 0.000000 0.446111 0.000000
# 6 0.000000 0.000000 0.000000 0.000000 0.000000 0.021146
#
#
# Mechanical properties :
#
#
# Convention : Reuss Voigt Hill
#
# Bulk Modulus (GPa) = 26.02826 29.27614 27.65220
# Shear Modulus (GPa) = 7.24631 24.60980 15.92806
#
# Velocity S-wave (km/s) = 1.77625 3.27341 2.63346
# Velocity P-wave (km/s) = 3.94203 5.19941 4.61375
#
# Compressibility (1/GPa) = 0.03841979
#
# Stress axis : x y z
#
# Youngs Moduli (GPa) = 82.55000 48.72377 72.53904
#
# Poissons Ratio (x) = 0.23998 0.12461
# Poissons Ratio (y) = 0.40658 -0.19160
# Poissons Ratio (z) = 0.14181 -0.12869
#
# Static dielectric constant tensor:
#      x y z
#    x 1.939840 0.000000 0.000000 
#    y 0.000000 1.986600 0.000000 
#    z 0.000000 0.000000 1.768000 
# 
# From -- ./inp_files/11750.got.cif
#   From: 2010.05.17/outbox.cif.g08.bks.cpg/sg58_6_cif.got.tgz:11750.got - 2010.06.03 14:20:14.
