data_PCOD9444006
_publ_section_title
;
Structure prediction by ZEFSAII (Michael W. Deem and Ramdas Pophale) SiO2 
 PCOD9444006
Probable space group: P N N M
;
_chemical_formula_sum "Si O2"
_cell_formula_units_Z 32
_cell_length_a 8.404913
_cell_length_b 5.468992
_cell_length_c 29.783381
_cell_angle_alpha 90.000000
_cell_angle_beta 90.000000
_cell_angle_gamma 90.000000
_cell_volume 1369.034863
_symmetry_space_group_name_H-M "P N N M"
_symmetry_group_IT_number 58
_symmetry_cell_setting 'orthorhombic'
loop_
_space_group_symop_operation_xyz
x,y,z
-x,-y,z
1/2+x,1/2-y,1/2-z
1/2-x,1/2+y,1/2-z
-x,-y,-z
x,y,-z
1/2-x,1/2+y,1/2+z
1/2+x,1/2-y,1/2+z
loop_
_atom_site_type_symbol
_atom_site_label
_atom_site_fract_x
_atom_site_fract_y
_atom_site_fract_z
Si Si1 0.672509 0.257300 0.053112
Si Si2 0.823907 0.942634 0.177735
Si Si3 0.596836 0.255254 0.224485
Si Si4 0.689194 0.755812 0.910777
O O1 0.498884 0.250635 0.077103
O O2 0.756111 0.500023 0.071463
O O3 0.752318 0.999747 0.064779
O O4 0.646512 0.277388 0.000000
O O5 0.739524 0.197775 0.190668
O O6 0.842064 0.799949 0.224877
O O7 0.722433 0.799706 0.141263
O O8 0.000000 0.000000 0.160651
O O9 0.500000 0.500000 0.213230
O O10 0.500000 0.000000 0.223610
#
# Coordination Sequence:
#
# PCOD9444006 Si02
#       4
#     8   8   8   8
#     4  10  20  40  66  98 134 172 224 291 347 404
#     4  11  25  46  67 101 143 183 234 289 357 405
#     4  11  26  47  71  96 137 196 243 296 341 418
#     4  10  21  36  64  97 127 173 220 281 333 419
#
# _framework density 23.374127999999999
#
# number of rings (size 3 to 8) (size 9 to 14) (size 15 to 20)
#    0.000    1.500    0.000    6.750    3.500    8.000 
#    9.000    0.000    0.000    8.250    0.000    0.000 
#    0.000    0.000    0.000    0.000    0.000    0.000 
#
# Total GULP energy -179029.946955 kJ/mol
# GULP energy per Si atom -5594.685842 kJ/mol
# Density = 2.332093 g / cm^3
# Si number density = 23.374128 Si / 1000 Ang^3
#
#
#
# Elastic Constant Matrix: (Units=GPa)
#
#
# Indices 1 2 3 4 5 6 
#
# 1 56.6992 45.2406 59.2847 0.0000 0.0000 0.0000
# 2 45.2406 239.4180 69.3953 0.0000 0.0000 0.0000
# 3 59.2847 69.3953 142.3389 0.0000 0.0000 0.0000
# 4 0.0000 0.0000 0.0000 35.1516 0.0000 0.0000
# 5 0.0000 0.0000 0.0000 0.0000 2.9745 0.0000
# 6 0.0000 0.0000 0.0000 0.0000 0.0000 13.4112
#
#
#
# Elastic Compliance Matrix: (Units=1/GPa)
#
#
# Indices 1 2 3 4 5 6 
#
# 1 0.032564 -0.002588 -0.012301 0.000000 0.000000 0.000000
# 2 -0.002588 0.005070 -0.001394 0.000000 0.000000 0.000000
# 3 -0.012301 -0.001394 0.012829 0.000000 0.000000 0.000000
# 4 0.000000 0.000000 0.000000 0.028448 0.000000 0.000000
# 5 0.000000 0.000000 0.000000 0.000000 0.336189 0.000000
# 6 0.000000 0.000000 0.000000 0.000000 0.000000 0.074564
#
#
# Mechanical properties :
#
#
# Convention : Reuss Voigt Hill
#
# Bulk Modulus (GPa) = 55.87729 87.36635 71.62182
# Shear Modulus (GPa) = 9.46619 27.94318 18.70468
#
# Velocity S-wave (km/s) = 2.01461 3.46131 2.83190
# Velocity P-wave (km/s) = 5.41932 7.30977 6.43435
#
# Compressibility (1/GPa) = 0.01789636
#
# Stress axis : x y z
#
# Youngs Moduli (GPa) = 30.70868 197.24639 77.95051
#
# Poissons Ratio (x) = 0.51043 0.95890
# Poissons Ratio (y) = 0.07947 0.10866
# Poissons Ratio (z) = 0.37776 0.27494
#
# Static dielectric constant tensor:
#      x y z
#    x 1.840530 0.000000 0.000000 
#    y 0.000000 1.950930 0.000000 
#    z 0.000000 0.000000 1.849060 
# 
# From -- ./inp_files/34372.got.cif
#   From: 2010.05.17/outbox.cif.g08.bks.cpg/sg58_18_cif.got.tgz:34372.got - 2010.06.03 14:20:14.
