data_PCOD9444777
_publ_section_title
;
Structure prediction by ZEFSAII (Michael W. Deem and Ramdas Pophale) SiO2 
 PCOD9444777
Probable space group: P N N M
;
_chemical_formula_sum "Si O2"
_cell_formula_units_Z 52
_cell_length_a 13.769729
_cell_length_b 7.357006
_cell_length_c 22.856908
_cell_angle_alpha 90.000000
_cell_angle_beta 90.000000
_cell_angle_gamma 90.000000
_cell_volume 2315.495725
_symmetry_space_group_name_H-M "P N N M"
_symmetry_group_IT_number 58
_symmetry_cell_setting 'orthorhombic'
loop_
_space_group_symop_operation_xyz
x,y,z
-x,-y,z
1/2+x,1/2-y,1/2-z
1/2-x,1/2+y,1/2-z
-x,-y,-z
x,y,-z
1/2-x,1/2+y,1/2+z
1/2+x,1/2-y,1/2+z
loop_
_atom_site_type_symbol
_atom_site_label
_atom_site_fract_x
_atom_site_fract_y
_atom_site_fract_z
Si Si1 0.500000 0.500000 0.283647
Si Si2 0.962946 0.298677 0.119479
Si Si3 0.216114 0.582636 0.669344
Si Si4 0.688069 0.524797 0.216936
Si Si5 0.660589 0.283098 0.564671
Si Si6 0.391815 0.914230 0.063773
Si Si7 0.749170 0.895610 0.593125
O O1 0.467317 0.335401 0.325422
O O2 0.588783 0.444896 0.242034
O O3 0.046313 0.246943 0.073540
O O4 0.000000 0.500000 0.138577
O O5 0.855965 0.297282 0.090832
O O6 0.242481 0.472068 0.726911
O O7 0.306199 0.618866 0.624750
O O8 0.144655 0.490386 0.624784
O O9 0.175326 0.772771 0.692668
O O10 0.731296 0.418526 0.162225
O O11 0.673089 0.362831 0.500000
O O12 0.723649 0.095141 0.567546
O O13 0.500000 0.000000 0.062495
O O14 0.343120 0.709742 0.067430
O O15 0.354600 0.977664 0.000000
#
# Coordination Sequence:
#
# PCOD9444777 Si02
#       7
#     4   8   8   8   8   8   8
#     4  12  22  40  63  94 135 174 218 282 326 408
#     4  10  22  41  65  97 137 172 221 273 340 407
#     4  11  22  43  62  93 128 165 213 271 328 402
#     4  11  24  40  66  93 130 169 216 272 341 402
#     4  10  21  40  68  98 130 169 214 270 339 409
#     4  11  25  44  65  92 129 175 229 280 330 397
#     4  10  23  43  66  96 130 173 219 274 339 405
#
# _framework density 22.457395000000002
#
# number of rings (size 3 to 8) (size 9 to 14) (size 15 to 20)
#    0.000    1.385    1.538    3.692    2.154    3.385 
#    2.769    0.385    0.000    4.615    0.000    0.000 
#    0.000    0.000    0.000    0.000    0.000    0.000 
#
# Total GULP energy -289814.051467 kJ/mol
# GULP energy per Si atom -5573.347144 kJ/mol
# Density = 2.240628 g / cm^3
# Si number density = 22.457395 Si / 1000 Ang^3
#
#
#
# Elastic Constant Matrix: (Units=GPa)
#
#
# Indices 1 2 3 4 5 6 
#
# 1 75.4539 4.7302 23.3835 0.0000 0.0000 0.0000
# 2 4.7302 39.3394 5.5537 0.0000 0.0000 0.0000
# 3 23.3835 5.5537 162.0395 0.0000 0.0000 0.0000
# 4 0.0000 0.0000 0.0000 29.3661 0.0000 0.0000
# 5 0.0000 0.0000 0.0000 0.0000 -180.0231 0.0000
# 6 0.0000 0.0000 0.0000 0.0000 0.0000 21.8791
#
#
#
# Elastic Compliance Matrix: (Units=1/GPa)
#
#
# Indices 1 2 3 4 5 6 
#
# 1 0.013950 -0.001400 -0.001965 0.000000 0.000000 0.000000
# 2 -0.001400 0.025684 -0.000678 0.000000 0.000000 0.000000
# 3 -0.001965 -0.000678 0.006478 0.000000 0.000000 0.000000
# 4 0.000000 0.000000 0.000000 0.034053 0.000000 0.000000
# 5 0.000000 0.000000 0.000000 0.000000 -0.005555 0.000000
# 6 0.000000 0.000000 0.000000 0.000000 0.000000 0.045706
#
#
# Mechanical properties :
#
#
# Convention : Reuss Voigt Hill
#
# Bulk Modulus (GPa) = 26.29825 38.24084 32.26954
# Shear Modulus (GPa) = 35.44159 -9.54454 12.94852
#
# Velocity S-wave (km/s) = 3.97693 -2.06381 2.40382
# Velocity P-wave (km/s) = 5.72919 3.37433 4.70158
#
# Compressibility (1/GPa) = 0.03802535
#
# Stress axis : x y z
#
# Youngs Moduli (GPa) = 71.68526 38.93495 154.36485
#
# Poissons Ratio (x) = 0.05451 0.30334
# Poissons Ratio (y) = 0.10035 0.10470
# Poissons Ratio (z) = 0.14087 0.02641
#
# Static dielectric constant tensor:
#      x y z
#    x 1.903300 0.000000 0.000000 
#    y 0.000000 1.938200 0.000000 
#    z 0.000000 0.000000 1.750070 
# 
# From -- ./inp_files/29961.got.cif
#   From: 2010.05.17/outbox.cif.g08.bks.cpg/sg58_15_cif.got.tgz:29961.got - 2010.06.03 14:20:14.
