data_PCOD9444122
_publ_section_title
;
Structure prediction by ZEFSAII (Michael W. Deem and Ramdas Pophale) SiO2 
 PCOD9444122
Probable space group: P N N M
;
_chemical_formula_sum "Si O2"
_cell_formula_units_Z 58
_cell_length_a 15.562881
_cell_length_b 23.058076
_cell_length_c 9.042344
_cell_angle_alpha 90.000000
_cell_angle_beta 90.000000
_cell_angle_gamma 90.000000
_cell_volume 3244.845984
_symmetry_space_group_name_H-M "P N N M"
_symmetry_group_IT_number 58
_symmetry_cell_setting 'orthorhombic'
loop_
_space_group_symop_operation_xyz
x,y,z
-x,-y,z
1/2+x,1/2-y,1/2-z
1/2-x,1/2+y,1/2-z
-x,-y,-z
x,y,-z
1/2-x,1/2+y,1/2+z
1/2+x,1/2-y,1/2+z
loop_
_atom_site_type_symbol
_atom_site_label
_atom_site_fract_x
_atom_site_fract_y
_atom_site_fract_z
Si Si1 0.254832 0.879029 0.676442
Si Si2 0.230299 0.620729 0.675145
Si Si3 0.083824 0.696794 0.173476
Si Si4 0.417322 0.336135 0.326160
Si Si5 0.097062 0.303384 0.674655
Si Si6 0.098150 0.164431 0.325388
Si Si7 0.000000 0.500000 0.000000
Si Si8 0.821907 0.492338 0.162112
O O1 0.252678 0.869245 0.500000
O O2 0.162793 0.866064 0.747284
O O3 0.325085 0.836953 0.749589
O O4 0.284749 0.944984 0.701772
O O5 0.232588 0.628265 0.500000
O O6 0.161534 0.664657 0.746984
O O7 0.322966 0.633920 0.744843
O O8 0.200353 0.556682 0.721451
O O9 0.093924 0.766235 0.186045
O O10 0.992947 0.680772 0.247489
O O11 0.082287 0.680880 0.000000
O O12 0.420054 0.350188 0.500000
O O13 0.507113 0.351005 0.248016
O O14 0.093346 0.316059 0.500000
O O15 0.108917 0.234135 0.691989
O O16 0.097604 0.151850 0.500000
O O17 0.076860 0.502489 0.126613
O O18 0.783826 0.474978 0.000000
#
# Coordination Sequence:
#
# PCOD9444122 Si02
#       8
#     8   8   8   8   8   8   2   8
#     4  11  22  36  58  86 115 154 194 235 288 351
#     4  12  24  37  58  87 118 150 196 245 291 340
#     4  10  21  36  57  83 116 157 194 232 290 353
#     4  10  21  38  59  85 117 153 192 242 292 339
#     4  10  21  35  56  88 120 150 192 239 293 344
#     4  10  21  39  60  84 116 156 193 238 290 349
#     4   8  20  44  66  80 114 152 206 232 280 346
#     4   9  22  40  62  82 111 152 195 233 282 343
#
# _framework density 17.874500000000001
#
# number of rings (size 3 to 8) (size 9 to 14) (size 15 to 20)
#    0.414    1.379    0.000    4.138    1.931    7.724 
#    0.000    1.034    0.000    4.138    0.000    0.000 
#    0.000    0.000    0.000    0.000    0.000    0.000 
#
# Total GULP energy -323383.290416 kJ/mol
# GULP energy per Si atom -5575.573973 kJ/mol
# Density = 1.783382 g / cm^3
# Si number density = 17.874500 Si / 1000 Ang^3
#
#
#
# Elastic Constant Matrix: (Units=GPa)
#
#
# Indices 1 2 3 4 5 6 
#
# 1 200.6406 74.6719 107.4515 0.0000 0.0000 0.0000
# 2 74.6719 44.4539 66.9558 0.0000 0.0000 0.0000
# 3 107.4515 66.9558 151.2370 0.0000 0.0000 0.0000
# 4 0.0000 0.0000 0.0000 23.7144 0.0000 0.0000
# 5 0.0000 0.0000 0.0000 0.0000 38.6274 0.0000
# 6 0.0000 0.0000 0.0000 0.0000 0.0000 -167.4889
#
#
#
# Elastic Compliance Matrix: (Units=1/GPa)
#
#
# Indices 1 2 3 4 5 6 
#
# 1 0.013385 -0.024491 0.001333 0.000000 0.000000 0.000000
# 2 -0.024491 0.112330 -0.032330 0.000000 0.000000 0.000000
# 3 0.001333 -0.032330 0.019978 0.000000 0.000000 0.000000
# 4 0.000000 0.000000 0.000000 0.042169 0.000000 0.000000
# 5 0.000000 0.000000 0.000000 0.000000 0.025888 0.000000
# 6 0.000000 0.000000 0.000000 0.000000 0.000000 -0.005971
#
#
# Mechanical properties :
#
#
# Convention : Reuss Voigt Hill
#
# Bulk Modulus (GPa) = 28.80493 99.38776 64.09634
# Shear Modulus (GPa) = 15.13643 -11.21261 1.96191
#
# Velocity S-wave (km/s) = 2.91317 -2.50731 1.04880
# Velocity P-wave (km/s) = 5.24075 6.88053 6.11585
#
# Compressibility (1/GPa) = 0.03471628
#
# Stress axis : x y z
#
# Youngs Moduli (GPa) = 74.70991 8.90234 50.05443
#
# Poissons Ratio (x) = 0.21803 -0.06672
# Poissons Ratio (y) = 1.82976 1.61826
# Poissons Ratio (z) = -0.09959 0.28781
#
# Static dielectric constant tensor:
#      x y z
#    x 1.577580 0.000000 0.000000 
#    y 0.000000 1.603590 0.000000 
#    z 0.000000 0.000000 1.599570 
# 
# From -- ./inp_files/6697.got.cif
#   From: 2010.05.17/outbox.cif.g08.bks.cpg/sg58_4_cif.got.tgz:6697.got - 2010.06.03 14:20:14.
