data_PCOD9444786
_publ_section_title
;
Structure prediction by ZEFSAII (Michael W. Deem and Ramdas Pophale) SiO2 
 PCOD9444786
Probable space group: P N N M
;
_chemical_formula_sum "Si O2"
_cell_formula_units_Z 58
_cell_length_a 9.017821
_cell_length_b 11.981823
_cell_length_c 27.356144
_cell_angle_alpha 90.000000
_cell_angle_beta 90.000000
_cell_angle_gamma 90.000000
_cell_volume 2955.829583
_symmetry_space_group_name_H-M "P N N M"
_symmetry_group_IT_number 58
_symmetry_cell_setting 'orthorhombic'
loop_
_space_group_symop_operation_xyz
x,y,z
-x,-y,z
1/2+x,1/2-y,1/2-z
1/2-x,1/2+y,1/2-z
-x,-y,-z
x,y,-z
1/2-x,1/2+y,1/2+z
1/2+x,1/2-y,1/2+z
loop_
_atom_site_type_symbol
_atom_site_label
_atom_site_fract_x
_atom_site_fract_y
_atom_site_fract_z
Si Si1 0.635063 0.086335 0.943876
Si Si2 0.051282 0.773373 0.222072
Si Si3 0.500000 0.000000 0.500000
Si Si4 0.662379 0.546711 0.350952
Si Si5 0.568329 0.342221 0.944678
Si Si6 0.220169 0.091844 0.757482
Si Si7 0.761783 0.044863 0.578666
Si Si8 0.859011 0.576794 0.180332
O O1 0.748101 0.059633 0.900625
O O2 0.577728 0.211898 0.934915
O O3 0.500000 0.000000 0.941669
O O4 0.695064 0.082361 0.000000
O O5 0.138083 0.838343 0.179150
O O6 0.165709 0.694460 0.250541
O O7 0.948701 0.864595 0.249529
O O8 0.928025 0.689244 0.201176
O O9 0.378009 0.962570 0.542861
O O10 0.500000 0.500000 0.362472
O O11 0.731965 0.461016 0.311563
O O12 0.401879 0.388017 0.942538
O O13 0.675084 0.419330 0.912390
O O14 0.625129 0.360840 0.000000
O O15 0.266087 0.994486 0.719682
O O16 0.725912 0.098024 0.630580
O O17 0.000000 0.500000 0.167411
#
# Coordination Sequence:
#
# PCOD9444786 Si02
#       8
#     8   8   2   8   8   8   8   8
#     4  10  24  44  67  94 125 171 218 267 319 381
#     4  10  22  42  63  87 131 164 207 267 316 383
#     4  12  20  34  72  88 130 166 206 260 316 388
#     4  10  23  43  67  93 127 168 218 265 321 387
#     4  10  21  41  62  87 133 164 206 258 319 391
#     4  10  22  42  62  92 126 169 211 264 319 386
#     4  11  21  39  60  99 125 165 210 263 323 391
#     4  10  22  37  58  91 127 157 212 263 311 379
#
# _framework density 19.622240999999999
#
# number of rings (size 3 to 8) (size 9 to 14) (size 15 to 20)
#    0.000    1.793    2.069    1.241    3.862    5.241 
#   12.414    0.000    0.000    0.000    0.000    0.000 
#    0.000    0.000    0.000    0.000    0.000    0.000 
#
# Total GULP energy -323204.428882 kJ/mol
# GULP energy per Si atom -5572.490153 kJ/mol
# Density = 1.957758 g / cm^3
# Si number density = 19.622241 Si / 1000 Ang^3
#
#
#
# Elastic Constant Matrix: (Units=GPa)
#
#
# Indices 1 2 3 4 5 6 
#
# 1 82.8136 38.1705 71.8347 0.0000 0.0000 0.0000
# 2 38.1705 107.0510 51.4575 0.0000 0.0000 0.0000
# 3 71.8347 51.4575 116.7618 0.0000 0.0000 0.0000
# 4 0.0000 0.0000 0.0000 5.5655 0.0000 0.0000
# 5 0.0000 0.0000 0.0000 0.0000 30.5029 0.0000
# 6 0.0000 0.0000 0.0000 0.0000 0.0000 17.8296
#
#
#
# Elastic Compliance Matrix: (Units=1/GPa)
#
#
# Indices 1 2 3 4 5 6 
#
# 1 0.026235 -0.002025 -0.015248 0.000000 0.000000 0.000000
# 2 -0.002025 0.012008 -0.004046 0.000000 0.000000 0.000000
# 3 -0.015248 -0.004046 0.019729 0.000000 0.000000 0.000000
# 4 0.000000 0.000000 0.000000 0.179680 0.000000 0.000000
# 5 0.000000 0.000000 0.000000 0.000000 0.032784 0.000000
# 6 0.000000 0.000000 0.000000 0.000000 0.000000 0.056086
#
#
# Mechanical properties :
#
#
# Convention : Reuss Voigt Hill
#
# Bulk Modulus (GPa) = 65.21705 69.95021 67.58363
# Shear Modulus (GPa) = 13.35924 20.45718 16.90821
#
# Velocity S-wave (km/s) = 2.61209 3.23236 2.93863
# Velocity P-wave (km/s) = 6.51197 7.04675 6.78463
#
# Compressibility (1/GPa) = 0.01533341
#
# Stress axis : x y z
#
# Youngs Moduli (GPa) = 38.11646 83.27518 50.68752
#
# Poissons Ratio (x) = 0.16864 0.77289
# Poissons Ratio (y) = 0.07719 0.20510
# Poissons Ratio (z) = 0.58121 0.33696
#
# Static dielectric constant tensor:
#      x y z
#    x 1.681450 0.000000 0.000000 
#    y 0.000000 2.472330 0.000000 
#    z 0.000000 0.000000 1.677330 
# 
# From -- ./inp_files/33337.got.cif
#   From: 2010.05.17/outbox.cif.g08.bks.cpg/sg58_17_cif.got.tgz:33337.got - 2010.06.03 14:20:14.
