data_PCOD9444868
_publ_section_title
;
Structure prediction by ZEFSAII (Michael W. Deem and Ramdas Pophale) SiO2 
 PCOD9444868
Probable space group: P N N M
;
_chemical_formula_sum "Si O2"
_cell_formula_units_Z 34
_cell_length_a 8.047619
_cell_length_b 19.235085
_cell_length_c 10.233965
_cell_angle_alpha 90.000000
_cell_angle_beta 90.000000
_cell_angle_gamma 90.000000
_cell_volume 1584.183350
_symmetry_space_group_name_H-M "P N N M"
_symmetry_group_IT_number 58
_symmetry_cell_setting 'orthorhombic'
loop_
_space_group_symop_operation_xyz
x,y,z
-x,-y,z
1/2+x,1/2-y,1/2-z
1/2-x,1/2+y,1/2-z
-x,-y,-z
x,y,-z
1/2-x,1/2+y,1/2+z
1/2+x,1/2-y,1/2+z
loop_
_atom_site_type_symbol
_atom_site_label
_atom_site_fract_x
_atom_site_fract_y
_atom_site_fract_z
Si Si1 0.897794 0.836708 0.352771
Si Si2 0.269564 0.526841 0.751650
Si Si3 0.500000 0.500000 0.500000
Si Si4 0.242845 0.266358 0.149636
Si Si5 0.444368 0.906005 0.652471
O O1 0.840532 0.822527 0.500000
O O2 0.887964 0.918859 0.327029
O O3 0.786344 0.795438 0.249417
O O4 0.080967 0.804805 0.337589
O O5 0.357140 0.511575 0.615138
O O6 0.213715 0.455614 0.821124
O O7 0.093193 0.568562 0.755090
O O8 0.108001 0.326898 0.173287
O O9 0.226200 0.241603 0.000000
O O10 0.494206 0.914792 0.500000
#
# Coordination Sequence:
#
# PCOD9444868 Si02
#       5
#     8   8   2   8   8
#     4  11  23  42  67  98 131 182 230 280 339 411
#     4  11  23  42  66  94 134 173 227 277 336 405
#     4  12  28  42  58 100 136 186 214 264 352 406
#     4  10  23  41  65  98 136 173 225 280 345 406
#     4  10  21  43  72 101 126 173 229 295 344 400
#
# _framework density 21.462164000000001
#
# number of rings (size 3 to 8) (size 9 to 14) (size 15 to 20)
#    0.000    1.412    0.000    5.647    1.647    4.706 
#    8.471    7.647    0.000    0.000    0.000    0.000 
#    0.000    0.000    0.000    0.000    0.000    0.000 
#
# Total GULP energy -189426.257482 kJ/mol
# GULP energy per Si atom -5571.360514 kJ/mol
# Density = 2.141331 g / cm^3
# Si number density = 21.462164 Si / 1000 Ang^3
#
#
#
# Elastic Constant Matrix: (Units=GPa)
#
#
# Indices 1 2 3 4 5 6 
#
# 1 115.4120 25.7068 71.2016 0.0000 0.0000 0.0000
# 2 25.7068 68.6417 40.1580 0.0000 0.0000 0.0000
# 3 71.2016 40.1580 119.5243 0.0000 0.0000 0.0000
# 4 0.0000 0.0000 0.0000 7.9493 0.0000 0.0000
# 5 0.0000 0.0000 0.0000 0.0000 -120.6842 0.0000
# 6 0.0000 0.0000 0.0000 0.0000 0.0000 38.0127
#
#
#
# Elastic Compliance Matrix: (Units=1/GPa)
#
#
# Indices 1 2 3 4 5 6 
#
# 1 0.013710 -0.000444 -0.008018 0.000000 0.000000 0.000000
# 2 -0.000444 0.018147 -0.005833 0.000000 0.000000 0.000000
# 3 -0.008018 -0.005833 0.015103 0.000000 0.000000 0.000000
# 4 0.000000 0.000000 0.000000 0.125797 0.000000 0.000000
# 5 0.000000 0.000000 0.000000 0.000000 -0.008286 0.000000
# 6 0.000000 0.000000 0.000000 0.000000 0.000000 0.026307
#
#
# Mechanical properties :
#
#
# Convention : Reuss Voigt Hill
#
# Bulk Modulus (GPa) = 54.43476 64.19010 59.31243
# Shear Modulus (GPa) = 22.17388 -3.84367 9.16510
#
# Velocity S-wave (km/s) = 3.21777 -1.33970 2.06873
# Velocity P-wave (km/s) = 6.26287 5.25170 5.77944
#
# Compressibility (1/GPa) = 0.01837062
#
# Stress axis : x y z
#
# Youngs Moduli (GPa) = 72.93886 55.10569 66.21321
#
# Poissons Ratio (x) = 0.02444 0.53091
# Poissons Ratio (y) = 0.03235 0.38621
# Poissons Ratio (z) = 0.58484 0.32142
#
# Static dielectric constant tensor:
#      x y z
#    x 1.848360 0.000000 0.000000 
#    y 0.000000 1.771690 0.000000 
#    z 0.000000 0.000000 1.713730 
# 
# From -- ./inp_files/2251.got.cif
#   From: 2010.05.17/outbox.cif.g08.bks.cpg/sg58_2_cif.got.tgz:2251.got - 2010.06.03 14:20:14.
