data_PCOD9444290
_publ_section_title
;
Structure prediction by ZEFSAII (Michael W. Deem and Ramdas Pophale) SiO2 
 PCOD9444290
Probable space group: P N N M
;
_chemical_formula_sum "Si O2"
_cell_formula_units_Z 48
_cell_length_a 29.075563
_cell_length_b 8.112562
_cell_length_c 7.741502
_cell_angle_alpha 90.000000
_cell_angle_beta 90.000000
_cell_angle_gamma 90.000000
_cell_volume 1826.044648
_symmetry_space_group_name_H-M "P N N M"
_symmetry_group_IT_number 58
_symmetry_cell_setting 'orthorhombic'
loop_
_space_group_symop_operation_xyz
x,y,z
-x,-y,z
1/2+x,1/2-y,1/2-z
1/2-x,1/2+y,1/2-z
-x,-y,-z
x,y,-z
1/2-x,1/2+y,1/2+z
1/2+x,1/2-y,1/2+z
loop_
_atom_site_type_symbol
_atom_site_label
_atom_site_fract_x
_atom_site_fract_y
_atom_site_fract_z
Si Si1 0.262225 0.554982 0.707837
Si Si2 0.516615 0.738056 0.707980
Si Si3 0.599829 0.536689 0.194577
Si Si4 0.657039 0.232573 0.697247
Si Si5 0.821035 0.257374 0.794710
Si Si6 0.930274 0.572240 0.788420
O O1 0.265433 0.557009 0.500000
O O2 0.295950 0.699925 0.778599
O O3 0.209373 0.582253 0.755372
O O4 0.286456 0.387989 0.767673
O O5 0.515048 0.728935 0.500000
O O6 0.547500 0.585963 0.766983
O O7 0.465163 0.782214 0.767231
O O8 0.545546 0.901818 0.757744
O O9 0.624705 0.398346 0.308683
O O10 0.630526 0.702877 0.217437
O O11 0.604517 0.478394 0.000000
O O12 0.666914 0.183149 0.500000
O O13 0.621279 0.102322 0.775699
O O14 0.827330 0.251022 0.000000
O O15 0.928272 0.574087 0.000000
#
# Coordination Sequence:
#
# PCOD9444290 Si02
#       6
#     8   8   8   8   8   8
#     4   9  19  34  52  77 106 133 169 216 259 303
#     4   9  17  33  55  79 105 135 173 214 257 305
#     4  11  22  35  51  75 106 138 173 214 258 303
#     4   9  18  35  55  76 103 136 173 212 255 303
#     4  10  21  37  56  77 103 137 174 210 253 307
#     4   8  16  32  56  80 102 133 175 216 252 303
#
# _framework density 26.28632
#
# number of rings (size 3 to 8) (size 9 to 14) (size 15 to 20)
#    0.000    2.667    0.000    4.000    0.000    5.333 
#    0.000    8.333    0.000    0.000    0.000    0.000 
#    0.000    0.000    0.000    0.000    0.000    0.000 
#
# Total GULP energy -268410.196008 kJ/mol
# GULP energy per Si atom -5591.879084 kJ/mol
# Density = 2.622649 g / cm^3
# Si number density = 26.286320 Si / 1000 Ang^3
#
#
#
# Elastic Constant Matrix: (Units=GPa)
#
#
# Indices 1 2 3 4 5 6 
#
# 1 175.4375 10.7002 -2.6556 0.0000 0.0000 0.0000
# 2 10.7002 65.1699 -6.0205 0.0000 0.0000 0.0000
# 3 -2.6556 -6.0205 66.2728 0.0000 0.0000 0.0000
# 4 0.0000 0.0000 0.0000 12.3143 0.0000 0.0000
# 5 0.0000 0.0000 0.0000 0.0000 5.6077 0.0000
# 6 0.0000 0.0000 0.0000 0.0000 0.0000 57.4627
#
#
#
# Elastic Compliance Matrix: (Units=1/GPa)
#
#
# Indices 1 2 3 4 5 6 
#
# 1 0.005759 -0.000932 0.000146 0.000000 0.000000 0.000000
# 2 -0.000932 0.015625 0.001382 0.000000 0.000000 0.000000
# 3 0.000146 0.001382 0.015221 0.000000 0.000000 0.000000
# 4 0.000000 0.000000 0.000000 0.081206 0.000000 0.000000
# 5 0.000000 0.000000 0.000000 0.000000 0.178328 0.000000
# 6 0.000000 0.000000 0.000000 0.000000 0.000000 0.017403
#
#
# Mechanical properties :
#
#
# Convention : Reuss Voigt Hill
#
# Bulk Modulus (GPa) = 26.45705 34.54760 30.50232
# Shear Modulus (GPa) = 15.38706 35.40067 25.39387
#
# Velocity S-wave (km/s) = 2.42205 3.67377 3.11150
# Velocity P-wave (km/s) = 4.23185 5.58272 4.95355
#
# Compressibility (1/GPa) = 0.03779711
#
# Stress axis : x y z
#
# Youngs Moduli (GPa) = 173.63831 63.99910 65.70063
#
# Poissons Ratio (x) = 0.05965 -0.00960
# Poissons Ratio (y) = 0.16185 -0.09081
# Poissons Ratio (z) = -0.02537 -0.08845
#
# Static dielectric constant tensor:
#      x y z
#    x 2.046800 0.000000 0.000000 
#    y 0.000000 2.194380 0.000000 
#    z 0.000000 0.000000 1.949140 
# 
# From -- ./inp_files/2923.got.cif
#   From: 2010.05.17/outbox.cif.g08.bks.cpg/sg58_2_cif.got.tgz:2923.got - 2010.06.03 14:20:14.
