data_PCOD9444791
_publ_section_title
;
Structure prediction by ZEFSAII (Michael W. Deem and Ramdas Pophale) SiO2 
 PCOD9444791
Probable space group: P N N M
;
_chemical_formula_sum "Si O2"
_cell_formula_units_Z 48
_cell_length_a 11.076663
_cell_length_b 8.079057
_cell_length_c 25.777026
_cell_angle_alpha 90.000000
_cell_angle_beta 90.000000
_cell_angle_gamma 90.000000
_cell_volume 2306.760067
_symmetry_space_group_name_H-M "P N N M"
_symmetry_group_IT_number 58
_symmetry_cell_setting 'orthorhombic'
loop_
_space_group_symop_operation_xyz
x,y,z
-x,-y,z
1/2+x,1/2-y,1/2-z
1/2-x,1/2+y,1/2-z
-x,-y,-z
x,y,-z
1/2-x,1/2+y,1/2+z
1/2+x,1/2-y,1/2+z
loop_
_atom_site_type_symbol
_atom_site_label
_atom_site_fract_x
_atom_site_fract_y
_atom_site_fract_z
Si Si1 0.668587 0.692537 0.089581
Si Si2 0.668461 0.183642 0.686888
Si Si3 0.711136 0.533289 0.441863
Si Si4 0.936725 0.153776 0.843986
Si Si5 0.617279 0.322786 0.904642
Si Si6 0.723397 0.334528 0.206167
O O1 0.721371 0.719963 0.147561
O O2 0.524055 0.700021 0.084109
O O3 0.683109 0.494688 0.076580
O O4 0.736817 0.845079 0.061628
O O5 0.542230 0.208637 0.656257
O O6 0.670285 0.292679 0.738482
O O7 0.697307 0.000020 0.705711
O O8 0.666345 0.560169 0.500000
O O9 0.612509 0.586245 0.398966
O O10 0.816814 0.664253 0.428402
O O11 0.821149 0.199916 0.811108
O O12 0.000000 0.000000 0.817823
O O13 0.630740 0.335628 0.842027
#
# Coordination Sequence:
#
# PCOD9444791 Si02
#       6
#     8   8   8   8   8   8
#     4  10  21  41  63  93 130 166 212 272 334 391
#     4  11  22  39  61  93 131 172 214 265 320 399
#     4  11  24  43  68  93 124 172 224 279 334 383
#     4  11  22  42  62  90 131 168 217 271 316 394
#     4   9  22  41  63  92 134 166 210 277 326 403
#     4  10  23  38  63  93 128 174 214 257 329 390
#
# _framework density 20.808405
#
# number of rings (size 3 to 8) (size 9 to 14) (size 15 to 20)
#    0.000    1.667    1.667    2.000    4.667    2.333 
#    0.000    1.667    0.000    4.000    0.000    0.000 
#    0.000    0.000    0.000    0.000    0.000    0.000 
#
# Total GULP energy -267359.796364 kJ/mol
# GULP energy per Si atom -5569.995758 kJ/mol
# Density = 2.076104 g / cm^3
# Si number density = 20.808405 Si / 1000 Ang^3
#
#
#
# Elastic Constant Matrix: (Units=GPa)
#
#
# Indices 1 2 3 4 5 6 
#
# 1 68.4747 9.1493 38.3160 0.0000 0.0000 0.0000
# 2 9.1493 79.4764 57.4359 0.0000 0.0000 0.0000
# 3 38.3160 57.4359 93.1540 0.0000 0.0000 0.0000
# 4 0.0000 0.0000 0.0000 29.9484 0.0000 0.0000
# 5 0.0000 0.0000 0.0000 0.0000 41.3817 0.0000
# 6 0.0000 0.0000 0.0000 0.0000 0.0000 35.0965
#
#
#
# Elastic Compliance Matrix: (Units=1/GPa)
#
#
# Indices 1 2 3 4 5 6 
#
# 1 0.020851 0.006850 -0.012800 0.000000 0.000000 0.000000
# 2 0.006850 0.024945 -0.018198 0.000000 0.000000 0.000000
# 3 -0.012800 -0.018198 0.027220 0.000000 0.000000 0.000000
# 4 0.000000 0.000000 0.000000 0.033391 0.000000 0.000000
# 5 0.000000 0.000000 0.000000 0.000000 0.024165 0.000000
# 6 0.000000 0.000000 0.000000 0.000000 0.000000 0.028493
#
#
# Mechanical properties :
#
#
# Convention : Reuss Voigt Hill
#
# Bulk Modulus (GPa) = 40.45257 50.10083 45.27670
# Shear Modulus (GPa) = 23.19112 30.36560 26.77836
#
# Velocity S-wave (km/s) = 3.34205 3.82422 3.59123
# Velocity P-wave (km/s) = 5.86302 6.60522 6.24516
#
# Compressibility (1/GPa) = 0.02472031
#
# Stress axis : x y z
#
# Youngs Moduli (GPa) = 47.95945 40.08844 36.73800
#
# Poissons Ratio (x) = -0.27459 0.47024
# Poissons Ratio (y) = -0.32851 0.66854
# Poissons Ratio (z) = 0.61387 0.72951
#
# Static dielectric constant tensor:
#      x y z
#    x 1.761910 0.000000 0.000000 
#    y 0.000000 1.843290 0.000000 
#    z 0.000000 0.000000 1.733080 
# 
# From -- ./inp_files/31909.got.cif
#   From: 2010.05.17/outbox.cif.g08.bks.cpg/sg58_16_cif.got.tgz:31909.got - 2010.06.03 14:20:14.
