data_PCOD9444226
_publ_section_title
;
Structure prediction by ZEFSAII (Michael W. Deem and Ramdas Pophale) SiO2 
 PCOD9444226
Probable space group: P N N M
;
_chemical_formula_sum "Si O2"
_cell_formula_units_Z 48
_cell_length_a 8.196220
_cell_length_b 19.338613
_cell_length_c 13.818231
_cell_angle_alpha 90.000000
_cell_angle_beta 90.000000
_cell_angle_gamma 90.000000
_cell_volume 2190.238345
_symmetry_space_group_name_H-M "P N N M"
_symmetry_group_IT_number 58
_symmetry_cell_setting 'orthorhombic'
loop_
_space_group_symop_operation_xyz
x,y,z
-x,-y,z
1/2+x,1/2-y,1/2-z
1/2-x,1/2+y,1/2-z
-x,-y,-z
x,y,-z
1/2-x,1/2+y,1/2+z
1/2+x,1/2-y,1/2+z
loop_
_atom_site_type_symbol
_atom_site_label
_atom_site_fract_x
_atom_site_fract_y
_atom_site_fract_z
Si Si1 0.703846 0.137868 0.617293
Si Si2 0.677733 0.489385 0.176271
Si Si3 0.550155 0.114903 0.111989
Si Si4 0.164897 0.651104 0.885828
Si Si5 0.239675 0.013688 0.113007
Si Si6 0.985948 0.770144 0.381254
O O1 0.709469 0.133290 0.500000
O O2 0.730859 0.061464 0.659417
O O3 0.521978 0.162410 0.644719
O O4 0.853022 0.187256 0.649428
O O5 0.500000 0.500000 0.129637
O O6 0.784093 0.428150 0.131780
O O7 0.646772 0.467728 0.288729
O O8 0.394024 0.065143 0.118674
O O9 0.515632 0.190598 0.151792
O O10 0.701223 0.064730 0.134245
O O11 0.577405 0.129545 0.000000
O O12 0.316785 0.695423 0.846052
O O13 0.164431 0.665017 0.000000
O O14 0.181451 0.018046 0.000000
O O15 0.989533 0.773458 0.500000
#
# Coordination Sequence:
#
# PCOD9444226 Si02
#       6
#     8   8   8   8   8   8
#     4  10  21  36  58  90 125 159 189 229 289 354
#     4  12  23  36  59  84 120 157 199 242 292 337
#     4   8  16  35  63  86 108 150 198 248 299 339
#     4  10  21  36  58  90 125 159 189 229 289 354
#     4   9  20  38  60  84 109 149 207 250 291 340
#     4   9  17  35  61  89 121 150 190 239 290 355
#
# _framework density 21.915424000000002
#
# number of rings (size 3 to 8) (size 9 to 14) (size 15 to 20)
#    0.000    2.333    1.667    2.000    4.667    2.333 
#    0.000    3.333    0.000    6.000    0.000    0.000 
#    0.000    0.000    0.000    0.000    0.000    0.000 
#
# Total GULP energy -267402.745596 kJ/mol
# GULP energy per Si atom -5570.890533 kJ/mol
# Density = 2.186554 g / cm^3
# Si number density = 21.915424 Si / 1000 Ang^3
#
#
#
# Elastic Constant Matrix: (Units=GPa)
#
#
# Indices 1 2 3 4 5 6 
#
# 1 126.1747 37.6992 15.1977 0.0000 0.0000 0.0000
# 2 37.6992 135.8894 -2.3167 0.0000 0.0000 0.0000
# 3 15.1977 -2.3167 53.0461 0.0000 0.0000 0.0000
# 4 0.0000 0.0000 0.0000 332.8053 0.0000 0.0000
# 5 0.0000 0.0000 0.0000 0.0000 -9.2900 0.0000
# 6 0.0000 0.0000 0.0000 0.0000 0.0000 -27.2298
#
#
#
# Elastic Compliance Matrix: (Units=1/GPa)
#
#
# Indices 1 2 3 4 5 6 
#
# 1 0.009010 -0.002546 -0.002693 0.000000 0.000000 0.000000
# 2 -0.002546 0.008084 0.001082 0.000000 0.000000 0.000000
# 3 -0.002693 0.001082 0.019670 0.000000 0.000000 0.000000
# 4 0.000000 0.000000 0.000000 0.003005 0.000000 0.000000
# 5 0.000000 0.000000 0.000000 0.000000 -0.107642 0.000000
# 6 0.000000 0.000000 0.000000 0.000000 0.000000 -0.036724
#
#
# Mechanical properties :
#
#
# Convention : Reuss Voigt Hill
#
# Bulk Modulus (GPa) = 35.14643 46.25232 40.69938
# Shear Modulus (GPa) = -57.60276 76.89240 9.64482
#
# Velocity S-wave (km/s) = -5.13237 5.92977 2.10011
# Velocity P-wave (km/s) = 4.36457 8.24825 4.94895
#
# Compressibility (1/GPa) = 0.02845239
#
# Stress axis : x y z
#
# Youngs Moduli (GPa) = 110.98218 123.70724 50.83820
#
# Poissons Ratio (x) = 0.31491 0.13689
# Poissons Ratio (y) = 0.28252 -0.05503
# Poissons Ratio (z) = 0.29884 -0.13390
#
# Static dielectric constant tensor:
#      x y z
#    x 2.080620 0.000000 0.000000 
#    y 0.000000 1.831350 0.000000 
#    z 0.000000 0.000000 1.827600 
# 
# From -- ./inp_files/19812.got.cif
#   From: 2010.05.17/outbox.cif.g08.bks.cpg/sg58_10_cif.got.tgz:19812.got - 2010.06.03 14:20:14.
