data_PCOD9444553
_publ_section_title
;
Structure prediction by ZEFSAII (Michael W. Deem and Ramdas Pophale) SiO2 
 PCOD9444553
Probable space group: P N N M
;
_chemical_formula_sum "Si O2"
_cell_formula_units_Z 48
_cell_length_a 8.643393
_cell_length_b 18.753920
_cell_length_c 15.590108
_cell_angle_alpha 90.000000
_cell_angle_beta 90.000000
_cell_angle_gamma 90.000000
_cell_volume 2527.117545
_symmetry_space_group_name_H-M "P N N M"
_symmetry_group_IT_number 58
_symmetry_cell_setting 'orthorhombic'
loop_
_space_group_symop_operation_xyz
x,y,z
-x,-y,z
1/2+x,1/2-y,1/2-z
1/2-x,1/2+y,1/2-z
-x,-y,-z
x,y,-z
1/2-x,1/2+y,1/2+z
1/2+x,1/2-y,1/2+z
loop_
_atom_site_type_symbol
_atom_site_label
_atom_site_fract_x
_atom_site_fract_y
_atom_site_fract_z
Si Si1 0.138620 0.579794 0.179645
Si Si2 0.419041 0.393494 0.000000
Si Si3 0.322874 0.681810 0.283660
Si Si4 0.632737 0.682602 0.182342
Si Si5 0.765025 0.460631 0.000000
Si Si6 0.691942 0.053712 0.765691
Si Si7 0.833761 0.961667 0.899232
O O1 0.213687 0.652981 0.207167
O O2 0.248006 0.514047 0.209506
O O3 0.980012 0.571599 0.232343
O O4 0.133288 0.565131 0.080121
O O5 0.399687 0.349735 0.911625
O O6 0.595624 0.422901 0.000000
O O7 0.289042 0.456609 0.000000
O O8 0.480005 0.702326 0.235703
O O9 0.244578 0.749874 0.326237
O O10 0.333571 0.614041 0.348668
O O11 0.709402 0.621774 0.241837
O O12 0.712310 0.019112 0.859273
O O13 0.807216 0.950118 0.000000
O O14 0.000000 0.000000 0.887444
#
# Coordination Sequence:
#
# PCOD9444553 Si02
#       7
#     8   4   8   8   4   8   8
#     4  10  21  38  62  96 127 169 214 267 330 391
#     4  11  24  37  70 101 131 166 223 271 338 396
#     4  11  24  40  67  89 134 175 219 268 337 404
#     4  12  23  42  63  94 131 177 210 270 339 406
#     4  11  20  38  69 102 130 165 220 279 324 406
#     4  10  21  38  63  93 131 167 213 269 331 389
#     4  10  21  41  71  97 122 172 236 283 319 384
#
# _framework density 18.993971999999999
#
# number of rings (size 3 to 8) (size 9 to 14) (size 15 to 20)
#    0.000    1.333    5.000    1.000    1.167    2.000 
#    0.000    6.667   11.000    0.000    0.000    0.000 
#    0.000    0.000    0.000    0.000    0.000    0.000 
#
# Total GULP energy -267516.175397 kJ/mol
# GULP energy per Si atom -5573.253654 kJ/mol
# Density = 1.895074 g / cm^3
# Si number density = 18.993972 Si / 1000 Ang^3
#
#
#
# Elastic Constant Matrix: (Units=GPa)
#
#
# Indices 1 2 3 4 5 6 
#
# 1 91.9331 35.5659 43.9607 0.0000 0.0000 0.0000
# 2 35.5659 104.2894 49.7213 0.0000 0.0000 0.0000
# 3 43.9607 49.7213 136.5829 0.0000 0.0000 0.0000
# 4 0.0000 0.0000 0.0000 21.0594 0.0000 0.0000
# 5 0.0000 0.0000 0.0000 0.0000 19.5110 0.0000
# 6 0.0000 0.0000 0.0000 0.0000 0.0000 29.3509
#
#
#
# Elastic Compliance Matrix: (Units=1/GPa)
#
#
# Indices 1 2 3 4 5 6 
#
# 1 0.013634 -0.003095 -0.003262 0.000000 0.000000 0.000000
# 2 -0.003095 0.012305 -0.003483 0.000000 0.000000 0.000000
# 3 -0.003262 -0.003483 0.009639 0.000000 0.000000 0.000000
# 4 0.000000 0.000000 0.000000 0.047485 0.000000 0.000000
# 5 0.000000 0.000000 0.000000 0.000000 0.051253 0.000000
# 6 0.000000 0.000000 0.000000 0.000000 0.000000 0.034071
#
#
# Mechanical properties :
#
#
# Convention : Reuss Voigt Hill
#
# Bulk Modulus (GPa) = 62.89680 65.70014 64.29847
# Shear Modulus (GPa) = 25.85761 27.55474 26.70618
#
# Velocity S-wave (km/s) = 3.69366 3.81295 3.75378
# Velocity P-wave (km/s) = 7.16776 7.35186 7.26040
#
# Compressibility (1/GPa) = 0.01589906
#
# Stress axis : x y z
#
# Youngs Moduli (GPa) = 73.34366 81.26901 103.73992
#
# Poissons Ratio (x) = 0.25150 0.33838
# Poissons Ratio (y) = 0.22697 0.36136
# Poissons Ratio (z) = 0.23923 0.28309
#
# Static dielectric constant tensor:
#      x y z
#    x 1.711360 0.000000 0.000000 
#    y 0.000000 1.665480 0.000000 
#    z 0.000000 0.000000 1.697620 
# 
# From -- ./inp_files/19871.got.cif
#   From: 2010.05.17/outbox.cif.g08.bks.cpg/sg58_10_cif.got.tgz:19871.got - 2010.06.03 14:20:14.
