data_PCOD9444227
_publ_section_title
;
Structure prediction by ZEFSAII (Michael W. Deem and Ramdas Pophale) SiO2 
 PCOD9444227
Probable space group: P N N M
;
_chemical_formula_sum "Si O2"
_cell_formula_units_Z 64
_cell_length_a 9.136000
_cell_length_b 14.914122
_cell_length_c 22.324483
_cell_angle_alpha 90.000000
_cell_angle_beta 90.000000
_cell_angle_gamma 90.000000
_cell_volume 3041.831776
_symmetry_space_group_name_H-M "P N N M"
_symmetry_group_IT_number 58
_symmetry_cell_setting 'orthorhombic'
loop_
_space_group_symop_operation_xyz
x,y,z
-x,-y,z
1/2+x,1/2-y,1/2-z
1/2-x,1/2+y,1/2-z
-x,-y,-z
x,y,-z
1/2-x,1/2+y,1/2+z
1/2+x,1/2-y,1/2+z
loop_
_atom_site_type_symbol
_atom_site_label
_atom_site_fract_x
_atom_site_fract_y
_atom_site_fract_z
Si Si1 0.134953 0.069001 0.566501
Si Si2 0.287054 0.722196 0.771489
Si Si3 0.827602 0.490899 0.569946
Si Si4 0.156922 0.547494 0.177525
Si Si5 0.803773 0.820215 0.863204
Si Si6 0.350598 0.413685 0.752160
Si Si7 0.464973 0.309200 0.144665
Si Si8 0.922716 0.088956 0.114623
O O1 0.197297 0.075036 0.500000
O O2 0.254955 0.041205 0.615263
O O3 0.057621 0.160645 0.587750
O O4 0.000000 0.000000 0.565757
O O5 0.175876 0.652036 0.803118
O O6 0.330508 0.678564 0.708137
O O7 0.217428 0.815490 0.754057
O O8 0.424909 0.746493 0.813347
O O9 0.799972 0.469925 0.500000
O O10 0.773521 0.409780 0.612186
O O11 0.738794 0.581426 0.587348
O O12 0.000000 0.500000 0.578361
O O13 0.239971 0.490501 0.228442
O O14 0.000000 0.500000 0.171787
O O15 0.687495 0.738900 0.871992
O O16 0.966680 0.827317 0.892401
O O17 0.449786 0.396821 0.811341
O O18 0.407418 0.428521 0.685619
O O19 0.000000 0.000000 0.087736
#
# Coordination Sequence:
#
# PCOD9444227 Si02
#       8
#     8   8   8   8   8   8   8   8
#     4  10  21  41  64  86 116 165 218 263 315 382
#     4  10  23  37  58  95 132 161 204 257 330 400
#     4  10  23  41  61  86 123 169 220 266 315 384
#     4  11  24  38  62  95 124 166 214 263 324 382
#     4  10  21  36  58  92 120 161 207 258 318 376
#     4  11  22  36  61  88 135 163 194 261 322 392
#     4  10  21  37  61  91 126 161 207 254 325 386
#     4  10  21  36  61  90 124 166 209 251 316 380
#
# _framework density 21.039954000000002
#
# number of rings (size 3 to 8) (size 9 to 14) (size 15 to 20)
#    0.000    1.750    2.500    1.500    7.000    4.000 
#    0.000    0.000    0.000    0.000    0.000    0.000 
#    0.000    0.000    0.000    0.000    0.000    0.000 
#
# Total GULP energy -356575.453964 kJ/mol
# GULP energy per Si atom -5571.491468 kJ/mol
# Density = 2.099207 g / cm^3
# Si number density = 21.039954 Si / 1000 Ang^3
#
#
#
# Elastic Constant Matrix: (Units=GPa)
#
#
# Indices 1 2 3 4 5 6 
#
# 1 105.2659 34.2024 14.9783 0.0000 0.0000 0.0000
# 2 34.2024 66.9548 23.1532 0.0000 0.0000 0.0000
# 3 14.9783 23.1532 49.9770 0.0000 0.0000 0.0000
# 4 0.0000 0.0000 0.0000 -18.0259 0.0000 0.0000
# 5 0.0000 0.0000 0.0000 0.0000 316.9921 0.0000
# 6 0.0000 0.0000 0.0000 0.0000 0.0000 33.4500
#
#
#
# Elastic Compliance Matrix: (Units=1/GPa)
#
#
# Indices 1 2 3 4 5 6 
#
# 1 0.011421 -0.005538 -0.000857 0.000000 0.000000 0.000000
# 2 -0.005538 0.020470 -0.007823 0.000000 0.000000 0.000000
# 3 -0.000857 -0.007823 0.023891 0.000000 0.000000 0.000000
# 4 0.000000 0.000000 0.000000 -0.055476 0.000000 0.000000
# 5 0.000000 0.000000 0.000000 0.000000 0.003155 0.000000
# 6 0.000000 0.000000 0.000000 0.000000 0.000000 0.029895
#
#
# Mechanical properties :
#
#
# Convention : Reuss Voigt Hill
#
# Bulk Modulus (GPa) = 36.57093 40.76284 38.66688
# Shear Modulus (GPa) = 70.51449 76.47415 73.49432
#
# Velocity S-wave (km/s) = 5.79546 6.03540 5.91664
# Velocity P-wave (km/s) = 7.88686 8.24525 8.06804
#
# Compressibility (1/GPa) = 0.02734413
#
# Stress axis : x y z
#
# Youngs Moduli (GPa) = 87.55777 48.85278 41.85741
#
# Poissons Ratio (x) = 0.27053 0.03589
# Poissons Ratio (y) = 0.48487 0.32747
# Poissons Ratio (z) = 0.07507 0.38220
#
# Static dielectric constant tensor:
#      x y z
#    x 1.770230 0.000000 0.000000 
#    y 0.000000 1.827220 0.000000 
#    z 0.000000 0.000000 1.756890 
# 
# From -- ./inp_files/31630.got.cif
#   From: 2010.05.17/outbox.cif.g08.bks.cpg/sg58_16_cif.got.tgz:31630.got - 2010.06.03 14:20:14.
