data_PCOD9444109
_publ_section_title
;
Structure prediction by ZEFSAII (Michael W. Deem and Ramdas Pophale) SiO2 
 PCOD9444109
Probable space group: P N N M
;
_chemical_formula_sum "Si O2"
_cell_formula_units_Z 48
_cell_length_a 12.396501
_cell_length_b 22.726530
_cell_length_c 7.798316
_cell_angle_alpha 90.000000
_cell_angle_beta 90.000000
_cell_angle_gamma 90.000000
_cell_volume 2197.015292
_symmetry_space_group_name_H-M "P N N M"
_symmetry_group_IT_number 58
_symmetry_cell_setting 'orthorhombic'
loop_
_space_group_symop_operation_xyz
x,y,z
-x,-y,z
1/2+x,1/2-y,1/2-z
1/2-x,1/2+y,1/2-z
-x,-y,-z
x,y,-z
1/2-x,1/2+y,1/2+z
1/2+x,1/2-y,1/2+z
loop_
_atom_site_type_symbol
_atom_site_label
_atom_site_fract_x
_atom_site_fract_y
_atom_site_fract_z
Si Si1 0.155288 0.261035 0.302670
Si Si2 0.219932 0.580793 0.292934
Si Si3 0.828432 0.147285 0.209050
Si Si4 0.069403 0.138460 0.197864
Si Si5 0.011456 0.643629 0.196380
Si Si6 0.655966 0.048443 0.207428
O O1 0.175375 0.244155 0.500000
O O2 0.259438 0.296107 0.233171
O O3 0.120484 0.203312 0.203492
O O4 0.057190 0.308094 0.298181
O O5 0.225384 0.578078 0.500000
O O6 0.339019 0.596173 0.226315
O O7 0.177117 0.517569 0.232666
O O8 0.133677 0.631039 0.248228
O O9 0.757834 0.089881 0.249929
O O10 0.949917 0.142210 0.274787
O O11 0.830688 0.151822 0.000000
O O12 0.054096 0.120012 0.000000
O O13 0.947516 0.582138 0.220266
O O14 0.007436 0.662425 0.000000
O O15 0.643424 0.047809 0.000000
#
# Coordination Sequence:
#
# PCOD9444109 Si02
#       6
#     8   8   8   8   8   8
#     4  10  21  38  58  80 109 146 186 230 284 337
#     4  10  21  35  55  85 118 148 184 228 277 335
#     4   8  17  35  57  79 107 143 184 225 271 328
#     4  10  21  36  55  84 115 146 185 229 276 332
#     4  11  22  36  57  83 111 147 191 237 282 327
#     4   9  18  36  59  82 112 150 186 227 280 334
#
# _framework density 21.847823999999999
#
# number of rings (size 3 to 8) (size 9 to 14) (size 15 to 20)
#    0.000    2.333    0.000    3.500    2.333    4.000 
#    0.000    6.667    0.000    0.000    0.000    7.000 
#    0.000    0.000    0.000    0.000    0.000    0.000 
#
# Total GULP energy -268105.923725 kJ/mol
# GULP energy per Si atom -5585.540078 kJ/mol
# Density = 2.179810 g / cm^3
# Si number density = 21.847824 Si / 1000 Ang^3
#
#
#
# Elastic Constant Matrix: (Units=GPa)
#
#
# Indices 1 2 3 4 5 6 
#
# 1 115.5079 -7.0177 -1.4860 0.0000 0.0000 0.0000
# 2 -7.0177 30.7920 -9.1659 0.0000 0.0000 0.0000
# 3 -1.4860 -9.1659 39.3432 0.0000 0.0000 0.0000
# 4 0.0000 0.0000 0.0000 14.8308 0.0000 0.0000
# 5 0.0000 0.0000 0.0000 0.0000 -4.6251 0.0000
# 6 0.0000 0.0000 0.0000 0.0000 0.0000 5.5740
#
#
#
# Elastic Compliance Matrix: (Units=1/GPa)
#
#
# Indices 1 2 3 4 5 6 
#
# 1 0.008806 0.002263 0.000860 0.000000 0.000000 0.000000
# 2 0.002263 0.035477 0.008351 0.000000 0.000000 0.000000
# 3 0.000860 0.008351 0.027395 0.000000 0.000000 0.000000
# 4 0.000000 0.000000 0.000000 0.067427 0.000000 0.000000
# 5 0.000000 0.000000 0.000000 0.000000 -0.216211 0.000000
# 6 0.000000 0.000000 0.000000 0.000000 0.000000 0.179405
#
#
# Mechanical properties :
#
#
# Convention : Reuss Voigt Hill
#
# Bulk Modulus (GPa) = 10.56797 16.70044 13.63421
# Shear Modulus (GPa) = 45.08741 16.71011 30.89876
#
# Velocity S-wave (km/s) = 4.54773 2.76858 3.76476
# Velocity P-wave (km/s) = 5.69415 4.22855 5.01517
#
# Compressibility (1/GPa) = 0.09462552
#
# Stress axis : x y z
#
# Youngs Moduli (GPa) = 113.55947 28.18690 36.50261
#
# Poissons Ratio (x) = -0.06378 -0.03138
# Poissons Ratio (y) = -0.25697 -0.30482
# Poissons Ratio (z) = -0.09764 -0.23538
#
# Static dielectric constant tensor:
#      x y z
#    x 1.807790 0.000000 0.000000 
#    y 0.000000 1.773150 0.000000 
#    z 0.000000 0.000000 1.790880 
# 
# From -- ./inp_files/4205.got.cif
#   From: 2010.05.17/outbox.cif.g08.bks.cpg/sg58_3_cif.got.tgz:4205.got - 2010.06.03 14:20:14.
