data_PCOD9444211
_publ_section_title
;
Structure prediction by ZEFSAII (Michael W. Deem and Ramdas Pophale) SiO2 
 PCOD9444211
Probable space group: P N N M
;
_chemical_formula_sum "Si O2"
_cell_formula_units_Z 56
_cell_length_a 8.358867
_cell_length_b 22.430898
_cell_length_c 14.310689
_cell_angle_alpha 90.000000
_cell_angle_beta 90.000000
_cell_angle_gamma 90.000000
_cell_volume 2683.209725
_symmetry_space_group_name_H-M "P N N M"
_symmetry_group_IT_number 58
_symmetry_cell_setting 'orthorhombic'
loop_
_space_group_symop_operation_xyz
x,y,z
-x,-y,z
1/2+x,1/2-y,1/2-z
1/2-x,1/2+y,1/2-z
-x,-y,-z
x,y,-z
1/2-x,1/2+y,1/2+z
1/2+x,1/2-y,1/2+z
loop_
_atom_site_type_symbol
_atom_site_label
_atom_site_fract_x
_atom_site_fract_y
_atom_site_fract_z
Si Si1 0.385614 0.550820 0.737014
Si Si2 0.307084 0.755075 0.893335
Si Si3 0.671910 0.800315 0.104248
Si Si4 0.165506 0.325091 0.890739
Si Si5 0.175116 0.641889 0.198444
Si Si6 0.827602 0.134491 0.784961
Si Si7 0.174475 0.471882 0.609348
O O1 0.500000 0.500000 0.779799
O O2 0.251962 0.576710 0.806432
O O3 0.500087 0.604607 0.704053
O O4 0.301040 0.518827 0.649967
O O5 0.492727 0.773182 0.893528
O O6 0.289298 0.690501 0.848875
O O7 0.204012 0.802308 0.833933
O O8 0.248726 0.755038 0.000000
O O9 0.796447 0.745757 0.117990
O O10 0.672693 0.844521 0.190885
O O11 0.696752 0.826175 0.000000
O O12 0.292769 0.357429 0.824329
O O13 0.995506 0.344610 0.847925
O O14 0.176244 0.339440 0.000000
O O15 0.703069 0.088393 0.832333
O O16 0.198899 0.459448 0.500000
O O17 0.000000 0.500000 0.622279
#
# Coordination Sequence:
#
# PCOD9444211 Si02
#       7
#     8   8   8   8   8   8   8
#     4  10  25  42  66  91 126 177 225 271 329 393
#     4  11  23  37  61  97 131 170 212 260 330 403
#     4  10  21  36  57  90 131 171 207 254 326 401
#     4  11  23  39  63  96 132 170 215 268 334 404
#     4  12  21  40  62  90 129 169 216 275 331 392
#     4  11  21  40  64  91 131 172 209 265 328 392
#     4  10  22  41  65  95 129 169 218 272 328 390
#
# _framework density 20.870526999999999
#
# number of rings (size 3 to 8) (size 9 to 14) (size 15 to 20)
#    0.000    1.286    2.857    2.571    2.000    3.714 
#    0.000    0.714    0.000   19.714    0.000    0.000 
#    0.000    0.000    0.000    0.000    0.000    0.000 
#
# Total GULP energy -313031.254560 kJ/mol
# GULP energy per Si atom -5589.843831 kJ/mol
# Density = 2.082302 g / cm^3
# Si number density = 20.870527 Si / 1000 Ang^3
#
#
#
# Elastic Constant Matrix: (Units=GPa)
#
#
# Indices 1 2 3 4 5 6 
#
# 1 67.0422 18.0913 28.9089 0.0000 0.0000 0.0000
# 2 18.0913 48.9584 35.7333 0.0000 0.0000 0.0000
# 3 28.9089 35.7333 135.1717 0.0000 0.0000 0.0000
# 4 0.0000 0.0000 0.0000 17.3703 0.0000 0.0000
# 5 0.0000 0.0000 0.0000 0.0000 21.9036 0.0000
# 6 0.0000 0.0000 0.0000 0.0000 0.0000 42.6311
#
#
#
# Elastic Compliance Matrix: (Units=1/GPa)
#
#
# Indices 1 2 3 4 5 6 
#
# 1 0.017213 -0.004552 -0.002478 0.000000 0.000000 0.000000
# 2 -0.004552 0.026512 -0.006035 0.000000 0.000000 0.000000
# 3 -0.002478 -0.006035 0.009523 0.000000 0.000000 0.000000
# 4 0.000000 0.000000 0.000000 0.057570 0.000000 0.000000
# 5 0.000000 0.000000 0.000000 0.000000 0.045655 0.000000
# 6 0.000000 0.000000 0.000000 0.000000 0.000000 0.023457
#
#
# Mechanical properties :
#
#
# Convention : Reuss Voigt Hill
#
# Bulk Modulus (GPa) = 36.87521 46.29326 41.58424
# Shear Modulus (GPa) = 23.24505 27.61025 25.42765
#
# Velocity S-wave (km/s) = 3.34095 3.64116 3.49428
# Velocity P-wave (km/s) = 5.70872 6.31717 6.02064
#
# Compressibility (1/GPa) = 0.02711849
#
# Stress axis : x y z
#
# Youngs Moduli (GPa) = 58.09625 37.71816 105.00477
#
# Poissons Ratio (x) = 0.17169 0.26020
# Poissons Ratio (y) = 0.26445 0.63372
# Poissons Ratio (z) = 0.14396 0.22764
#
# Static dielectric constant tensor:
#      x y z
#    x 1.801110 0.000000 0.000000 
#    y 0.000000 1.765440 0.000000 
#    z 0.000000 0.000000 1.726530 
# 
# From -- ./inp_files/20103.got.cif
#   From: 2010.05.17/outbox.cif.g08.bks.cpg/sg58_11_cif.got.tgz:20103.got - 2010.06.03 14:20:14.
