data_PCOD9444265
_publ_section_title
;
Structure prediction by ZEFSAII (Michael W. Deem and Ramdas Pophale) SiO2 
 PCOD9444265
Probable space group: P N N M
;
_chemical_formula_sum "Si O2"
_cell_formula_units_Z 56
_cell_length_a 10.200924
_cell_length_b 12.823693
_cell_length_c 19.501122
_cell_angle_alpha 90.000000
_cell_angle_beta 90.000000
_cell_angle_gamma 90.000000
_cell_volume 2551.010368
_symmetry_space_group_name_H-M "P N N M"
_symmetry_group_IT_number 58
_symmetry_cell_setting 'orthorhombic'
loop_
_space_group_symop_operation_xyz
x,y,z
-x,-y,z
1/2+x,1/2-y,1/2-z
1/2-x,1/2+y,1/2-z
-x,-y,-z
x,y,-z
1/2-x,1/2+y,1/2+z
1/2+x,1/2-y,1/2+z
loop_
_atom_site_type_symbol
_atom_site_label
_atom_site_fract_x
_atom_site_fract_y
_atom_site_fract_z
Si Si1 0.346352 0.521372 0.297976
Si Si2 0.306420 0.332717 0.619421
Si Si3 0.599695 0.329842 0.578778
Si Si4 0.516329 0.662836 0.918835
Si Si5 0.245926 0.098999 0.344734
Si Si6 0.315673 0.903516 0.420393
Si Si7 0.026232 0.388040 0.422588
O O1 0.500000 0.500000 0.282881
O O2 0.292471 0.407105 0.314761
O O3 0.335859 0.592526 0.366287
O O4 0.277750 0.575519 0.234529
O O5 0.444791 0.354331 0.583689
O O6 0.303255 0.212488 0.639989
O O7 0.180645 0.363515 0.575311
O O8 0.645121 0.343009 0.500000
O O9 0.621888 0.208304 0.598222
O O10 0.398574 0.606120 0.880158
O O11 0.658862 0.613916 0.914518
O O12 0.529461 0.781630 0.891249
O O13 0.480850 0.667058 0.000000
O O14 0.334940 0.007867 0.376940
O O15 0.348943 0.923102 0.500000
O O16 0.971590 0.394582 0.500000
O O17 0.000000 0.500000 0.389125
#
# Coordination Sequence:
#
# PCOD9444265 Si02
#       7
#     8   8   8   8   8   8   8
#     4  10  23  41  62  89 120 165 213 254 317 374
#     4  10  23  40  59  89 121 161 208 255 319 373
#     4  10  23  42  64  92 126 170 218 259 312 389
#     4   9  18  34  57  90 121 153 200 249 307 368
#     4  11  22  39  63  89 123 162 203 267 317 382
#     4  10  21  36  62  93 123 162 206 253 309 374
#     4   9  18  32  55  86 119 152 190 245 307 359
#
# _framework density 21.952086000000001
#
# number of rings (size 3 to 8) (size 9 to 14) (size 15 to 20)
#    0.000    2.143    0.000    2.143    4.000    6.571 
#    0.000    1.429    0.000    0.000    0.000    0.000 
#    0.000    0.000    0.000    0.000    0.000    0.000 
#
# Total GULP energy -312762.674946 kJ/mol
# GULP energy per Si atom -5585.047767 kJ/mol
# Density = 2.190212 g / cm^3
# Si number density = 21.952086 Si / 1000 Ang^3
#
#
#
# Elastic Constant Matrix: (Units=GPa)
#
#
# Indices 1 2 3 4 5 6 
#
# 1 41.6807 17.9890 12.9017 0.0000 0.0000 0.0000
# 2 17.9890 153.0179 44.2216 0.0000 0.0000 0.0000
# 3 12.9017 44.2216 67.3311 0.0000 0.0000 0.0000
# 4 0.0000 0.0000 0.0000 -52.3099 0.0000 0.0000
# 5 0.0000 0.0000 0.0000 0.0000 -16.6232 0.0000
# 6 0.0000 0.0000 0.0000 0.0000 0.0000 27.9841
#
#
#
# Elastic Compliance Matrix: (Units=1/GPa)
#
#
# Indices 1 2 3 4 5 6 
#
# 1 0.025989 -0.001995 -0.003670 0.000000 0.000000 0.000000
# 2 -0.001995 0.008219 -0.005016 0.000000 0.000000 0.000000
# 3 -0.003670 -0.005016 0.018850 0.000000 0.000000 0.000000
# 4 0.000000 0.000000 0.000000 -0.019117 0.000000 0.000000
# 5 0.000000 0.000000 0.000000 0.000000 -0.060157 0.000000
# 6 0.000000 0.000000 0.000000 0.000000 0.000000 0.035735
#
#
# Mechanical properties :
#
#
# Convention : Reuss Voigt Hill
#
# Bulk Modulus (GPa) = 31.54916 45.80602 38.67759
# Shear Modulus (GPa) = 120.64139 4.27134 62.45637
#
# Velocity S-wave (km/s) = 7.42132 1.39642 5.33976
# Velocity P-wave (km/s) = 9.37218 4.84888 7.46155
#
# Compressibility (1/GPa) = 0.03169657
#
# Stress axis : x y z
#
# Youngs Moduli (GPa) = 38.47820 121.66486 53.05153
#
# Poissons Ratio (x) = 0.24269 0.19469
# Poissons Ratio (y) = 0.07675 0.26611
# Poissons Ratio (z) = 0.14121 0.61028
#
# Static dielectric constant tensor:
#      x y z
#    x 1.814260 0.000000 0.000000 
#    y 0.000000 1.852130 0.000000 
#    z 0.000000 0.000000 1.780230 
# 
# From -- ./inp_files/29618.got.cif
#   From: 2010.05.17/outbox.cif.g08.bks.cpg/sg58_15_cif.got.tgz:29618.got - 2010.06.03 14:20:14.
