data_PCOD9444000
_publ_section_title
;
Structure prediction by ZEFSAII (Michael W. Deem and Ramdas Pophale) SiO2 
 PCOD9444000
Probable space group: P N N M
;
_chemical_formula_sum "Si O2"
_cell_formula_units_Z 48
_cell_length_a 9.484622
_cell_length_b 13.786316
_cell_length_c 17.132359
_cell_angle_alpha 90.000000
_cell_angle_beta 90.000000
_cell_angle_gamma 90.000000
_cell_volume 2240.192930
_symmetry_space_group_name_H-M "P N N M"
_symmetry_group_IT_number 58
_symmetry_cell_setting 'orthorhombic'
loop_
_space_group_symop_operation_xyz
x,y,z
-x,-y,z
1/2+x,1/2-y,1/2-z
1/2-x,1/2+y,1/2-z
-x,-y,-z
x,y,-z
1/2-x,1/2+y,1/2+z
1/2+x,1/2-y,1/2+z
loop_
_atom_site_type_symbol
_atom_site_label
_atom_site_fract_x
_atom_site_fract_y
_atom_site_fract_z
Si Si1 0.811645 0.579620 0.913317
Si Si2 0.397505 0.250016 0.911586
Si Si3 0.459112 0.253500 0.589112
Si Si4 0.673697 0.251515 0.180385
Si Si5 0.171858 0.121978 0.175640
Si Si6 0.155594 0.462543 0.256870
O O1 0.668363 0.642310 0.908031
O O2 0.934548 0.661535 0.908896
O O3 0.823487 0.516454 0.835528
O O4 0.820126 0.533243 0.000000
O O5 0.558914 0.247897 0.887624
O O6 0.307690 0.183065 0.853693
O O7 0.374834 0.215233 0.000000
O O8 0.412310 0.265879 0.500000
O O9 0.328894 0.236568 0.646032
O O10 0.548356 0.347167 0.617274
O O11 0.632167 0.335521 0.240120
O O12 0.665124 0.151650 0.228740
O O13 0.226406 0.014261 0.190352
O O14 0.000000 0.500000 0.278430
#
# Coordination Sequence:
#
# PCOD9444000 Si02
#       6
#     8   8   8   8   8   8
#     4   9  20  40  66  92 127 165 205 259 318 376
#     4  10  20  40  65  90 122 165 203 250 315 367
#     4  10  21  40  64  91 125 167 207 258 319 366
#     4  12  22  40  63  95 127 160 212 262 307 373
#     4  11  22  39  64  91 125 166 205 255 312 373
#     4  12  23  38  64  97 123 164 218 257 311 375
#
# _framework density 21.426725999999999
#
# number of rings (size 3 to 8) (size 9 to 14) (size 15 to 20)
#    0.000    1.333    5.000    4.000    0.000    1.000 
#    0.000    6.667    0.000    2.000    0.000    0.000 
#    0.000    0.000    0.000    0.000    0.000    0.000 
#
# Total GULP energy -268330.615853 kJ/mol
# GULP energy per Si atom -5590.221164 kJ/mol
# Density = 2.137796 g / cm^3
# Si number density = 21.426726 Si / 1000 Ang^3
#
#
#
# Elastic Constant Matrix: (Units=GPa)
#
#
# Indices 1 2 3 4 5 6 
#
# 1 38.0131 -3.0870 -5.1689 0.0000 0.0000 0.0000
# 2 -3.0870 28.0682 -7.7894 0.0000 0.0000 0.0000
# 3 -5.1689 -7.7894 70.9817 0.0000 0.0000 0.0000
# 4 0.0000 0.0000 0.0000 26.5206 0.0000 0.0000
# 5 0.0000 0.0000 0.0000 0.0000 26.9285 0.0000
# 6 0.0000 0.0000 0.0000 0.0000 0.0000 14.2518
#
#
#
# Elastic Compliance Matrix: (Units=1/GPa)
#
#
# Indices 1 2 3 4 5 6 
#
# 1 0.026921 0.003615 0.002357 0.000000 0.000000 0.000000
# 2 0.003615 0.037232 0.004349 0.000000 0.000000 0.000000
# 3 0.002357 0.004349 0.014737 0.000000 0.000000 0.000000
# 4 0.000000 0.000000 0.000000 0.037707 0.000000 0.000000
# 5 0.000000 0.000000 0.000000 0.000000 0.037135 0.000000
# 6 0.000000 0.000000 0.000000 0.000000 0.000000 0.070166
#
#
# Mechanical properties :
#
#
# Convention : Reuss Voigt Hill
#
# Bulk Modulus (GPa) = 10.04704 11.66362 10.85533
# Shear Modulus (GPa) = 21.14760 23.74741 22.44751
#
# Velocity S-wave (km/s) = 3.14502 3.33274 3.24024
# Velocity P-wave (km/s) = 4.22935 4.50165 4.36762
#
# Compressibility (1/GPa) = 0.09953177
#
# Stress axis : x y z
#
# Youngs Moduli (GPa) = 37.14604 26.85860 67.85631
#
# Poissons Ratio (x) = -0.09709 -0.15994
# Poissons Ratio (y) = -0.13428 -0.29511
# Poissons Ratio (z) = -0.08756 -0.11681
#
# Static dielectric constant tensor:
#      x y z
#    x 1.747610 0.000000 0.000000 
#    y 0.000000 1.759330 0.000000 
#    z 0.000000 0.000000 1.756230 
# 
# From -- ./inp_files/25267.got.cif
#   From: 2010.05.17/outbox.cif.g08.bks.cpg/sg58_13_cif.got.tgz:25267.got - 2010.06.03 14:20:14.
