data_PCOD9444873
_publ_section_title
;
Structure prediction by ZEFSAII (Michael W. Deem and Ramdas Pophale) SiO2 
 PCOD9444873
Probable space group: P N N M
;
_chemical_formula_sum "Si O2"
_cell_formula_units_Z 40
_cell_length_a 10.377380
_cell_length_b 8.352216
_cell_length_c 19.416423
_cell_angle_alpha 90.000000
_cell_angle_beta 90.000000
_cell_angle_gamma 90.000000
_cell_volume 1682.901363
_symmetry_space_group_name_H-M "P N N M"
_symmetry_group_IT_number 58
_symmetry_cell_setting 'orthorhombic'
loop_
_space_group_symop_operation_xyz
x,y,z
-x,-y,z
1/2+x,1/2-y,1/2-z
1/2-x,1/2+y,1/2-z
-x,-y,-z
x,y,-z
1/2-x,1/2+y,1/2+z
1/2+x,1/2-y,1/2+z
loop_
_atom_site_type_symbol
_atom_site_label
_atom_site_fract_x
_atom_site_fract_y
_atom_site_fract_z
Si Si1 0.434399 0.339060 0.919170
Si Si2 0.713702 0.796662 0.814127
Si Si3 0.836976 0.582894 0.579886
Si Si4 0.948722 0.183893 0.074919
Si Si5 0.482014 0.812264 0.280583
O O1 0.500000 0.500000 0.894115
O O2 0.300405 0.318183 0.879984
O O3 0.535958 0.191230 0.908562
O O4 0.413399 0.352774 0.000000
O O5 0.594905 0.743394 0.766465
O O6 0.842753 0.769129 0.771082
O O7 0.690707 0.964539 0.855149
O O8 0.846866 0.513911 0.500000
O O9 0.706112 0.683731 0.576272
O O10 0.994490 0.281417 0.139453
O O11 0.994195 0.238919 0.000000
O O12 0.000000 0.000000 0.082704
O O13 0.500000 0.000000 0.267367
#
# Coordination Sequence:
#
# PCOD9444873 Si02
#       5
#     8   8   8   8   8
#     4  10  23  42  70 107 143 183 235 298 358 417
#     4  12  27  46  70 100 144 189 241 296 357 444
#     4  10  21  44  76 105 137 186 241 292 349 431
#     4  10  22  44  74 104 139 185 238 290 355 430
#     4  12  30  46  70 105 142 188 240 300 370 425
#
# _framework density 23.768477000000001
#
# number of rings (size 3 to 8) (size 9 to 14) (size 15 to 20)
#    0.000    1.200    2.000    2.400    8.400    3.600 
#    0.000    0.000    0.000    0.000    0.000    0.000 
#    0.000    0.000    0.000    0.000    0.000    0.000 
#
# Total GULP energy -223336.175787 kJ/mol
# GULP energy per Si atom -5583.404395 kJ/mol
# Density = 2.371438 g / cm^3
# Si number density = 23.768477 Si / 1000 Ang^3
#
#
#
# Elastic Constant Matrix: (Units=GPa)
#
#
# Indices 1 2 3 4 5 6 
#
# 1 145.5639 2.4347 53.6427 0.0000 0.0000 0.0000
# 2 2.4347 46.9919 22.2165 0.0000 0.0000 0.0000
# 3 53.6427 22.2165 96.9275 0.0000 0.0000 0.0000
# 4 0.0000 0.0000 0.0000 42.5262 0.0000 0.0000
# 5 0.0000 0.0000 0.0000 0.0000 33.9151 0.0000
# 6 0.0000 0.0000 0.0000 0.0000 0.0000 20.3626
#
#
#
# Elastic Compliance Matrix: (Units=1/GPa)
#
#
# Indices 1 2 3 4 5 6 
#
# 1 0.008806 0.002072 -0.005349 0.000000 0.000000 0.000000
# 2 0.002072 0.024354 -0.006729 0.000000 0.000000 0.000000
# 3 -0.005349 -0.006729 0.014819 0.000000 0.000000 0.000000
# 4 0.000000 0.000000 0.000000 0.023515 0.000000 0.000000
# 5 0.000000 0.000000 0.000000 0.000000 0.029485 0.000000
# 6 0.000000 0.000000 0.000000 0.000000 0.000000 0.049110
#
#
# Mechanical properties :
#
#
# Convention : Reuss Voigt Hill
#
# Bulk Modulus (GPa) = 35.75351 49.56344 42.65847
# Shear Modulus (GPa) = 27.86699 33.44007 30.65353
#
# Velocity S-wave (km/s) = 3.42780 3.75495 3.59510
# Velocity P-wave (km/s) = 5.54450 6.30058 5.93459
#
# Compressibility (1/GPa) = 0.02796928
#
# Stress axis : x y z
#
# Youngs Moduli (GPa) = 113.55579 41.06056 67.47875
#
# Poissons Ratio (x) = -0.08510 0.36092
# Poissons Ratio (y) = -0.23534 0.45407
# Poissons Ratio (z) = 0.60737 0.27630
#
# Static dielectric constant tensor:
#      x y z
#    x 1.868090 0.000000 0.000000 
#    y 0.000000 1.982740 0.000000 
#    z 0.000000 0.000000 1.896440 
# 
# From -- ./inp_files/25940.got.cif
#   From: 2010.05.17/outbox.cif.g08.bks.cpg/sg58_13_cif.got.tgz:25940.got - 2010.06.03 14:20:14.
