data_PCOD9444809
_publ_section_title
;
Structure prediction by ZEFSAII (Michael W. Deem and Ramdas Pophale) SiO2 
 PCOD9444809
Probable space group: P N N M
;
_chemical_formula_sum "Si O2"
_cell_formula_units_Z 58
_cell_length_a 9.273263
_cell_length_b 11.805766
_cell_length_c 24.641307
_cell_angle_alpha 90.000000
_cell_angle_beta 90.000000
_cell_angle_gamma 90.000000
_cell_volume 2697.680343
_symmetry_space_group_name_H-M "P N N M"
_symmetry_group_IT_number 58
_symmetry_cell_setting 'orthorhombic'
loop_
_space_group_symop_operation_xyz
x,y,z
-x,-y,z
1/2+x,1/2-y,1/2-z
1/2-x,1/2+y,1/2-z
-x,-y,-z
x,y,-z
1/2-x,1/2+y,1/2+z
1/2+x,1/2-y,1/2+z
loop_
_atom_site_type_symbol
_atom_site_label
_atom_site_fract_x
_atom_site_fract_y
_atom_site_fract_z
Si Si1 0.306683 0.607155 0.310815
Si Si2 0.532322 0.766575 0.834920
Si Si3 0.207513 0.091489 0.305929
Si Si4 0.572927 0.732715 0.645743
Si Si5 0.568476 0.117317 0.440357
Si Si6 0.374052 0.427067 0.906472
Si Si7 0.679331 0.070496 0.108073
Si Si8 0.500000 0.000000 0.000000
O O1 0.184763 0.705890 0.307303
O O2 0.287762 0.540397 0.254234
O O3 0.468816 0.652102 0.319224
O O4 0.256051 0.535360 0.362648
O O5 0.422374 0.683769 0.803924
O O6 0.566635 0.694047 0.888565
O O7 0.447214 0.878265 0.853502
O O8 0.347697 0.165562 0.321973
O O9 0.173304 0.999131 0.352426
O O10 0.465893 0.787430 0.602349
O O11 0.697483 0.667188 0.612746
O O12 0.510470 0.143913 0.500000
O O13 0.736374 0.093357 0.441939
O O14 0.500000 0.000000 0.421316
O O15 0.500000 0.500000 0.932430
O O16 0.613787 0.042047 0.049261
#
# Coordination Sequence:
#
# PCOD9444809 Si02
#       8
#     8   8   8   8   8   8   8   2
#     4  12  22  43  67 100 132 176 222 276 327 408
#     4  10  21  42  62  95 128 174 218 269 322 408
#     4  10  23  39  69  98 141 173 211 268 343 402
#     4  11  24  44  67 103 136 172 223 277 337 407
#     4  11  23  43  66  94 133 171 217 278 336 393
#     4  10  21  41  65  93 131 168 218 270 331 408
#     4  11  26  46  67  94 132 175 234 277 336 394
#     4  12  24  52  74  92 132 190 232 296 336 392
#
# _framework density 21.499952
#
# number of rings (size 3 to 8) (size 9 to 14) (size 15 to 20)
#    0.000    1.241    4.138    1.241    0.966    5.793 
#    9.931    0.690    0.000    0.000    0.000    0.000 
#    0.000    0.000    0.000    0.000    0.000    0.000 
#
# Total GULP energy -323247.434799 kJ/mol
# GULP energy per Si atom -5573.231634 kJ/mol
# Density = 2.145102 g / cm^3
# Si number density = 21.499952 Si / 1000 Ang^3
#
#
#
# Elastic Constant Matrix: (Units=GPa)
#
#
# Indices 1 2 3 4 5 6 
#
# 1 117.4174 11.6014 20.1468 0.0000 0.0000 0.0000
# 2 11.6014 48.9593 22.9582 0.0000 0.0000 0.0000
# 3 20.1468 22.9582 112.2132 0.0000 0.0000 0.0000
# 4 0.0000 0.0000 0.0000 11.3822 0.0000 0.0000
# 5 0.0000 0.0000 0.0000 0.0000 15.7075 0.0000
# 6 0.0000 0.0000 0.0000 0.0000 0.0000 31.9786
#
#
#
# Elastic Compliance Matrix: (Units=1/GPa)
#
#
# Indices 1 2 3 4 5 6 
#
# 1 0.008886 -0.001502 -0.001288 0.000000 0.000000 0.000000
# 2 -0.001502 0.022846 -0.004405 0.000000 0.000000 0.000000
# 3 -0.001288 -0.004405 0.010044 0.000000 0.000000 0.000000
# 4 0.000000 0.000000 0.000000 0.087857 0.000000 0.000000
# 5 0.000000 0.000000 0.000000 0.000000 0.063664 0.000000
# 6 0.000000 0.000000 0.000000 0.000000 0.000000 0.031271
#
#
# Mechanical properties :
#
#
# Convention : Reuss Voigt Hill
#
# Bulk Modulus (GPa) = 36.51281 43.11143 39.81212
# Shear Modulus (GPa) = 20.15429 26.73921 23.44675
#
# Velocity S-wave (km/s) = 3.06504 3.53042 3.30593
# Velocity P-wave (km/s) = 5.43558 6.05920 5.75584
#
# Compressibility (1/GPa) = 0.02738765
#
# Stress axis : x y z
#
# Youngs Moduli (GPa) = 112.53638 43.77053 99.56135
#
# Poissons Ratio (x) = 0.06572 0.12825
# Poissons Ratio (y) = 0.16898 0.43853
# Poissons Ratio (z) = 0.14497 0.19279
#
# Static dielectric constant tensor:
#      x y z
#    x 2.162550 0.000000 0.000000 
#    y 0.000000 1.626430 0.000000 
#    z 0.000000 0.000000 1.715640 
# 
# From -- ./inp_files/33329.got.cif
#   From: 2010.05.17/outbox.cif.g08.bks.cpg/sg58_17_cif.got.tgz:33329.got - 2010.06.03 14:20:14.
