data_PCOD9444195
_publ_section_title
;
Structure prediction by ZEFSAII (Michael W. Deem and Ramdas Pophale) SiO2 
 PCOD9444195
Probable space group: P N N M
;
_chemical_formula_sum "Si O2"
_cell_formula_units_Z 48
_cell_length_a 24.161655
_cell_length_b 12.298178
_cell_length_c 8.668481
_cell_angle_alpha 90.000000
_cell_angle_beta 90.000000
_cell_angle_gamma 90.000000
_cell_volume 2575.790013
_symmetry_space_group_name_H-M "P N N M"
_symmetry_group_IT_number 58
_symmetry_cell_setting 'orthorhombic'
loop_
_space_group_symop_operation_xyz
x,y,z
-x,-y,z
1/2+x,1/2-y,1/2-z
1/2-x,1/2+y,1/2-z
-x,-y,-z
x,y,-z
1/2-x,1/2+y,1/2+z
1/2+x,1/2-y,1/2+z
loop_
_atom_site_type_symbol
_atom_site_label
_atom_site_fract_x
_atom_site_fract_y
_atom_site_fract_z
Si Si1 0.357610 0.851368 0.813939
Si Si2 0.871038 0.990110 0.813881
Si Si3 0.658451 0.900414 0.184852
Si Si4 0.952296 0.795432 0.185716
Si Si5 0.723188 0.341858 0.184630
Si Si6 0.579581 0.720124 0.686712
O O1 0.414492 0.800572 0.752056
O O2 0.308797 0.768333 0.765938
O O3 0.347721 0.974454 0.762573
O O4 0.359229 0.849984 0.000000
O O5 0.921311 0.908054 0.773214
O O6 0.816144 0.940646 0.738777
O O7 0.886858 0.111737 0.767107
O O8 0.864587 0.987713 0.000000
O O9 0.716590 0.853632 0.243826
O O10 0.609313 0.825772 0.247794
O O11 0.657937 0.899268 0.000000
O O12 0.015753 0.790452 0.236797
O O13 0.951778 0.788791 0.000000
O O14 0.727437 0.341396 0.000000
O O15 0.580260 0.724190 0.500000
#
# Coordination Sequence:
#
# PCOD9444195 Si02
#       6
#     8   8   8   8   8   8
#     4   9  21  40  58  77 109 148 183 226 282 335
#     4   9  18  35  59  85 114 148 183 226 281 332
#     4  11  24  39  55  80 112 150 190 228 279 336
#     4   9  18  35  60  86 111 145 188 229 272 329
#     4  10  21  38  59  82 108 142 186 234 282 330
#     4  10  21  36  56  85 118 148 183 229 277 325
#
# _framework density 18.635058999999998
#
# number of rings (size 3 to 8) (size 9 to 14) (size 15 to 20)
#    0.000    2.333    0.000    1.500    2.333    6.000 
#    0.000    3.333    0.000    5.000    0.000    0.000 
#    0.000    0.000    0.000    0.000    0.000    0.000 
#
# Total GULP energy -268008.980124 kJ/mol
# GULP energy per Si atom -5583.520419 kJ/mol
# Density = 1.859264 g / cm^3
# Si number density = 18.635059 Si / 1000 Ang^3
#
#
#
# Elastic Constant Matrix: (Units=GPa)
#
#
# Indices 1 2 3 4 5 6 
#
# 1 19.8363 4.7326 2.8426 0.0000 0.0000 0.0000
# 2 4.7326 92.9726 13.0663 0.0000 0.0000 0.0000
# 3 2.8426 13.0663 9.9599 0.0000 0.0000 0.0000
# 4 0.0000 0.0000 0.0000 -46.1384 0.0000 0.0000
# 5 0.0000 0.0000 0.0000 0.0000 31.8511 0.0000
# 6 0.0000 0.0000 0.0000 0.0000 0.0000 10.2241
#
#
#
# Elastic Compliance Matrix: (Units=1/GPa)
#
#
# Indices 1 2 3 4 5 6 
#
# 1 0.052599 -0.000696 -0.014099 0.000000 0.000000 0.000000
# 2 -0.000696 0.013196 -0.017113 0.000000 0.000000 0.000000
# 3 -0.014099 -0.017113 0.126877 0.000000 0.000000 0.000000
# 4 0.000000 0.000000 0.000000 -0.021674 0.000000 0.000000
# 5 0.000000 0.000000 0.000000 0.000000 0.031396 0.000000
# 6 0.000000 0.000000 0.000000 0.000000 0.000000 0.097808
#
#
# Mechanical properties :
#
#
# Convention : Reuss Voigt Hill
#
# Bulk Modulus (GPa) = 7.76063 18.22799 12.99431
# Shear Modulus (GPa) = 12.28587 5.99584 9.14085
#
# Velocity S-wave (km/s) = 2.57045 1.79569 2.21717
# Velocity P-wave (km/s) = 3.60322 3.75528 3.68003
#
# Compressibility (1/GPa) = 0.12885553
#
# Stress axis : x y z
#
# Youngs Moduli (GPa) = 19.01169 75.77825 7.88165
#
# Poissons Ratio (x) = 0.05274 0.11112
# Poissons Ratio (y) = 0.01323 0.13488
# Poissons Ratio (z) = 0.26805 1.29683
#
# Static dielectric constant tensor:
#      x y z
#    x 1.615470 0.000000 0.000000 
#    y 0.000000 1.634980 0.000000 
#    z 0.000000 0.000000 1.633420 
# 
# From -- ./inp_files/4178.got.cif
#   From: 2010.05.17/outbox.cif.g08.bks.cpg/sg58_3_cif.got.tgz:4178.got - 2010.06.03 14:20:14.
