data_PCOD9444086
_publ_section_title
;
Structure prediction by ZEFSAII (Michael W. Deem and Ramdas Pophale) SiO2 
 PCOD9444086
Probable space group: P N N M
;
_chemical_formula_sum "Si O2"
_cell_formula_units_Z 64
_cell_length_a 29.758364
_cell_length_b 11.994176
_cell_length_c 7.539985
_cell_angle_alpha 90.000000
_cell_angle_beta 90.000000
_cell_angle_gamma 90.000000
_cell_volume 2691.224643
_symmetry_space_group_name_H-M "P N N M"
_symmetry_group_IT_number 58
_symmetry_cell_setting 'orthorhombic'
loop_
_space_group_symop_operation_xyz
x,y,z
-x,-y,z
1/2+x,1/2-y,1/2-z
1/2-x,1/2+y,1/2-z
-x,-y,-z
x,y,-z
1/2-x,1/2+y,1/2+z
1/2+x,1/2-y,1/2+z
loop_
_atom_site_type_symbol
_atom_site_label
_atom_site_fract_x
_atom_site_fract_y
_atom_site_fract_z
Si Si1 0.573957 0.832661 0.716969
Si Si2 0.832516 0.069678 0.285236
Si Si3 0.845526 0.706268 0.198926
Si Si4 0.325964 0.182744 0.701989
Si Si5 0.510231 0.288684 0.713612
Si Si6 0.906776 0.913071 0.707676
Si Si7 0.730547 0.368102 0.790848
Si Si8 0.928218 0.580608 0.783434
O O1 0.575104 0.825901 0.500000
O O2 0.624831 0.828779 0.784103
O O3 0.540046 0.736195 0.777468
O O4 0.556950 0.956592 0.763625
O O5 0.830086 0.081946 0.500000
O O6 0.882756 0.027218 0.237089
O O7 0.799522 0.970560 0.226604
O O8 0.819235 0.184614 0.199376
O O9 0.879990 0.812004 0.198965
O O10 0.799368 0.756021 0.272582
O O11 0.877434 0.610586 0.279361
O O12 0.834834 0.671001 0.000000
O O13 0.329664 0.138998 0.500000
O O14 0.280539 0.135627 0.786152
O O15 0.509548 0.290158 0.500000
O O16 0.540466 0.393940 0.767587
O O17 0.538709 0.179434 0.772816
O O18 0.896190 0.898682 0.500000
O O19 0.735885 0.384698 0.000000
O O20 0.927178 0.584733 0.000000
#
# Coordination Sequence:
#
# PCOD9444086 Si02
#       8
#     8   8   8   8   8   8   8   8
#     4   9  17  30  47  70 102 134 164 204 251 294
#     4   9  19  36  55  72  96 131 165 200 246 297
#     4   9  16  27  49  79 101 124 165 209 243 286
#     4  10  21  35  52  74 100 131 166 204 246 291
#     4   9  16  28  50  77 100 127 167 208 243 290
#     4   9  17  31  51  73  99 130 161 201 252 297
#     4   9  19  35  52  72 100 133 165 200 248 300
#     4   8  14  25  46  75 101 126 159 201 248 295
#
# _framework density 23.780995999999998
#
# number of rings (size 3 to 8) (size 9 to 14) (size 15 to 20)
#    0.000    3.000    0.000    2.625    0.000    5.500 
#    0.000    3.750    0.000   14.250    0.000    0.000 
#    0.000    0.000    0.000    0.000    0.000    0.000 
#
# Total GULP energy -356955.008885 kJ/mol
# GULP energy per Si atom -5577.422014 kJ/mol
# Density = 2.372687 g / cm^3
# Si number density = 23.780996 Si / 1000 Ang^3
#
#
#
# Elastic Constant Matrix: (Units=GPa)
#
#
# Indices 1 2 3 4 5 6 
#
# 1 133.9467 14.4155 1.4960 0.0000 0.0000 0.0000
# 2 14.4155 21.7695 -4.6095 0.0000 0.0000 0.0000
# 3 1.4960 -4.6095 61.5264 0.0000 0.0000 0.0000
# 4 0.0000 0.0000 0.0000 0.7208 0.0000 0.0000
# 5 0.0000 0.0000 0.0000 0.0000 11.8371 0.0000
# 6 0.0000 0.0000 0.0000 0.0000 0.0000 26.0872
#
#
#
# Elastic Compliance Matrix: (Units=1/GPa)
#
#
# Indices 1 2 3 4 5 6 
#
# 1 0.008061 -0.005466 -0.000605 0.000000 0.000000 0.000000
# 2 -0.005466 0.050383 0.003908 0.000000 0.000000 0.000000
# 3 -0.000605 0.003908 0.016561 0.000000 0.000000 0.000000
# 4 0.000000 0.000000 0.000000 1.387323 0.000000 0.000000
# 5 0.000000 0.000000 0.000000 0.000000 0.084480 0.000000
# 6 0.000000 0.000000 0.000000 0.000000 0.000000 0.038333
#
#
# Mechanical properties :
#
#
# Convention : Reuss Voigt Hill
#
# Bulk Modulus (GPa) = 14.14899 26.64961 20.39930
# Shear Modulus (GPa) = 3.09976 21.45840 12.27908
#
# Velocity S-wave (km/s) = 1.14293 3.00715 2.27478
# Velocity P-wave (km/s) = 2.77567 4.82575 3.93651
#
# Compressibility (1/GPa) = 0.07067644
#
# Stress axis : x y z
#
# Youngs Moduli (GPa) = 124.05922 19.84806 60.38404
#
# Poissons Ratio (x) = 0.10849 0.03656
# Poissons Ratio (y) = 0.67809 -0.23595
# Poissons Ratio (z) = 0.07512 -0.07756
#
# Static dielectric constant tensor:
#      x y z
#    x 1.963790 0.000000 0.000000 
#    y 0.000000 1.883340 0.000000 
#    z 0.000000 0.000000 1.927300 
# 
# From -- ./inp_files/11141.got.cif
#   From: 2010.05.17/outbox.cif.g08.bks.cpg/sg58_6_cif.got.tgz:11141.got - 2010.06.03 14:20:14.
