data_PCOD9444177
_publ_section_title
;
Structure prediction by ZEFSAII (Michael W. Deem and Ramdas Pophale) SiO2 
 PCOD9444177
Probable space group: P N N M
;
_chemical_formula_sum "Si O2"
_cell_formula_units_Z 40
_cell_length_a 7.325362
_cell_length_b 29.240906
_cell_length_c 9.073237
_cell_angle_alpha 90.000000
_cell_angle_beta 90.000000
_cell_angle_gamma 90.000000
_cell_volume 1943.489377
_symmetry_space_group_name_H-M "P N N M"
_symmetry_group_IT_number 58
_symmetry_cell_setting 'orthorhombic'
loop_
_space_group_symop_operation_xyz
x,y,z
-x,-y,z
1/2+x,1/2-y,1/2-z
1/2-x,1/2+y,1/2-z
-x,-y,-z
x,y,-z
1/2-x,1/2+y,1/2+z
1/2+x,1/2-y,1/2+z
loop_
_atom_site_type_symbol
_atom_site_label
_atom_site_fract_x
_atom_site_fract_y
_atom_site_fract_z
Si Si1 0.709615 0.309990 0.335081
Si Si2 0.593383 0.951773 0.175706
Si Si3 0.788564 0.220080 0.834968
Si Si4 0.781154 0.621783 0.677345
Si Si5 0.395066 0.600809 0.824973
O O1 0.778530 0.320545 0.500000
O O2 0.791542 0.263944 0.268286
O O3 0.494880 0.297910 0.345596
O O4 0.713061 0.354060 0.231813
O O5 0.445969 0.912241 0.209075
O O6 0.778701 0.941328 0.262113
O O7 0.500000 0.000000 0.211244
O O8 0.630773 0.950721 0.000000
O O9 0.681388 0.174894 0.780432
O O10 0.724524 0.232824 0.000000
O O11 0.751090 0.622177 0.500000
O O12 0.596791 0.604544 0.755350
O O13 0.405974 0.600231 0.000000
#
# Coordination Sequence:
#
# PCOD9444177 Si02
#       5
#     8   8   8   8   8
#     4  10  21  36  55  81 115 155 197 238 288 353
#     4  10  22  41  66  93 119 156 205 252 303 360
#     4   9  19  34  52  81 114 149 195 241 292 346
#     4   9  20  40  62  86 119 158 200 247 297 354
#     4  11  23  39  60  87 122 159 198 248 303 358
#
# _framework density 20.581537000000001
#
# number of rings (size 3 to 8) (size 9 to 14) (size 15 to 20)
#    0.000    2.200    0.000    3.600    2.800    6.000 
#    0.000    4.000    0.000    0.000    0.000    0.000 
#    0.000    0.000    0.000    0.000    0.000    0.000 
#
# Total GULP energy -223464.917708 kJ/mol
# GULP energy per Si atom -5586.622943 kJ/mol
# Density = 2.053469 g / cm^3
# Si number density = 20.581537 Si / 1000 Ang^3
#
#
#
# Elastic Constant Matrix: (Units=GPa)
#
#
# Indices 1 2 3 4 5 6 
#
# 1 54.6458 14.7016 24.3602 0.0000 0.0000 0.0000
# 2 14.7016 43.5372 8.6415 0.0000 0.0000 0.0000
# 3 24.3602 8.6415 56.8478 0.0000 0.0000 0.0000
# 4 0.0000 0.0000 0.0000 23.7556 0.0000 0.0000
# 5 0.0000 0.0000 0.0000 0.0000 16.3260 0.0000
# 6 0.0000 0.0000 0.0000 0.0000 0.0000 31.4578
#
#
#
# Elastic Compliance Matrix: (Units=1/GPa)
#
#
# Indices 1 2 3 4 5 6 
#
# 1 0.024188 -0.006301 -0.009407 0.000000 0.000000 0.000000
# 2 -0.006301 0.025325 -0.001150 0.000000 0.000000 0.000000
# 3 -0.009407 -0.001150 0.021797 0.000000 0.000000 0.000000
# 4 0.000000 0.000000 0.000000 0.042095 0.000000 0.000000
# 5 0.000000 0.000000 0.000000 0.000000 0.061252 0.000000
# 6 0.000000 0.000000 0.000000 0.000000 0.000000 0.031789
#
#
# Mechanical properties :
#
#
# Convention : Reuss Voigt Hill
#
# Bulk Modulus (GPa) = 26.59967 27.82637 27.21302
# Shear Modulus (GPa) = 19.78688 21.46307 20.62497
#
# Velocity S-wave (km/s) = 3.10399 3.23279 3.16905
# Velocity P-wave (km/s) = 5.07922 5.24252 5.16152
#
# Compressibility (1/GPa) = 0.03759445
#
# Stress axis : x y z
#
# Youngs Moduli (GPa) = 41.34209 39.48716 45.87824
#
# Poissons Ratio (x) = 0.24880 0.43159
# Poissons Ratio (y) = 0.26048 0.05274
# Poissons Ratio (z) = 0.38892 0.04540
#
# Static dielectric constant tensor:
#      x y z
#    x 1.772970 0.000000 0.000000 
#    y 0.000000 1.759220 0.000000 
#    z 0.000000 0.000000 1.713690 
# 
# From -- ./inp_files/2620.got.cif
#   From: 2010.05.17/outbox.cif.g08.bks.cpg/sg58_2_cif.got.tgz:2620.got - 2010.06.03 14:20:14.
