data_PCOD9444782
_publ_section_title
;
Structure prediction by ZEFSAII (Michael W. Deem and Ramdas Pophale) SiO2 
 PCOD9444782
Probable space group: P N N M
;
_chemical_formula_sum "Si O2"
_cell_formula_units_Z 40
_cell_length_a 8.151484
_cell_length_b 14.035027
_cell_length_c 14.244726
_cell_angle_alpha 90.000000
_cell_angle_beta 90.000000
_cell_angle_gamma 90.000000
_cell_volume 1629.686368
_symmetry_space_group_name_H-M "P N N M"
_symmetry_group_IT_number 58
_symmetry_cell_setting 'orthorhombic'
loop_
_space_group_symop_operation_xyz
x,y,z
-x,-y,z
1/2+x,1/2-y,1/2-z
1/2-x,1/2+y,1/2-z
-x,-y,-z
x,y,-z
1/2-x,1/2+y,1/2+z
1/2+x,1/2-y,1/2+z
loop_
_atom_site_type_symbol
_atom_site_label
_atom_site_fract_x
_atom_site_fract_y
_atom_site_fract_z
Si Si1 0.668829 0.117336 0.812336
Si Si2 0.195021 0.687533 0.892915
Si Si3 0.670618 0.449405 0.733742
Si Si4 0.682456 0.126543 0.599952
Si Si5 0.678319 0.825585 0.893055
O O1 0.763968 0.211629 0.843277
O O2 0.691381 0.083447 0.703308
O O3 0.482032 0.139312 0.837266
O O4 0.739658 0.017624 0.846523
O O5 0.264040 0.601858 0.829000
O O6 0.000662 0.669631 0.900643
O O7 0.261103 0.689828 0.000000
O O8 0.500000 0.500000 0.753728
O O9 0.663292 0.355859 0.666464
O O10 0.700924 0.073062 0.500000
O O11 0.814510 0.211021 0.603018
O O12 0.674984 0.857828 0.000000
#
# Coordination Sequence:
#
# PCOD9444782 Si02
#       5
#     8   8   8   8   8
#     4  12  23  43  70 101 138 186 234 288 354 420
#     4  11  25  46  71 104 142 185 233 289 356 426
#     4  12  27  43  69 102 141 187 234 292 349 417
#     4  10  21  40  70  98 131 177 226 279 347 415
#     4  11  24  43  69 103 136 178 233 293 355 421
#
# _framework density 24.544599999999999
#
# number of rings (size 3 to 8) (size 9 to 14) (size 15 to 20)
#    0.000    0.800    4.000    2.400    2.800    4.000 
#    0.000    2.000    0.000    0.000    0.000    0.000 
#    0.000    0.000    0.000    0.000    0.000    0.000 
#
# Total GULP energy -223012.576493 kJ/mol
# GULP energy per Si atom -5575.314412 kJ/mol
# Density = 2.448874 g / cm^3
# Si number density = 24.544600 Si / 1000 Ang^3
#
#
#
# Elastic Constant Matrix: (Units=GPa)
#
#
# Indices 1 2 3 4 5 6 
#
# 1 85.2569 9.4324 -6.9116 0.0000 0.0000 0.0000
# 2 9.4324 70.0457 6.5039 0.0000 0.0000 0.0000
# 3 -6.9116 6.5039 116.9710 0.0000 0.0000 0.0000
# 4 0.0000 0.0000 0.0000 19.9495 0.0000 0.0000
# 5 0.0000 0.0000 0.0000 0.0000 -0.5181 0.0000
# 6 0.0000 0.0000 0.0000 0.0000 0.0000 -10.0704
#
#
#
# Elastic Compliance Matrix: (Units=1/GPa)
#
#
# Indices 1 2 3 4 5 6 
#
# 1 0.011981 -0.001688 0.000802 0.000000 0.000000 0.000000
# 2 -0.001688 0.014588 -0.000911 0.000000 0.000000 0.000000
# 3 0.000802 -0.000911 0.008647 0.000000 0.000000 0.000000
# 4 0.000000 0.000000 0.000000 0.050127 0.000000 0.000000
# 5 0.000000 0.000000 0.000000 0.000000 -1.930280 0.000000
# 6 0.000000 0.000000 0.000000 0.000000 0.000000 -0.099301
#
#
# Mechanical properties :
#
#
# Convention : Reuss Voigt Hill
#
# Bulk Modulus (GPa) = 31.62299 32.25812 31.94055
# Shear Modulus (GPa) = -2.59054 19.42213 8.41580
#
# Velocity S-wave (km/s) = -1.02846 2.81606 1.85370
# Velocity P-wave (km/s) = 3.39139 4.87286 4.19799
#
# Compressibility (1/GPa) = 0.03162256
#
# Stress axis : x y z
#
# Youngs Moduli (GPa) = 83.46556 68.54831 115.64500
#
# Poissons Ratio (x) = 0.11570 -0.09272
# Poissons Ratio (y) = 0.14087 0.10534
# Poissons Ratio (z) = -0.06692 0.06244
#
# Static dielectric constant tensor:
#      x y z
#    x 2.820420 0.000000 0.000000 
#    y 0.000000 2.364420 0.000000 
#    z 0.000000 0.000000 2.061700 
# 
# From -- ./inp_files/19499.got.cif
#   From: 2010.05.17/outbox.cif.g08.bks.cpg/sg58_10_cif.got.tgz:19499.got - 2010.06.03 14:20:14.
