data_PCOD9444410
_publ_section_title
;
Structure prediction by ZEFSAII (Michael W. Deem and Ramdas Pophale) SiO2 
 PCOD9444410
Probable space group: P N N M
;
_chemical_formula_sum "Si O2"
_cell_formula_units_Z 48
_cell_length_a 11.989243
_cell_length_b 22.692595
_cell_length_c 8.928566
_cell_angle_alpha 90.000000
_cell_angle_beta 90.000000
_cell_angle_gamma 90.000000
_cell_volume 2429.168485
_symmetry_space_group_name_H-M "P N N M"
_symmetry_group_IT_number 58
_symmetry_cell_setting 'orthorhombic'
loop_
_space_group_symop_operation_xyz
x,y,z
-x,-y,z
1/2+x,1/2-y,1/2-z
1/2-x,1/2+y,1/2-z
-x,-y,-z
x,y,-z
1/2-x,1/2+y,1/2+z
1/2+x,1/2-y,1/2+z
loop_
_atom_site_type_symbol
_atom_site_label
_atom_site_fract_x
_atom_site_fract_y
_atom_site_fract_z
Si Si1 0.765187 0.919764 0.822141
Si Si2 0.930573 0.355796 0.821754
Si Si3 0.171032 0.347552 0.325038
Si Si4 0.647514 0.549739 0.326084
Si Si5 0.472110 0.631662 0.824042
Si Si6 0.850833 0.234979 0.678478
O O1 0.650186 0.906816 0.738870
O O2 0.858776 0.873494 0.768526
O O3 0.813335 0.984463 0.786442
O O4 0.748864 0.915810 0.000000
O O5 0.876585 0.295215 0.762059
O O6 0.053344 0.358857 0.751856
O O7 0.935709 0.356270 0.000000
O O8 0.155335 0.332352 0.500000
O O9 0.248233 0.405681 0.316574
O O10 0.240876 0.296556 0.242613
O O11 0.608822 0.549749 0.500000
O O12 0.550876 0.577214 0.224959
O O13 0.546046 0.689770 0.794493
O O14 0.447122 0.629065 0.000000
O O15 0.841320 0.243962 0.500000
#
# Coordination Sequence:
#
# PCOD9444410 Si02
#       6
#     8   8   8   8   8   8
#     4  11  23  39  60  88 123 160 203 248 297 356
#     4  12  26  41  59  87 121 159 203 248 302 358
#     4  10  21  41  65  88 118 155 199 246 299 359
#     4   9  20  39  63  89 119 160 202 244 298 359
#     4  10  21  37  61  92 123 156 198 248 302 356
#     4  10  22  41  63  87 118 156 199 246 301 358
#
# _framework density 19.759847000000001
#
# number of rings (size 3 to 8) (size 9 to 14) (size 15 to 20)
#    0.000    1.667    0.000    4.000    2.333    6.667 
#    0.000    3.333    0.000    0.000    0.000    0.000 
#    0.000    0.000    0.000    0.000    0.000    0.000 
#
# Total GULP energy -268491.656882 kJ/mol
# GULP energy per Si atom -5593.576185 kJ/mol
# Density = 1.971487 g / cm^3
# Si number density = 19.759847 Si / 1000 Ang^3
#
#
#
# Elastic Constant Matrix: (Units=GPa)
#
#
# Indices 1 2 3 4 5 6 
#
# 1 89.3911 -3.2264 37.5243 0.0000 0.0000 0.0000
# 2 -3.2264 37.0665 16.5884 0.0000 0.0000 0.0000
# 3 37.5243 16.5884 86.1026 0.0000 0.0000 0.0000
# 4 0.0000 0.0000 0.0000 14.1318 0.0000 0.0000
# 5 0.0000 0.0000 0.0000 0.0000 25.0813 0.0000
# 6 0.0000 0.0000 0.0000 0.0000 0.0000 5.9254
#
#
#
# Elastic Compliance Matrix: (Units=1/GPa)
#
#
# Indices 1 2 3 4 5 6 
#
# 1 0.014325 0.004422 -0.007095 0.000000 0.000000 0.000000
# 2 0.004422 0.030889 -0.007878 0.000000 0.000000 0.000000
# 3 -0.007095 -0.007878 0.016224 0.000000 0.000000 0.000000
# 4 0.000000 0.000000 0.000000 0.070762 0.000000 0.000000
# 5 0.000000 0.000000 0.000000 0.000000 0.039870 0.000000
# 6 0.000000 0.000000 0.000000 0.000000 0.000000 0.168765
#
#
# Mechanical properties :
#
#
# Convention : Reuss Voigt Hill
#
# Bulk Modulus (GPa) = 24.79198 34.92587 29.85893
# Shear Modulus (GPa) = 13.31975 19.80595 16.56285
#
# Velocity S-wave (km/s) = 2.59912 3.16940 2.89832
# Velocity P-wave (km/s) = 4.64555 5.57737 5.13265
#
# Compressibility (1/GPa) = 0.04033563
#
# Stress axis : x y z
#
# Youngs Moduli (GPa) = 69.81000 32.37384 61.63787
#
# Poissons Ratio (x) = -0.14316 0.43730
# Poissons Ratio (y) = -0.30870 0.48559
# Poissons Ratio (z) = 0.49528 0.25505
#
# Static dielectric constant tensor:
#      x y z
#    x 1.679100 0.000000 0.000000 
#    y 0.000000 1.693130 0.000000 
#    z 0.000000 0.000000 1.655070 
# 
# From -- ./inp_files/4203.got.cif
#   From: 2010.05.17/outbox.cif.g08.bks.cpg/sg58_3_cif.got.tgz:4203.got - 2010.06.03 14:20:14.
