data_PCOD9444954
_publ_section_title
;
Structure prediction by ZEFSAII (Michael W. Deem and Ramdas Pophale) SiO2 
 PCOD9444954
Probable space group: P N N M
;
_chemical_formula_sum "Si O2"
_cell_formula_units_Z 32
_cell_length_a 23.254951
_cell_length_b 5.063808
_cell_length_c 11.421234
_cell_angle_alpha 90.000000
_cell_angle_beta 90.000000
_cell_angle_gamma 90.000000
_cell_volume 1344.948605
_symmetry_space_group_name_H-M "P N N M"
_symmetry_group_IT_number 58
_symmetry_cell_setting 'orthorhombic'
loop_
_space_group_symop_operation_xyz
x,y,z
-x,-y,z
1/2+x,1/2-y,1/2-z
1/2-x,1/2+y,1/2-z
-x,-y,-z
x,y,-z
1/2-x,1/2+y,1/2+z
1/2+x,1/2-y,1/2+z
loop_
_atom_site_type_symbol
_atom_site_label
_atom_site_fract_x
_atom_site_fract_y
_atom_site_fract_z
Si Si1 0.786221 0.735395 0.627849
Si Si2 0.827330 0.232306 0.752705
Si Si3 0.541790 0.253966 0.500000
Si Si4 0.041954 0.250170 0.500000
Si Si5 0.433396 0.910918 0.746235
O O1 0.804890 0.811928 0.500000
O O2 0.817553 0.930919 0.717499
O O3 0.717743 0.777236 0.642387
O O4 0.801528 0.432708 0.654641
O O5 0.891544 0.337006 0.764886
O O6 0.500000 0.500000 0.500000
O O7 0.575213 0.246819 0.624032
O O8 0.500000 0.000000 0.500000
O O9 0.074252 0.272767 0.625765
O O10 0.000000 0.500000 0.500000
O O11 0.000000 0.000000 0.500000
O O12 0.500000 0.000000 0.746548
#
# Coordination Sequence:
#
# PCOD9444954 Si02
#       5
#     8   8   4   4   8
#     4  10  22  41  65  89 127 161 216 266 318 375
#     4  10  23  40  63  96 120 169 210 262 323 378
#     4  10  22  40  62  86 126 168 206 250 307 372
#     4  10  22  38  58  86 126 164 202 246 301 368
#     4  10  23  42  65  96 130 168 211 262 318 388
#
# _framework density 23.792732000000001
#
# number of rings (size 3 to 8) (size 9 to 14) (size 15 to 20)
#    0.000    2.000    0.000    1.500    5.250    8.000 
#    0.000    0.000    0.000    0.000    0.000    0.000 
#    0.000    0.000    0.000    0.000    0.000    0.000 
#
# Total GULP energy -178671.017628 kJ/mol
# GULP energy per Si atom -5583.469301 kJ/mol
# Density = 2.373858 g / cm^3
# Si number density = 23.792732 Si / 1000 Ang^3
#
#
#
# Elastic Constant Matrix: (Units=GPa)
#
#
# Indices 1 2 3 4 5 6 
#
# 1 129.7771 -1.4199 16.5011 0.0000 0.0000 0.0000
# 2 -1.4199 90.2897 13.4361 0.0000 0.0000 0.0000
# 3 16.5011 13.4361 191.9859 0.0000 0.0000 0.0000
# 4 0.0000 0.0000 0.0000 15.3078 0.0000 0.0000
# 5 0.0000 0.0000 0.0000 0.0000 28.5090 0.0000
# 6 0.0000 0.0000 0.0000 0.0000 0.0000 42.4523
#
#
#
# Elastic Compliance Matrix: (Units=1/GPa)
#
#
# Indices 1 2 3 4 5 6 
#
# 1 0.007795 0.000225 -0.000686 0.000000 0.000000 0.000000
# 2 0.000225 0.011198 -0.000803 0.000000 0.000000 0.000000
# 3 -0.000686 -0.000803 0.005324 0.000000 0.000000 0.000000
# 4 0.000000 0.000000 0.000000 0.065326 0.000000 0.000000
# 5 0.000000 0.000000 0.000000 0.000000 0.035077 0.000000
# 6 0.000000 0.000000 0.000000 0.000000 0.000000 0.023556
#
#
# Mechanical properties :
#
#
# Convention : Reuss Voigt Hill
#
# Bulk Modulus (GPa) = 45.89410 52.12079 49.00744
# Shear Modulus (GPa) = 31.63205 42.82286 37.22746
#
# Velocity S-wave (km/s) = 3.65016 4.24704 3.95987
# Velocity P-wave (km/s) = 6.09064 6.78259 6.44591
#
# Compressibility (1/GPa) = 0.02178929
#
# Stress axis : x y z
#
# Youngs Moduli (GPa) = 128.28461 89.29773 187.83391
#
# Poissons Ratio (x) = -0.02006 0.12880
# Poissons Ratio (y) = -0.02882 0.15084
# Poissons Ratio (z) = 0.08797 0.07171
#
# Static dielectric constant tensor:
#      x y z
#    x 1.940940 0.000000 0.000000 
#    y 0.000000 1.840080 0.000000 
#    z 0.000000 0.000000 1.938950 
# 
# From -- ./inp_files/17275.got.cif
#   From: 2010.05.17/outbox.cif.g08.bks.cpg/sg58_9_cif.got.tgz:17275.got - 2010.06.03 14:20:14.
