data_PCOD9444123
_publ_section_title
;
Structure prediction by ZEFSAII (Michael W. Deem and Ramdas Pophale) SiO2 
 PCOD9444123
Probable space group: P N N M
;
_chemical_formula_sum "Si O2"
_cell_formula_units_Z 40
_cell_length_a 16.575412
_cell_length_b 4.901932
_cell_length_c 18.578728
_cell_angle_alpha 90.000000
_cell_angle_beta 90.000000
_cell_angle_gamma 90.000000
_cell_volume 1509.550308
_symmetry_space_group_name_H-M "P N N M"
_symmetry_group_IT_number 58
_symmetry_cell_setting 'orthorhombic'
loop_
_space_group_symop_operation_xyz
x,y,z
-x,-y,z
1/2+x,1/2-y,1/2-z
1/2-x,1/2+y,1/2-z
-x,-y,-z
x,y,-z
1/2-x,1/2+y,1/2+z
1/2+x,1/2-y,1/2+z
loop_
_atom_site_type_symbol
_atom_site_label
_atom_site_fract_x
_atom_site_fract_y
_atom_site_fract_z
Si Si1 0.823566 0.037953 0.187250
Si Si2 0.049678 0.732571 0.702120
Si Si3 0.554806 0.734427 0.582405
Si Si4 0.671872 0.136363 0.126947
Si Si5 0.264599 0.854014 0.579117
O O1 0.880067 0.114092 0.253200
O O2 0.861029 0.228008 0.123397
O O3 0.820794 0.745941 0.146583
O O4 0.730210 0.119173 0.197907
O O5 0.089495 0.515910 0.646399
O O6 0.000000 0.500000 0.747576
O O7 0.000000 0.000000 0.675980
O O8 0.500000 0.500000 0.618347
O O9 0.570311 0.652158 0.500000
O O10 0.500000 0.000000 0.582122
O O11 0.716085 0.930131 0.074010
O O12 0.692757 0.433189 0.097636
O O13 0.302218 0.908685 0.500000
#
# Coordination Sequence:
#
# PCOD9444123 Si02
#       5
#     8   8   8   8   8
#     4  10  25  41  72 103 141 190 254 300 369 446
#     4  12  27  46  73 103 154 204 252 315 389 463
#     4  10  21  35  56  94 143 184 227 285 352 429
#     4  10  25  43  70 106 147 190 256 315 370 450
#     4  10  22  43  75 107 142 185 250 318 377 439
#
# _framework density 26.497955999999999
#
# number of rings (size 3 to 8) (size 9 to 14) (size 15 to 20)
#    1.200    0.400    0.000    3.600    5.600    3.200 
#    0.000    0.000    0.000   12.000    0.000    0.000 
#    0.000    0.000    0.000    0.000    0.000    0.000 
#
# Total GULP energy -222870.190492 kJ/mol
# GULP energy per Si atom -5571.754762 kJ/mol
# Density = 2.643765 g / cm^3
# Si number density = 26.497956 Si / 1000 Ang^3
#
#
#
# Elastic Constant Matrix: (Units=GPa)
#
#
# Indices 1 2 3 4 5 6 
#
# 1 111.8058 48.0377 14.4579 0.0000 0.0000 0.0000
# 2 48.0377 231.0088 28.5148 0.0000 0.0000 0.0000
# 3 14.4579 28.5148 71.4657 0.0000 0.0000 0.0000
# 4 0.0000 0.0000 0.0000 35.1139 0.0000 0.0000
# 5 0.0000 0.0000 0.0000 0.0000 5.9068 0.0000
# 6 0.0000 0.0000 0.0000 0.0000 0.0000 59.6554
#
#
#
# Elastic Compliance Matrix: (Units=1/GPa)
#
#
# Indices 1 2 3 4 5 6 
#
# 1 0.009926 -0.001910 -0.001246 0.000000 0.000000 0.000000
# 2 -0.001910 0.004921 -0.001577 0.000000 0.000000 0.000000
# 3 -0.001246 -0.001577 0.014874 0.000000 0.000000 0.000000
# 4 0.000000 0.000000 0.000000 0.028479 0.000000 0.000000
# 5 0.000000 0.000000 0.000000 0.000000 0.169297 0.000000
# 6 0.000000 0.000000 0.000000 0.000000 0.000000 0.016763
#
#
# Mechanical properties :
#
#
# Convention : Reuss Voigt Hill
#
# Bulk Modulus (GPa) = 49.37175 66.25568 57.81372
# Shear Modulus (GPa) = 19.19558 41.68654 30.44106
#
# Velocity S-wave (km/s) = 2.69442 3.97066 3.39308
# Velocity P-wave (km/s) = 5.32472 6.78822 6.10051
#
# Compressibility (1/GPa) = 0.02025450
#
# Stress axis : x y z
#
# Youngs Moduli (GPa) = 100.74605 203.22201 67.23163
#
# Poissons Ratio (x) = 0.38821 0.08376
# Poissons Ratio (y) = 0.19245 0.10602
# Poissons Ratio (z) = 0.12552 0.32046
#
# Static dielectric constant tensor:
#      x y z
#    x 2.323000 0.000000 0.000000 
#    y 0.000000 2.188830 0.000000 
#    z 0.000000 0.000000 2.199830 
# 
# From -- ./inp_files/30188.got.cif
#   From: 2010.05.17/outbox.cif.g08.bks.cpg/sg58_16_cif.got.tgz:30188.got - 2010.06.03 14:20:14.
