data_PCOD9444173
_publ_section_title
;
Structure prediction by ZEFSAII (Michael W. Deem and Ramdas Pophale) SiO2 
 PCOD9444173
Probable space group: P N N M
;
_chemical_formula_sum "Si O2"
_cell_formula_units_Z 56
_cell_length_a 14.438584
_cell_length_b 19.953255
_cell_length_c 7.500311
_cell_angle_alpha 90.000000
_cell_angle_beta 90.000000
_cell_angle_gamma 90.000000
_cell_volume 2160.815211
_symmetry_space_group_name_H-M "P N N M"
_symmetry_group_IT_number 58
_symmetry_cell_setting 'orthorhombic'
loop_
_space_group_symop_operation_xyz
x,y,z
-x,-y,z
1/2+x,1/2-y,1/2-z
1/2-x,1/2+y,1/2-z
-x,-y,-z
x,y,-z
1/2-x,1/2+y,1/2+z
1/2+x,1/2-y,1/2+z
loop_
_atom_site_type_symbol
_atom_site_label
_atom_site_fract_x
_atom_site_fract_y
_atom_site_fract_z
Si Si1 0.533269 0.568535 0.203587
Si Si2 0.714554 0.506868 0.705792
Si Si3 0.278400 0.787691 0.784222
Si Si4 0.059390 0.789405 0.289607
Si Si5 0.610481 0.078551 0.783245
Si Si6 0.714221 0.358573 0.795277
Si Si7 0.930329 0.358227 0.717581
O O1 0.500000 0.500000 0.293912
O O2 0.643242 0.554899 0.196409
O O3 0.517637 0.641622 0.284910
O O4 0.497682 0.568768 0.000000
O O5 0.711719 0.527790 0.500000
O O6 0.819561 0.519556 0.770444
O O7 0.684567 0.429621 0.716868
O O8 0.170657 0.793340 0.732547
O O9 0.336663 0.852575 0.731775
O O10 0.311878 0.714318 0.719229
O O11 0.281717 0.785592 0.000000
O O12 0.038498 0.790489 0.500000
O O13 0.032455 0.715513 0.226900
O O14 0.504645 0.086521 0.723931
O O15 0.604324 0.075647 0.000000
O O16 0.826203 0.362073 0.785256
O O17 0.685528 0.358971 0.000000
O O18 0.923730 0.359647 0.500000
#
# Coordination Sequence:
#
# PCOD9444173 Si02
#       7
#     8   8   8   8   8   8   8
#     4  10  21  36  55  82 114 147 182 223 279 338
#     4  11  22  37  57  80 110 148 188 229 276 330
#     4   9  17  33  56  77 101 140 185 226 272 328
#     4   9  17  31  53  78 104 136 174 223 273 321
#     4   9  18  33  56  82 105 141 188 228 269 325
#     4  10  21  36  55  80 113 147 182 228 280 330
#     4   9  18  34  55  79 106 139 185 230 273 323
#
# _framework density 25.916146000000001
#
# number of rings (size 3 to 8) (size 9 to 14) (size 15 to 20)
#    0.000    2.429    1.429    0.857    0.000    2.571 
#    0.000    9.286    0.000    3.429    0.000    0.000 
#    0.000    0.000    0.000    0.000    0.000    0.000 
#
# Total GULP energy -312979.116034 kJ/mol
# GULP energy per Si atom -5588.912786 kJ/mol
# Density = 2.585716 g / cm^3
# Si number density = 25.916146 Si / 1000 Ang^3
#
#
#
# Elastic Constant Matrix: (Units=GPa)
#
#
# Indices 1 2 3 4 5 6 
#
# 1 65.3041 7.5918 -2.2752 0.0000 0.0000 0.0000
# 2 7.5918 133.2196 2.8795 0.0000 0.0000 0.0000
# 3 -2.2752 2.8795 77.3108 0.0000 0.0000 0.0000
# 4 0.0000 0.0000 0.0000 11.3299 0.0000 0.0000
# 5 0.0000 0.0000 0.0000 0.0000 1.1298 0.0000
# 6 0.0000 0.0000 0.0000 0.0000 0.0000 44.8215
#
#
#
# Elastic Compliance Matrix: (Units=1/GPa)
#
#
# Indices 1 2 3 4 5 6 
#
# 1 0.015433 -0.000890 0.000487 0.000000 0.000000 0.000000
# 2 -0.000890 0.007564 -0.000308 0.000000 0.000000 0.000000
# 3 0.000487 -0.000308 0.012961 0.000000 0.000000 0.000000
# 4 0.000000 0.000000 0.000000 0.088262 0.000000 0.000000
# 5 0.000000 0.000000 0.000000 0.000000 0.885119 0.000000
# 6 0.000000 0.000000 0.000000 0.000000 0.000000 0.022311
#
#
# Mechanical properties :
#
#
# Convention : Reuss Voigt Hill
#
# Bulk Modulus (GPa) = 28.95480 32.46965 30.71222
# Shear Modulus (GPa) = 4.78660 29.29880 17.04270
#
# Velocity S-wave (km/s) = 1.36050 3.36597 2.56717
# Velocity P-wave (km/s) = 3.69658 5.25950 4.54571
#
# Compressibility (1/GPa) = 0.03453659
#
# Stress axis : x y z
#
# Youngs Moduli (GPa) = 64.79444 132.20905 77.15679
#
# Poissons Ratio (x) = 0.11767 -0.03760
# Poissons Ratio (y) = 0.05767 0.02376
# Poissons Ratio (z) = -0.03158 0.04071
#
# Static dielectric constant tensor:
#      x y z
#    x 2.070430 0.000000 0.000000 
#    y 0.000000 2.052400 0.000000 
#    z 0.000000 0.000000 1.984870 
# 
# From -- ./inp_files/6344.got.cif
#   From: 2010.05.17/outbox.cif.g08.bks.cpg/sg58_4_cif.got.tgz:6344.got - 2010.06.03 14:20:14.
