data_PCOD9444564
_publ_section_title
;
Structure prediction by ZEFSAII (Michael W. Deem and Ramdas Pophale) SiO2 
 PCOD9444564
Probable space group: P N N M
;
_chemical_formula_sum "Si O2"
_cell_formula_units_Z 48
_cell_length_a 8.201636
_cell_length_b 18.037821
_cell_length_c 14.050577
_cell_angle_alpha 90.000000
_cell_angle_beta 90.000000
_cell_angle_gamma 90.000000
_cell_volume 2078.637332
_symmetry_space_group_name_H-M "P N N M"
_symmetry_group_IT_number 58
_symmetry_cell_setting 'orthorhombic'
loop_
_space_group_symop_operation_xyz
x,y,z
-x,-y,z
1/2+x,1/2-y,1/2-z
1/2-x,1/2+y,1/2-z
-x,-y,-z
x,y,-z
1/2-x,1/2+y,1/2+z
1/2+x,1/2-y,1/2+z
loop_
_atom_site_type_symbol
_atom_site_label
_atom_site_fract_x
_atom_site_fract_y
_atom_site_fract_z
Si Si1 0.328176 0.042020 0.892884
Si Si2 0.233909 0.267542 0.392656
Si Si3 0.887638 0.725142 0.898597
Si Si4 0.171176 0.913813 0.202558
Si Si5 0.818572 0.844321 0.240299
Si Si6 0.843228 0.551791 0.107439
O O1 0.311713 0.100416 0.806576
O O2 0.500000 0.000000 0.887038
O O3 0.194829 0.977746 0.875072
O O4 0.309233 0.073503 0.000000
O O5 0.171036 0.277433 0.500000
O O6 0.428914 0.255240 0.397460
O O7 0.217961 0.343949 0.332891
O O8 0.175228 0.190153 0.345600
O O9 0.792922 0.768214 0.818150
O O10 0.896357 0.637525 0.890320
O O11 0.810507 0.742988 0.000000
O O12 0.224774 0.951277 0.302397
O O13 0.990084 0.882919 0.216739
O O14 0.000000 0.500000 0.120371
O O15 0.777346 0.536699 0.000000
#
# Coordination Sequence:
#
# PCOD9444564 Si02
#       6
#     8   8   8   8   8   8
#     4  11  26  45  68  97 129 169 220 278 340 409
#     4  10  22  39  62  93 131 176 219 271 330 394
#     4   9  19  38  62  90 124 169 222 268 326 393
#     4  11  23  41  65  96 135 174 223 274 338 404
#     4  11  23  40  67  98 133 174 216 281 337 399
#     4  10  21  38  63  94 132 178 228 280 334 402
#
# _framework density 23.092051999999999
#
# number of rings (size 3 to 8) (size 9 to 14) (size 15 to 20)
#    0.000    1.667    1.667    2.000    4.667    3.333 
#    0.000    0.000    0.000    2.500    0.000    0.000 
#    0.000    0.000    0.000    0.000    0.000    0.000 
#
# Total GULP energy -267890.335395 kJ/mol
# GULP energy per Si atom -5581.048654 kJ/mol
# Density = 2.303949 g / cm^3
# Si number density = 23.092052 Si / 1000 Ang^3
#
#
#
# Elastic Constant Matrix: (Units=GPa)
#
#
# Indices 1 2 3 4 5 6 
#
# 1 37.8100 15.0220 23.9017 0.0000 0.0000 0.0000
# 2 15.0220 101.1854 35.1934 0.0000 0.0000 0.0000
# 3 23.9017 35.1934 115.6077 0.0000 0.0000 0.0000
# 4 0.0000 0.0000 0.0000 31.2248 0.0000 0.0000
# 5 0.0000 0.0000 0.0000 0.0000 15.8361 0.0000
# 6 0.0000 0.0000 0.0000 0.0000 0.0000 27.3123
#
#
#
# Elastic Compliance Matrix: (Units=1/GPa)
#
#
# Indices 1 2 3 4 5 6 
#
# 1 0.031051 -0.002658 -0.005610 0.000000 0.000000 0.000000
# 2 -0.002658 0.011281 -0.002884 0.000000 0.000000 0.000000
# 3 -0.005610 -0.002884 0.010688 0.000000 0.000000 0.000000
# 4 0.000000 0.000000 0.000000 0.032026 0.000000 0.000000
# 5 0.000000 0.000000 0.000000 0.000000 0.063147 0.000000
# 6 0.000000 0.000000 0.000000 0.000000 0.000000 0.036614
#
#
# Mechanical properties :
#
#
# Convention : Reuss Voigt Hill
#
# Bulk Modulus (GPa) = 32.55957 44.75969 38.65963
# Shear Modulus (GPa) = 23.00434 26.90704 24.95569
#
# Velocity S-wave (km/s) = 3.15969 3.41722 3.29097
# Velocity P-wave (km/s) = 5.23851 5.91566 5.58736
#
# Compressibility (1/GPa) = 0.03071294
#
# Stress axis : x y z
#
# Youngs Moduli (GPa) = 32.20522 88.64642 93.56302
#
# Poissons Ratio (x) = 0.23566 0.52493
# Poissons Ratio (y) = 0.08562 0.26988
# Poissons Ratio (z) = 0.18068 0.25570
#
# Static dielectric constant tensor:
#      x y z
#    x 1.852360 0.000000 0.000000 
#    y 0.000000 1.873830 0.000000 
#    z 0.000000 0.000000 1.932620 
# 
# From -- ./inp_files/19841.got.cif
#   From: 2010.05.17/outbox.cif.g08.bks.cpg/sg58_10_cif.got.tgz:19841.got - 2010.06.03 14:20:14.
