data_PCOD9444262
_publ_section_title
;
Structure prediction by ZEFSAII (Michael W. Deem and Ramdas Pophale) SiO2 
 PCOD9444262
Probable space group: P N N M
;
_chemical_formula_sum "Si O2"
_cell_formula_units_Z 36
_cell_length_a 6.232770
_cell_length_b 22.608447
_cell_length_c 13.045925
_cell_angle_alpha 90.000000
_cell_angle_beta 90.000000
_cell_angle_gamma 90.000000
_cell_volume 1838.343694
_symmetry_space_group_name_H-M "P N N M"
_symmetry_group_IT_number 58
_symmetry_cell_setting 'orthorhombic'
loop_
_space_group_symop_operation_xyz
x,y,z
-x,-y,z
1/2+x,1/2-y,1/2-z
1/2-x,1/2+y,1/2-z
-x,-y,-z
x,y,-z
1/2-x,1/2+y,1/2+z
1/2+x,1/2-y,1/2+z
loop_
_atom_site_type_symbol
_atom_site_label
_atom_site_fract_x
_atom_site_fract_y
_atom_site_fract_z
Si Si1 0.665529 0.922114 0.117984
Si Si2 0.414163 0.191510 0.618760
Si Si3 0.288911 0.897313 0.730823
Si Si4 0.412783 0.686101 0.697456
Si Si5 0.000000 0.000000 0.246498
O O1 0.445459 0.922368 0.181153
O O2 0.763031 0.856058 0.128935
O O3 0.638235 0.937883 0.000000
O O4 0.837082 0.963447 0.175047
O O5 0.355576 0.190732 0.500000
O O6 0.561104 0.135309 0.648794
O O7 0.544109 0.251024 0.646540
O O8 0.210246 0.191907 0.694328
O O9 0.134224 0.848177 0.781186
O O10 0.138566 0.951043 0.693272
#
# Coordination Sequence:
#
# PCOD9444262 Si02
#       5
#     8   8   8   8   4
#     4  10  21  36  61  92 123 162 203 251 312 368
#     4  11  22  39  63  88 122 164 202 252 312 366
#     4  10  22  39  58  86 125 160 204 252 303 366
#     4  10  21  40  57  90 126 155 202 253 302 371
#     4  10  21  38  61  86 126 164 205 260 303 354
#
# _framework density 19.582847000000001
#
# number of rings (size 3 to 8) (size 9 to 14) (size 15 to 20)
#    0.000    1.778    2.222    1.667    0.000    7.111 
#    0.000    0.556    0.000   17.333    0.000    0.000 
#    0.000    0.000    0.000    0.000    0.000    0.000 
#
# Total GULP energy -201073.036262 kJ/mol
# GULP energy per Si atom -5585.362118 kJ/mol
# Density = 1.953828 g / cm^3
# Si number density = 19.582847 Si / 1000 Ang^3
#
#
#
# Elastic Constant Matrix: (Units=GPa)
#
#
# Indices 1 2 3 4 5 6 
#
# 1 85.8360 30.3271 15.6735 0.0000 0.0000 0.0000
# 2 30.3271 94.9705 18.4268 0.0000 0.0000 0.0000
# 3 15.6735 18.4268 74.6778 0.0000 0.0000 0.0000
# 4 0.0000 0.0000 0.0000 4.3495 0.0000 0.0000
# 5 0.0000 0.0000 0.0000 0.0000 3.0084 0.0000
# 6 0.0000 0.0000 0.0000 0.0000 0.0000 42.7265
#
#
#
# Elastic Compliance Matrix: (Units=1/GPa)
#
#
# Indices 1 2 3 4 5 6 
#
# 1 0.013368 -0.003912 -0.001841 0.000000 0.000000 0.000000
# 2 -0.003912 0.012204 -0.002190 0.000000 0.000000 0.000000
# 3 -0.001841 -0.002190 0.014318 0.000000 0.000000 0.000000
# 4 0.000000 0.000000 0.000000 0.229914 0.000000 0.000000
# 5 0.000000 0.000000 0.000000 0.000000 0.332399 0.000000
# 6 0.000000 0.000000 0.000000 0.000000 0.000000 0.023405
#
#
# Mechanical properties :
#
#
# Convention : Reuss Voigt Hill
#
# Bulk Modulus (GPa) = 41.65897 42.70435 42.18166
# Shear Modulus (GPa) = 7.69830 22.75400 15.22615
#
# Velocity S-wave (km/s) = 1.98486 3.41241 2.79144
# Velocity P-wave (km/s) = 5.15483 6.11396 5.65477
#
# Compressibility (1/GPa) = 0.02400444
#
# Stress axis : x y z
#
# Youngs Moduli (GPa) = 74.80383 81.94224 69.84413
#
# Poissons Ratio (x) = 0.32054 0.12855
# Poissons Ratio (y) = 0.29262 0.15298
# Poissons Ratio (z) = 0.13768 0.17948
#
# Static dielectric constant tensor:
#      x y z
#    x 1.690350 0.000000 0.000000 
#    y 0.000000 1.722460 0.000000 
#    z 0.000000 0.000000 1.616700 
# 
# From -- ./inp_files/11664.got.cif
#   From: 2010.05.17/outbox.cif.g08.bks.cpg/sg58_6_cif.got.tgz:11664.got - 2010.06.03 14:20:14.
