data_PCOD9444024
_publ_section_title
;
Structure prediction by ZEFSAII (Michael W. Deem and Ramdas Pophale) SiO2 
 PCOD9444024
Probable space group: P N N M
;
_chemical_formula_sum "Si O2"
_cell_formula_units_Z 58
_cell_length_a 16.652406
_cell_length_b 18.526119
_cell_length_c 7.893269
_cell_angle_alpha 90.000000
_cell_angle_beta 90.000000
_cell_angle_gamma 90.000000
_cell_volume 2435.108653
_symmetry_space_group_name_H-M "P N N M"
_symmetry_group_IT_number 58
_symmetry_cell_setting 'orthorhombic'
loop_
_space_group_symop_operation_xyz
x,y,z
-x,-y,z
1/2+x,1/2-y,1/2-z
1/2-x,1/2+y,1/2-z
-x,-y,-z
x,y,-z
1/2-x,1/2+y,1/2+z
1/2+x,1/2-y,1/2+z
loop_
_atom_site_type_symbol
_atom_site_label
_atom_site_fract_x
_atom_site_fract_y
_atom_site_fract_z
Si Si1 0.500000 0.500000 0.000000
Si Si2 0.912770 0.065939 0.809485
Si Si3 0.311593 0.063531 0.689368
Si Si4 0.950730 0.347978 0.312604
Si Si5 0.794464 0.813242 0.798547
Si Si6 0.773625 0.169110 0.302733
Si Si7 0.974196 0.796361 0.802424
Si Si8 0.112486 0.418962 0.198835
O O1 0.568043 0.514565 0.152049
O O2 0.831448 0.112556 0.788022
O O3 0.981917 0.127299 0.794970
O O4 0.914092 0.033979 0.000000
O O5 0.287164 0.042392 0.500000
O O6 0.385351 0.119477 0.688434
O O7 0.238817 0.107132 0.769030
O O8 0.348078 0.991720 0.770969
O O9 0.916396 0.357831 0.500000
O O10 0.973702 0.265008 0.286056
O O11 0.033261 0.391971 0.290596
O O12 0.733987 0.750741 0.733939
O O13 0.884402 0.802786 0.730757
O O14 0.798598 0.801650 0.000000
O O15 0.799743 0.170759 0.500000
O O16 0.682440 0.140259 0.296350
O O17 0.969162 0.774291 0.000000
O O18 0.091023 0.431028 0.000000
#
# Coordination Sequence:
#
# PCOD9444024 Si02
#       8
#     2   8   8   8   8   8   8   8
#     4  12  26  48  68  94 140 176 226 300 332 406
#     4  11  25  44  71 101 134 183 232 279 348 407
#     4  11  24  40  61  92 129 170 214 265 327 397
#     4  12  24  38  64  96 130 170 216 271 331 394
#     4  10  21  40  67  95 131 169 213 277 338 392
#     4  10  20  41  68  94 129 175 222 275 340 402
#     4  10  22  43  68  97 130 170 221 277 328 397
#     4  10  22  42  65  91 130 178 220 264 333 400
#
# _framework density 23.818239999999999
#
# number of rings (size 3 to 8) (size 9 to 14) (size 15 to 20)
#    0.000    1.379    2.069    3.103    0.966    7.724 
#    2.483    1.379    0.000    0.000    0.000    0.000 
#    0.000    0.000    0.000    0.000    0.000    0.000 
#
# Total GULP energy -323940.097618 kJ/mol
# GULP energy per Si atom -5585.174097 kJ/mol
# Density = 2.376403 g / cm^3
# Si number density = 23.818240 Si / 1000 Ang^3
#
#
#
# Elastic Constant Matrix: (Units=GPa)
#
#
# Indices 1 2 3 4 5 6 
#
# 1 62.9096 -7.1943 0.5388 0.0000 0.0000 0.0000
# 2 -7.1943 46.5452 6.8961 0.0000 0.0000 0.0000
# 3 0.5388 6.8961 87.5980 0.0000 0.0000 0.0000
# 4 0.0000 0.0000 0.0000 24.3098 0.0000 0.0000
# 5 0.0000 0.0000 0.0000 0.0000 -24.0170 0.0000
# 6 0.0000 0.0000 0.0000 0.0000 0.0000 12.9988
#
#
#
# Elastic Compliance Matrix: (Units=1/GPa)
#
#
# Indices 1 2 3 4 5 6 
#
# 1 0.016190 0.002547 -0.000300 0.000000 0.000000 0.000000
# 2 0.002547 0.022139 -0.001759 0.000000 0.000000 0.000000
# 3 -0.000300 -0.001759 0.011556 0.000000 0.000000 0.000000
# 4 0.000000 0.000000 0.000000 0.041136 0.000000 0.000000
# 5 0.000000 0.000000 0.000000 0.000000 -0.041637 0.000000
# 6 0.000000 0.000000 0.000000 0.000000 0.000000 0.076930
#
#
# Mechanical properties :
#
#
# Convention : Reuss Voigt Hill
#
# Bulk Modulus (GPa) = 19.66147 21.94821 20.80484
# Shear Modulus (GPa) = 35.13947 15.77914 25.45931
#
# Velocity S-wave (km/s) = 3.84515 2.57666 3.27295
# Velocity P-wave (km/s) = 5.29021 4.25290 4.79966
#
# Compressibility (1/GPa) = 0.05086089
#
# Stress axis : x y z
#
# Youngs Moduli (GPa) = 61.76784 45.16983 86.53461
#
# Poissons Ratio (x) = -0.11504 0.02597
# Poissons Ratio (y) = -0.15731 0.15217
# Poissons Ratio (z) = 0.01854 0.07943
#
# Static dielectric constant tensor:
#      x y z
#    x 1.885260 0.000000 0.000000 
#    y 0.000000 1.920830 0.000000 
#    z 0.000000 0.000000 3.337910 
# 
# From -- ./inp_files/8042.got.cif
#   From: 2010.05.17/outbox.cif.g08.bks.cpg/sg58_5_cif.got.tgz:8042.got - 2010.06.03 14:20:14.
