data_PCOD9444203
_publ_section_title
;
Structure prediction by ZEFSAII (Michael W. Deem and Ramdas Pophale) SiO2 
 PCOD9444203
Probable space group: P N N M
;
_chemical_formula_sum "Si O2"
_cell_formula_units_Z 64
_cell_length_a 18.111752
_cell_length_b 13.714257
_cell_length_c 13.797967
_cell_angle_alpha 90.000000
_cell_angle_beta 90.000000
_cell_angle_gamma 90.000000
_cell_volume 3427.266283
_symmetry_space_group_name_H-M "P N N M"
_symmetry_group_IT_number 58
_symmetry_cell_setting 'orthorhombic'
loop_
_space_group_symop_operation_xyz
x,y,z
-x,-y,z
1/2+x,1/2-y,1/2-z
1/2-x,1/2+y,1/2-z
-x,-y,-z
x,y,-z
1/2-x,1/2+y,1/2+z
1/2+x,1/2-y,1/2+z
loop_
_atom_site_type_symbol
_atom_site_label
_atom_site_fract_x
_atom_site_fract_y
_atom_site_fract_z
Si Si1 0.576041 0.061838 0.886125
Si Si2 0.809501 0.449192 0.250909
Si Si3 0.079987 0.522681 0.890584
Si Si4 0.066227 0.868346 0.613631
Si Si5 0.796808 0.273026 0.610185
Si Si6 0.864080 0.697446 0.107487
Si Si7 0.576933 0.279002 0.806712
Si Si8 0.327748 0.549654 0.885571
O O1 0.642920 0.023758 0.817456
O O2 0.564887 0.175476 0.860397
O O3 0.500000 0.000000 0.871115
O O4 0.594734 0.051366 0.000000
O O5 0.870373 0.409746 0.174826
O O6 0.785758 0.363071 0.320289
O O7 0.739491 0.479328 0.185671
O O8 0.117915 0.416902 0.891000
O O9 0.000000 0.500000 0.849282
O O10 0.071534 0.558991 0.000000
O O11 0.042910 0.862074 0.500000
O O12 0.130565 0.789281 0.630871
O O13 0.997210 0.841779 0.679716
O O14 0.105512 0.972524 0.626619
O O15 0.803964 0.308678 0.500000
O O16 0.723629 0.208407 0.616429
O O17 0.902836 0.752498 0.196047
O O18 0.885790 0.734379 0.000000
O O19 0.641678 0.344064 0.855072
O O20 0.306117 0.547149 0.000000
#
# Coordination Sequence:
#
# PCOD9444203 Si02
#       8
#     8   8   8   8   8   8   8   8
#     4  11  24  40  61  92 127 160 197 248 309 370
#     4  12  21  35  59  88 121 160 195 244 296 359
#     4  10  21  36  57  86 119 155 195 242 297 355
#     4  10  22  39  63  88 117 155 203 252 296 354
#     4  10  21  38  59  86 117 160 208 245 287 356
#     4  10  21  39  60  84 119 159 201 240 290 361
#     4  12  22  40  64  91 120 158 197 253 311 354
#     4  11  24  40  60  89 121 159 206 256 303 353
#
# _framework density 18.673774999999999
#
# number of rings (size 3 to 8) (size 9 to 14) (size 15 to 20)
#    0.000    1.250    2.500    4.125    1.750    5.000 
#    0.000    0.000    0.000    3.000    0.000    0.000 
#    0.000    0.000    0.000    0.000    0.000    0.000 
#
# Total GULP energy -357256.146585 kJ/mol
# GULP energy per Si atom -5582.127290 kJ/mol
# Density = 1.863127 g / cm^3
# Si number density = 18.673775 Si / 1000 Ang^3
#
#
#
# Elastic Constant Matrix: (Units=GPa)
#
#
# Indices 1 2 3 4 5 6 
#
# 1 96.1790 23.1577 52.0067 0.0000 0.0000 0.0000
# 2 23.1577 67.1375 29.5519 0.0000 0.0000 0.0000
# 3 52.0067 29.5519 123.3058 0.0000 0.0000 0.0000
# 4 0.0000 0.0000 0.0000 3.5768 0.0000 0.0000
# 5 0.0000 0.0000 0.0000 0.0000 -780.4443 0.0000
# 6 0.0000 0.0000 0.0000 0.0000 0.0000 28.2255
#
#
#
# Elastic Compliance Matrix: (Units=1/GPa)
#
#
# Indices 1 2 3 4 5 6 
#
# 1 0.013824 -0.002461 -0.005240 0.000000 0.000000 0.000000
# 2 -0.002461 0.017090 -0.003058 0.000000 0.000000 0.000000
# 3 -0.005240 -0.003058 0.011053 0.000000 0.000000 0.000000
# 4 0.000000 0.000000 0.000000 0.279583 0.000000 0.000000
# 5 0.000000 0.000000 0.000000 0.000000 -0.001281 0.000000
# 6 0.000000 0.000000 0.000000 0.000000 0.000000 0.035429
#
#
# Mechanical properties :
#
#
# Convention : Reuss Voigt Hill
#
# Bulk Modulus (GPa) = 48.90642 55.11722 52.01182
# Shear Modulus (GPa) = 13.01974 -137.60135 -62.29080
#
# Velocity S-wave (km/s) = 2.64336 -8.59342 -5.78185
# Velocity P-wave (km/s) = 5.96349 8.29956 4.08163
#
# Compressibility (1/GPa) = 0.02044721
#
# Stress axis : x y z
#
# Youngs Moduli (GPa) = 72.34002 58.51477 90.47331
#
# Poissons Ratio (x) = 0.14403 0.47412
# Poissons Ratio (y) = 0.17806 0.27663
# Poissons Ratio (z) = 0.37909 0.17892
#
# Static dielectric constant tensor:
#      x y z
#    x 1.662580 0.000000 0.000000 
#    y 0.000000 1.651430 0.000000 
#    z 0.000000 0.000000 1.673130 
# 
# From -- ./inp_files/22969.got.cif
#   From: 2010.05.17/outbox.cif.g08.bks.cpg/sg58_12_cif.got.tgz:22969.got - 2010.06.03 14:20:14.
