data_PCOD9444405
_publ_section_title
;
Structure prediction by ZEFSAII (Michael W. Deem and Ramdas Pophale) SiO2 
 PCOD9444405
Probable space group: P N N M
;
_chemical_formula_sum "Si O2"
_cell_formula_units_Z 64
_cell_length_a 24.543803
_cell_length_b 15.827728
_cell_length_c 8.024123
_cell_angle_alpha 90.000000
_cell_angle_beta 90.000000
_cell_angle_gamma 90.000000
_cell_volume 3117.152229
_symmetry_space_group_name_H-M "P N N M"
_symmetry_group_IT_number 58
_symmetry_cell_setting 'orthorhombic'
loop_
_space_group_symop_operation_xyz
x,y,z
-x,-y,z
1/2+x,1/2-y,1/2-z
1/2-x,1/2+y,1/2-z
-x,-y,-z
x,y,-z
1/2-x,1/2+y,1/2+z
1/2+x,1/2-y,1/2+z
loop_
_atom_site_type_symbol
_atom_site_label
_atom_site_fract_x
_atom_site_fract_y
_atom_site_fract_z
Si Si1 0.366512 0.163957 0.298100
Si Si2 0.437462 0.004021 0.703790
Si Si3 0.372992 0.351920 0.305841
Si Si4 0.363747 0.846484 0.298222
Si Si5 0.939648 0.988433 0.303693
Si Si6 0.362246 0.660098 0.801289
Si Si7 0.744563 0.598470 0.193628
Si Si8 0.748324 0.909525 0.193272
O O1 0.366399 0.165247 0.500000
O O2 0.406680 0.089230 0.242871
O O3 0.383204 0.257363 0.240991
O O4 0.305603 0.141275 0.241847
O O5 0.437281 0.004091 0.500000
O O6 0.500000 0.000000 0.758231
O O7 0.402870 0.922379 0.757441
O O8 0.388169 0.355745 0.500000
O O9 0.405609 0.425797 0.215471
O O10 0.308687 0.370239 0.288343
O O11 0.363244 0.847455 0.500000
O O12 0.381176 0.754447 0.238636
O O13 0.301732 0.864782 0.242707
O O14 0.946302 0.969855 0.500000
O O15 0.903849 0.910990 0.234983
O O16 0.000000 0.000000 0.230813
O O17 0.302825 0.643649 0.724538
O O18 0.356718 0.649898 0.000000
O O19 0.748225 0.496979 0.205850
O O20 0.738061 0.622690 0.000000
O O21 0.745338 0.932943 0.000000
#
# Coordination Sequence:
#
# PCOD9444405 Si02
#       8
#     8   8   8   8   8   8   8   8
#     4  10  21  39  60  88 123 157 195 239 295 354
#     4   9  18  36  61  86 116 157 201 243 290 344
#     4  11  23  37  60  92 120 153 195 247 297 346
#     4  10  21  37  61  90 120 156 197 240 289 351
#     4  10  23  43  63  82 113 162 207 244 297 357
#     4  11  23  39  61  87 119 157 192 241 299 351
#     4  11  21  37  60  86 120 159 191 235 298 358
#     4  12  23  36  60  91 120 153 195 242 293 353
#
# _framework density 20.531559999999999
#
# number of rings (size 3 to 8) (size 9 to 14) (size 15 to 20)
#    0.000    1.500    2.500    3.000    0.000    5.750 
#    0.000    1.250    0.000    1.500    0.000    0.000 
#    0.000    0.000    0.000    0.000    0.000    0.000 
#
# Total GULP energy -357777.514122 kJ/mol
# GULP energy per Si atom -5590.273658 kJ/mol
# Density = 2.048483 g / cm^3
# Si number density = 20.531560 Si / 1000 Ang^3
#
#
#
# Elastic Constant Matrix: (Units=GPa)
#
#
# Indices 1 2 3 4 5 6 
#
# 1 138.2672 62.2606 -2.1365 0.0000 0.0000 0.0000
# 2 62.2606 151.5186 -12.6050 0.0000 0.0000 0.0000
# 3 -2.1365 -12.6050 18.3020 0.0000 0.0000 0.0000
# 4 0.0000 0.0000 0.0000 4.7817 0.0000 0.0000
# 5 0.0000 0.0000 0.0000 0.0000 -2.2553 0.0000
# 6 0.0000 0.0000 0.0000 0.0000 0.0000 -2.0850
#
#
#
# Elastic Compliance Matrix: (Units=1/GPa)
#
#
# Indices 1 2 3 4 5 6 
#
# 1 0.008917 -0.003795 -0.001573 0.000000 0.000000 0.000000
# 2 -0.003795 0.008616 0.005491 0.000000 0.000000 0.000000
# 3 -0.001573 0.005491 0.058237 0.000000 0.000000 0.000000
# 4 0.000000 0.000000 0.000000 0.209133 0.000000 0.000000
# 5 0.000000 0.000000 0.000000 0.000000 -0.443399 0.000000
# 6 0.000000 0.000000 0.000000 0.000000 0.000000 -0.479627
#
#
# Mechanical properties :
#
#
# Convention : Reuss Voigt Hill
#
# Bulk Modulus (GPa) = 13.15497 44.79180 28.97338
# Shear Modulus (GPa) = -8.15620 17.45952 4.65166
#
# Velocity S-wave (km/s) = -1.99528 2.91928 1.50683
# Velocity P-wave (km/s) = 1.05495 5.76423 4.14363
#
# Compressibility (1/GPa) = 0.07601692
#
# Stress axis : x y z
#
# Youngs Moduli (GPa) = 112.14691 116.06297 17.17118
#
# Poissons Ratio (x) = 0.44044 0.02701
# Poissons Ratio (y) = 0.42558 -0.09429
# Poissons Ratio (z) = 0.17638 -0.63731
#
# Static dielectric constant tensor:
#      x y z
#    x 1.703400 0.000000 0.000000 
#    y 0.000000 1.718800 0.000000 
#    z 0.000000 0.000000 1.723200 
# 
# From -- ./inp_files/10022.got.cif
#   From: 2010.05.17/outbox.cif.g08.bks.cpg/sg58_6_cif.got.tgz:10022.got - 2010.06.03 14:20:14.
