data_PCOD9444831
_publ_section_title
;
Structure prediction by ZEFSAII (Michael W. Deem and Ramdas Pophale) SiO2 
 PCOD9444831
Probable space group: P N N M
;
_chemical_formula_sum "Si O2"
_cell_formula_units_Z 48
_cell_length_a 9.936319
_cell_length_b 7.171134
_cell_length_c 27.941944
_cell_angle_alpha 90.000000
_cell_angle_beta 90.000000
_cell_angle_gamma 90.000000
_cell_volume 1990.994139
_symmetry_space_group_name_H-M "P N N M"
_symmetry_group_IT_number 58
_symmetry_cell_setting 'orthorhombic'
loop_
_space_group_symop_operation_xyz
x,y,z
-x,-y,z
1/2+x,1/2-y,1/2-z
1/2-x,1/2+y,1/2-z
-x,-y,-z
x,y,-z
1/2-x,1/2+y,1/2+z
1/2+x,1/2-y,1/2+z
loop_
_atom_site_type_symbol
_atom_site_label
_atom_site_fract_x
_atom_site_fract_y
_atom_site_fract_z
Si Si1 0.347841 0.515554 0.307765
Si Si2 0.509726 0.225625 0.945203
Si Si3 0.969851 0.787657 0.058177
Si Si4 0.782078 0.460811 0.942210
Si Si5 0.369475 0.288395 0.151472
Si Si6 0.651669 0.325155 0.799484
O O1 0.500000 0.500000 0.325594
O O2 0.244952 0.640072 0.337968
O O3 0.359231 0.609591 0.255266
O O4 0.272736 0.318716 0.303401
O O5 0.650313 0.329626 0.934879
O O6 0.416274 0.297233 0.903086
O O7 0.500000 0.000000 0.942234
O O8 0.469962 0.273255 0.000000
O O9 0.838110 0.667937 0.072298
O O10 0.096937 0.669936 0.075428
O O11 0.969614 0.788240 0.000000
O O12 0.000000 0.000000 0.071737
O O13 0.677287 0.509070 0.830970
O O14 0.786673 0.470267 0.000000
O O15 0.507471 0.247307 0.181748
#
# Coordination Sequence:
#
# PCOD9444831 Si02
#       6
#     8   8   8   8   8   8
#     4  12  22  40  72 115 157 199 244 311 400 495
#     4  10  21  41  70 101 145 215 285 341 397 461
#     4   8  13  25  50  87 124 162 225 316 402 467
#     4   8  15  29  53  87 126 176 245 319 388 457
#     4  11  24  44  71 111 158 204 256 325 392 472
#     4  11  22  42  70 111 155 197 246 307 401 483
#
# _framework density 24.108559
#
# number of rings (size 3 to 8) (size 9 to 14) (size 15 to 20)
#    0.000    2.000    3.333    2.500    0.000    0.667 
#    0.000    6.667    0.000   31.500    0.000    5.833 
#    0.000    0.000    0.000    0.000    0.000    0.000 
#
# Total GULP energy -268402.208816 kJ/mol
# GULP energy per Si atom -5591.712684 kJ/mol
# Density = 2.405369 g / cm^3
# Si number density = 24.108559 Si / 1000 Ang^3
#
#
#
# Elastic Constant Matrix: (Units=GPa)
#
#
# Indices 1 2 3 4 5 6 
#
# 1 228.2783 97.3116 60.7168 0.0000 0.0000 0.0000
# 2 97.3116 166.8678 27.0022 0.0000 0.0000 0.0000
# 3 60.7168 27.0022 106.7774 0.0000 0.0000 0.0000
# 4 0.0000 0.0000 0.0000 29.7158 0.0000 0.0000
# 5 0.0000 0.0000 0.0000 0.0000 28.7537 0.0000
# 6 0.0000 0.0000 0.0000 0.0000 0.0000 47.3610
#
#
#
# Elastic Compliance Matrix: (Units=1/GPa)
#
#
# Indices 1 2 3 4 5 6 
#
# 1 0.006588 -0.003374 -0.002893 0.000000 0.000000 0.000000
# 2 -0.003374 0.007976 -0.000099 0.000000 0.000000 0.000000
# 3 -0.002893 -0.000099 0.011035 0.000000 0.000000 0.000000
# 4 0.000000 0.000000 0.000000 0.033652 0.000000 0.000000
# 5 0.000000 0.000000 0.000000 0.000000 0.034778 0.000000
# 6 0.000000 0.000000 0.000000 0.000000 0.000000 0.021114
#
#
# Mechanical properties :
#
#
# Convention : Reuss Voigt Hill
#
# Bulk Modulus (GPa) = 77.70774 96.88720 87.29747
# Shear Modulus (GPa) = 37.83134 42.29230 40.06182
#
# Velocity S-wave (km/s) = 3.96562 4.19291 4.08085
# Velocity P-wave (km/s) = 7.29867 7.98222 7.64809
#
# Compressibility (1/GPa) = 0.01286873
#
# Stress axis : x y z
#
# Youngs Moduli (GPa) = 151.78205 125.37153 90.61819
#
# Poissons Ratio (x) = 0.42300 0.26217
# Poissons Ratio (y) = 0.51211 0.00893
# Poissons Ratio (z) = 0.43913 0.01235
#
# Static dielectric constant tensor:
#      x y z
#    x -1.604820 0.000000 0.000000 
#    y 0.000000 1.926230 0.000000 
#    z 0.000000 0.000000 1.932170 
# 
# From -- ./inp_files/31461.got.cif
#   From: 2010.05.17/outbox.cif.g08.bks.cpg/sg58_16_cif.got.tgz:31461.got - 2010.06.03 14:20:14.
