data_PCOD9444215
_publ_section_title
;
Structure prediction by ZEFSAII (Michael W. Deem and Ramdas Pophale) SiO2 
 PCOD9444215
Probable space group: P N N M
;
_chemical_formula_sum "Si O2"
_cell_formula_units_Z 64
_cell_length_a 22.702164
_cell_length_b 17.165463
_cell_length_c 7.602105
_cell_angle_alpha 90.000000
_cell_angle_beta 90.000000
_cell_angle_gamma 90.000000
_cell_volume 2962.488291
_symmetry_space_group_name_H-M "P N N M"
_symmetry_group_IT_number 58
_symmetry_cell_setting 'orthorhombic'
loop_
_space_group_symop_operation_xyz
x,y,z
-x,-y,z
1/2+x,1/2-y,1/2-z
1/2-x,1/2+y,1/2-z
-x,-y,-z
x,y,-z
1/2-x,1/2+y,1/2+z
1/2+x,1/2-y,1/2+z
loop_
_atom_site_type_symbol
_atom_site_label
_atom_site_fract_x
_atom_site_fract_y
_atom_site_fract_z
Si Si1 0.353236 0.352235 0.284710
Si Si2 0.121883 0.678966 0.212673
Si Si3 0.993050 0.411976 0.788937
Si Si4 0.369068 0.646221 0.797216
Si Si5 0.564928 0.508621 0.295813
Si Si6 0.257632 0.090715 0.792567
Si Si7 0.772937 0.587252 0.285049
Si Si8 0.112235 0.319840 0.288383
O O1 0.352780 0.353329 0.500000
O O2 0.376807 0.268458 0.227733
O O3 0.393839 0.423298 0.221158
O O4 0.285748 0.366746 0.231332
O O5 0.182616 0.637784 0.263781
O O6 0.065504 0.630972 0.278220
O O7 0.119426 0.680002 0.000000
O O8 0.051153 0.361930 0.752224
O O9 0.000000 0.500000 0.720423
O O10 0.986829 0.417329 0.000000
O O11 0.400954 0.572994 0.710008
O O12 0.299018 0.632009 0.789817
O O13 0.384428 0.731074 0.721969
O O14 0.388185 0.644691 0.000000
O O15 0.500000 0.500000 0.216049
O O16 0.556205 0.530863 0.500000
O O17 0.266674 0.002315 0.727092
O O18 0.244909 0.085926 0.000000
O O19 0.774579 0.586108 0.500000
O O20 0.832457 0.629011 0.223903
O O21 0.118171 0.315394 0.500000
#
# Coordination Sequence:
#
# PCOD9444215 Si02
#       8
#     8   8   8   8   8   8   8   8
#     4   9  17  34  57  82 110 146 190 233 278 341
#     4  10  21  36  58  83 114 153 190 232 289 349
#     4  10  22  39  58  86 122 154 188 238 295 343
#     4  11  23  39  59  86 121 156 192 241 300 350
#     4  10  21  37  62  89 115 152 198 239 284 349
#     4  11  21  36  60  87 115 149 194 244 288 339
#     4   9  17  33  57  81 107 142 189 239 280 329
#     4  10  22  38  59  84 112 154 200 238 283 346
#
# _framework density 21.603462
#
# number of rings (size 3 to 8) (size 9 to 14) (size 15 to 20)
#    0.000    2.000    1.250    2.250    1.750    4.000 
#    0.000    1.250    0.000    0.000    0.000    0.000 
#    0.000    0.000    0.000    0.000    0.000    0.000 
#
# Total GULP energy -357737.584686 kJ/mol
# GULP energy per Si atom -5589.649761 kJ/mol
# Density = 2.155429 g / cm^3
# Si number density = 21.603462 Si / 1000 Ang^3
#
#
#
# Elastic Constant Matrix: (Units=GPa)
#
#
# Indices 1 2 3 4 5 6 
#
# 1 172.9751 84.6193 -13.5202 0.0000 0.0000 0.0000
# 2 84.6193 184.8684 -6.3378 0.0000 0.0000 0.0000
# 3 -13.5202 -6.3378 43.5843 0.0000 0.0000 0.0000
# 4 0.0000 0.0000 0.0000 3.2161 0.0000 0.0000
# 5 0.0000 0.0000 0.0000 0.0000 14.3291 0.0000
# 6 0.0000 0.0000 0.0000 0.0000 0.0000 18.5033
#
#
#
# Elastic Compliance Matrix: (Units=1/GPa)
#
#
# Indices 1 2 3 4 5 6 
#
# 1 0.007596 -0.003413 0.001860 0.000000 0.000000 0.000000
# 2 -0.003413 0.006970 -0.000045 0.000000 0.000000 0.000000
# 3 0.001860 -0.000045 0.023514 0.000000 0.000000 0.000000
# 4 0.000000 0.000000 0.000000 0.310940 0.000000 0.000000
# 5 0.000000 0.000000 0.000000 0.000000 0.069788 0.000000
# 6 0.000000 0.000000 0.000000 0.000000 0.000000 0.054044
#
#
# Mechanical properties :
#
#
# Convention : Reuss Voigt Hill
#
# Bulk Modulus (GPa) = 28.66648 58.99450 43.83049
# Shear Modulus (GPa) = 10.25265 29.65412 19.95339
#
# Velocity S-wave (km/s) = 2.18086 3.70896 3.04241
# Velocity P-wave (km/s) = 4.43167 6.76084 5.71615
#
# Compressibility (1/GPa) = 0.03488394
#
# Stress axis : x y z
#
# Youngs Moduli (GPa) = 131.64218 143.47090 42.52702
#
# Poissons Ratio (x) = 0.48971 -0.07911
# Poissons Ratio (y) = 0.44933 0.00193
# Poissons Ratio (z) = -0.24487 0.00650
#
# Static dielectric constant tensor:
#      x y z
#    x 1.735380 0.000000 0.000000 
#    y 0.000000 1.759450 0.000000 
#    z 0.000000 0.000000 1.819780 
# 
# From -- ./inp_files/10104.got.cif
#   From: 2010.05.17/outbox.cif.g08.bks.cpg/sg58_6_cif.got.tgz:10104.got - 2010.06.03 14:20:14.
