data_PCOD9444261
_publ_section_title
;
Structure prediction by ZEFSAII (Michael W. Deem and Ramdas Pophale) SiO2 
 PCOD9444261
Probable space group: P N N M
;
_chemical_formula_sum "Si O2"
_cell_formula_units_Z 52
_cell_length_a 10.488723
_cell_length_b 8.220438
_cell_length_c 29.238222
_cell_angle_alpha 90.000000
_cell_angle_beta 90.000000
_cell_angle_gamma 90.000000
_cell_volume 2520.974969
_symmetry_space_group_name_H-M "P N N M"
_symmetry_group_IT_number 58
_symmetry_cell_setting 'orthorhombic'
loop_
_space_group_symop_operation_xyz
x,y,z
-x,-y,z
1/2+x,1/2-y,1/2-z
1/2-x,1/2+y,1/2-z
-x,-y,-z
x,y,-z
1/2-x,1/2+y,1/2+z
1/2+x,1/2-y,1/2+z
loop_
_atom_site_type_symbol
_atom_site_label
_atom_site_fract_x
_atom_site_fract_y
_atom_site_fract_z
Si Si1 0.495209 0.188371 0.072127
Si Si2 0.983187 0.191050 0.666417
Si Si3 0.620542 0.885570 0.500000
Si Si4 0.368234 0.103499 0.759548
Si Si5 0.236571 0.829392 0.184264
Si Si6 0.819802 0.145299 0.500000
Si Si7 0.146205 0.060229 0.000000
Si Si8 0.711842 0.671170 0.421337
O O1 0.438517 0.205935 0.122668
O O2 0.643389 0.237448 0.075557
O O3 0.500000 0.000000 0.056949
O O4 0.410199 0.304463 0.041572
O O5 0.121527 0.260837 0.677785
O O6 0.892193 0.242009 0.707434
O O7 0.000000 0.000000 0.657615
O O8 0.621383 0.786362 0.452028
O O9 0.500000 0.000000 0.500000
O O10 0.759558 0.969411 0.500000
O O11 0.335463 0.186421 0.711395
O O12 0.500000 0.000000 0.756773
O O13 0.260755 0.989258 0.783849
O O14 0.183936 0.856483 0.132413
O O15 0.692082 0.256035 0.500000
O O16 0.206406 0.988379 0.953325
O O17 0.000000 0.000000 0.000000
#
# Coordination Sequence:
#
# PCOD9444261 Si02
#       8
#     8   8   4   8   8   4   4   8
#     4  11  21  37  60  96 122 151 202 259 319 369
#     4  10  21  36  61  90 124 162 198 253 317 373
#     4  11  26  44  58  85 129 169 209 263 306 374
#     4  10  21  39  62  92 127 161 208 261 312 379
#     4  10  21  39  63  88 124 166 206 258 325 374
#     4  12  23  34  66  91 117 162 207 255 308 371
#     4  11  22  41  60  84 120 169 218 248 304 377
#     4  10  22  41  63  83 126 166 200 266 318 369
#
# _framework density 20.626940000000001
#
# number of rings (size 3 to 8) (size 9 to 14) (size 15 to 20)
#    0.000    1.538    1.538    5.308    4.308    1.231 
#    0.000    3.846    0.000    0.000    0.000    0.000 
#    0.000    0.000    0.000    0.000    0.000    0.000 
#
# Total GULP energy -289770.744281 kJ/mol
# GULP energy per Si atom -5572.514313 kJ/mol
# Density = 2.057999 g / cm^3
# Si number density = 20.626940 Si / 1000 Ang^3
#
#
#
# Elastic Constant Matrix: (Units=GPa)
#
#
# Indices 1 2 3 4 5 6 
#
# 1 46.4345 -0.1196 29.8115 0.0000 0.0000 0.0000
# 2 -0.1196 65.7056 31.2460 0.0000 0.0000 0.0000
# 3 29.8115 31.2460 155.8737 0.0000 0.0000 0.0000
# 4 0.0000 0.0000 0.0000 234.0152 0.0000 0.0000
# 5 0.0000 0.0000 0.0000 0.0000 -107.4788 0.0000
# 6 0.0000 0.0000 0.0000 0.0000 0.0000 34.7433
#
#
#
# Elastic Compliance Matrix: (Units=1/GPa)
#
#
# Indices 1 2 3 4 5 6 
#
# 1 0.024933 0.002557 -0.005281 0.000000 0.000000 0.000000
# 2 0.002557 0.017085 -0.003914 0.000000 0.000000 0.000000
# 3 -0.005281 -0.003914 0.008210 0.000000 0.000000 0.000000
# 4 0.000000 0.000000 0.000000 0.004273 0.000000 0.000000
# 5 0.000000 0.000000 0.000000 0.000000 -0.009304 0.000000
# 6 0.000000 0.000000 0.000000 0.000000 0.000000 0.028783
#
#
# Mechanical properties :
#
#
# Convention : Reuss Voigt Hill
#
# Bulk Modulus (GPa) = 27.06226 43.32106 35.19166
# Shear Modulus (GPa) = 50.21434 46.06102 48.13768
#
# Velocity S-wave (km/s) = 4.93932 4.73064 4.83611
# Velocity P-wave (km/s) = 6.75852 7.13347 6.94852
#
# Compressibility (1/GPa) = 0.03695183
#
# Stress axis : x y z
#
# Youngs Moduli (GPa) = 40.10788 58.52994 121.80237
#
# Poissons Ratio (x) = -0.14965 0.64324
# Poissons Ratio (y) = -0.10255 0.47672
# Poissons Ratio (z) = 0.21181 0.22908
#
# Static dielectric constant tensor:
#      x y z
#    x 1.745030 0.000000 0.000000 
#    y 0.000000 1.791250 0.000000 
#    z 0.000000 0.000000 1.836800 
# 
# From -- ./inp_files/34901.got.cif
#   From: 2010.05.17/outbox.cif.g08.bks.cpg/sg58_18_cif.got.tgz:34901.got - 2010.06.03 14:20:14.
