data_PCOD9444970
_publ_section_title
;
Structure prediction by ZEFSAII (Michael W. Deem and Ramdas Pophale) SiO2 
 PCOD9444970
Probable space group: P N N M
;
_chemical_formula_sum "Si O2"
_cell_formula_units_Z 58
_cell_length_a 11.718080
_cell_length_b 8.766009
_cell_length_c 28.287316
_cell_angle_alpha 90.000000
_cell_angle_beta 90.000000
_cell_angle_gamma 90.000000
_cell_volume 2905.695581
_symmetry_space_group_name_H-M "P N N M"
_symmetry_group_IT_number 58
_symmetry_cell_setting 'orthorhombic'
loop_
_space_group_symop_operation_xyz
x,y,z
-x,-y,z
1/2+x,1/2-y,1/2-z
1/2-x,1/2+y,1/2-z
-x,-y,-z
x,y,-z
1/2-x,1/2+y,1/2+z
1/2+x,1/2-y,1/2+z
loop_
_atom_site_type_symbol
_atom_site_label
_atom_site_fract_x
_atom_site_fract_y
_atom_site_fract_z
Si Si1 0.979903 0.681380 0.150396
Si Si2 0.401007 0.895828 0.832432
Si Si3 0.000000 0.500000 0.500000
Si Si4 0.240019 0.875714 0.692420
Si Si5 0.805199 0.277278 0.785158
Si Si6 0.329449 0.072464 0.924611
Si Si7 0.571264 0.345244 0.552718
Si Si8 0.445037 0.345711 0.112048
O O1 0.859020 0.702991 0.177057
O O2 0.969340 0.746545 0.097505
O O3 0.000000 0.500000 0.147682
O O4 0.085610 0.747085 0.180824
O O5 0.302453 0.825322 0.800913
O O6 0.463893 0.755943 0.858942
O O7 0.500000 0.000000 0.808808
O O8 0.344407 0.004564 0.872254
O O9 0.097612 0.469099 0.540805
O O10 0.175128 0.776411 0.731729
O O11 0.158076 0.887858 0.647332
O O12 0.269745 0.045503 0.710732
O O13 0.200972 0.102619 0.938657
O O14 0.392422 0.235884 0.927120
O O15 0.500000 0.500000 0.552748
O O16 0.561219 0.274211 0.500000
O O17 0.500000 0.500000 0.093885
#
# Coordination Sequence:
#
# PCOD9444970 Si02
#       8
#     8   8   2   8   8   8   8   8
#     4  10  24  45  63  90 133 171 216 270 324 387
#     4  10  22  38  63  88 121 171 205 262 323 376
#     4  12  20  40  64 100 126 166 218 258 334 374
#     4  11  25  39  63  93 128 171 216 270 322 385
#     4  11  25  41  63  93 129 171 219 268 323 393
#     4  11  22  40  67  92 131 168 207 272 320 391
#     4  11  23  40  68  98 127 168 219 265 320 387
#     4  11  21  40  63  91 124 167 215 261 328 378
#
# _framework density 19.960795999999998
#
# number of rings (size 3 to 8) (size 9 to 14) (size 15 to 20)
#    0.000    1.241    5.517    0.828    5.793    1.931 
#    0.000    0.345    0.000    0.000    0.000    0.000 
#    0.000    0.000    0.000    0.000    0.000    0.000 
#
# Total GULP energy -323447.648099 kJ/mol
# GULP energy per Si atom -5576.683588 kJ/mol
# Density = 1.991536 g / cm^3
# Si number density = 19.960796 Si / 1000 Ang^3
#
#
#
# Elastic Constant Matrix: (Units=GPa)
#
#
# Indices 1 2 3 4 5 6 
#
# 1 114.2460 30.2849 37.7112 0.0000 0.0000 0.0000
# 2 30.2849 66.8427 14.2838 0.0000 0.0000 0.0000
# 3 37.7112 14.2838 83.6579 0.0000 0.0000 0.0000
# 4 0.0000 0.0000 0.0000 -17.2617 0.0000 0.0000
# 5 0.0000 0.0000 0.0000 0.0000 9.0897 0.0000
# 6 0.0000 0.0000 0.0000 0.0000 0.0000 30.1130
#
#
#
# Elastic Compliance Matrix: (Units=1/GPa)
#
#
# Indices 1 2 3 4 5 6 
#
# 1 0.011310 -0.004188 -0.004383 0.000000 0.000000 0.000000
# 2 -0.004188 0.017078 -0.001028 0.000000 0.000000 0.000000
# 3 -0.004383 -0.001028 0.014105 0.000000 0.000000 0.000000
# 4 0.000000 0.000000 0.000000 -0.057932 0.000000 0.000000
# 5 0.000000 0.000000 0.000000 0.000000 0.110015 0.000000
# 6 0.000000 0.000000 0.000000 0.000000 0.000000 0.033208
#
#
# Mechanical properties :
#
#
# Convention : Reuss Voigt Hill
#
# Bulk Modulus (GPa) = 42.92899 47.70070 45.31485
# Shear Modulus (GPa) = 32.31085 16.55265 24.43175
#
# Velocity S-wave (km/s) = 4.02769 2.88281 3.50235
# Velocity P-wave (km/s) = 6.57138 5.91860 6.25352
#
# Compressibility (1/GPa) = 0.02329428
#
# Stress axis : x y z
#
# Youngs Moduli (GPa) = 88.41745 58.55655 70.89736
#
# Poissons Ratio (x) = 0.24521 0.31077
# Poissons Ratio (y) = 0.37026 0.07289
# Poissons Ratio (z) = 0.38756 0.06020
#
# Static dielectric constant tensor:
#      x y z
#    x 1.788590 0.000000 0.000000 
#    y 0.000000 1.711820 0.000000 
#    z 0.000000 0.000000 2.408310 
# 
# From -- ./inp_files/33582.got.cif
#   From: 2010.05.17/outbox.cif.g08.bks.cpg/sg58_17_cif.got.tgz:33582.got - 2010.06.03 14:20:14.
