data_PCOD9444969
_publ_section_title
;
Structure prediction by ZEFSAII (Michael W. Deem and Ramdas Pophale) SiO2 
 PCOD9444969
Probable space group: P N N M
;
_chemical_formula_sum "Si O2"
_cell_formula_units_Z 34
_cell_length_a 8.699907
_cell_length_b 21.605613
_cell_length_c 9.557410
_cell_angle_alpha 90.000000
_cell_angle_beta 90.000000
_cell_angle_gamma 90.000000
_cell_volume 1796.476001
_symmetry_space_group_name_H-M "P N N M"
_symmetry_group_IT_number 58
_symmetry_cell_setting 'orthorhombic'
loop_
_space_group_symop_operation_xyz
x,y,z
-x,-y,z
1/2+x,1/2-y,1/2-z
1/2-x,1/2+y,1/2-z
-x,-y,-z
x,y,-z
1/2-x,1/2+y,1/2+z
1/2+x,1/2-y,1/2+z
loop_
_atom_site_type_symbol
_atom_site_label
_atom_site_fract_x
_atom_site_fract_y
_atom_site_fract_z
Si Si1 0.998094 0.427224 0.662981
Si Si2 0.512521 0.286495 0.837752
Si Si3 0.869095 0.322260 0.837854
Si Si4 0.650850 0.614043 0.651207
Si Si5 0.000000 0.000000 0.000000
O O1 0.949399 0.419944 0.500000
O O2 0.889872 0.388312 0.763609
O O3 0.000000 0.500000 0.692959
O O4 0.171471 0.401951 0.676393
O O5 0.693236 0.300387 0.829271
O O6 0.470574 0.226145 0.748993
O O7 0.422137 0.343943 0.769581
O O8 0.470523 0.277436 0.000000
O O9 0.914989 0.325010 0.000000
O O10 0.642719 0.649013 0.500000
O O11 0.561917 0.549978 0.619464
#
# Coordination Sequence:
#
# PCOD9444969 Si02
#       5
#     8   8   8   8   2
#     4  10  22  38  62  91 122 158 200 244 293 357
#     4  11  24  41  62  89 119 155 202 250 299 356
#     4  11  25  41  60  88 120 156 201 249 302 355
#     4   9  20  37  62  89 121 154 199 237 293 352
#     4   8  20  36  64  92 124 156 198 240 288 360
#
# _framework density 18.925941000000002
#
# number of rings (size 3 to 8) (size 9 to 14) (size 15 to 20)
#    0.706    1.176    0.000    2.824    3.294   10.824 
#    0.000    0.588    0.000    0.000    0.000    0.000 
#    0.000    0.000    0.000    0.000    0.000    0.000 
#
# Total GULP energy -189321.393801 kJ/mol
# GULP energy per Si atom -5568.276288 kJ/mol
# Density = 1.888286 g / cm^3
# Si number density = 18.925941 Si / 1000 Ang^3
#
#
#
# Elastic Constant Matrix: (Units=GPa)
#
#
# Indices 1 2 3 4 5 6 
#
# 1 32.6375 25.9596 53.2314 0.0000 0.0000 0.0000
# 2 25.9596 86.2843 75.9481 0.0000 0.0000 0.0000
# 3 53.2314 75.9481 145.9044 0.0000 0.0000 0.0000
# 4 0.0000 0.0000 0.0000 22.2794 0.0000 0.0000
# 5 0.0000 0.0000 0.0000 0.0000 -65.3228 0.0000
# 6 0.0000 0.0000 0.0000 0.0000 0.0000 24.5765
#
#
#
# Elastic Compliance Matrix: (Units=1/GPa)
#
#
# Indices 1 2 3 4 5 6 
#
# 1 0.076038 0.002845 -0.029222 0.000000 0.000000 0.000000
# 2 0.002845 0.021496 -0.012227 0.000000 0.000000 0.000000
# 3 -0.029222 -0.012227 0.023880 0.000000 0.000000 0.000000
# 4 0.000000 0.000000 0.000000 0.044885 0.000000 0.000000
# 5 0.000000 0.000000 0.000000 0.000000 -0.015309 0.000000
# 6 0.000000 0.000000 0.000000 0.000000 0.000000 0.040689
#
#
# Mechanical properties :
#
#
# Convention : Reuss Voigt Hill
#
# Bulk Modulus (GPa) = 22.62214 63.90050 43.26132
# Shear Modulus (GPa) = 17.62892 3.61910 10.62401
#
# Velocity S-wave (km/s) = 3.05531 1.38434 2.37185
# Velocity P-wave (km/s) = 4.94221 6.03257 5.51441
#
# Compressibility (1/GPa) = 0.04420448
#
# Stress axis : x y z
#
# Youngs Moduli (GPa) = 13.15128 46.51936 41.87597
#
# Poissons Ratio (x) = -0.13234 1.22372
# Poissons Ratio (y) = -0.03741 0.51204
# Poissons Ratio (z) = 0.38431 0.56881
#
# Static dielectric constant tensor:
#      x y z
#    x 1.657470 0.000000 0.000000 
#    y 0.000000 1.653260 0.000000 
#    z 0.000000 0.000000 1.649000 
# 
# From -- ./inp_files/2243.got.cif
#   From: 2010.05.17/outbox.cif.g08.bks.cpg/sg58_2_cif.got.tgz:2243.got - 2010.06.03 14:20:14.
