data_PCOD9444223
_publ_section_title
;
Structure prediction by ZEFSAII (Michael W. Deem and Ramdas Pophale) SiO2 
 PCOD9444223
Probable space group: P N N M
;
_chemical_formula_sum "Si O2"
_cell_formula_units_Z 32
_cell_length_a 10.530806
_cell_length_b 12.698878
_cell_length_c 11.208441
_cell_angle_alpha 90.000000
_cell_angle_beta 90.000000
_cell_angle_gamma 90.000000
_cell_volume 1498.898321
_symmetry_space_group_name_H-M "P N N M"
_symmetry_group_IT_number 58
_symmetry_cell_setting 'orthorhombic'
loop_
_space_group_symop_operation_xyz
x,y,z
-x,-y,z
1/2+x,1/2-y,1/2-z
1/2-x,1/2+y,1/2-z
-x,-y,-z
x,y,-z
1/2-x,1/2+y,1/2+z
1/2+x,1/2-y,1/2+z
loop_
_atom_site_type_symbol
_atom_site_label
_atom_site_fract_x
_atom_site_fract_y
_atom_site_fract_z
Si Si1 0.777019 0.971864 0.869272
Si Si2 0.645569 0.709885 0.364227
Si Si3 0.879726 0.754992 0.209372
Si Si4 0.352381 0.974512 0.373892
O O1 0.854693 0.864253 0.858014
O O2 0.852447 0.082372 0.863752
O O3 0.695733 0.976390 0.748847
O O4 0.711901 0.972359 0.000000
O O5 0.618444 0.744546 0.500000
O O6 0.785138 0.747951 0.322643
O O7 0.532488 0.749365 0.278217
O O8 0.838854 0.651218 0.137579
O O9 0.292341 0.009334 0.500000
O O10 0.500000 0.000000 0.379241
#
# Coordination Sequence:
#
# PCOD9444223 Si02
#       4
#     8   8   8   8
#     4  10  21  36  58  88 118 153 200 250 299 354
#     4  10  22  40  61  88 122 158 201 253 303 357
#     4  11  21  38  64  89 118 160 203 245 300 361
#     4  10  21  37  58  85 119 159 199 242 298 361
#
# _framework density 21.349011999999998
#
# number of rings (size 3 to 8) (size 9 to 14) (size 15 to 20)
#    0.000    1.750    0.000    4.500    0.000    5.500 
#    0.000   12.500    0.000    7.500    0.000    0.000 
#    0.000    0.000    0.000    0.000    0.000    0.000 
#
# Total GULP energy -178356.283124 kJ/mol
# GULP energy per Si atom -5573.633848 kJ/mol
# Density = 2.130042 g / cm^3
# Si number density = 21.349012 Si / 1000 Ang^3
#
#
#
# Elastic Constant Matrix: (Units=GPa)
#
#
# Indices 1 2 3 4 5 6 
#
# 1 95.0572 5.8905 59.8020 0.0000 0.0000 0.0000
# 2 5.8905 114.4482 16.4061 0.0000 0.0000 0.0000
# 3 59.8020 16.4061 151.3319 0.0000 0.0000 0.0000
# 4 0.0000 0.0000 0.0000 18.7737 0.0000 0.0000
# 5 0.0000 0.0000 0.0000 0.0000 46.4145 0.0000
# 6 0.0000 0.0000 0.0000 0.0000 0.0000 24.5399
#
#
#
# Elastic Compliance Matrix: (Units=1/GPa)
#
#
# Indices 1 2 3 4 5 6 
#
# 1 0.014001 0.000074 -0.005541 0.000000 0.000000 0.000000
# 2 0.000074 0.008876 -0.000991 0.000000 0.000000 0.000000
# 3 -0.005541 -0.000991 0.008905 0.000000 0.000000 0.000000
# 4 0.000000 0.000000 0.000000 0.053266 0.000000 0.000000
# 5 0.000000 0.000000 0.000000 0.000000 0.021545 0.000000
# 6 0.000000 0.000000 0.000000 0.000000 0.000000 0.040750
#
#
# Mechanical properties :
#
#
# Convention : Reuss Voigt Hill
#
# Bulk Modulus (GPa) = 53.00804 58.33718 55.67261
# Shear Modulus (GPa) = 30.02125 36.52820 33.27472
#
# Velocity S-wave (km/s) = 3.75402 4.14091 3.95220
# Velocity P-wave (km/s) = 6.60858 7.08856 6.85277
#
# Compressibility (1/GPa) = 0.01886506
#
# Stress axis : x y z
#
# Youngs Moduli (GPa) = 71.42209 112.66465 112.29566
#
# Poissons Ratio (x) = -0.00830 0.62222
# Poissons Ratio (y) = -0.00526 0.11133
# Poissons Ratio (z) = 0.39574 0.11169
#
# Static dielectric constant tensor:
#      x y z
#    x 1.774840 0.000000 0.000000 
#    y 0.000000 1.815970 0.000000 
#    z 0.000000 0.000000 1.807870 
# 
# From -- ./inp_files/3483.got.cif
#   From: 2010.05.17/outbox.cif.g08.bks.cpg/sg58_2_cif.got.tgz:3483.got - 2010.06.03 14:20:14.
