data_PCOD9444681
_publ_section_title
;
Structure prediction by ZEFSAII (Michael W. Deem and Ramdas Pophale) SiO2 
 PCOD9444681
Probable space group: P N N M
;
_chemical_formula_sum "Si O2"
_cell_formula_units_Z 58
_cell_length_a 17.235462
_cell_length_b 6.180231
_cell_length_c 27.986213
_cell_angle_alpha 90.000000
_cell_angle_beta 90.000000
_cell_angle_gamma 90.000000
_cell_volume 2981.067244
_symmetry_space_group_name_H-M "P N N M"
_symmetry_group_IT_number 58
_symmetry_cell_setting 'orthorhombic'
loop_
_space_group_symop_operation_xyz
x,y,z
-x,-y,z
1/2+x,1/2-y,1/2-z
1/2-x,1/2+y,1/2-z
-x,-y,-z
x,y,-z
1/2-x,1/2+y,1/2+z
1/2+x,1/2-y,1/2+z
loop_
_atom_site_type_symbol
_atom_site_label
_atom_site_fract_x
_atom_site_fract_y
_atom_site_fract_z
Si Si1 0.199776 0.415680 0.055468
Si Si2 0.212395 0.177435 0.368407
Si Si3 0.860418 0.822886 0.769380
Si Si4 0.949654 0.309886 0.917733
Si Si5 0.692066 0.678053 0.211298
Si Si6 0.086980 0.434216 0.319712
Si Si7 0.654262 0.462981 0.371909
Si Si8 0.000000 0.000000 0.000000
O O1 0.267097 0.551309 0.082772
O O2 0.125267 0.572696 0.059304
O O3 0.179262 0.198501 0.085393
O O4 0.216022 0.368054 0.000000
O O5 0.127495 0.276253 0.358296
O O6 0.273684 0.373963 0.361936
O O7 0.220330 0.997095 0.327351
O O8 0.769281 0.763078 0.763413
O O9 0.908695 0.677975 0.732869
O O10 0.870714 0.823979 0.825901
O O11 0.864171 0.066265 0.749615
O O12 0.997283 0.188962 0.958642
O O13 0.000000 0.500000 0.894599
O O14 0.915082 0.124250 0.884573
O O15 0.643405 0.860659 0.184914
O O16 0.000000 0.500000 0.331400
#
# Coordination Sequence:
#
# PCOD9444681 Si02
#       8
#     8   8   8   8   8   8   8   2
#     4  11  23  40  63  95 121 163 229 280 324 393
#     4  10  21  39  65  92 123 165 214 269 327 391
#     4  11  20  36  64  88 122 170 216 258 324 387
#     4  11  25  39  59  84 123 172 223 265 327 387
#     4  11  19  38  65  89 119 169 212 257 321 398
#     4  11  24  39  64  98 132 168 216 275 328 400
#     4  11  23  39  63  90 120 168 224 274 321 388
#     4  12  22  44  60  78 116 180 212 264 324 370
#
# _framework density 19.456119000000001
#
# number of rings (size 3 to 8) (size 9 to 14) (size 15 to 20)
#    0.000    1.103    4.828    1.862    2.897    2.759 
#    0.000    6.897    0.000    0.414    0.000    3.862 
#    0.000    0.000    0.000    0.000    0.000    0.000 
#
# Total GULP energy -323219.347026 kJ/mol
# GULP energy per Si atom -5572.747363 kJ/mol
# Density = 1.941184 g / cm^3
# Si number density = 19.456119 Si / 1000 Ang^3
#
#
#
# Elastic Constant Matrix: (Units=GPa)
#
#
# Indices 1 2 3 4 5 6 
#
# 1 80.0592 35.8963 37.8762 0.0000 0.0000 0.0000
# 2 35.8963 105.8870 48.9460 0.0000 0.0000 0.0000
# 3 37.8762 48.9460 125.8702 0.0000 0.0000 0.0000
# 4 0.0000 0.0000 0.0000 29.1803 0.0000 0.0000
# 5 0.0000 0.0000 0.0000 0.0000 4.8468 0.0000
# 6 0.0000 0.0000 0.0000 0.0000 0.0000 33.1103
#
#
#
# Elastic Compliance Matrix: (Units=1/GPa)
#
#
# Indices 1 2 3 4 5 6 
#
# 1 0.015747 -0.003838 -0.003246 0.000000 0.000000 0.000000
# 2 -0.003838 0.012449 -0.003686 0.000000 0.000000 0.000000
# 3 -0.003246 -0.003686 0.010355 0.000000 0.000000 0.000000
# 4 0.000000 0.000000 0.000000 0.034270 0.000000 0.000000
# 5 0.000000 0.000000 0.000000 0.000000 0.206321 0.000000
# 6 0.000000 0.000000 0.000000 0.000000 0.000000 0.030202
#
#
# Mechanical properties :
#
#
# Convention : Reuss Voigt Hill
#
# Bulk Modulus (GPa) = 58.78577 61.91707 60.35142
# Shear Modulus (GPa) = 14.85642 26.03399 20.44521
#
# Velocity S-wave (km/s) = 2.76630 3.66196 3.24518
# Velocity P-wave (km/s) = 6.36266 7.05499 6.71775
#
# Compressibility (1/GPa) = 0.01701092
#
# Stress axis : x y z
#
# Youngs Moduli (GPa) = 63.50271 80.32795 96.57286
#
# Poissons Ratio (x) = 0.30829 0.31350
# Poissons Ratio (y) = 0.24372 0.35597
# Poissons Ratio (z) = 0.20614 0.29609
#
# Static dielectric constant tensor:
#      x y z
#    x 1.699150 0.000000 0.000000 
#    y 0.000000 1.726090 0.000000 
#    z 0.000000 0.000000 1.700730 
# 
# From -- ./inp_files/32962.got.cif
#   From: 2010.05.17/outbox.cif.g08.bks.cpg/sg58_17_cif.got.tgz:32962.got - 2010.06.03 14:20:14.
