data_PCOD9444124
_publ_section_title
;
Structure prediction by ZEFSAII (Michael W. Deem and Ramdas Pophale) SiO2 
 PCOD9444124
Probable space group: P N N M
;
_chemical_formula_sum "Si O2"
_cell_formula_units_Z 56
_cell_length_a 13.560429
_cell_length_b 8.375821
_cell_length_c 20.055776
_cell_angle_alpha 90.000000
_cell_angle_beta 90.000000
_cell_angle_gamma 90.000000
_cell_volume 2277.929543
_symmetry_space_group_name_H-M "P N N M"
_symmetry_group_IT_number 58
_symmetry_cell_setting 'orthorhombic'
loop_
_space_group_symop_operation_xyz
x,y,z
-x,-y,z
1/2+x,1/2-y,1/2-z
1/2-x,1/2+y,1/2-z
-x,-y,-z
x,y,-z
1/2-x,1/2+y,1/2+z
1/2+x,1/2-y,1/2+z
loop_
_atom_site_type_symbol
_atom_site_label
_atom_site_fract_x
_atom_site_fract_y
_atom_site_fract_z
Si Si1 0.743792 0.482972 0.576430
Si Si2 0.892000 0.682610 0.642187
Si Si3 0.217329 0.004978 0.358837
Si Si4 0.379023 0.848320 0.423511
Si Si5 0.438835 0.333123 0.623752
Si Si6 0.384012 0.447530 0.000000
Si Si7 0.059555 0.830600 0.721602
Si Si8 0.012445 0.314631 0.500000
O O1 0.774846 0.503788 0.500000
O O2 0.831422 0.520757 0.628511
O O3 0.688374 0.313605 0.583627
O O4 0.663121 0.622633 0.588931
O O5 0.932461 0.727074 0.568392
O O6 0.987813 0.699664 0.688387
O O7 0.816232 0.820963 0.665601
O O8 0.331777 0.968821 0.370164
O O9 0.172512 0.989166 0.433315
O O10 0.161525 0.871520 0.315223
O O11 0.370343 0.902505 0.500000
O O12 0.490560 0.796435 0.409733
O O13 0.500000 0.500000 0.620494
O O14 0.424579 0.297037 0.701298
O O15 0.500000 0.500000 0.000000
O O16 0.403976 0.259864 0.000000
O O17 0.000000 0.000000 0.714696
O O18 0.000000 0.500000 0.500000
#
# Coordination Sequence:
#
# PCOD9444124 Si02
#       8
#     8   8   8   8   8   4   8   4
#     4  10  21  35  57  83 113 143 186 238 291 329
#     4  11  21  35  53  85 114 146 179 230 285 343
#     4  11  20  33  56  83 111 147 187 224 280 342
#     4  10  21  35  58  85 109 143 192 237 280 336
#     4   9  19  39  58  77 107 151 195 237 276 331
#     4  12  18  34  54  79 116 155 177 218 275 341
#     4   9  19  35  57  80 111 150 189 222 275 343
#     4  12  24  32  54  83 122 153 179 228 289 337
#
# _framework density 24.583729000000002
#
# number of rings (size 3 to 8) (size 9 to 14) (size 15 to 20)
#    0.000    1.714    4.286    0.857    2.000    2.857 
#    0.000    0.714    0.000    5.143    0.000    0.000 
#    0.000    0.000    0.000    0.000    0.000    0.000 
#
# Total GULP energy -313233.950320 kJ/mol
# GULP energy per Si atom -5593.463399 kJ/mol
# Density = 2.452778 g / cm^3
# Si number density = 24.583729 Si / 1000 Ang^3
#
#
#
# Elastic Constant Matrix: (Units=GPa)
#
#
# Indices 1 2 3 4 5 6 
#
# 1 105.0415 26.1613 26.2520 0.0000 0.0000 0.0000
# 2 26.1613 60.6535 10.9554 0.0000 0.0000 0.0000
# 3 26.2520 10.9554 57.6046 0.0000 0.0000 0.0000
# 4 0.0000 0.0000 0.0000 16.1374 0.0000 0.0000
# 5 0.0000 0.0000 0.0000 0.0000 34.3732 0.0000
# 6 0.0000 0.0000 0.0000 0.0000 0.0000 54.2175
#
#
#
# Elastic Compliance Matrix: (Units=1/GPa)
#
#
# Indices 1 2 3 4 5 6 
#
# 1 0.011706 -0.004231 -0.004530 0.000000 0.000000 0.000000
# 2 -0.004231 0.018603 -0.001610 0.000000 0.000000 0.000000
# 3 -0.004530 -0.001610 0.019730 0.000000 0.000000 0.000000
# 4 0.000000 0.000000 0.000000 0.061968 0.000000 0.000000
# 5 0.000000 0.000000 0.000000 0.000000 0.029092 0.000000
# 6 0.000000 0.000000 0.000000 0.000000 0.000000 0.018444
#
#
# Mechanical properties :
#
#
# Convention : Reuss Voigt Hill
#
# Bulk Modulus (GPa) = 34.13249 38.89298 36.51273
# Shear Modulus (GPa) = 26.30876 31.60768 28.95822
#
# Velocity S-wave (km/s) = 3.27489 3.58958 3.43584
# Velocity P-wave (km/s) = 5.31171 5.74761 5.53395
#
# Compressibility (1/GPa) = 0.02929760
#
# Stress axis : x y z
#
# Youngs Moduli (GPa) = 85.42685 53.75555 50.68337
#
# Poissons Ratio (x) = 0.22743 0.22960
# Poissons Ratio (y) = 0.36143 0.08159
# Poissons Ratio (z) = 0.38699 0.08654
#
# Static dielectric constant tensor:
#      x y z
#    x 1.977590 0.000000 0.000000 
#    y 0.000000 2.130670 0.000000 
#    z 0.000000 0.000000 1.856460 
# 
# From -- ./inp_files/30074.got.cif
#   From: 2010.05.17/outbox.cif.g08.bks.cpg/sg58_16_cif.got.tgz:30074.got - 2010.06.03 14:20:14.
