data_PCOD9444390
_publ_section_title
;
Structure prediction by ZEFSAII (Michael W. Deem and Ramdas Pophale) SiO2 
 PCOD9444390
Probable space group: P N N M
;
_chemical_formula_sum "Si O2"
_cell_formula_units_Z 48
_cell_length_a 5.408373
_cell_length_b 27.939083
_cell_length_c 14.426618
_cell_angle_alpha 90.000000
_cell_angle_beta 90.000000
_cell_angle_gamma 90.000000
_cell_volume 2179.933855
_symmetry_space_group_name_H-M "P N N M"
_symmetry_group_IT_number 58
_symmetry_cell_setting 'orthorhombic'
loop_
_space_group_symop_operation_xyz
x,y,z
-x,-y,z
1/2+x,1/2-y,1/2-z
1/2-x,1/2+y,1/2-z
-x,-y,-z
x,y,-z
1/2-x,1/2+y,1/2+z
1/2+x,1/2-y,1/2+z
loop_
_atom_site_type_symbol
_atom_site_label
_atom_site_fract_x
_atom_site_fract_y
_atom_site_fract_z
Si Si1 0.252419 0.468080 0.500000
Si Si2 0.500000 0.000000 0.743215
Si Si3 0.356756 0.449838 0.104413
Si Si4 0.143143 0.165172 0.098681
Si Si5 0.499814 0.086693 0.844658
Si Si6 0.340680 0.256340 0.809272
Si Si7 0.348965 0.360279 0.215029
O O1 0.500000 0.500000 0.500000
O O2 0.221335 0.434920 0.591992
O O3 0.000000 0.500000 0.500000
O O4 0.349212 0.966541 0.675767
O O5 0.637544 0.961089 0.807015
O O6 0.500000 0.500000 0.096970
O O7 0.468833 0.402936 0.154287
O O8 0.276240 0.437146 0.000000
O O9 0.329984 0.120880 0.096554
O O10 0.284485 0.215060 0.116834
O O11 0.990828 0.154887 0.191627
O O12 0.006609 0.167713 0.000000
O O13 0.596464 0.119345 0.759775
O O14 0.612248 0.247708 0.764712
O O15 0.325788 0.311364 0.842158
#
# Coordination Sequence:
#
# PCOD9444390 Si02
#       7
#     4   4   8   8   8   8   8
#     4  12  28  42  60  94 144 184 236 280 323 408
#     4  10  21  37  60  88 124 170 217 274 337 394
#     4  10  21  39  64  92 126 167 224 279 344 405
#     4  11  23  38  64  94 133 176 224 272 339 411
#     4  11  22  38  60  90 131 180 224 272 340 402
#     4  10  21  43  65  93 128 171 221 277 328 386
#     4  10  23  39  64  93 132 174 221 282 343 402
#
# _framework density 22.019015
#
# number of rings (size 3 to 8) (size 9 to 14) (size 15 to 20)
#    0.000    1.500    3.333    1.250    3.500    3.333 
#    0.000    0.000    0.000    1.000    0.000    0.000 
#    0.000    0.000    0.000    0.000    0.000    0.000 
#
# Total GULP energy -267405.916570 kJ/mol
# GULP energy per Si atom -5570.956595 kJ/mol
# Density = 2.196890 g / cm^3
# Si number density = 22.019015 Si / 1000 Ang^3
#
#
#
# Elastic Constant Matrix: (Units=GPa)
#
#
# Indices 1 2 3 4 5 6 
#
# 1 43.6523 16.2257 -0.5344 0.0000 0.0000 0.0000
# 2 16.2257 166.6697 61.0616 0.0000 0.0000 0.0000
# 3 -0.5344 61.0616 96.9834 0.0000 0.0000 0.0000
# 4 0.0000 0.0000 0.0000 19.5903 0.0000 0.0000
# 5 0.0000 0.0000 0.0000 0.0000 22.7173 0.0000
# 6 0.0000 0.0000 0.0000 0.0000 0.0000 30.1023
#
#
#
# Elastic Compliance Matrix: (Units=1/GPa)
#
#
# Indices 1 2 3 4 5 6 
#
# 1 0.024091 -0.003112 0.002092 0.000000 0.000000 0.000000
# 2 -0.003112 0.008201 -0.005180 0.000000 0.000000 0.000000
# 3 0.002092 -0.005180 0.013584 0.000000 0.000000 0.000000
# 4 0.000000 0.000000 0.000000 0.051046 0.000000 0.000000
# 5 0.000000 0.000000 0.000000 0.000000 0.044019 0.000000
# 6 0.000000 0.000000 0.000000 0.000000 0.000000 0.033220
#
#
# Mechanical properties :
#
#
# Convention : Reuss Voigt Hill
#
# Bulk Modulus (GPa) = 29.87300 51.20125 40.53713
# Shear Modulus (GPa) = 25.28839 29.85214 27.57027
#
# Velocity S-wave (km/s) = 3.39260 3.68604 3.54236
# Velocity P-wave (km/s) = 5.37984 6.43580 5.93136
#
# Compressibility (1/GPa) = 0.03347505
#
# Stress axis : x y z
#
# Youngs Moduli (GPa) = 41.51013 121.94053 73.61504
#
# Poissons Ratio (x) = 0.37944 -0.15399
# Poissons Ratio (y) = 0.12916 0.38135
# Poissons Ratio (z) = -0.08683 0.63170
#
# Static dielectric constant tensor:
#      x y z
#    x 1.814690 0.000000 0.000000 
#    y 0.000000 1.848210 0.000000 
#    z 0.000000 0.000000 1.838310 
# 
# From -- ./inp_files/18620.got.cif
#   From: 2010.05.17/outbox.cif.g08.bks.cpg/sg58_10_cif.got.tgz:18620.got - 2010.06.03 14:20:14.
