data_PCOD9444583
_publ_section_title
;
Structure prediction by ZEFSAII (Michael W. Deem and Ramdas Pophale) SiO2 
 PCOD9444583
Probable space group: P N N M
;
_chemical_formula_sum "Si O2"
_cell_formula_units_Z 38
_cell_length_a 18.713957
_cell_length_b 5.037610
_cell_length_c 15.801485
_cell_angle_alpha 90.000000
_cell_angle_beta 90.000000
_cell_angle_gamma 90.000000
_cell_volume 1489.663144
_symmetry_space_group_name_H-M "P N N M"
_symmetry_group_IT_number 58
_symmetry_cell_setting 'orthorhombic'
loop_
_space_group_symop_operation_xyz
x,y,z
-x,-y,z
1/2+x,1/2-y,1/2-z
1/2-x,1/2+y,1/2-z
-x,-y,-z
x,y,-z
1/2-x,1/2+y,1/2+z
1/2+x,1/2-y,1/2+z
loop_
_atom_site_type_symbol
_atom_site_label
_atom_site_fract_x
_atom_site_fract_y
_atom_site_fract_z
Si Si1 0.000000 0.500000 0.712059
Si Si2 0.215969 0.120607 0.397193
Si Si3 0.425974 0.333760 0.099374
Si Si4 0.000000 0.500000 0.000000
Si Si5 0.698213 0.379843 0.397313
Si Si6 0.057655 0.817131 0.863944
O O1 0.064219 0.554209 0.646715
O O2 0.019672 0.731118 0.777834
O O3 0.213677 0.113449 0.500000
O O4 0.140932 0.001024 0.367752
O O5 0.277975 0.913049 0.370885
O O6 0.237549 0.417688 0.374725
O O7 0.500000 0.500000 0.108842
O O8 0.416091 0.281241 0.000000
O O9 0.939644 0.435085 0.925484
O O10 0.688672 0.387267 0.500000
O O11 0.628638 0.513240 0.356853
O O12 0.000000 0.000000 0.912190
#
# Coordination Sequence:
#
# PCOD9444583 Si02
#       6
#     4   8   8   2   8   8
#     4  11  25  41  63  94 134 170 221 277 335 395
#     4   9  21  38  64  99 129 171 222 280 341 399
#     4  10  22  43  72  97 126 169 228 285 345 403
#     4  10  22  36  66  94 122 180 238 262 330 388
#     4  10  21  38  64  95 136 174 224 278 328 397
#     4  11  24  39  63  96 138 177 227 272 328 392
#
# _framework density 25.509121
#
# number of rings (size 3 to 8) (size 9 to 14) (size 15 to 20)
#    0.000    1.895    1.053    1.263    8.842    0.000 
#    0.000    2.105    0.000    0.000    0.000    0.000 
#    0.000    0.000    0.000    0.000    0.000    0.000 
#
# Total GULP energy -211807.745746 kJ/mol
# GULP energy per Si atom -5573.888046 kJ/mol
# Density = 2.545106 g / cm^3
# Si number density = 25.509121 Si / 1000 Ang^3
#
#
#
# Elastic Constant Matrix: (Units=GPa)
#
#
# Indices 1 2 3 4 5 6 
#
# 1 102.1125 0.9247 2.2896 0.0000 0.0000 0.0000
# 2 0.9247 79.3451 10.9313 0.0000 0.0000 0.0000
# 3 2.2896 10.9313 87.2749 0.0000 0.0000 0.0000
# 4 0.0000 0.0000 0.0000 18.2164 0.0000 0.0000
# 5 0.0000 0.0000 0.0000 0.0000 19.3508 0.0000
# 6 0.0000 0.0000 0.0000 0.0000 0.0000 40.6416
#
#
#
# Elastic Compliance Matrix: (Units=1/GPa)
#
#
# Indices 1 2 3 4 5 6 
#
# 1 0.009799 -0.000080 -0.000247 0.000000 0.000000 0.000000
# 2 -0.000080 0.012825 -0.001604 0.000000 0.000000 0.000000
# 3 -0.000247 -0.001604 0.011665 0.000000 0.000000 0.000000
# 4 0.000000 0.000000 0.000000 0.054896 0.000000 0.000000
# 5 0.000000 0.000000 0.000000 0.000000 0.051678 0.000000
# 6 0.000000 0.000000 0.000000 0.000000 0.000000 0.024605
#
#
# Mechanical properties :
#
#
# Convention : Reuss Voigt Hill
#
# Bulk Modulus (GPa) = 32.86551 33.00264 32.93407
# Shear Modulus (GPa) = 27.85922 32.61421 30.23671
#
# Velocity S-wave (km/s) = 3.30832 3.57953 3.44660
# Velocity P-wave (km/s) = 5.24453 5.48177 5.36446
#
# Compressibility (1/GPa) = 0.03042703
#
# Stress axis : x y z
#
# Youngs Moduli (GPa) = 102.04725 77.97193 85.72307
#
# Poissons Ratio (x) = 0.00625 0.02118
# Poissons Ratio (y) = 0.00818 0.13752
# Poissons Ratio (z) = 0.02521 0.12509
#
# Static dielectric constant tensor:
#      x y z
#    x 2.113900 0.000000 0.000000 
#    y 0.000000 2.393180 0.000000 
#    z 0.000000 0.000000 2.020810 
# 
# From -- ./inp_files/27174.got.cif
#   From: 2010.05.17/outbox.cif.g08.bks.cpg/sg58_14_cif.got.tgz:27174.got - 2010.06.03 14:20:14.
