data_PCOD9444826
_publ_section_title
;
Structure prediction by ZEFSAII (Michael W. Deem and Ramdas Pophale) SiO2 
 PCOD9444826
Probable space group: P N N M
;
_chemical_formula_sum "Si O2"
_cell_formula_units_Z 48
_cell_length_a 9.290706
_cell_length_b 8.891011
_cell_length_c 30.388459
_cell_angle_alpha 90.000000
_cell_angle_beta 90.000000
_cell_angle_gamma 90.000000
_cell_volume 2510.201255
_symmetry_space_group_name_H-M "P N N M"
_symmetry_group_IT_number 58
_symmetry_cell_setting 'orthorhombic'
loop_
_space_group_symop_operation_xyz
x,y,z
-x,-y,z
1/2+x,1/2-y,1/2-z
1/2-x,1/2+y,1/2-z
-x,-y,-z
x,y,-z
1/2-x,1/2+y,1/2+z
1/2+x,1/2-y,1/2+z
loop_
_atom_site_type_symbol
_atom_site_label
_atom_site_fract_x
_atom_site_fract_y
_atom_site_fract_z
Si Si1 0.849573 0.088315 0.225819
Si Si2 0.450251 0.829863 0.125300
Si Si3 0.895828 0.143957 0.450180
Si Si4 0.162134 0.362430 0.880120
Si Si5 0.675298 0.803822 0.806492
Si Si6 0.149706 0.696641 0.143192
O O1 0.803616 0.181180 0.268654
O O2 0.877820 0.214514 0.188368
O O3 0.729014 0.966173 0.210858
O O4 0.000000 0.000000 0.232868
O O5 0.525383 0.750978 0.084272
O O6 0.514440 0.785037 0.173413
O O7 0.283824 0.785872 0.123039
O O8 0.500000 0.000000 0.122321
O O9 0.877995 0.199779 0.500000
O O10 0.744259 0.114011 0.425948
O O11 0.000000 0.000000 0.451711
O O12 0.231083 0.234809 0.849515
O O13 0.184836 0.518939 0.853230
O O14 0.996676 0.315249 0.884739
#
# Coordination Sequence:
#
# PCOD9444826 Si02
#       6
#     8   8   8   8   8   8
#     4  12  25  40  58  90 127 167 218 267 313 374
#     4  11  23  40  65  92 125 167 212 258 320 385
#     4  10  21  41  68  96 126 160 205 257 318 393
#     4  10  22  41  64  89 123 165 204 263 322 382
#     4  11  25  39  60  85 121 171 211 264 311 372
#     4  11  22  40  61  91 122 164 211 261 319 371
#
# _framework density 19.121973000000001
#
# number of rings (size 3 to 8) (size 9 to 14) (size 15 to 20)
#    0.000    1.167    5.000    1.000    4.667    0.333 
#    3.000    2.500    0.000    1.000    0.000    0.000 
#    0.000    0.000    0.000    0.000    0.000    0.000 
#
# Total GULP energy -267618.115214 kJ/mol
# GULP energy per Si atom -5575.377400 kJ/mol
# Density = 1.907845 g / cm^3
# Si number density = 19.121973 Si / 1000 Ang^3
#
#
#
# Elastic Constant Matrix: (Units=GPa)
#
#
# Indices 1 2 3 4 5 6 
#
# 1 116.4142 32.5159 42.8192 0.0000 0.0000 0.0000
# 2 32.5159 79.9181 45.8313 0.0000 0.0000 0.0000
# 3 42.8192 45.8313 118.6300 0.0000 0.0000 0.0000
# 4 0.0000 0.0000 0.0000 16.0888 0.0000 0.0000
# 5 0.0000 0.0000 0.0000 0.0000 11.6299 0.0000
# 6 0.0000 0.0000 0.0000 0.0000 0.0000 31.3043
#
#
#
# Elastic Compliance Matrix: (Units=1/GPa)
#
#
# Indices 1 2 3 4 5 6 
#
# 1 0.010324 -0.002651 -0.002702 0.000000 0.000000 0.000000
# 2 -0.002651 0.016755 -0.005516 0.000000 0.000000 0.000000
# 3 -0.002702 -0.005516 0.011536 0.000000 0.000000 0.000000
# 4 0.000000 0.000000 0.000000 0.062155 0.000000 0.000000
# 5 0.000000 0.000000 0.000000 0.000000 0.085985 0.000000
# 6 0.000000 0.000000 0.000000 0.000000 0.000000 0.031944
#
#
# Mechanical properties :
#
#
# Convention : Reuss Voigt Hill
#
# Bulk Modulus (GPa) = 59.25455 61.92168 60.58812
# Shear Modulus (GPa) = 20.31990 24.72434 22.52212
#
# Velocity S-wave (km/s) = 3.26336 3.59970 3.43565
# Velocity P-wave (km/s) = 6.72713 7.05195 6.89145
#
# Compressibility (1/GPa) = 0.01687634
#
# Stress axis : x y z
#
# Youngs Moduli (GPa) = 96.85747 59.68450 86.68427
#
# Poissons Ratio (x) = 0.15822 0.23426
# Poissons Ratio (y) = 0.25676 0.47817
# Poissons Ratio (z) = 0.26175 0.32923
#
# Static dielectric constant tensor:
#      x y z
#    x 1.797760 0.000000 0.000000 
#    y 0.000000 1.658990 0.000000 
#    z 0.000000 0.000000 1.656780 
# 
# From -- ./inp_files/34584.got.cif
#   From: 2010.05.17/outbox.cif.g08.bks.cpg/sg58_18_cif.got.tgz:34584.got - 2010.06.03 14:20:14.
