data_PCOD9444081
_publ_section_title
;
Structure prediction by ZEFSAII (Michael W. Deem and Ramdas Pophale) SiO2 
 PCOD9444081
Probable space group: P N N M
;
_chemical_formula_sum "Si O2"
_cell_formula_units_Z 64
_cell_length_a 21.531218
_cell_length_b 20.263791
_cell_length_c 8.099311
_cell_angle_alpha 90.000000
_cell_angle_beta 90.000000
_cell_angle_gamma 90.000000
_cell_volume 3533.762609
_symmetry_space_group_name_H-M "P N N M"
_symmetry_group_IT_number 58
_symmetry_cell_setting 'orthorhombic'
loop_
_space_group_symop_operation_xyz
x,y,z
-x,-y,z
1/2+x,1/2-y,1/2-z
1/2-x,1/2+y,1/2-z
-x,-y,-z
x,y,-z
1/2-x,1/2+y,1/2+z
1/2+x,1/2-y,1/2+z
loop_
_atom_site_type_symbol
_atom_site_label
_atom_site_fract_x
_atom_site_fract_y
_atom_site_fract_z
Si Si1 0.435217 0.718906 0.196292
Si Si2 0.736069 0.065497 0.798673
Si Si3 0.814970 0.703674 0.702710
Si Si4 0.765096 0.418829 0.301226
Si Si5 0.120103 0.935129 0.801175
Si Si6 0.069774 0.797154 0.695958
Si Si7 0.619209 0.417867 0.699581
Si Si8 0.191737 0.719744 0.195141
O O1 0.378508 0.763030 0.262858
O O2 0.504351 0.729657 0.264915
O O3 0.417819 0.642547 0.224922
O O4 0.436661 0.731278 0.000000
O O5 0.695684 0.127959 0.746433
O O6 0.808068 0.075017 0.747590
O O7 0.715837 0.992331 0.745417
O O8 0.736410 0.065168 0.000000
O O9 0.815238 0.705540 0.500000
O O10 0.754685 0.745159 0.759592
O O11 0.768250 0.417363 0.500000
O O12 0.692248 0.410558 0.256656
O O13 0.803465 0.357479 0.234669
O O14 0.080412 0.872824 0.748160
O O15 0.099649 0.008348 0.747239
O O16 0.120843 0.936430 0.000000
O O17 0.065129 0.796435 0.500000
O O18 0.129781 0.754727 0.742715
O O19 0.614390 0.414327 0.500000
O O20 0.192414 0.729216 0.000000
#
# Coordination Sequence:
#
# PCOD9444081 Si02
#       8
#     8   8   8   8   8   8   8   8
#     4  10  21  35  50  72 104 138 173 213 257 306
#     4   8  14  28  52  77  99 126 162 208 253 295
#     4   9  16  30  54  77  95 126 171 212 249 294
#     4   9  17  30  51  79 106 126 156 208 262 300
#     4   9  17  32  51  73 101 136 176 208 246 304
#     4  11  23  35  48  72 106 138 170 215 261 299
#     4   9  18  31  50  75 104 136 170 210 250 299
#     4  11  20  33  56  77  99 134 173 210 249 303
#
# _framework density 18.111008000000002
#
# number of rings (size 3 to 8) (size 9 to 14) (size 15 to 20)
#    0.000    2.500    2.500    2.250    0.000    2.000 
#    0.000    4.375    0.000    0.750    0.000    5.250 
#    0.000    0.000    0.000    0.000    0.000    0.000 
#
# Total GULP energy -356887.165497 kJ/mol
# GULP energy per Si atom -5576.361961 kJ/mol
# Density = 1.806979 g / cm^3
# Si number density = 18.111008 Si / 1000 Ang^3
#
#
#
# Elastic Constant Matrix: (Units=GPa)
#
#
# Indices 1 2 3 4 5 6 
#
# 1 462.4652 552.3785 220.7923 0.0000 0.0000 0.0000
# 2 552.3785 781.5846 289.9189 0.0000 0.0000 0.0000
# 3 220.7923 289.9189 129.9841 0.0000 0.0000 0.0000
# 4 0.0000 0.0000 0.0000 24.0148 0.0000 0.0000
# 5 0.0000 0.0000 0.0000 0.0000 15.9309 0.0000
# 6 0.0000 0.0000 0.0000 0.0000 0.0000 13.5775
#
#
#
# Elastic Compliance Matrix: (Units=1/GPa)
#
#
# Indices 1 2 3 4 5 6 
#
# 1 0.016442 -0.007301 -0.011645 0.000000 0.000000 0.000000
# 2 -0.007301 0.010652 -0.011358 0.000000 0.000000 0.000000
# 3 -0.011645 -0.011358 0.052806 0.000000 0.000000 0.000000
# 4 0.000000 0.000000 0.000000 0.041641 0.000000 0.000000
# 5 0.000000 0.000000 0.000000 0.000000 0.062771 0.000000
# 6 0.000000 0.000000 0.000000 0.000000 0.000000 0.073651
#
#
# Mechanical properties :
#
#
# Convention : Reuss Voigt Hill
#
# Bulk Modulus (GPa) = 51.83134 388.91260 220.37197
# Shear Modulus (GPa) = 15.38454 31.43426 23.40940
#
# Velocity S-wave (km/s) = 2.91771 4.17063 3.59911
# Velocity P-wave (km/s) = 6.32705 15.44010 11.79890
#
# Compressibility (1/GPa) = 0.01929335
#
# Stress axis : x y z
#
# Youngs Moduli (GPa) = 60.81910 93.87690 18.93729
#
# Poissons Ratio (x) = 0.68538 0.22052
# Poissons Ratio (y) = 0.44403 0.21508
# Poissons Ratio (z) = 0.70824 1.06622
#
# Static dielectric constant tensor:
#      x y z
#    x 1.637090 0.000000 0.000000 
#    y 0.000000 1.647280 0.000000 
#    z 0.000000 0.000000 1.647270 
# 
# From -- ./inp_files/8366.got.cif
#   From: 2010.05.17/outbox.cif.g08.bks.cpg/sg58_5_cif.got.tgz:8366.got - 2010.06.03 14:20:14.
