data_PCOD9444767
_publ_section_title
;
Structure prediction by ZEFSAII (Michael W. Deem and Ramdas Pophale) SiO2 
 PCOD9444767
Probable space group: P N N M
;
_chemical_formula_sum "Si O2"
_cell_formula_units_Z 56
_cell_length_a 8.588960
_cell_length_b 20.896043
_cell_length_c 14.135559
_cell_angle_alpha 90.000000
_cell_angle_beta 90.000000
_cell_angle_gamma 90.000000
_cell_volume 2536.983374
_symmetry_space_group_name_H-M "P N N M"
_symmetry_group_IT_number 58
_symmetry_cell_setting 'orthorhombic'
loop_
_space_group_symop_operation_xyz
x,y,z
-x,-y,z
1/2+x,1/2-y,1/2-z
1/2-x,1/2+y,1/2-z
-x,-y,-z
x,y,-z
1/2-x,1/2+y,1/2+z
1/2+x,1/2-y,1/2+z
loop_
_atom_site_type_symbol
_atom_site_label
_atom_site_fract_x
_atom_site_fract_y
_atom_site_fract_z
Si Si1 0.312034 0.927775 0.388497
Si Si2 0.159574 0.037534 0.267998
Si Si3 0.988588 0.852187 0.610932
Si Si4 0.757184 0.377259 0.611697
Si Si5 0.529291 0.262852 0.602935
Si Si6 0.665838 0.217386 0.104363
Si Si7 0.030192 0.345703 0.751360
O O1 0.342758 0.935206 0.500000
O O2 0.456252 0.901551 0.327120
O O3 0.166913 0.876917 0.378122
O O4 0.257038 0.992530 0.338067
O O5 0.116291 0.102679 0.323533
O O6 0.231337 0.056414 0.167024
O O7 0.000000 0.000000 0.251164
O O8 0.949990 0.862803 0.500000
O O9 0.944428 0.778192 0.629913
O O10 0.798714 0.382892 0.500000
O O11 0.603340 0.332638 0.614677
O O12 0.881517 0.343786 0.682625
O O13 0.587551 0.238770 0.500000
O O14 0.343255 0.260655 0.601208
O O15 0.568631 0.216581 0.687479
O O16 0.663708 0.156443 0.172692
O O17 0.616193 0.197686 0.000000
#
# Coordination Sequence:
#
# PCOD9444767 Si02
#       7
#     8   8   8   8   8   8   8
#     4  10  23  40  64  97 130 166 214 268 327 384
#     4  10  21  40  67  92 123 170 220 263 323 383
#     4   9  18  36  64  98 133 164 206 264 326 390
#     4  11  26  45  64  92 131 174 219 268 316 377
#     4  10  22  39  62  93 128 165 210 260 314 381
#     4  10  22  37  60  93 126 165 210 255 310 382
#     4  12  23  38  62  92 129 170 207 257 326 385
#
# _framework density 22.073459
#
# number of rings (size 3 to 8) (size 9 to 14) (size 15 to 20)
#    0.000    1.714    0.000    3.857    8.000    2.571 
#    0.000    5.000    0.000    0.000    0.000    0.000 
#    0.000    0.000    0.000    0.000    0.000    0.000 
#
# Total GULP energy -312349.223710 kJ/mol
# GULP energy per Si atom -5577.664709 kJ/mol
# Density = 2.202322 g / cm^3
# Si number density = 22.073459 Si / 1000 Ang^3
#
#
#
# Elastic Constant Matrix: (Units=GPa)
#
#
# Indices 1 2 3 4 5 6 
#
# 1 35.1340 24.5173 37.6259 0.0000 0.0000 0.0000
# 2 24.5173 53.9506 76.5524 0.0000 0.0000 0.0000
# 3 37.6259 76.5524 172.9845 0.0000 0.0000 0.0000
# 4 0.0000 0.0000 0.0000 35.7177 0.0000 0.0000
# 5 0.0000 0.0000 0.0000 0.0000 28.1413 0.0000
# 6 0.0000 0.0000 0.0000 0.0000 0.0000 25.0615
#
#
#
# Elastic Compliance Matrix: (Units=1/GPa)
#
#
# Indices 1 2 3 4 5 6 
#
# 1 0.041898 -0.016419 -0.001847 0.000000 0.000000 0.000000
# 2 -0.016419 0.056252 -0.021322 0.000000 0.000000 0.000000
# 3 -0.001847 -0.021322 0.015619 0.000000 0.000000 0.000000
# 4 0.000000 0.000000 0.000000 0.027997 0.000000 0.000000
# 5 0.000000 0.000000 0.000000 0.000000 0.035535 0.000000
# 6 0.000000 0.000000 0.000000 0.000000 0.000000 0.039902
#
#
# Mechanical properties :
#
#
# Convention : Reuss Voigt Hill
#
# Bulk Modulus (GPa) = 28.90884 59.94003 44.42443
# Shear Modulus (GPa) = 16.23843 26.00899 21.12371
#
# Velocity S-wave (km/s) = 2.71524 3.43635 3.09685
# Velocity P-wave (km/s) = 4.79115 6.55427 5.74080
#
# Compressibility (1/GPa) = 0.03459150
#
# Stress axis : x y z
#
# Youngs Moduli (GPa) = 23.86726 17.77711 64.02605
#
# Poissons Ratio (x) = 0.29189 0.11827
# Poissons Ratio (y) = 0.39188 1.36519
# Poissons Ratio (z) = 0.04409 0.37905
#
# Static dielectric constant tensor:
#      x y z
#    x 1.857870 0.000000 0.000000 
#    y 0.000000 1.843670 0.000000 
#    z 0.000000 0.000000 1.861980 
# 
# From -- ./inp_files/20157.got.cif
#   From: 2010.05.17/outbox.cif.g08.bks.cpg/sg58_11_cif.got.tgz:20157.got - 2010.06.03 14:20:14.
