data_PCOD9444944
_publ_section_title
;
Structure prediction by ZEFSAII (Michael W. Deem and Ramdas Pophale) SiO2 
 PCOD9444944
Probable space group: P N N M
;
_chemical_formula_sum "Si O2"
_cell_formula_units_Z 58
_cell_length_a 30.504558
_cell_length_b 12.085672
_cell_length_c 7.506631
_cell_angle_alpha 90.000000
_cell_angle_beta 90.000000
_cell_angle_gamma 90.000000
_cell_volume 2767.455257
_symmetry_space_group_name_H-M "P N N M"
_symmetry_group_IT_number 58
_symmetry_cell_setting 'orthorhombic'
loop_
_space_group_symop_operation_xyz
x,y,z
-x,-y,z
1/2+x,1/2-y,1/2-z
1/2-x,1/2+y,1/2-z
-x,-y,-z
x,y,-z
1/2-x,1/2+y,1/2+z
1/2+x,1/2-y,1/2+z
loop_
_atom_site_type_symbol
_atom_site_label
_atom_site_fract_x
_atom_site_fract_y
_atom_site_fract_z
Si Si1 0.632376 0.512204 0.715960
Si Si2 0.579592 0.726970 0.284978
Si Si3 0.516455 0.322317 0.296491
Si Si4 0.500000 0.500000 0.000000
Si Si5 0.661385 0.865014 0.284363
Si Si6 0.608485 0.261504 0.793874
Si Si7 0.715707 0.651117 0.282851
Si Si8 0.686580 0.113359 0.207653
O O1 0.630493 0.508878 0.500000
O O2 0.597683 0.606711 0.775290
O O3 0.622612 0.389866 0.780933
O O4 0.680061 0.558670 0.770531
O O5 0.582711 0.726789 0.500000
O O6 0.528709 0.738182 0.240387
O O7 0.613884 0.819593 0.223976
O O8 0.510605 0.362181 0.500000
O O9 0.521101 0.420461 0.156444
O O10 0.560660 0.251488 0.291533
O O11 0.661306 0.869346 0.500000
O O12 0.696040 0.770130 0.231163
O O13 0.673884 0.985206 0.218132
O O14 0.647405 0.187163 0.714722
O O15 0.603193 0.230546 0.000000
O O16 0.715777 0.648115 0.500000
O O17 0.764767 0.631694 0.216893
O O18 0.689873 0.146359 0.000000
#
# Coordination Sequence:
#
# PCOD9444944 Si02
#       8
#     8   8   8   2   8   8   8   8
#     4   9  17  33  57  82 110 147 194 238 302 368
#     4   8  17  35  59  85 112 149 191 246 300 353
#     4  11  22  38  60  87 127 166 205 250 309 368
#     4  12  22  36  60  98 126 160 202 252 308 376
#     4   9  18  37  62  84 108 145 201 248 295 362
#     4  11  23  37  52  82 125 162 200 249 302 364
#     4   8  17  35  58  82 112 151 190 245 306 367
#     4  10  22  38  55  80 120 159 194 248 309 356
#
# _framework density 20.957881
#
# number of rings (size 3 to 8) (size 9 to 14) (size 15 to 20)
#    0.000    2.483    0.690    3.103    1.931    2.207 
#    1.241    3.448    0.000    4.138    0.000    0.000 
#    0.000    0.000    0.000    0.000    0.000    0.000 
#
# Total GULP energy -323284.606643 kJ/mol
# GULP energy per Si atom -5573.872528 kJ/mol
# Density = 2.091018 g / cm^3
# Si number density = 20.957881 Si / 1000 Ang^3
#
#
#
# Elastic Constant Matrix: (Units=GPa)
#
#
# Indices 1 2 3 4 5 6 
#
# 1 220.6640 78.8397 7.5571 0.0000 0.0000 0.0000
# 2 78.8397 71.4611 -12.1837 0.0000 0.0000 0.0000
# 3 7.5571 -12.1837 78.8622 0.0000 0.0000 0.0000
# 4 0.0000 0.0000 0.0000 18.5513 0.0000 0.0000
# 5 0.0000 0.0000 0.0000 0.0000 9.7055 0.0000
# 6 0.0000 0.0000 0.0000 0.0000 0.0000 22.3988
#
#
#
# Elastic Compliance Matrix: (Units=1/GPa)
#
#
# Indices 1 2 3 4 5 6 
#
# 1 0.007816 -0.008988 -0.002138 0.000000 0.000000 0.000000
# 2 -0.008988 0.024707 0.004678 0.000000 0.000000 0.000000
# 3 -0.002138 0.004678 0.013608 0.000000 0.000000 0.000000
# 4 0.000000 0.000000 0.000000 0.053905 0.000000 0.000000
# 5 0.000000 0.000000 0.000000 0.000000 0.103034 0.000000
# 6 0.000000 0.000000 0.000000 0.000000 0.000000 0.044645
#
#
# Mechanical properties :
#
#
# Convention : Reuss Voigt Hill
#
# Bulk Modulus (GPa) = 30.08672 57.71260 43.89966
# Shear Modulus (GPa) = 18.40349 29.91605 24.15977
#
# Velocity S-wave (km/s) = 2.96652 3.78224 3.39894
# Velocity P-wave (km/s) = 5.11083 6.83162 6.03289
#
# Compressibility (1/GPa) = 0.03323726
#
# Stress axis : x y z
#
# Youngs Moduli (GPa) = 127.94130 40.47474 73.48648
#
# Poissons Ratio (x) = 0.36377 0.15708
# Poissons Ratio (y) = 1.14988 -0.34379
# Poissons Ratio (z) = 0.27348 -0.18935
#
# Static dielectric constant tensor:
#      x y z
#    x 1.799520 0.000000 0.000000 
#    y 0.000000 1.698810 0.000000 
#    z 0.000000 0.000000 1.803070 
# 
# From -- ./inp_files/10883.got.cif
#   From: 2010.05.17/outbox.cif.g08.bks.cpg/sg58_6_cif.got.tgz:10883.got - 2010.06.03 14:20:14.
