data_PCOD9444542
_publ_section_title
;
Structure prediction by ZEFSAII (Michael W. Deem and Ramdas Pophale) SiO2 
 PCOD9444542
Probable space group: P N N M
;
_chemical_formula_sum "Si O2"
_cell_formula_units_Z 56
_cell_length_a 21.983507
_cell_length_b 9.500189
_cell_length_c 14.500634
_cell_angle_alpha 90.000000
_cell_angle_beta 90.000000
_cell_angle_gamma 90.000000
_cell_volume 3028.420744
_symmetry_space_group_name_H-M "P N N M"
_symmetry_group_IT_number 58
_symmetry_cell_setting 'orthorhombic'
loop_
_space_group_symop_operation_xyz
x,y,z
-x,-y,z
1/2+x,1/2-y,1/2-z
1/2-x,1/2+y,1/2-z
-x,-y,-z
x,y,-z
1/2-x,1/2+y,1/2+z
1/2+x,1/2-y,1/2+z
loop_
_atom_site_type_symbol
_atom_site_label
_atom_site_fract_x
_atom_site_fract_y
_atom_site_fract_z
Si Si1 0.246154 0.074123 0.109118
Si Si2 0.067863 0.696062 0.745352
Si Si3 0.390527 0.970064 0.609136
Si Si4 0.383961 0.971654 0.890741
Si Si5 0.071616 0.240030 0.249335
Si Si6 0.247750 0.402283 0.109125
Si Si7 0.348017 0.465518 0.750014
O O1 0.313167 0.011062 0.125258
O O2 0.243973 0.238086 0.139319
O O3 0.195372 0.987078 0.162248
O O4 0.234654 0.072238 0.000000
O O5 0.077264 0.593127 0.833022
O O6 0.078051 0.598119 0.655796
O O7 0.000936 0.760728 0.743844
O O8 0.117969 0.817312 0.748391
O O9 0.402330 0.975520 0.500000
O O10 0.411593 0.824414 0.655837
O O11 0.317558 0.974454 0.624582
O O12 0.401754 0.833810 0.833187
O O13 0.394255 0.959124 0.000000
O O14 0.102781 0.089276 0.250746
O O15 0.302015 0.474162 0.163940
O O16 0.259887 0.402513 0.000000
#
# Coordination Sequence:
#
# PCOD9444542 Si02
#       7
#     8   8   8   8   8   8   8
#     4  10  21  38  62  90 119 152 193 243 302 358
#     4  11  24  39  58  87 119 158 204 241 285 352
#     4  10  21  40  64  87 114 153 200 248 294 346
#     4  10  21  40  64  87 114 153 200 248 294 346
#     4  11  24  39  58  87 119 158 204 241 285 352
#     4  10  21  38  62  90 119 152 193 243 302 358
#     4  12  23  38  62  86 125 158 188 242 310 348
#
# _framework density 18.491485000000001
#
# number of rings (size 3 to 8) (size 9 to 14) (size 15 to 20)
#    0.000    1.429    2.857    3.857    0.000    3.429 
#    0.000    2.857    0.000    5.143    0.000    0.000 
#    0.000    0.000    0.000    0.000    0.000    0.000 
#
# Total GULP energy -312934.436635 kJ/mol
# GULP energy per Si atom -5588.114940 kJ/mol
# Density = 1.844940 g / cm^3
# Si number density = 18.491485 Si / 1000 Ang^3
#
#
#
# Elastic Constant Matrix: (Units=GPa)
#
#
# Indices 1 2 3 4 5 6 
#
# 1 57.2528 -7.0670 21.2372 0.0000 0.0000 0.0000
# 2 -7.0670 23.4825 10.0542 0.0000 0.0000 0.0000
# 3 21.2372 10.0542 83.4843 0.0000 0.0000 0.0000
# 4 0.0000 0.0000 0.0000 -5.3334 0.0000 0.0000
# 5 0.0000 0.0000 0.0000 0.0000 6.1348 0.0000
# 6 0.0000 0.0000 0.0000 0.0000 0.0000 31.1029
#
#
#
# Elastic Compliance Matrix: (Units=1/GPa)
#
#
# Indices 1 2 3 4 5 6 
#
# 1 0.020968 0.009061 -0.006425 0.000000 0.000000 0.000000
# 2 0.009061 0.048816 -0.008184 0.000000 0.000000 0.000000
# 3 -0.006425 -0.008184 0.014598 0.000000 0.000000 0.000000
# 4 0.000000 0.000000 0.000000 -0.187498 0.000000 0.000000
# 5 0.000000 0.000000 0.000000 0.000000 0.163003 0.000000
# 6 0.000000 0.000000 0.000000 0.000000 0.000000 0.032151
#
#
# Mechanical properties :
#
#
# Convention : Reuss Voigt Hill
#
# Bulk Modulus (GPa) = 13.64507 23.62983 18.63745
# Shear Modulus (GPa) = 39.19590 15.71388 27.45489
#
# Velocity S-wave (km/s) = 4.60899 2.91828 3.85740
# Velocity P-wave (km/s) = 5.97652 4.91545 5.47176
#
# Compressibility (1/GPa) = 0.07328657
#
# Stress axis : x y z
#
# Youngs Moduli (GPa) = 47.69111 20.48513 68.50052
#
# Poissons Ratio (x) = -0.18562 0.44014
# Poissons Ratio (y) = -0.43215 0.56061
# Poissons Ratio (z) = 0.30643 0.16765
#
# Static dielectric constant tensor:
#      x y z
#    x 1.632860 0.000000 0.000000 
#    y 0.000000 1.617860 0.000000 
#    z 0.000000 0.000000 1.633360 
# 
# From -- ./inp_files/20112.got.cif
#   From: 2010.05.17/outbox.cif.g08.bks.cpg/sg58_11_cif.got.tgz:20112.got - 2010.06.03 14:20:14.
