data_PCOD9444168
_publ_section_title
;
Structure prediction by ZEFSAII (Michael W. Deem and Ramdas Pophale) SiO2 
 PCOD9444168
Probable space group: P N N M
;
_chemical_formula_sum "Si O2"
_cell_formula_units_Z 56
_cell_length_a 27.188901
_cell_length_b 5.181733
_cell_length_c 21.254037
_cell_angle_alpha 90.000000
_cell_angle_beta 90.000000
_cell_angle_gamma 90.000000
_cell_volume 2994.388298
_symmetry_space_group_name_H-M "P N N M"
_symmetry_group_IT_number 58
_symmetry_cell_setting 'orthorhombic'
loop_
_space_group_symop_operation_xyz
x,y,z
-x,-y,z
1/2+x,1/2-y,1/2-z
1/2-x,1/2+y,1/2-z
-x,-y,-z
x,y,-z
1/2-x,1/2+y,1/2+z
1/2+x,1/2-y,1/2+z
loop_
_atom_site_type_symbol
_atom_site_label
_atom_site_fract_x
_atom_site_fract_y
_atom_site_fract_z
Si Si1 0.766535 0.766731 0.148824
Si Si2 0.757905 0.763050 0.426864
Si Si3 0.969060 0.753484 0.771592
Si Si4 0.138119 0.292803 0.233878
Si Si5 0.468218 0.747986 0.880854
Si Si6 0.658180 0.711980 0.188923
Si Si7 0.633448 0.044696 0.927547
O O1 0.767121 0.043040 0.115234
O O2 0.815212 0.722354 0.188642
O O3 0.717039 0.751320 0.190670
O O4 0.757422 0.541810 0.098046
O O5 0.745952 0.732382 0.500000
O O6 0.816502 0.710778 0.419868
O O7 0.914175 0.756418 0.798208
O O8 0.962930 0.763162 0.695167
O O9 0.000000 0.500000 0.786474
O O10 0.000000 0.000000 0.790854
O O11 0.135405 0.575010 0.264724
O O12 0.145788 0.072291 0.287069
O O13 0.500000 0.500000 0.900676
O O14 0.500000 0.000000 0.896126
O O15 0.414848 0.791372 0.910822
O O16 0.639017 0.804141 0.120576
O O17 0.631342 0.958070 0.000000
#
# Coordination Sequence:
#
# PCOD9444168 Si02
#       7
#     8   8   8   8   8   8   8
#     4  11  22  36  58  89 112 144 188 220 275 342
#     4  10  22  40  59  82 119 150 179 223 274 336
#     4  10  21  36  55  79 106 148 185 226 286 340
#     4  12  22  37  60  82 115 143 182 236 284 337
#     4  10  22  36  54  73 102 143 194 250 291 325
#     4  11  22  36  55  81 114 147 180 237 292 334
#     4  10  22  39  58  80 107 153 202 242 286 334
#
# _framework density 18.701649
#
# number of rings (size 3 to 8) (size 9 to 14) (size 15 to 20)
#    0.000    1.429    1.429    4.714    4.000    2.286 
#    0.000    5.000    0.000    0.000    0.000    0.000 
#    0.000   11.429    0.000    0.000    0.000    0.000 
#
# Total GULP energy -313205.418271 kJ/mol
# GULP energy per Si atom -5592.953898 kJ/mol
# Density = 1.865908 g / cm^3
# Si number density = 18.701649 Si / 1000 Ang^3
#
#
#
# Elastic Constant Matrix: (Units=GPa)
#
#
# Indices 1 2 3 4 5 6 
#
# 1 94.5346 1.7385 22.7089 0.0000 0.0000 0.0000
# 2 1.7385 33.6879 -0.9381 0.0000 0.0000 0.0000
# 3 22.7089 -0.9381 29.8808 0.0000 0.0000 0.0000
# 4 0.0000 0.0000 0.0000 12.8672 0.0000 0.0000
# 5 0.0000 0.0000 0.0000 0.0000 15.0790 0.0000
# 6 0.0000 0.0000 0.0000 0.0000 0.0000 15.4396
#
#
#
# Elastic Compliance Matrix: (Units=1/GPa)
#
#
# Indices 1 2 3 4 5 6 
#
# 1 0.012971 -0.000945 -0.009887 0.000000 0.000000 0.000000
# 2 -0.000945 0.029779 0.001653 0.000000 0.000000 0.000000
# 3 -0.009887 0.001653 0.041032 0.000000 0.000000 0.000000
# 4 0.000000 0.000000 0.000000 0.077717 0.000000 0.000000
# 5 0.000000 0.000000 0.000000 0.000000 0.066317 0.000000
# 6 0.000000 0.000000 0.000000 0.000000 0.000000 0.064768
#
#
# Mechanical properties :
#
#
# Convention : Reuss Voigt Hill
#
# Bulk Modulus (GPa) = 15.28490 22.79132 19.03811
# Shear Modulus (GPa) = 15.02628 17.65010 16.33819
#
# Velocity S-wave (km/s) = 2.83764 3.07542 2.95892
# Velocity P-wave (km/s) = 4.35052 4.98239 4.67714
#
# Compressibility (1/GPa) = 0.06542404
#
# Stress axis : x y z
#
# Youngs Moduli (GPa) = 77.09761 33.58069 24.37109
#
# Poissons Ratio (x) = 0.03172 0.24096
# Poissons Ratio (y) = 0.07283 -0.04028
# Poissons Ratio (z) = 0.76227 -0.05551
#
# Static dielectric constant tensor:
#      x y z
#    x 1.657940 0.000000 0.000000 
#    y 0.000000 1.654870 0.000000 
#    z 0.000000 0.000000 1.637540 
# 
# From -- ./inp_files/30516.got.cif
#   From: 2010.05.17/outbox.cif.g08.bks.cpg/sg58_16_cif.got.tgz:30516.got - 2010.06.03 14:20:14.
