data_PCOD9444073
_publ_section_title
;
Structure prediction by ZEFSAII (Michael W. Deem and Ramdas Pophale) SiO2 
 PCOD9444073
Probable space group: P N N M
;
_chemical_formula_sum "Si O2"
_cell_formula_units_Z 48
_cell_length_a 11.911403
_cell_length_b 8.183180
_cell_length_c 25.229862
_cell_angle_alpha 90.000000
_cell_angle_beta 90.000000
_cell_angle_gamma 90.000000
_cell_volume 2459.234244
_symmetry_space_group_name_H-M "P N N M"
_symmetry_group_IT_number 58
_symmetry_cell_setting 'orthorhombic'
loop_
_space_group_symop_operation_xyz
x,y,z
-x,-y,z
1/2+x,1/2-y,1/2-z
1/2-x,1/2+y,1/2-z
-x,-y,-z
x,y,-z
1/2-x,1/2+y,1/2+z
1/2+x,1/2-y,1/2+z
loop_
_atom_site_type_symbol
_atom_site_label
_atom_site_fract_x
_atom_site_fract_y
_atom_site_fract_z
Si Si1 0.842264 0.374582 0.870878
Si Si2 0.907020 0.265884 0.648432
Si Si3 0.846137 0.642069 0.336897
Si Si4 0.436381 0.670806 0.632949
Si Si5 0.710167 0.148760 0.286320
Si Si6 0.239925 0.332949 0.937818
O O1 0.755350 0.225108 0.868054
O O2 0.967132 0.306709 0.872366
O O3 0.823065 0.484035 0.817936
O O4 0.812580 0.494643 0.919103
O O5 0.874237 0.457422 0.646747
O O6 0.837941 0.188541 0.697438
O O7 0.854388 0.186920 0.595746
O O8 0.039778 0.254902 0.655022
O O9 0.813272 0.638388 0.275139
O O10 0.500000 0.500000 0.633736
O O11 0.365683 0.710528 0.686039
O O12 0.347008 0.698776 0.585853
O O13 0.254347 0.320069 0.000000
#
# Coordination Sequence:
#
# PCOD9444073 Si02
#       6
#     8   8   8   8   8   8
#     4  10  21  36  58  88 118 148 198 238 281 354
#     4   9  22  39  54  88 115 152 201 235 281 349
#     4  11  21  36  59  81 124 156 191 234 288 339
#     4  10  21  37  58  91 125 145 195 237 282 355
#     4  10  21  34  56  85 121 164 187 229 281 344
#     4  10  22  43  62  80 112 153 196 254 301 334
#
# _framework density 19.518270999999999
#
# number of rings (size 3 to 8) (size 9 to 14) (size 15 to 20)
#    0.000    2.333    0.000    5.000    7.000    4.333 
#    3.000    5.833    0.000    0.000    0.000    0.000 
#    0.000    0.000    0.000    0.000    0.000    0.000 
#
# Total GULP energy -268147.581733 kJ/mol
# GULP energy per Si atom -5586.407953 kJ/mol
# Density = 1.947385 g / cm^3
# Si number density = 19.518271 Si / 1000 Ang^3
#
#
#
# Elastic Constant Matrix: (Units=GPa)
#
#
# Indices 1 2 3 4 5 6 
#
# 1 94.1338 -15.0730 8.2025 0.0000 0.0000 0.0000
# 2 -15.0730 34.9167 0.9252 0.0000 0.0000 0.0000
# 3 8.2025 0.9252 44.6109 0.0000 0.0000 0.0000
# 4 0.0000 0.0000 0.0000 3.4113 0.0000 0.0000
# 5 0.0000 0.0000 0.0000 0.0000 6.6748 0.0000
# 6 0.0000 0.0000 0.0000 0.0000 0.0000 30.7328
#
#
#
# Elastic Compliance Matrix: (Units=1/GPa)
#
#
# Indices 1 2 3 4 5 6 
#
# 1 0.011632 0.005081 -0.002244 0.000000 0.000000 0.000000
# 2 0.005081 0.030875 -0.001575 0.000000 0.000000 0.000000
# 3 -0.002244 -0.001575 0.022861 0.000000 0.000000 0.000000
# 4 0.000000 0.000000 0.000000 0.293148 0.000000 0.000000
# 5 0.000000 0.000000 0.000000 0.000000 0.149817 0.000000
# 6 0.000000 0.000000 0.000000 0.000000 0.000000 0.032539
#
#
# Mechanical properties :
#
#
# Convention : Reuss Voigt Hill
#
# Bulk Modulus (GPa) = 14.72910 17.97454 16.35182
# Shear Modulus (GPa) = 8.91301 20.13756 14.52528
#
# Velocity S-wave (km/s) = 2.13925 3.21554 2.73094
# Velocity P-wave (km/s) = 3.69656 4.79743 4.28252
#
# Compressibility (1/GPa) = 0.06789280
#
# Stress axis : x y z
#
# Youngs Moduli (GPa) = 85.96750 32.38896 43.74201
#
# Poissons Ratio (x) = -0.16457 0.09817
# Poissons Ratio (y) = -0.43680 0.06887
# Poissons Ratio (z) = 0.19293 0.05100
#
# Static dielectric constant tensor:
#      x y z
#    x 1.686260 0.000000 0.000000 
#    y 0.000000 1.738560 0.000000 
#    z 0.000000 0.000000 1.633700 
# 
# From -- ./inp_files/31907.got.cif
#   From: 2010.05.17/outbox.cif.g08.bks.cpg/sg58_16_cif.got.tgz:31907.got - 2010.06.03 14:20:14.
