data_PCOD9444866
_publ_section_title
;
Structure prediction by ZEFSAII (Michael W. Deem and Ramdas Pophale) SiO2 
 PCOD9444866
Probable space group: P N N M
;
_chemical_formula_sum "Si O2"
_cell_formula_units_Z 52
_cell_length_a 13.608095
_cell_length_b 10.337702
_cell_length_c 14.738954
_cell_angle_alpha 90.000000
_cell_angle_beta 90.000000
_cell_angle_gamma 90.000000
_cell_volume 2073.423444
_symmetry_space_group_name_H-M "P N N M"
_symmetry_group_IT_number 58
_symmetry_cell_setting 'orthorhombic'
loop_
_space_group_symop_operation_xyz
x,y,z
-x,-y,z
1/2+x,1/2-y,1/2-z
1/2-x,1/2+y,1/2-z
-x,-y,-z
x,y,-z
1/2-x,1/2+y,1/2+z
1/2+x,1/2-y,1/2+z
loop_
_atom_site_type_symbol
_atom_site_label
_atom_site_fract_x
_atom_site_fract_y
_atom_site_fract_z
Si Si1 0.386906 0.270007 0.894873
Si Si2 0.286864 0.633143 0.296476
Si Si3 0.925178 0.307724 0.000000
Si Si4 0.284002 0.541180 0.897830
Si Si5 0.905722 0.625989 0.857398
Si Si6 0.934364 0.618124 0.644628
Si Si7 0.211348 0.893564 0.906275
O O1 0.320654 0.178687 0.830294
O O2 0.356050 0.418775 0.884627
O O3 0.499859 0.243957 0.872880
O O4 0.366870 0.236111 0.000000
O O5 0.293273 0.634230 0.188209
O O6 0.356249 0.732463 0.348902
O O7 0.312806 0.487200 0.324001
O O8 0.855939 0.231070 0.077938
O O9 0.000661 0.360110 0.079402
O O10 0.175642 0.473722 0.895635
O O11 0.297888 0.592933 0.000000
O O12 0.922598 0.594548 0.752081
O O13 0.827623 0.625637 0.601491
O O14 0.000000 0.500000 0.607422
O O15 0.193208 0.971851 0.000000
#
# Coordination Sequence:
#
# PCOD9444866 Si02
#       7
#     8   8   4   8   8   8   8
#     4  10  22  38  68  99 129 176 235 286 349 427
#     4  11  22  40  70 101 137 178 229 300 346 420
#     4  10  26  43  66 104 146 181 239 297 347 431
#     4  10  21  43  68  96 139 188 232 277 352 433
#     4  11  24  42  70 101 137 194 235 279 355 426
#     4  12  23  42  70  96 138 182 236 288 357 412
#     4  10  23  39  63 100 140 170 228 302 353 393
#
# _framework density 25.079297
#
# number of rings (size 3 to 8) (size 9 to 14) (size 15 to 20)
#    0.462    0.923    3.846    0.923    4.308    1.846 
#    0.000    1.923    5.077    1.846    0.000    0.000 
#    0.000    0.000    0.000    0.000    0.000    0.000 
#
# Total GULP energy -290225.274172 kJ/mol
# GULP energy per Si atom -5581.255273 kJ/mol
# Density = 2.502221 g / cm^3
# Si number density = 25.079297 Si / 1000 Ang^3
#
#
#
# Elastic Constant Matrix: (Units=GPa)
#
#
# Indices 1 2 3 4 5 6 
#
# 1 98.0090 38.8801 4.4126 0.0000 0.0000 0.0000
# 2 38.8801 76.5867 18.8898 0.0000 0.0000 0.0000
# 3 4.4126 18.8898 171.8975 0.0000 0.0000 0.0000
# 4 0.0000 0.0000 0.0000 29.7537 0.0000 0.0000
# 5 0.0000 0.0000 0.0000 0.0000 1.6703 0.0000
# 6 0.0000 0.0000 0.0000 0.0000 0.0000 39.2535
#
#
#
# Elastic Compliance Matrix: (Units=1/GPa)
#
#
# Indices 1 2 3 4 5 6 
#
# 1 0.012802 -0.006597 0.000396 0.000000 0.000000 0.000000
# 2 -0.006597 0.016820 -0.001679 0.000000 0.000000 0.000000
# 3 0.000396 -0.001679 0.005992 0.000000 0.000000 0.000000
# 4 0.000000 0.000000 0.000000 0.033609 0.000000 0.000000
# 5 0.000000 0.000000 0.000000 0.000000 0.598709 0.000000
# 6 0.000000 0.000000 0.000000 0.000000 0.000000 0.025475
#
#
# Mechanical properties :
#
#
# Convention : Reuss Voigt Hill
#
# Bulk Modulus (GPa) = 50.36541 52.31760 51.34150
# Shear Modulus (GPa) = 6.98533 33.08954 20.03743
#
# Velocity S-wave (km/s) = 1.67073 3.63629 2.82966
# Velocity P-wave (km/s) = 4.88343 6.20776 5.58499
#
# Compressibility (1/GPa) = 0.01985490
#
# Stress axis : x y z
#
# Youngs Moduli (GPa) = 78.11078 59.45211 166.89597
#
# Poissons Ratio (x) = 0.39221 -0.06614
# Poissons Ratio (y) = 0.51530 0.28022
# Poissons Ratio (z) = -0.03096 0.09982
#
# Static dielectric constant tensor:
#      x y z
#    x 1.969940 0.000000 0.000000 
#    y 0.000000 2.032610 0.000000 
#    z 0.000000 0.000000 1.963920 
# 
# From -- ./inp_files/22210.got.cif
#   From: 2010.05.17/outbox.cif.g08.bks.cpg/sg58_12_cif.got.tgz:22210.got - 2010.06.03 14:20:14.
