data_PCOD9444416
_publ_section_title
;
Structure prediction by ZEFSAII (Michael W. Deem and Ramdas Pophale) SiO2 
 PCOD9444416
Probable space group: P N N M
;
_chemical_formula_sum "Si O2"
_cell_formula_units_Z 48
_cell_length_a 10.306804
_cell_length_b 8.516658
_cell_length_c 28.965754
_cell_angle_alpha 90.000000
_cell_angle_beta 90.000000
_cell_angle_gamma 90.000000
_cell_volume 2542.600120
_symmetry_space_group_name_H-M "P N N M"
_symmetry_group_IT_number 58
_symmetry_cell_setting 'orthorhombic'
loop_
_space_group_symop_operation_xyz
x,y,z
-x,-y,z
1/2+x,1/2-y,1/2-z
1/2-x,1/2+y,1/2-z
-x,-y,-z
x,y,-z
1/2-x,1/2+y,1/2+z
1/2+x,1/2-y,1/2+z
loop_
_atom_site_type_symbol
_atom_site_label
_atom_site_fract_x
_atom_site_fract_y
_atom_site_fract_z
Si Si1 0.753715 0.326027 0.708546
Si Si2 0.402191 0.354186 0.948714
Si Si3 0.511222 0.812079 0.856305
Si Si4 0.521188 0.188393 0.350908
Si Si5 0.755635 0.197971 0.810954
Si Si6 0.399805 0.854656 0.449470
O O1 0.882708 0.267262 0.682267
O O2 0.630266 0.243383 0.685028
O O3 0.758139 0.288423 0.762439
O O4 0.749133 0.512764 0.700310
O O5 0.500000 0.500000 0.947155
O O6 0.440229 0.247002 0.905699
O O7 0.251078 0.404472 0.944796
O O8 0.415916 0.280506 0.000000
O O9 0.370347 0.753082 0.840428
O O10 0.500000 0.000000 0.857630
O O11 0.385553 0.266252 0.338555
O O12 0.565925 0.234966 0.402553
O O13 0.500000 0.000000 0.348748
O O14 0.411872 0.775350 0.500000
O O15 0.500000 0.000000 0.450313
#
# Coordination Sequence:
#
# PCOD9444416 Si02
#       6
#     8   8   8   8   8   8
#     4  11  22  42  60  87 118 158 200 249 296 355
#     4  10  21  37  62  91 117 151 199 245 292 353
#     4  10  23  40  58  85 120 156 193 242 298 351
#     4  11  22  37  60  90 118 159 197 240 297 356
#     4  11  24  38  62  86 120 155 201 248 296 353
#     4   9  19  36  59  87 120 153 192 245 296 347
#
# _framework density 18.878312999999999
#
# number of rings (size 3 to 8) (size 9 to 14) (size 15 to 20)
#    0.000    1.667    1.667    2.500    4.667    3.000 
#    0.000    0.000    0.000    3.000    0.000    0.000 
#    0.000    0.000    0.000    0.000    0.000    0.000 
#
# Total GULP energy -267891.408759 kJ/mol
# GULP energy per Si atom -5581.071016 kJ/mol
# Density = 1.883535 g / cm^3
# Si number density = 18.878313 Si / 1000 Ang^3
#
#
#
# Elastic Constant Matrix: (Units=GPa)
#
#
# Indices 1 2 3 4 5 6 
#
# 1 174.3238 19.8267 75.5900 0.0000 0.0000 0.0000
# 2 19.8267 28.5833 11.8465 0.0000 0.0000 0.0000
# 3 75.5900 11.8465 135.1090 0.0000 0.0000 0.0000
# 4 0.0000 0.0000 0.0000 -119.2706 0.0000 0.0000
# 5 0.0000 0.0000 0.0000 0.0000 41.3866 0.0000
# 6 0.0000 0.0000 0.0000 0.0000 0.0000 15.8713
#
#
#
# Elastic Compliance Matrix: (Units=1/GPa)
#
#
# Indices 1 2 3 4 5 6 
#
# 1 0.007955 -0.003812 -0.004116 0.000000 0.000000 0.000000
# 2 -0.003812 0.038131 -0.001211 0.000000 0.000000 0.000000
# 3 -0.004116 -0.001211 0.009811 0.000000 0.000000 0.000000
# 4 0.000000 0.000000 0.000000 -0.008384 0.000000 0.000000
# 5 0.000000 0.000000 0.000000 0.000000 0.024162 0.000000
# 6 0.000000 0.000000 0.000000 0.000000 0.000000 0.063007
#
#
# Mechanical properties :
#
#
# Convention : Reuss Voigt Hill
#
# Bulk Modulus (GPa) = 26.58239 61.39359 43.98799
# Shear Modulus (GPa) = 30.21165 2.98100 16.59632
#
# Velocity S-wave (km/s) = 4.00476 1.25797 2.96821
# Velocity P-wave (km/s) = 5.95782 5.89078 5.92439
#
# Compressibility (1/GPa) = 0.03761889
#
# Stress axis : x y z
#
# Youngs Moduli (GPa) = 125.70842 26.22519 101.93075
#
# Poissons Ratio (x) = 0.09997 0.41958
# Poissons Ratio (y) = 0.47918 0.12341
# Poissons Ratio (z) = 0.51746 0.03175
#
# Static dielectric constant tensor:
#      x y z
#    x 1.648830 0.000000 0.000000 
#    y 0.000000 1.633370 0.000000 
#    z 0.000000 0.000000 1.667460 
# 
# From -- ./inp_files/34528.got.cif
#   From: 2010.05.17/outbox.cif.g08.bks.cpg/sg58_18_cif.got.tgz:34528.got - 2010.06.03 14:20:14.
