data_PCOD9444307
_publ_section_title
;
Structure prediction by ZEFSAII (Michael W. Deem and Ramdas Pophale) SiO2 
 PCOD9444307
Probable space group: P N N M
;
_chemical_formula_sum "Si O2"
_cell_formula_units_Z 40
_cell_length_a 13.713996
_cell_length_b 18.441204
_cell_length_c 8.988482
_cell_angle_alpha 90.000000
_cell_angle_beta 90.000000
_cell_angle_gamma 90.000000
_cell_volume 2273.210449
_symmetry_space_group_name_H-M "P N N M"
_symmetry_group_IT_number 58
_symmetry_cell_setting 'orthorhombic'
loop_
_space_group_symop_operation_xyz
x,y,z
-x,-y,z
1/2+x,1/2-y,1/2-z
1/2-x,1/2+y,1/2-z
-x,-y,-z
x,y,-z
1/2-x,1/2+y,1/2+z
1/2+x,1/2-y,1/2+z
loop_
_atom_site_type_symbol
_atom_site_label
_atom_site_fract_x
_atom_site_fract_y
_atom_site_fract_z
Si Si1 0.612496 0.873326 0.323085
Si Si2 0.105350 0.032833 0.177922
Si Si3 0.297942 0.970825 0.677806
Si Si4 0.409727 0.837019 0.177755
Si Si5 0.327550 0.679016 0.178201
O O1 0.593067 0.867179 0.500000
O O2 0.520271 0.845594 0.233238
O O3 0.712473 0.830529 0.289186
O O4 0.636268 0.957748 0.290881
O O5 0.117053 0.114476 0.238249
O O6 0.192506 0.987353 0.252603
O O7 0.117260 0.031890 0.000000
O O8 0.000000 0.000000 0.214900
O O9 0.289910 0.964770 0.500000
O O10 0.346996 0.900179 0.746205
O O11 0.367572 0.757944 0.217044
O O12 0.404786 0.844884 0.000000
O O13 0.338291 0.667970 0.000000
#
# Coordination Sequence:
#
# PCOD9444307 Si02
#       5
#     8   8   8   8   8
#     4   9  19  37  56  74 104 144 181 220 269 322
#     4  10  21  37  58  83 110 142 181 226 273 320
#     4  10  21  37  57  80 108 145 185 222 267 325
#     4  11  22  35  55  84 113 140 178 227 273 319
#     4   9  21  39  55  77 111 146 180 222 270 322
#
# _framework density 17.596259
#
# number of rings (size 3 to 8) (size 9 to 14) (size 15 to 20)
#    0.000    2.200    0.000    3.600    0.000   11.200 
#    0.000    6.000    0.000    0.000    0.000    0.000 
#    0.000    0.000    0.000    0.000    0.000    0.000 
#
# Total GULP energy -223372.205768 kJ/mol
# GULP energy per Si atom -5584.305144 kJ/mol
# Density = 1.755621 g / cm^3
# Si number density = 17.596259 Si / 1000 Ang^3
#
#
#
# Elastic Constant Matrix: (Units=GPa)
#
#
# Indices 1 2 3 4 5 6 
#
# 1 137.0800 121.6218 72.3187 0.0000 0.0000 0.0000
# 2 121.6218 154.6044 78.8495 0.0000 0.0000 0.0000
# 3 72.3187 78.8495 61.6391 0.0000 0.0000 0.0000
# 4 0.0000 0.0000 0.0000 63.4196 0.0000 0.0000
# 5 0.0000 0.0000 0.0000 0.0000 29.6020 0.0000
# 6 0.0000 0.0000 0.0000 0.0000 0.0000 21.0127
#
#
#
# Elastic Compliance Matrix: (Units=1/GPa)
#
#
# Indices 1 2 3 4 5 6 
#
# 1 0.027426 -0.014857 -0.013173 0.000000 0.000000 0.000000
# 2 -0.014857 0.026656 -0.016668 0.000000 0.000000 0.000000
# 3 -0.013173 -0.016668 0.053001 0.000000 0.000000 0.000000
# 4 0.000000 0.000000 0.000000 0.015768 0.000000 0.000000
# 5 0.000000 0.000000 0.000000 0.000000 0.033782 0.000000
# 6 0.000000 0.000000 0.000000 0.000000 0.000000 0.047590
#
#
# Mechanical properties :
#
#
# Convention : Reuss Voigt Hill
#
# Bulk Modulus (GPa) = 56.53728 99.87815 78.20772
# Shear Modulus (GPa) = 16.69368 28.17575 22.43472
#
# Velocity S-wave (km/s) = 3.08345 4.00589 3.57455
# Velocity P-wave (km/s) = 6.69902 8.84762 7.84721
#
# Compressibility (1/GPa) = 0.01768744
#
# Stress axis : x y z
#
# Youngs Moduli (GPa) = 36.46188 37.51445 18.86762
#
# Poissons Ratio (x) = 0.55734 0.24854
# Poissons Ratio (y) = 0.54171 0.31449
# Poissons Ratio (z) = 0.48030 0.62530
#
# Static dielectric constant tensor:
#      x y z
#    x 1.577530 0.000000 0.000000 
#    y 0.000000 1.576180 0.000000 
#    z 0.000000 0.000000 1.585750 
# 
# From -- ./inp_files/3777.got.cif
#   From: 2010.05.17/outbox.cif.g08.bks.cpg/sg58_2_cif.got.tgz:3777.got - 2010.06.03 14:20:14.
