data_PCOD9444048
_publ_section_title
;
Structure prediction by ZEFSAII (Michael W. Deem and Ramdas Pophale) SiO2 
 PCOD9444048
Probable space group: P N N M
;
_chemical_formula_sum "Si O2"
_cell_formula_units_Z 40
_cell_length_a 4.900947
_cell_length_b 28.226800
_cell_length_c 17.346802
_cell_angle_alpha 90.000000
_cell_angle_beta 90.000000
_cell_angle_gamma 90.000000
_cell_volume 2399.722776
_symmetry_space_group_name_H-M "P N N M"
_symmetry_group_IT_number 58
_symmetry_cell_setting 'orthorhombic'
loop_
_space_group_symop_operation_xyz
x,y,z
-x,-y,z
1/2+x,1/2-y,1/2-z
1/2-x,1/2+y,1/2-z
-x,-y,-z
x,y,-z
1/2-x,1/2+y,1/2+z
1/2+x,1/2-y,1/2+z
loop_
_atom_site_type_symbol
_atom_site_label
_atom_site_fract_x
_atom_site_fract_y
_atom_site_fract_z
Si Si1 0.909605 0.610597 0.870029
Si Si2 0.066719 0.749803 0.500000
Si Si3 0.293063 0.717941 0.340525
Si Si4 0.609111 0.448432 0.088568
Si Si5 0.799831 0.684718 0.252799
Si Si6 0.445417 0.182392 0.500000
O O1 0.144434 0.571352 0.859811
O O2 0.785890 0.636895 0.795673
O O3 0.062627 0.649512 0.924380
O O4 0.650008 0.586523 0.910024
O O5 0.164038 0.720945 0.425004
O O6 0.253534 0.796326 0.500000
O O7 0.763499 0.772899 0.500000
O O8 0.099827 0.686839 0.287144
O O9 0.274219 0.771433 0.307029
O O10 0.591821 0.697480 0.322082
O O11 0.500000 0.500000 0.111522
O O12 0.712605 0.451674 0.000000
#
# Coordination Sequence:
#
# PCOD9444048 Si02
#       6
#     8   4   8   8   8   4
#     4  12  21  35  52  71 102 138 178 221 252 300
#     4  12  22  34  52  70 103 136 175 222 250 294
#     4  10  21  34  47  71  98 130 167 213 257 291
#     4  11  22  35  50  73 102 135 175 220 264 302
#     4  10  21  33  49  69  99 129 169 212 256 293
#     4  12  22  30  49  80  94 134 188 210 247 294
#
# _framework density 16.668590999999999
#
# number of rings (size 3 to 8) (size 9 to 14) (size 15 to 20)
#    0.000    1.000    4.000    4.200    5.600    1.600 
#    0.000    0.000    0.000    0.000    0.000    0.000 
#    0.000    0.000    0.000   63.000    0.000    0.000 
#
# Total GULP energy -223038.180187 kJ/mol
# GULP energy per Si atom -5575.954505 kJ/mol
# Density = 1.663065 g / cm^3
# Si number density = 16.668591 Si / 1000 Ang^3
#
#
#
# Elastic Constant Matrix: (Units=GPa)
#
#
# Indices 1 2 3 4 5 6 
#
# 1 62.9534 5.3531 -4.8026 0.0000 0.0000 0.0000
# 2 5.3531 48.4601 18.2261 0.0000 0.0000 0.0000
# 3 -4.8026 18.2261 55.7755 0.0000 0.0000 0.0000
# 4 0.0000 0.0000 0.0000 19.2630 0.0000 0.0000
# 5 0.0000 0.0000 0.0000 0.0000 8.7993 0.0000
# 6 0.0000 0.0000 0.0000 0.0000 0.0000 22.7845
#
#
#
# Elastic Compliance Matrix: (Units=1/GPa)
#
#
# Indices 1 2 3 4 5 6 
#
# 1 0.016283 -0.002652 0.002269 0.000000 0.000000 0.000000
# 2 -0.002652 0.023959 -0.008058 0.000000 0.000000 0.000000
# 3 0.002269 -0.008058 0.020757 0.000000 0.000000 0.000000
# 4 0.000000 0.000000 0.000000 0.051913 0.000000 0.000000
# 5 0.000000 0.000000 0.000000 0.000000 0.113646 0.000000
# 6 0.000000 0.000000 0.000000 0.000000 0.000000 0.043889
#
#
# Mechanical properties :
#
#
# Convention : Reuss Voigt Hill
#
# Bulk Modulus (GPa) = 22.66649 22.74912 22.70781
# Shear Modulus (GPa) = 16.55435 20.06353 18.30894
#
# Velocity S-wave (km/s) = 3.15484 3.47316 3.31782
# Velocity P-wave (km/s) = 5.18638 5.45540 5.32259
#
# Compressibility (1/GPa) = 0.04411800
#
# Stress axis : x y z
#
# Youngs Moduli (GPa) = 61.41242 41.73800 48.17559
#
# Poissons Ratio (x) = 0.11069 -0.10930
# Poissons Ratio (y) = 0.16287 0.38818
# Poissons Ratio (z) = -0.13933 0.33631
#
# Static dielectric constant tensor:
#      x y z
#    x 1.579730 0.000000 0.000000 
#    y 0.000000 1.592890 0.000000 
#    z 0.000000 0.000000 1.591780 
# 
# From -- ./inp_files/18528.got.cif
#   From: 2010.05.17/outbox.cif.g08.bks.cpg/sg58_10_cif.got.tgz:18528.got - 2010.06.03 14:20:14.
