data_PCOD9444654
_publ_section_title
;
Structure prediction by ZEFSAII (Michael W. Deem and Ramdas Pophale) SiO2 
 PCOD9444654
Probable space group: P N N M
;
_chemical_formula_sum "Si O2"
_cell_formula_units_Z 32
_cell_length_a 14.575437
_cell_length_b 12.493635
_cell_length_c 8.779920
_cell_angle_alpha 90.000000
_cell_angle_beta 90.000000
_cell_angle_gamma 90.000000
_cell_volume 1598.825099
_symmetry_space_group_name_H-M "P N N M"
_symmetry_group_IT_number 58
_symmetry_cell_setting 'orthorhombic'
loop_
_space_group_symop_operation_xyz
x,y,z
-x,-y,z
1/2+x,1/2-y,1/2-z
1/2-x,1/2+y,1/2-z
-x,-y,-z
x,y,-z
1/2-x,1/2+y,1/2+z
1/2+x,1/2-y,1/2+z
loop_
_atom_site_type_symbol
_atom_site_label
_atom_site_fract_x
_atom_site_fract_y
_atom_site_fract_z
Si Si1 0.938160 0.108366 0.174016
Si Si2 0.716276 0.454140 0.682118
Si Si3 0.405480 0.734185 0.179522
Si Si4 0.896945 0.534636 0.180897
O O1 0.992738 0.190901 0.277926
O O2 0.839027 0.064085 0.221801
O O3 0.934352 0.149286 0.000000
O O4 0.000000 0.000000 0.171843
O O5 0.707356 0.441174 0.500000
O O6 0.664796 0.357186 0.764837
O O7 0.820278 0.465865 0.733487
O O8 0.386551 0.842776 0.268776
O O9 0.397144 0.751075 0.000000
O O10 0.000000 0.500000 0.220544
O O11 0.884455 0.523218 0.000000
#
# Coordination Sequence:
#
# PCOD9444654 Si02
#       4
#     8   8   8   8
#     4   8  16  33  57  85 116 149 188 238 290 338
#     4  10  21  39  63  89 119 155 198 246 294 350
#     4  11  22  37  61  90 120 156 196 240 294 353
#     4  11  25  43  61  84 118 157 198 246 298 350
#
# _framework density 20.014697000000002
#
# number of rings (size 3 to 8) (size 9 to 14) (size 15 to 20)
#    0.000    2.000    0.000    5.250    0.000    9.500 
#    0.000    2.500    0.000    0.000    0.000    0.000 
#    0.000    0.000    0.000    0.000    0.000    0.000 
#
# Total GULP energy -178787.262808 kJ/mol
# GULP energy per Si atom -5587.101963 kJ/mol
# Density = 1.996914 g / cm^3
# Si number density = 20.014697 Si / 1000 Ang^3
#
#
#
# Elastic Constant Matrix: (Units=GPa)
#
#
# Indices 1 2 3 4 5 6 
#
# 1 102.3339 8.5933 24.7644 0.0000 0.0000 0.0000
# 2 8.5933 34.5763 -11.5815 0.0000 0.0000 0.0000
# 3 24.7644 -11.5815 19.3355 0.0000 0.0000 0.0000
# 4 0.0000 0.0000 0.0000 15.3411 0.0000 0.0000
# 5 0.0000 0.0000 0.0000 0.0000 1.8074 0.0000
# 6 0.0000 0.0000 0.0000 0.0000 0.0000 18.0032
#
#
#
# Elastic Compliance Matrix: (Units=1/GPa)
#
#
# Indices 1 2 3 4 5 6 
#
# 1 0.019700 -0.016698 -0.035233 0.000000 0.000000 0.000000
# 2 -0.016698 0.050333 0.051534 0.000000 0.000000 0.000000
# 3 -0.035233 0.051534 0.127711 0.000000 0.000000 0.000000
# 4 0.000000 0.000000 0.000000 0.065184 0.000000 0.000000
# 5 0.000000 0.000000 0.000000 0.000000 0.553293 0.000000
# 6 0.000000 0.000000 0.000000 0.000000 0.000000 0.055546
#
#
# Mechanical properties :
#
#
# Convention : Reuss Voigt Hill
#
# Bulk Modulus (GPa) = 5.07741 22.19981 13.63861
# Shear Modulus (GPa) = 5.32929 15.99497 10.66213
#
# Velocity S-wave (km/s) = 1.63354 2.83001 2.31057
# Velocity P-wave (km/s) = 2.46988 4.66845 3.73462
#
# Compressibility (1/GPa) = 0.19695088
#
# Stress axis : x y z
#
# Youngs Moduli (GPa) = 50.76046 19.86773 7.83016
#
# Poissons Ratio (x) = 0.33174 0.27588
# Poissons Ratio (y) = 0.84758 -0.40352
# Poissons Ratio (z) = 1.78845 -1.02386
#
# Static dielectric constant tensor:
#      x y z
#    x 1.736620 0.000000 0.000000 
#    y 0.000000 1.703790 0.000000 
#    z 0.000000 0.000000 1.660090 
# 
# From -- ./inp_files/3480.got.cif
#   From: 2010.05.17/outbox.cif.g08.bks.cpg/sg58_2_cif.got.tgz:3480.got - 2010.06.03 14:20:14.
