data_PCOD9444393
_publ_section_title
;
Structure prediction by ZEFSAII (Michael W. Deem and Ramdas Pophale) SiO2 
 PCOD9444393
Probable space group: P N N M
;
_chemical_formula_sum "Si O2"
_cell_formula_units_Z 64
_cell_length_a 12.958971
_cell_length_b 15.300148
_cell_length_c 16.514169
_cell_angle_alpha 90.000000
_cell_angle_beta 90.000000
_cell_angle_gamma 90.000000
_cell_volume 3274.333222
_symmetry_space_group_name_H-M "P N N M"
_symmetry_group_IT_number 58
_symmetry_cell_setting 'orthorhombic'
loop_
_space_group_symop_operation_xyz
x,y,z
-x,-y,z
1/2+x,1/2-y,1/2-z
1/2-x,1/2+y,1/2-z
-x,-y,-z
x,y,-z
1/2-x,1/2+y,1/2+z
1/2+x,1/2-y,1/2+z
loop_
_atom_site_type_symbol
_atom_site_label
_atom_site_fract_x
_atom_site_fract_y
_atom_site_fract_z
Si Si1 0.702459 0.723314 0.094817
Si Si2 0.477402 0.743858 0.154407
Si Si3 0.944708 0.343368 0.908200
Si Si4 0.779688 0.047921 0.301682
Si Si5 0.470480 0.410428 0.276013
Si Si6 0.405672 0.675196 0.593019
Si Si7 0.551546 0.081027 0.749715
Si Si8 0.293867 0.625861 0.907054
O O1 0.586141 0.757623 0.108291
O O2 0.706404 0.628398 0.136062
O O3 0.796613 0.785411 0.125728
O O4 0.723072 0.712836 0.000000
O O5 0.505160 0.675138 0.225062
O O6 0.443910 0.833078 0.196225
O O7 0.384195 0.696524 0.107382
O O8 0.821373 0.333906 0.897222
O O9 0.010165 0.253732 0.905704
O O10 0.988517 0.398026 0.832977
O O11 0.960710 0.380016 0.000000
O O12 0.848215 0.075524 0.223660
O O13 0.662706 0.049479 0.276291
O O14 0.802939 0.955795 0.345506
O O15 0.500000 0.500000 0.230708
O O16 0.541664 0.400445 0.354300
O O17 0.389954 0.648410 0.500000
O O18 0.500000 0.000000 0.794715
O O19 0.301414 0.593957 0.000000
#
# Coordination Sequence:
#
# PCOD9444393 Si02
#       8
#     8   8   8   8   8   8   8   8
#     4  10  21  38  63  89 122 168 214 260 315 382
#     4  11  24  40  60  91 129 170 209 260 313 381
#     4  10  21  37  60  89 123 161 205 263 323 372
#     4  11  22  36  60  95 127 161 206 266 328 384
#     4  11  22  38  59  90 124 162 201 261 318 379
#     4  10  21  39  62  88 119 164 214 264 315 372
#     4  12  24  40  62  91 127 172 218 261 310 382
#     4  11  23  39  63  93 130 165 204 261 325 385
#
# _framework density 19.545963
#
# number of rings (size 3 to 8) (size 9 to 14) (size 15 to 20)
#    0.000    1.250    5.000    0.750    1.750    3.000 
#    0.000    1.875    0.000    1.500    0.000    0.000 
#    0.000    0.000    0.000    0.000    0.000    0.000 
#
# Total GULP energy -356767.513470 kJ/mol
# GULP energy per Si atom -5574.492398 kJ/mol
# Density = 1.950148 g / cm^3
# Si number density = 19.545963 Si / 1000 Ang^3
#
#
#
# Elastic Constant Matrix: (Units=GPa)
#
#
# Indices 1 2 3 4 5 6 
#
# 1 154.4651 37.6332 31.6748 0.0000 0.0000 0.0000
# 2 37.6332 95.8870 21.7597 0.0000 0.0000 0.0000
# 3 31.6748 21.7597 34.1258 0.0000 0.0000 0.0000
# 4 0.0000 0.0000 0.0000 15.4436 0.0000 0.0000
# 5 0.0000 0.0000 0.0000 0.0000 16.1850 0.0000
# 6 0.0000 0.0000 0.0000 0.0000 0.0000 23.6989
#
#
#
# Elastic Compliance Matrix: (Units=1/GPa)
#
#
# Indices 1 2 3 4 5 6 
#
# 1 0.008240 -0.001752 -0.006531 0.000000 0.000000 0.000000
# 2 -0.001752 0.012566 -0.006386 0.000000 0.000000 0.000000
# 3 -0.006531 -0.006386 0.039437 0.000000 0.000000 0.000000
# 4 0.000000 0.000000 0.000000 0.064752 0.000000 0.000000
# 5 0.000000 0.000000 0.000000 0.000000 0.061786 0.000000
# 6 0.000000 0.000000 0.000000 0.000000 0.000000 0.042196
#
#
# Mechanical properties :
#
#
# Convention : Reuss Voigt Hill
#
# Bulk Modulus (GPa) = 32.35758 51.84591 42.10175
# Shear Modulus (GPa) = 18.61388 23.95952 21.28670
#
# Velocity S-wave (km/s) = 3.08930 3.50495 3.30367
# Velocity P-wave (km/s) = 5.41439 6.55456 6.01157
#
# Compressibility (1/GPa) = 0.03090466
#
# Stress axis : x y z
#
# Youngs Moduli (GPa) = 121.35817 79.58140 25.35661
#
# Poissons Ratio (x) = 0.13942 0.16561
# Poissons Ratio (y) = 0.21261 0.16193
# Poissons Ratio (z) = 0.79261 0.50823
#
# Static dielectric constant tensor:
#      x y z
#    x 1.772800 0.000000 0.000000 
#    y 0.000000 1.701770 0.000000 
#    z 0.000000 0.000000 1.703810 
# 
# From -- ./inp_files/26365.got.cif
#   From: 2010.05.17/outbox.cif.g08.bks.cpg/sg58_14_cif.got.tgz:26365.got - 2010.06.03 14:20:14.
