data_PCOD9444638
_publ_section_title
;
Structure prediction by ZEFSAII (Michael W. Deem and Ramdas Pophale) SiO2 
 PCOD9444638
Probable space group: P N N M
;
_chemical_formula_sum "Si O2"
_cell_formula_units_Z 56
_cell_length_a 15.890633
_cell_length_b 20.283656
_cell_length_c 8.726185
_cell_angle_alpha 90.000000
_cell_angle_beta 90.000000
_cell_angle_gamma 90.000000
_cell_volume 2812.625113
_symmetry_space_group_name_H-M "P N N M"
_symmetry_group_IT_number 58
_symmetry_cell_setting 'orthorhombic'
loop_
_space_group_symop_operation_xyz
x,y,z
-x,-y,z
1/2+x,1/2-y,1/2-z
1/2-x,1/2+y,1/2-z
-x,-y,-z
x,y,-z
1/2-x,1/2+y,1/2+z
1/2+x,1/2-y,1/2+z
loop_
_atom_site_type_symbol
_atom_site_label
_atom_site_fract_x
_atom_site_fract_y
_atom_site_fract_z
Si Si1 0.743193 0.458820 0.818812
Si Si2 0.993035 0.326329 0.183068
Si Si3 0.825589 0.096556 0.682220
Si Si4 0.918325 0.456001 0.318807
Si Si5 0.523348 0.675277 0.317764
Si Si6 0.678788 0.186014 0.818448
Si Si7 0.325665 0.673615 0.318529
O O1 0.682946 0.519600 0.775999
O O2 0.837570 0.479568 0.774493
O O3 0.722410 0.391763 0.730969
O O4 0.736874 0.446887 0.000000
O O5 0.940629 0.381887 0.269090
O O6 0.961748 0.252403 0.219156
O O7 0.090471 0.329816 0.235028
O O8 0.987897 0.335734 0.000000
O O9 0.812720 0.101683 0.500000
O O10 0.914041 0.128131 0.728602
O O11 0.752153 0.137479 0.765106
O O12 0.901070 0.459847 0.500000
O O13 0.000000 0.500000 0.285288
O O14 0.536726 0.666948 0.500000
O O15 0.424981 0.663025 0.285525
O O16 0.701787 0.260874 0.771139
O O17 0.666317 0.181293 0.000000
O O18 0.317069 0.685919 0.500000
#
# Coordination Sequence:
#
# PCOD9444638 Si02
#       7
#     8   8   8   8   8   8   8
#     4  11  25  42  61  89 124 164 207 254 311 370
#     4  10  21  39  62  89 122 158 202 252 307 367
#     4  11  24  40  61  89 123 163 206 252 307 368
#     4  11  24  40  61  90 124 164 208 254 309 370
#     4   9  21  40  62  89 119 156 202 253 307 363
#     4  11  22  38  63  91 124 161 203 254 308 366
#     4  10  22  42  65  90 122 160 205 256 311 370
#
# _framework density 19.910225000000001
#
# number of rings (size 3 to 8) (size 9 to 14) (size 15 to 20)
#    0.000    1.571    0.000    5.143    2.000    9.714 
#    0.000    2.857    0.000    0.000    0.000    0.000 
#    0.000    0.000    0.000    0.000    0.000    0.000 
#
# Total GULP energy -313219.044886 kJ/mol
# GULP energy per Si atom -5593.197230 kJ/mol
# Density = 1.986491 g / cm^3
# Si number density = 19.910225 Si / 1000 Ang^3
#
#
#
# Elastic Constant Matrix: (Units=GPa)
#
#
# Indices 1 2 3 4 5 6 
#
# 1 16.1289 6.1279 -0.1518 0.0000 0.0000 0.0000
# 2 6.1279 49.4668 3.9171 0.0000 0.0000 0.0000
# 3 -0.1518 3.9171 15.4595 0.0000 0.0000 0.0000
# 4 0.0000 0.0000 0.0000 -260.7619 0.0000 0.0000
# 5 0.0000 0.0000 0.0000 0.0000 43.5345 0.0000
# 6 0.0000 0.0000 0.0000 0.0000 0.0000 30.6833
#
#
#
# Elastic Compliance Matrix: (Units=1/GPa)
#
#
# Indices 1 2 3 4 5 6 
#
# 1 0.065176 -0.008291 0.002741 0.000000 0.000000 0.000000
# 2 -0.008291 0.021684 -0.005576 0.000000 0.000000 0.000000
# 3 0.002741 -0.005576 0.066125 0.000000 0.000000 0.000000
# 4 0.000000 0.000000 0.000000 -0.003835 0.000000 0.000000
# 5 0.000000 0.000000 0.000000 0.000000 0.022970 0.000000
# 6 0.000000 0.000000 0.000000 0.000000 0.000000 0.032591
#
#
# Mechanical properties :
#
#
# Convention : Reuss Voigt Hill
#
# Bulk Modulus (GPa) = 7.64916 11.20462 9.42689
# Shear Modulus (GPa) = 18.48149 -32.56467 -7.04159
#
# Velocity S-wave (km/s) = 3.05001 -4.04861 -1.88264
# Velocity P-wave (km/s) = 4.03157 4.02681 0.13848
#
# Compressibility (1/GPa) = 0.13073323
#
# Stress axis : x y z
#
# Youngs Moduli (GPa) = 15.34302 46.11659 15.12295
#
# Poissons Ratio (x) = 0.38235 -0.04145
# Poissons Ratio (y) = 0.12721 0.08432
# Poissons Ratio (z) = -0.04205 0.25713
#
# Static dielectric constant tensor:
#      x y z
#    x 1.693870 0.000000 0.000000 
#    y 0.000000 1.693950 0.000000 
#    z 0.000000 0.000000 1.659130 
# 
# From -- ./inp_files/6406.got.cif
#   From: 2010.05.17/outbox.cif.g08.bks.cpg/sg58_4_cif.got.tgz:6406.got - 2010.06.03 14:20:14.
