data_PCOD9444067
_publ_section_title
;
Structure prediction by ZEFSAII (Michael W. Deem and Ramdas Pophale) SiO2 
 PCOD9444067
Probable space group: P N N M
;
_chemical_formula_sum "Si O2"
_cell_formula_units_Z 48
_cell_length_a 8.879983
_cell_length_b 10.531193
_cell_length_c 24.930957
_cell_angle_alpha 90.000000
_cell_angle_beta 90.000000
_cell_angle_gamma 90.000000
_cell_volume 2331.463689
_symmetry_space_group_name_H-M "P N N M"
_symmetry_group_IT_number 58
_symmetry_cell_setting 'orthorhombic'
loop_
_space_group_symop_operation_xyz
x,y,z
-x,-y,z
1/2+x,1/2-y,1/2-z
1/2-x,1/2+y,1/2-z
-x,-y,-z
x,y,-z
1/2-x,1/2+y,1/2+z
1/2+x,1/2-y,1/2+z
loop_
_atom_site_type_symbol
_atom_site_label
_atom_site_fract_x
_atom_site_fract_y
_atom_site_fract_z
Si Si1 0.409383 0.811755 0.709869
Si Si2 0.988062 0.314589 0.061870
Si Si3 0.088787 0.272301 0.663902
Si Si4 0.259964 0.196553 0.881415
Si Si5 0.347461 0.436235 0.608912
Si Si6 0.815050 0.425091 0.156765
O O1 0.422292 0.798146 0.772884
O O2 0.317284 0.704203 0.678164
O O3 0.579174 0.823683 0.688246
O O4 0.335208 0.943729 0.688362
O O5 0.910448 0.175110 0.070721
O O6 0.886689 0.409769 0.097611
O O7 0.156675 0.297040 0.086090
O O8 0.990706 0.346950 0.000000
O O9 0.217893 0.368207 0.643171
O O10 0.149498 0.129572 0.656597
O O11 0.934681 0.285206 0.631030
O O12 0.234241 0.063346 0.911477
O O13 0.500000 0.500000 0.633708
#
# Coordination Sequence:
#
# PCOD9444067 Si02
#       6
#     8   8   8   8   8   8
#     4  10  21  36  56  79 120 161 198 232 281 349
#     4   9  19  41  65  81 113 156 199 252 292 342
#     4  11  21  34  57  82 125 158 184 245 292 337
#     4  10  21  34  53  88 117 147 198 242 288 352
#     4   9  20  35  55  84 115 147 199 230 284 355
#     4   9  21  38  53  87 112 156 209 228 278 365
#
# _framework density 20.587924999999998
#
# number of rings (size 3 to 8) (size 9 to 14) (size 15 to 20)
#    0.000    2.333    0.000    2.500    7.000    3.667 
#    0.000   10.000    0.000    8.000    0.000   15.167 
#    0.000    0.000    0.000    0.000    0.000    0.000 
#
# Total GULP energy -267262.531677 kJ/mol
# GULP energy per Si atom -5567.969410 kJ/mol
# Density = 2.054107 g / cm^3
# Si number density = 20.587925 Si / 1000 Ang^3
#
#
#
# Elastic Constant Matrix: (Units=GPa)
#
#
# Indices 1 2 3 4 5 6 
#
# 1 109.4530 36.3625 40.5688 0.0000 0.0000 0.0000
# 2 36.3625 93.9572 11.5653 0.0000 0.0000 0.0000
# 3 40.5688 11.5653 131.4955 0.0000 0.0000 0.0000
# 4 0.0000 0.0000 0.0000 3.2262 0.0000 0.0000
# 5 0.0000 0.0000 0.0000 0.0000 1.0948 0.0000
# 6 0.0000 0.0000 0.0000 0.0000 0.0000 26.9552
#
#
#
# Elastic Compliance Matrix: (Units=1/GPa)
#
#
# Indices 1 2 3 4 5 6 
#
# 1 0.011714 -0.004133 -0.003251 0.000000 0.000000 0.000000
# 2 -0.004133 0.012218 0.000201 0.000000 0.000000 0.000000
# 3 -0.003251 0.000201 0.008590 0.000000 0.000000 0.000000
# 4 0.000000 0.000000 0.000000 0.309963 0.000000 0.000000
# 5 0.000000 0.000000 0.000000 0.000000 0.913421 0.000000
# 6 0.000000 0.000000 0.000000 0.000000 0.000000 0.037099
#
#
# Mechanical properties :
#
#
# Convention : Reuss Voigt Hill
#
# Bulk Modulus (GPa) = 55.07888 56.87765 55.97827
# Shear Modulus (GPa) = 3.80684 22.68251 13.24468
#
# Velocity S-wave (km/s) = 1.36128 3.32285 2.53913
# Velocity P-wave (km/s) = 5.41127 6.51217 5.98708
#
# Compressibility (1/GPa) = 0.01815578
#
# Stress axis : x y z
#
# Youngs Moduli (GPa) = 85.36504 81.84536 116.41397
#
# Poissons Ratio (x) = 0.33831 0.37841
# Poissons Ratio (y) = 0.35286 -0.02336
# Poissons Ratio (z) = 0.27748 -0.01642
#
# Static dielectric constant tensor:
#      x y z
#    x 1.775640 0.000000 0.000000 
#    y 0.000000 1.827490 0.000000 
#    z 0.000000 0.000000 1.715750 
# 
# From -- ./inp_files/31475.got.cif
#   From: 2010.05.17/outbox.cif.g08.bks.cpg/sg58_16_cif.got.tgz:31475.got - 2010.06.03 14:20:14.
