data_PCOD9444876
_publ_section_title
;
Structure prediction by ZEFSAII (Michael W. Deem and Ramdas Pophale) SiO2 
 PCOD9444876
Probable space group: P N N M
;
_chemical_formula_sum "Si O2"
_cell_formula_units_Z 30
_cell_length_a 5.468859
_cell_length_b 9.889856
_cell_length_c 22.376488
_cell_angle_alpha 90.000000
_cell_angle_beta 90.000000
_cell_angle_gamma 90.000000
_cell_volume 1210.259832
_symmetry_space_group_name_H-M "P N N M"
_symmetry_group_IT_number 58
_symmetry_cell_setting 'orthorhombic'
loop_
_space_group_symop_operation_xyz
x,y,z
-x,-y,z
1/2+x,1/2-y,1/2-z
1/2-x,1/2+y,1/2-z
-x,-y,-z
x,y,-z
1/2-x,1/2+y,1/2+z
1/2+x,1/2-y,1/2+z
loop_
_atom_site_type_symbol
_atom_site_label
_atom_site_fract_x
_atom_site_fract_y
_atom_site_fract_z
Si Si1 0.885333 0.736304 0.214740
Si Si2 0.000000 0.500000 0.500000
Si Si3 0.000000 0.500000 0.144469
Si Si4 0.673433 0.894685 0.118870
Si Si5 0.128861 0.146585 0.567948
O O1 0.152274 0.730240 0.244196
O O2 0.829184 0.588806 0.186598
O O3 0.387855 0.652954 0.338496
O O4 0.801297 0.463459 0.445905
O O5 0.125470 0.609538 0.101819
O O6 0.524185 0.757862 0.102770
O O7 0.500000 0.000000 0.153509
O O8 0.162148 0.198442 0.500000
O O9 0.000000 0.000000 0.564753
#
# Coordination Sequence:
#
# PCOD9444876 Si02
#       5
#     8   2   4   8   8
#     4  12  29  52  78 111 156 214 273 327 392 474
#     4   8  20  42  82 114 154 204 256 330 400 478
#     4  12  27  47  74 110 151 201 264 326 388 460
#     4  10  21  47  78 111 156 200 260 322 399 469
#     4  11  21  42  74 112 154 192 242 314 394 479
#
# _framework density 24.788067999999999
#
# number of rings (size 3 to 8) (size 9 to 14) (size 15 to 20)
#    0.800    0.267    4.000    2.000    1.867    0.000 
#    7.200    0.000    0.000    8.000    0.000    0.000 
#    0.000    0.000    0.000    0.000    0.000    0.000 
#
# Total GULP energy -167104.327623 kJ/mol
# GULP energy per Si atom -5570.144254 kJ/mol
# Density = 2.473165 g / cm^3
# Si number density = 24.788068 Si / 1000 Ang^3
#
#
#
# Elastic Constant Matrix: (Units=GPa)
#
#
# Indices 1 2 3 4 5 6 
#
# 1 68.3532 9.9141 29.3948 0.0000 0.0000 0.0000
# 2 9.9141 84.7341 10.2395 0.0000 0.0000 0.0000
# 3 29.3948 10.2395 96.4902 0.0000 0.0000 0.0000
# 4 0.0000 0.0000 0.0000 7.2965 0.0000 0.0000
# 5 0.0000 0.0000 0.0000 0.0000 51.7412 0.0000
# 6 0.0000 0.0000 0.0000 0.0000 0.0000 36.6949
#
#
#
# Elastic Compliance Matrix: (Units=1/GPa)
#
#
# Indices 1 2 3 4 5 6 
#
# 1 0.016993 -0.001380 -0.005030 0.000000 0.000000 0.000000
# 2 -0.001380 0.012067 -0.000860 0.000000 0.000000 0.000000
# 3 -0.005030 -0.000860 0.011987 0.000000 0.000000 0.000000
# 4 0.000000 0.000000 0.000000 0.137052 0.000000 0.000000
# 5 0.000000 0.000000 0.000000 0.000000 0.019327 0.000000
# 6 0.000000 0.000000 0.000000 0.000000 0.000000 0.027252
#
#
# Mechanical properties :
#
#
# Convention : Reuss Voigt Hill
#
# Bulk Modulus (GPa) = 37.72686 38.74160 38.23423
# Shear Modulus (GPa) = 20.15675 32.48178 26.31927
#
# Velocity S-wave (km/s) = 2.85470 3.62384 3.26202
# Velocity P-wave (km/s) = 5.11063 5.75958 5.44478
#
# Compressibility (1/GPa) = 0.02650631
#
# Stress axis : x y z
#
# Youngs Moduli (GPa) = 58.84640 82.87025 83.42042
#
# Poissons Ratio (x) = 0.11439 0.41964
# Poissons Ratio (y) = 0.08123 0.07174
# Poissons Ratio (z) = 0.29602 0.07127
#
# Static dielectric constant tensor:
#      x y z
#    x 2.039990 0.000000 0.000000 
#    y 0.000000 1.954280 0.000000 
#    z 0.000000 0.000000 1.985250 
# 
# From -- ./inp_files/27940.got.cif
#   From: 2010.05.17/outbox.cif.g08.bks.cpg/sg58_14_cif.got.tgz:27940.got - 2010.06.03 14:20:14.
