data_PCOD9444543
_publ_section_title
;
Structure prediction by ZEFSAII (Michael W. Deem and Ramdas Pophale) SiO2 
 PCOD9444543
Probable space group: P N N M
;
_chemical_formula_sum "Si O2"
_cell_formula_units_Z 48
_cell_length_a 18.237372
_cell_length_b 15.790396
_cell_length_c 8.581145
_cell_angle_alpha 90.000000
_cell_angle_beta 90.000000
_cell_angle_gamma 90.000000
_cell_volume 2471.158028
_symmetry_space_group_name_H-M "P N N M"
_symmetry_group_IT_number 58
_symmetry_cell_setting 'orthorhombic'
loop_
_space_group_symop_operation_xyz
x,y,z
-x,-y,z
1/2+x,1/2-y,1/2-z
1/2-x,1/2+y,1/2-z
-x,-y,-z
x,y,-z
1/2-x,1/2+y,1/2+z
1/2+x,1/2-y,1/2+z
loop_
_atom_site_type_symbol
_atom_site_label
_atom_site_fract_x
_atom_site_fract_y
_atom_site_fract_z
Si Si1 0.455307 0.082184 0.310152
Si Si2 0.792155 0.071640 0.184835
Si Si3 0.213858 0.594634 0.187023
Si Si4 0.210451 0.263608 0.813276
Si Si5 0.544524 0.584591 0.186110
Si Si6 0.039586 0.247276 0.811609
O O1 0.455685 0.080044 0.500000
O O2 0.370573 0.082366 0.261867
O O3 0.496177 0.168163 0.263749
O O4 0.500000 0.000000 0.255856
O O5 0.746128 0.153073 0.239478
O O6 0.876255 0.084652 0.234371
O O7 0.760316 0.987007 0.263205
O O8 0.787291 0.062676 0.000000
O O9 0.247102 0.679794 0.259064
O O10 0.215105 0.602345 0.000000
O O11 0.124973 0.255022 0.769330
O O12 0.214613 0.271239 0.000000
O O13 0.500000 0.500000 0.229448
O O14 0.498059 0.665755 0.237511
O O15 0.554656 0.584982 0.000000
O O16 0.035175 0.240194 0.000000
#
# Coordination Sequence:
#
# PCOD9444543 Si02
#       6
#     8   8   8   8   8   8
#     4   9  18  35  59  85 113 149 193 238 288 350
#     4  12  25  41  62  88 122 164 208 253 303 362
#     4  11  22  38  62  90 121 157 199 251 309 367
#     4  11  23  40  63  91 124 161 203 251 302 362
#     4  11  24  41  62  88 119 156 200 253 310 365
#     4  10  21  38  62  90 119 156 199 243 298 363
#
# _framework density 19.424091000000001
#
# number of rings (size 3 to 8) (size 9 to 14) (size 15 to 20)
#    0.000    1.333    0.000    6.000    0.000    9.333 
#    0.000    0.833    0.000    3.500    0.000    0.000 
#    0.000    0.000    0.000    0.000    0.000    0.000 
#
# Total GULP energy -268540.437035 kJ/mol
# GULP energy per Si atom -5594.592438 kJ/mol
# Density = 1.937988 g / cm^3
# Si number density = 19.424091 Si / 1000 Ang^3
#
#
#
# Elastic Constant Matrix: (Units=GPa)
#
#
# Indices 1 2 3 4 5 6 
#
# 1 83.4847 -3.2525 21.2321 0.0000 0.0000 0.0000
# 2 -3.2525 84.4751 -1.4930 0.0000 0.0000 0.0000
# 3 21.2321 -1.4930 23.5680 0.0000 0.0000 0.0000
# 4 0.0000 0.0000 0.0000 29.9292 0.0000 0.0000
# 5 0.0000 0.0000 0.0000 0.0000 28.2216 0.0000
# 6 0.0000 0.0000 0.0000 0.0000 0.0000 44.0644
#
#
#
# Elastic Compliance Matrix: (Units=1/GPa)
#
#
# Indices 1 2 3 4 5 6 
#
# 1 0.015549 0.000351 -0.013985 0.000000 0.000000 0.000000
# 2 0.000351 0.011859 0.000435 0.000000 0.000000 0.000000
# 3 -0.013985 0.000435 0.055057 0.000000 0.000000 0.000000
# 4 0.000000 0.000000 0.000000 0.033412 0.000000 0.000000
# 5 0.000000 0.000000 0.000000 0.000000 0.035434 0.000000
# 6 0.000000 0.000000 0.000000 0.000000 0.000000 0.022694
#
#
# Mechanical properties :
#
#
# Convention : Reuss Voigt Hill
#
# Bulk Modulus (GPa) = 17.83602 24.94455 21.39028
# Shear Modulus (GPa) = 22.82144 32.11245 27.46695
#
# Velocity S-wave (km/s) = 3.43141 4.07040 3.76449
# Velocity P-wave (km/s) = 4.99017 5.91277 5.47095
#
# Compressibility (1/GPa) = 0.05606633
#
# Stress axis : x y z
#
# Youngs Moduli (GPa) = 64.31391 84.32398 18.16297
#
# Poissons Ratio (x) = -0.02964 0.25402
# Poissons Ratio (y) = -0.02261 -0.00789
# Poissons Ratio (z) = 0.89945 -0.03665
#
# Static dielectric constant tensor:
#      x y z
#    x 1.655960 0.000000 0.000000 
#    y 0.000000 1.628560 0.000000 
#    z 0.000000 0.000000 1.660480 
# 
# From -- ./inp_files/7723.got.cif
#   From: 2010.05.17/outbox.cif.g08.bks.cpg/sg58_4_cif.got.tgz:7723.got - 2010.06.03 14:20:14.
