data_PCOD9444481
_publ_section_title
;
Structure prediction by ZEFSAII (Michael W. Deem and Ramdas Pophale) SiO2 
 PCOD9444481
Probable space group: P N N M
;
_chemical_formula_sum "Si O2"
_cell_formula_units_Z 48
_cell_length_a 14.507914
_cell_length_b 5.949205
_cell_length_c 25.957213
_cell_angle_alpha 90.000000
_cell_angle_beta 90.000000
_cell_angle_gamma 90.000000
_cell_volume 2240.381448
_symmetry_space_group_name_H-M "P N N M"
_symmetry_group_IT_number 58
_symmetry_cell_setting 'orthorhombic'
loop_
_space_group_symop_operation_xyz
x,y,z
-x,-y,z
1/2+x,1/2-y,1/2-z
1/2-x,1/2+y,1/2-z
-x,-y,-z
x,y,-z
1/2-x,1/2+y,1/2+z
1/2+x,1/2-y,1/2+z
loop_
_atom_site_type_symbol
_atom_site_label
_atom_site_fract_x
_atom_site_fract_y
_atom_site_fract_z
Si Si1 0.905639 0.637979 0.439612
Si Si2 0.395663 0.918709 0.397187
Si Si3 0.148136 0.928103 0.301461
Si Si4 0.051712 0.243627 0.000000
Si Si5 0.255816 0.273931 0.624917
Si Si6 0.673523 0.358615 0.697364
Si Si7 0.500000 0.500000 0.124364
O O1 0.886415 0.647275 0.500000
O O2 0.814444 0.573063 0.408069
O O3 0.000000 0.500000 0.432161
O O4 0.932000 0.875160 0.414472
O O5 0.392987 0.752535 0.446147
O O6 0.371853 0.819654 0.341069
O O7 0.500000 0.000000 0.393444
O O8 0.323074 0.117563 0.408240
O O9 0.198449 0.111164 0.337460
O O10 0.124325 0.061976 0.249339
O O11 0.061166 0.851380 0.335950
O O12 0.223677 0.736259 0.289529
O O13 0.000000 0.500000 0.000000
O O14 0.000000 0.000000 0.000000
O O15 0.316485 0.425509 0.661661
#
# Coordination Sequence:
#
# PCOD9444481 Si02
#       7
#     8   8   8   4   8   8   4
#     4  10  21  39  63  92 125 164 213 269 328 399
#     4  10  25  42  65  96 129 175 230 285 349 426
#     4  10  21  38  59  90 121 172 209 267 328 403
#     4  10  24  46  70  94 137 181 227 296 361 418
#     4  10  22  39  63  92 129 170 220 275 335 417
#     4  11  21  40  63  87 134 168 219 271 344 403
#     4  10  21  38  60  88 118 161 208 258 326 384
#
# _framework density 21.424921999999999
#
# number of rings (size 3 to 8) (size 9 to 14) (size 15 to 20)
#    0.000    1.833    1.667    1.250    5.833    1.333 
#    1.500    0.833    0.000    0.000    0.000    0.000 
#    0.000    0.000    0.000    0.000    0.000    0.000 
#
# Total GULP energy -267419.932722 kJ/mol
# GULP energy per Si atom -5571.248598 kJ/mol
# Density = 2.137616 g / cm^3
# Si number density = 21.424922 Si / 1000 Ang^3
#
#
#
# Elastic Constant Matrix: (Units=GPa)
#
#
# Indices 1 2 3 4 5 6 
#
# 1 50.5350 -0.6115 37.2055 0.0000 0.0000 0.0000
# 2 -0.6115 40.7661 12.9331 0.0000 0.0000 0.0000
# 3 37.2055 12.9331 111.6546 0.0000 0.0000 0.0000
# 4 0.0000 0.0000 0.0000 -49.1668 0.0000 0.0000
# 5 0.0000 0.0000 0.0000 0.0000 24.4003 0.0000
# 6 0.0000 0.0000 0.0000 0.0000 0.0000 26.6709
#
#
#
# Elastic Compliance Matrix: (Units=1/GPa)
#
#
# Indices 1 2 3 4 5 6 
#
# 1 0.026652 0.003340 -0.009268 0.000000 0.000000 0.000000
# 2 0.003340 0.025885 -0.004111 0.000000 0.000000 0.000000
# 3 -0.009268 -0.004111 0.012521 0.000000 0.000000 0.000000
# 4 0.000000 0.000000 0.000000 -0.020339 0.000000 0.000000
# 5 0.000000 0.000000 0.000000 0.000000 0.040983 0.000000
# 6 0.000000 0.000000 0.000000 0.000000 0.000000 0.037494
#
#
# Mechanical properties :
#
#
# Convention : Reuss Voigt Hill
#
# Bulk Modulus (GPa) = 22.23254 33.55666 27.89460
# Shear Modulus (GPa) = 31.59230 10.60945 21.10088
#
# Velocity S-wave (km/s) = 3.84416 2.22771 3.14168
# Velocity P-wave (km/s) = 5.48661 4.72370 5.11939
#
# Compressibility (1/GPa) = 0.04497911
#
# Stress axis : x y z
#
# Youngs Moduli (GPa) = 37.52069 38.63304 79.86817
#
# Poissons Ratio (x) = -0.12904 0.74021
# Poissons Ratio (y) = -0.12532 0.32836
# Poissons Ratio (z) = 0.34774 0.15883
#
# Static dielectric constant tensor:
#      x y z
#    x 1.838440 0.000000 0.000000 
#    y 0.000000 1.823330 0.000000 
#    z 0.000000 0.000000 1.754810 
# 
# From -- ./inp_files/33721.got.cif
#   From: 2010.05.17/outbox.cif.g08.bks.cpg/sg58_17_cif.got.tgz:33721.got - 2010.06.03 14:20:14.
