data_PCOD9444327
_publ_section_title
;
Structure prediction by ZEFSAII (Michael W. Deem and Ramdas Pophale) SiO2 
 PCOD9444327
Probable space group: P N N M
;
_chemical_formula_sum "Si O2"
_cell_formula_units_Z 64
_cell_length_a 15.859515
_cell_length_b 24.694655
_cell_length_c 7.625832
_cell_angle_alpha 90.000000
_cell_angle_beta 90.000000
_cell_angle_gamma 90.000000
_cell_volume 2986.620891
_symmetry_space_group_name_H-M "P N N M"
_symmetry_group_IT_number 58
_symmetry_cell_setting 'orthorhombic'
loop_
_space_group_symop_operation_xyz
x,y,z
-x,-y,z
1/2+x,1/2-y,1/2-z
1/2-x,1/2+y,1/2-z
-x,-y,-z
x,y,-z
1/2-x,1/2+y,1/2+z
1/2+x,1/2-y,1/2+z
loop_
_atom_site_type_symbol
_atom_site_label
_atom_site_fract_x
_atom_site_fract_y
_atom_site_fract_z
Si Si1 0.921113 0.769539 0.710898
Si Si2 0.254880 0.422614 0.791852
Si Si3 0.744251 0.201005 0.710757
Si Si4 0.593119 0.005524 0.801692
Si Si5 0.653738 0.889737 0.705858
Si Si6 0.342209 0.620916 0.786225
Si Si7 0.598807 0.774434 0.212303
Si Si8 0.402463 0.502839 0.214655
O O1 0.926818 0.772782 0.500000
O O2 0.845653 0.728089 0.749927
O O3 0.896401 0.828893 0.777628
O O4 0.012169 0.751837 0.775480
O O5 0.250208 0.361007 0.722849
O O6 0.167237 0.455774 0.769621
O O7 0.334986 0.457645 0.724441
O O8 0.268167 0.418135 0.000000
O O9 0.752230 0.198857 0.500000
O O10 0.819668 0.240387 0.775061
O O11 0.627040 0.944331 0.799500
O O12 0.500000 0.000000 0.715967
O O13 0.579163 0.025213 0.000000
O O14 0.658181 0.903668 0.500000
O O15 0.745893 0.871339 0.766637
O O16 0.598004 0.836926 0.731717
O O17 0.370223 0.561742 0.730443
O O18 0.345387 0.621437 0.000000
O O19 0.600796 0.773659 0.000000
O O20 0.500000 0.500000 0.269259
O O21 0.401891 0.500803 0.000000
#
# Coordination Sequence:
#
# PCOD9444327 Si02
#       8
#     8   8   8   8   8   8   8   8
#     4  10  21  37  58  82 113 153 196 236 282 343
#     4  10  21  38  58  86 118 151 192 239 288 340
#     4  10  22  38  56  83 119 153 191 240 290 337
#     4  11  25  42  60  84 115 154 195 237 293 352
#     4  11  21  38  63  87 113 147 195 247 288 341
#     4   9  17  32  55  84 110 141 186 234 280 330
#     4  10  22  38  57  85 121 157 192 238 292 344
#     4   9  17  30  55  87 114 140 180 233 284 334
#
# _framework density 21.428899999999999
#
# number of rings (size 3 to 8) (size 9 to 14) (size 15 to 20)
#    0.000    2.000    2.500    0.750    3.500    2.000 
#    0.000    0.000    0.000    0.375    0.000    0.000 
#    0.000    0.000    0.000    0.000    0.000    0.000 
#
# Total GULP energy -357299.900184 kJ/mol
# GULP energy per Si atom -5582.810940 kJ/mol
# Density = 2.138013 g / cm^3
# Si number density = 21.428900 Si / 1000 Ang^3
#
#
#
# Elastic Constant Matrix: (Units=GPa)
#
#
# Indices 1 2 3 4 5 6 
#
# 1 84.4143 4.9278 -3.2175 0.0000 0.0000 0.0000
# 2 4.9278 101.6013 -6.1919 0.0000 0.0000 0.0000
# 3 -3.2175 -6.1919 42.9104 0.0000 0.0000 0.0000
# 4 0.0000 0.0000 0.0000 18.2586 0.0000 0.0000
# 5 0.0000 0.0000 0.0000 0.0000 -20.3605 0.0000
# 6 0.0000 0.0000 0.0000 0.0000 0.0000 37.6774
#
#
#
# Elastic Compliance Matrix: (Units=1/GPa)
#
#
# Indices 1 2 3 4 5 6 
#
# 1 0.011908 -0.000528 0.000817 0.000000 0.000000 0.000000
# 2 -0.000528 0.009953 0.001397 0.000000 0.000000 0.000000
# 3 0.000817 0.001397 0.023567 0.000000 0.000000 0.000000
# 4 0.000000 0.000000 0.000000 0.054769 0.000000 0.000000
# 5 0.000000 0.000000 0.000000 0.000000 -0.049115 0.000000
# 6 0.000000 0.000000 0.000000 0.000000 0.000000 0.026541
#
#
# Mechanical properties :
#
#
# Convention : Reuss Voigt Hill
#
# Bulk Modulus (GPa) = 20.49190 24.44030 22.46610
# Shear Modulus (GPa) = 55.23698 22.67561 38.95630
#
# Velocity S-wave (km/s) = 5.08260 3.25650 4.26835
# Velocity P-wave (km/s) = 6.63530 5.05665 5.89903
#
# Compressibility (1/GPa) = 0.04879976
#
# Stress axis : x y z
#
# Youngs Moduli (GPa) = 83.97518 100.47113 42.43194
#
# Poissons Ratio (x) = 0.05303 -0.03466
# Poissons Ratio (y) = 0.04432 -0.05926
# Poissons Ratio (z) = -0.06859 -0.14032
#
# Static dielectric constant tensor:
#      x y z
#    x 1.784600 0.000000 0.000000 
#    y 0.000000 1.769290 0.000000 
#    z 0.000000 0.000000 1.832260 
# 
# From -- ./inp_files/6791.got.cif
#   From: 2010.05.17/outbox.cif.g08.bks.cpg/sg58_4_cif.got.tgz:6791.got - 2010.06.03 14:20:14.
