data_PCOD9444367
_publ_section_title
;
Structure prediction by ZEFSAII (Michael W. Deem and Ramdas Pophale) SiO2 
 PCOD9444367
Probable space group: P N N M
;
_chemical_formula_sum "Si O2"
_cell_formula_units_Z 56
_cell_length_a 13.255669
_cell_length_b 16.651599
_cell_length_c 13.313569
_cell_angle_alpha 90.000000
_cell_angle_beta 90.000000
_cell_angle_gamma 90.000000
_cell_volume 2938.678585
_symmetry_space_group_name_H-M "P N N M"
_symmetry_group_IT_number 58
_symmetry_cell_setting 'orthorhombic'
loop_
_space_group_symop_operation_xyz
x,y,z
-x,-y,z
1/2+x,1/2-y,1/2-z
1/2-x,1/2+y,1/2-z
-x,-y,-z
x,y,-z
1/2-x,1/2+y,1/2+z
1/2+x,1/2-y,1/2+z
loop_
_atom_site_type_symbol
_atom_site_label
_atom_site_fract_x
_atom_site_fract_y
_atom_site_fract_z
Si Si1 0.028271 0.809000 0.799594
Si Si2 0.191099 0.386765 0.793317
Si Si3 0.160210 0.754062 0.381218
Si Si4 0.318770 0.438265 0.381597
Si Si5 0.485951 0.144066 0.611743
Si Si6 0.776428 0.442794 0.886770
Si Si7 0.692189 0.378381 0.688364
O O1 0.065412 0.778322 0.689705
O O2 0.089244 0.888637 0.831550
O O3 0.054339 0.733934 0.871148
O O4 0.910762 0.827973 0.815637
O O5 0.252638 0.313744 0.841087
O O6 0.222847 0.403125 0.678822
O O7 0.226637 0.465110 0.854158
O O8 0.073191 0.373579 0.809328
O O9 0.141600 0.762948 0.500000
O O10 0.211456 0.667348 0.359055
O O11 0.316435 0.424125 0.500000
O O12 0.323915 0.533702 0.360349
O O13 0.530794 0.136827 0.500000
O O14 0.392774 0.084307 0.619497
O O15 0.715911 0.392633 0.805251
O O16 0.741062 0.431018 0.000000
#
# Coordination Sequence:
#
# PCOD9444367 Si02
#       7
#     8   8   8   8   8   8   8
#     4  11  23  38  58  91 121 151 200 254 291 355
#     4  10  21  37  60  87 116 150 197 242 291 355
#     4  11  22  38  59  84 119 159 198 243 296 356
#     4  10  23  41  61  88 121 158 201 248 299 355
#     4  11  20  34  60  88 117 153 192 242 295 342
#     4  10  21  37  59  86 116 150 193 245 297 350
#     4  11  22  39  62  85 119 159 201 245 297 359
#
# _framework density 19.056183999999998
#
# number of rings (size 3 to 8) (size 9 to 14) (size 15 to 20)
#    0.000    1.429    2.857    3.000    0.000    4.000 
#    0.000    0.714    0.000    6.857    0.000    0.000 
#    0.000    0.000    0.000    0.000    0.000    0.000 
#
# Total GULP energy -312556.292100 kJ/mol
# GULP energy per Si atom -5581.362359 kJ/mol
# Density = 1.901281 g / cm^3
# Si number density = 19.056184 Si / 1000 Ang^3
#
#
#
# Elastic Constant Matrix: (Units=GPa)
#
#
# Indices 1 2 3 4 5 6 
#
# 1 27.3624 4.8500 15.5802 0.0000 0.0000 0.0000
# 2 4.8500 51.5780 15.8664 0.0000 0.0000 0.0000
# 3 15.5802 15.8664 127.2676 0.0000 0.0000 0.0000
# 4 0.0000 0.0000 0.0000 15.1517 0.0000 0.0000
# 5 0.0000 0.0000 0.0000 0.0000 15.6206 0.0000
# 6 0.0000 0.0000 0.0000 0.0000 0.0000 18.6231
#
#
#
# Elastic Compliance Matrix: (Units=1/GPa)
#
#
# Indices 1 2 3 4 5 6 
#
# 1 0.039550 -0.002319 -0.004553 0.000000 0.000000 0.000000
# 2 -0.002319 0.020297 -0.002247 0.000000 0.000000 0.000000
# 3 -0.004553 -0.002247 0.008695 0.000000 0.000000 0.000000
# 4 0.000000 0.000000 0.000000 0.065999 0.000000 0.000000
# 5 0.000000 0.000000 0.000000 0.000000 0.064018 0.000000
# 6 0.000000 0.000000 0.000000 0.000000 0.000000 0.053697
#
#
# Mechanical properties :
#
#
# Convention : Reuss Voigt Hill
#
# Bulk Modulus (GPa) = 19.87821 30.97792 25.42807
# Shear Modulus (GPa) = 17.40582 21.20650 19.30616
#
# Velocity S-wave (km/s) = 3.02552 3.33955 3.18640
# Velocity P-wave (km/s) = 4.76015 5.58225 5.18751
#
# Compressibility (1/GPa) = 0.05030634
#
# Stress axis : x y z
#
# Youngs Moduli (GPa) = 25.28457 49.26777 115.01005
#
# Poissons Ratio (x) = 0.11423 0.52360
# Poissons Ratio (y) = 0.05862 0.25838
# Poissons Ratio (z) = 0.11511 0.11069
#
# Static dielectric constant tensor:
#      x y z
#    x 1.651880 0.000000 0.000000 
#    y 0.000000 1.689770 0.000000 
#    z 0.000000 0.000000 1.662530 
# 
# From -- ./inp_files/15660.got.cif
#   From: 2010.05.17/outbox.cif.g08.bks.cpg/sg58_8_cif.got.tgz:15660.got - 2010.06.03 14:20:14.
