data_PCOD9444210
_publ_section_title
;
Structure prediction by ZEFSAII (Michael W. Deem and Ramdas Pophale) SiO2 
 PCOD9444210
Probable space group: P N N M
;
_chemical_formula_sum "Si O2"
_cell_formula_units_Z 56
_cell_length_a 6.219286
_cell_length_b 33.593434
_cell_length_c 12.613448
_cell_angle_alpha 90.000000
_cell_angle_beta 90.000000
_cell_angle_gamma 90.000000
_cell_volume 2635.292042
_symmetry_space_group_name_H-M "P N N M"
_symmetry_group_IT_number 58
_symmetry_cell_setting 'orthorhombic'
loop_
_space_group_symop_operation_xyz
x,y,z
-x,-y,z
1/2+x,1/2-y,1/2-z
1/2-x,1/2+y,1/2-z
-x,-y,-z
x,y,-z
1/2-x,1/2+y,1/2+z
1/2+x,1/2-y,1/2+z
loop_
_atom_site_type_symbol
_atom_site_label
_atom_site_fract_x
_atom_site_fract_y
_atom_site_fract_z
Si Si1 0.271401 0.451488 0.622685
Si Si2 0.315375 0.799812 0.797896
Si Si3 0.618041 0.407302 0.239350
Si Si4 0.255503 0.009405 0.677909
Si Si5 0.130517 0.721912 0.113771
Si Si6 0.975875 0.163623 0.382274
Si Si7 0.039882 0.623735 0.382192
O O1 0.296819 0.464405 0.500000
O O2 0.474730 0.427507 0.669249
O O3 0.239231 0.486859 0.707489
O O4 0.082167 0.418635 0.625550
O O5 0.246807 0.764293 0.873844
O O6 0.499542 0.783311 0.720961
O O7 0.385003 0.839342 0.859955
O O8 0.140274 0.813432 0.712171
O O9 0.747371 0.443225 0.187064
O O10 0.486132 0.382321 0.153798
O O11 0.776175 0.376595 0.295308
O O12 0.500000 0.000000 0.631748
O O13 0.000000 0.000000 0.638715
O O14 0.294690 0.685164 0.110104
O O15 0.012187 0.722541 0.000000
O O16 0.877877 0.166141 0.500000
O O17 0.130823 0.627141 0.500000
#
# Coordination Sequence:
#
# PCOD9444210 Si02
#       7
#     8   8   8   8   8   8   8
#     4  10  21  36  57  89 128 170 210 253 316 390
#     4  12  22  43  63  91 123 159 203 260 316 379
#     4  11  21  39  60  86 125 162 213 259 318 372
#     4  10  21  36  60  89 126 174 215 267 322 389
#     4  11  24  41  64  91 119 157 204 255 313 379
#     4  11  24  42  64  89 118 162 215 261 311 373
#     4  11  22  35  59  92 127 162 202 253 315 385
#
# _framework density 21.250018000000001
#
# number of rings (size 3 to 8) (size 9 to 14) (size 15 to 20)
#    0.000    1.143    5.714    1.286    0.000    3.429 
#    0.000    1.429    0.000    4.286    0.000    0.000 
#    0.000    0.000    0.000    0.000    0.000    0.000 
#
# Total GULP energy -312081.386704 kJ/mol
# GULP energy per Si atom -5572.881905 kJ/mol
# Density = 2.120165 g / cm^3
# Si number density = 21.250018 Si / 1000 Ang^3
#
#
#
# Elastic Constant Matrix: (Units=GPa)
#
#
# Indices 1 2 3 4 5 6 
#
# 1 64.1634 0.4145 9.8095 0.0000 0.0000 0.0000
# 2 0.4145 77.7598 27.3253 0.0000 0.0000 0.0000
# 3 9.8095 27.3253 63.6036 0.0000 0.0000 0.0000
# 4 0.0000 0.0000 0.0000 25.9418 0.0000 0.0000
# 5 0.0000 0.0000 0.0000 0.0000 -20.7015 0.0000
# 6 0.0000 0.0000 0.0000 0.0000 0.0000 33.2258
#
#
#
# Elastic Compliance Matrix: (Units=1/GPa)
#
#
# Indices 1 2 3 4 5 6 
#
# 1 0.016017 0.000922 -0.002866 0.000000 0.000000 0.000000
# 2 0.000922 0.015200 -0.006672 0.000000 0.000000 0.000000
# 3 -0.002866 -0.006672 0.019031 0.000000 0.000000 0.000000
# 4 0.000000 0.000000 0.000000 0.038548 0.000000 0.000000
# 5 0.000000 0.000000 0.000000 0.000000 -0.048306 0.000000
# 6 0.000000 0.000000 0.000000 0.000000 0.000000 0.030097
#
#
# Mechanical properties :
#
#
# Convention : Reuss Voigt Hill
#
# Bulk Modulus (GPa) = 30.28955 31.18059 30.73507
# Shear Modulus (GPa) = 50.59389 18.89173 34.74281
#
# Velocity S-wave (km/s) = 4.88473 2.98488 4.04784
# Velocity P-wave (km/s) = 6.78962 5.15601 6.02841
#
# Compressibility (1/GPa) = 0.03301469
#
# Stress axis : x y z
#
# Youngs Moduli (GPa) = 62.43180 65.78994 52.54578
#
# Poissons Ratio (x) = -0.06065 0.15062
# Poissons Ratio (y) = -0.05756 0.35060
# Poissons Ratio (z) = 0.17896 0.43897
#
# Static dielectric constant tensor:
#      x y z
#    x 1.854530 0.000000 0.000000 
#    y 0.000000 1.735480 0.000000 
#    z 0.000000 0.000000 1.744650 
# 
# From -- ./inp_files/18726.got.cif
#   From: 2010.05.17/outbox.cif.g08.bks.cpg/sg58_10_cif.got.tgz:18726.got - 2010.06.03 14:20:14.
