data_PCOD9444764
_publ_section_title
;
Structure prediction by ZEFSAII (Michael W. Deem and Ramdas Pophale) SiO2 
 PCOD9444764
Probable space group: P N N M
;
_chemical_formula_sum "Si O2"
_cell_formula_units_Z 36
_cell_length_a 5.359006
_cell_length_b 11.942810
_cell_length_c 26.863295
_cell_angle_alpha 90.000000
_cell_angle_beta 90.000000
_cell_angle_gamma 90.000000
_cell_volume 1719.293605
_symmetry_space_group_name_H-M "P N N M"
_symmetry_group_IT_number 58
_symmetry_cell_setting 'orthorhombic'
loop_
_space_group_symop_operation_xyz
x,y,z
-x,-y,z
1/2+x,1/2-y,1/2-z
1/2-x,1/2+y,1/2-z
-x,-y,-z
x,y,-z
1/2-x,1/2+y,1/2+z
1/2+x,1/2-y,1/2+z
loop_
_atom_site_type_symbol
_atom_site_label
_atom_site_fract_x
_atom_site_fract_y
_atom_site_fract_z
Si Si1 0.347591 0.317010 0.638980
Si Si2 0.000000 0.500000 0.609378
Si Si3 0.949573 0.127740 0.364124
Si Si4 0.214073 0.202241 0.941493
Si Si5 0.815140 0.739138 0.781012
O O1 0.191793 0.203739 0.648344
O O2 0.440548 0.312317 0.582155
O O3 0.581170 0.322490 0.676210
O O4 0.179635 0.425423 0.643233
O O5 0.857431 0.410107 0.575146
O O6 0.827310 0.193639 0.410489
O O7 0.773373 0.135382 0.315288
O O8 0.000000 0.000000 0.376078
O O9 0.217808 0.218385 0.000000
O O10 0.561617 0.777218 0.753027
#
# Coordination Sequence:
#
# PCOD9444764 Si02
#       5
#     8   4   8   8   8
#     4  10  22  41  67  95 139 176 229 281 345 405
#     4  10  21  40  66  98 134 186 222 286 343 408
#     4  10  23  44  70  95 136 182 225 281 344 406
#     4  10  22  39  65 100 139 181 230 281 340 410
#     4  11  22  44  72  95 136 175 229 286 341 412
#
# _framework density 20.938829999999999
#
# number of rings (size 3 to 8) (size 9 to 14) (size 15 to 20)
#    0.000    1.778    2.222    1.000    0.000    9.333 
#    0.000   10.000    0.000    0.000    0.000    0.000 
#    0.000    0.000    0.000    0.000    0.000    0.000 
#
# Total GULP energy -200855.660987 kJ/mol
# GULP energy per Si atom -5579.323916 kJ/mol
# Density = 2.089117 g / cm^3
# Si number density = 20.938830 Si / 1000 Ang^3
#
#
#
# Elastic Constant Matrix: (Units=GPa)
#
#
# Indices 1 2 3 4 5 6 
#
# 1 114.7134 53.1373 44.1544 0.0000 0.0000 0.0000
# 2 53.1373 162.3760 42.1723 0.0000 0.0000 0.0000
# 3 44.1544 42.1723 118.7995 0.0000 0.0000 0.0000
# 4 0.0000 0.0000 0.0000 5.7228 0.0000 0.0000
# 5 0.0000 0.0000 0.0000 0.0000 14.7184 0.0000
# 6 0.0000 0.0000 0.0000 0.0000 0.0000 21.4127
#
#
#
# Elastic Compliance Matrix: (Units=1/GPa)
#
#
# Indices 1 2 3 4 5 6 
#
# 1 0.011264 -0.002863 -0.003170 0.000000 0.000000 0.000000
# 2 -0.002863 0.007512 -0.001603 0.000000 0.000000 0.000000
# 3 -0.003170 -0.001603 0.010165 0.000000 0.000000 0.000000
# 4 0.000000 0.000000 0.000000 0.174739 0.000000 0.000000
# 5 0.000000 0.000000 0.000000 0.000000 0.067942 0.000000
# 6 0.000000 0.000000 0.000000 0.000000 0.000000 0.046701
#
#
# Mechanical properties :
#
#
# Convention : Reuss Voigt Hill
#
# Bulk Modulus (GPa) = 73.15740 74.97966 74.06853
# Shear Modulus (GPa) = 14.78635 25.46578 20.12606
#
# Velocity S-wave (km/s) = 2.66027 3.49119 3.10366
# Velocity P-wave (km/s) = 6.66712 7.22065 6.94940
#
# Compressibility (1/GPa) = 0.01366916
#
# Stress axis : x y z
#
# Youngs Moduli (GPa) = 88.78125 133.12819 98.37981
#
# Poissons Ratio (x) = 0.38110 0.31188
# Poissons Ratio (y) = 0.25415 0.15766
# Poissons Ratio (z) = 0.28145 0.21334
#
# Static dielectric constant tensor:
#      x y z
#    x 1.855430 0.000000 0.000000 
#    y 0.000000 1.704860 0.000000 
#    z 0.000000 0.000000 1.781390 
# 
# From -- ./inp_files/32652.got.cif
#   From: 2010.05.17/outbox.cif.g08.bks.cpg/sg58_17_cif.got.tgz:32652.got - 2010.06.03 14:20:14.
