data_PCOD9444666
_publ_section_title
;
Structure prediction by ZEFSAII (Michael W. Deem and Ramdas Pophale) SiO2 
 PCOD9444666
Probable space group: P N N M
;
_chemical_formula_sum "Si O2"
_cell_formula_units_Z 40
_cell_length_a 7.606446
_cell_length_b 22.076640
_cell_length_c 11.326252
_cell_angle_alpha 90.000000
_cell_angle_beta 90.000000
_cell_angle_gamma 90.000000
_cell_volume 1901.958262
_symmetry_space_group_name_H-M "P N N M"
_symmetry_group_IT_number 58
_symmetry_cell_setting 'orthorhombic'
loop_
_space_group_symop_operation_xyz
x,y,z
-x,-y,z
1/2+x,1/2-y,1/2-z
1/2-x,1/2+y,1/2-z
-x,-y,-z
x,y,-z
1/2-x,1/2+y,1/2+z
1/2+x,1/2-y,1/2+z
loop_
_atom_site_type_symbol
_atom_site_label
_atom_site_fract_x
_atom_site_fract_y
_atom_site_fract_z
Si Si1 0.243255 0.629387 0.637647
Si Si2 0.644108 0.553708 0.127520
Si Si3 0.953538 0.182410 0.707918
Si Si4 0.208938 0.490708 0.631299
Si Si5 0.395380 0.808129 0.864337
O O1 0.245641 0.644742 0.500000
O O2 0.386241 0.668121 0.704421
O O3 0.285674 0.558310 0.648112
O O4 0.044746 0.644445 0.677613
O O5 0.500000 0.500000 0.128182
O O6 0.566290 0.621313 0.132287
O O7 0.743337 0.546295 0.252312
O O8 0.740243 0.547403 0.000000
O O9 0.774375 0.192015 0.781392
O O10 0.007714 0.243174 0.640702
O O11 0.264415 0.467805 0.500000
O O12 0.000000 0.500000 0.626175
O O13 0.345854 0.821920 0.000000
#
# Coordination Sequence:
#
# PCOD9444666 Si02
#       5
#     8   8   8   8   8
#     4  10  21  39  63  94 127 163 213 273 321 376
#     4  11  24  41  63  93 132 170 209 260 322 390
#     4  12  22  42  66  90 125 175 214 261 332 386
#     4  10  21  40  67  95 127 168 216 266 320 385
#     4  11  24  41  65  95 126 163 219 276 320 384
#
# _framework density 21.030954000000001
#
# number of rings (size 3 to 8) (size 9 to 14) (size 15 to 20)
#    0.000    1.200    4.000    2.400    0.000    4.000 
#    0.000    0.000    0.000    0.000    0.000    0.000 
#    0.000    0.000    0.000    0.000    0.000    0.000 
#
# Total GULP energy -223396.351070 kJ/mol
# GULP energy per Si atom -5584.908777 kJ/mol
# Density = 2.098309 g / cm^3
# Si number density = 21.030954 Si / 1000 Ang^3
#
#
#
# Elastic Constant Matrix: (Units=GPa)
#
#
# Indices 1 2 3 4 5 6 
#
# 1 77.2439 10.4472 51.1161 0.0000 0.0000 0.0000
# 2 10.4472 111.6485 35.2588 0.0000 0.0000 0.0000
# 3 51.1161 35.2588 117.4299 0.0000 0.0000 0.0000
# 4 0.0000 0.0000 0.0000 191.7355 0.0000 0.0000
# 5 0.0000 0.0000 0.0000 0.0000 -55.8173 0.0000
# 6 0.0000 0.0000 0.0000 0.0000 0.0000 34.6335
#
#
#
# Elastic Compliance Matrix: (Units=1/GPa)
#
#
# Indices 1 2 3 4 5 6 
#
# 1 0.018263 0.000886 -0.008216 0.000000 0.000000 0.000000
# 2 0.000886 0.009938 -0.003369 0.000000 0.000000 0.000000
# 3 -0.008216 -0.003369 0.013104 0.000000 0.000000 0.000000
# 4 0.000000 0.000000 0.000000 0.005216 0.000000 0.000000
# 5 0.000000 0.000000 0.000000 0.000000 -0.017916 0.000000
# 6 0.000000 0.000000 0.000000 0.000000 0.000000 0.028874
#
#
# Mechanical properties :
#
#
# Convention : Reuss Voigt Hill
#
# Bulk Modulus (GPa) = 50.23713 55.55182 52.89448
# Shear Modulus (GPa) = 58.47147 48.07702 53.27424
#
# Velocity S-wave (km/s) = 5.27853 4.78641 5.03849
# Velocity P-wave (km/s) = 7.81599 7.55103 7.68465
#
# Compressibility (1/GPa) = 0.01990560
#
# Stress axis : x y z
#
# Youngs Moduli (GPa) = 54.75597 100.62519 76.31532
#
# Poissons Ratio (x) = -0.08911 0.62697
# Poissons Ratio (y) = -0.04849 0.25713
# Poissons Ratio (z) = 0.44985 0.33904
#
# Static dielectric constant tensor:
#      x y z
#    x 1.748460 0.000000 0.000000 
#    y 0.000000 1.791020 0.000000 
#    z 0.000000 0.000000 1.768850 
# 
# From -- ./inp_files/12911.got.cif
#   From: 2010.05.17/outbox.cif.g08.bks.cpg/sg58_7_cif.got.tgz:12911.got - 2010.06.03 14:20:14.
