data_PCOD9444180
_publ_section_title
;
Structure prediction by ZEFSAII (Michael W. Deem and Ramdas Pophale) SiO2 
 PCOD9444180
Probable space group: P N N M
;
_chemical_formula_sum "Si O2"
_cell_formula_units_Z 40
_cell_length_a 4.964806
_cell_length_b 12.579647
_cell_length_c 30.023667
_cell_angle_alpha 90.000000
_cell_angle_beta 90.000000
_cell_angle_gamma 90.000000
_cell_volume 1875.143342
_symmetry_space_group_name_H-M "P N N M"
_symmetry_group_IT_number 58
_symmetry_cell_setting 'orthorhombic'
loop_
_space_group_symop_operation_xyz
x,y,z
-x,-y,z
1/2+x,1/2-y,1/2-z
1/2-x,1/2+y,1/2-z
-x,-y,-z
x,y,-z
1/2-x,1/2+y,1/2+z
1/2+x,1/2-y,1/2+z
loop_
_atom_site_type_symbol
_atom_site_label
_atom_site_fract_x
_atom_site_fract_y
_atom_site_fract_z
Si Si1 0.035454 0.380572 0.447648
Si Si2 0.027030 0.222649 0.090646
Si Si3 0.424128 0.377132 0.780836
Si Si4 0.576556 0.750018 0.309413
Si Si5 0.245058 0.074733 0.550158
O O1 0.976533 0.378107 0.500000
O O2 0.834120 0.295852 0.424422
O O3 0.000000 0.500000 0.430205
O O4 0.345654 0.355633 0.438491
O O5 0.996707 0.203430 0.142914
O O6 0.873413 0.333297 0.080244
O O7 0.500000 0.500000 0.785379
O O8 0.447305 0.337031 0.729716
O O9 0.628912 0.301809 0.807918
O O10 0.128258 0.345605 0.797377
O O11 0.165750 0.114934 0.500000
O O12 0.500000 0.000000 0.544445
O O13 0.000000 0.000000 0.566884
#
# Coordination Sequence:
#
# PCOD9444180 Si02
#       5
#     8   8   8   8   8
#     4  11  24  41  62  89 122 163 205 245 300 360
#     4  12  23  40  63  89 124 157 200 259 300 345
#     4  10  21  41  63  84 122 160 189 244 308 359
#     4  10  23  39  60  94 118 150 207 243 293 374
#     4  10  21  36  55  82 116 157 199 236 287 348
#
# _framework density 21.331702
#
# number of rings (size 3 to 8) (size 9 to 14) (size 15 to 20)
#    0.000    1.400    0.000    5.400    0.000    7.200 
#    0.000    0.000    0.000    0.000    0.000    0.000 
#    0.000    0.000    0.000    0.000    0.000    0.000 
#
# Total GULP energy -223362.177242 kJ/mol
# GULP energy per Si atom -5584.054431 kJ/mol
# Density = 2.128315 g / cm^3
# Si number density = 21.331702 Si / 1000 Ang^3
#
#
#
# Elastic Constant Matrix: (Units=GPa)
#
#
# Indices 1 2 3 4 5 6 
#
# 1 80.6572 -0.9550 0.7196 0.0000 0.0000 0.0000
# 2 -0.9550 44.7856 -15.7143 0.0000 0.0000 0.0000
# 3 0.7196 -15.7143 73.8141 0.0000 0.0000 0.0000
# 4 0.0000 0.0000 0.0000 1432.2425 0.0000 0.0000
# 5 0.0000 0.0000 0.0000 0.0000 21.0359 0.0000
# 6 0.0000 0.0000 0.0000 0.0000 0.0000 25.7718
#
#
#
# Elastic Compliance Matrix: (Units=1/GPa)
#
#
# Indices 1 2 3 4 5 6 
#
# 1 0.012402 0.000240 -0.000070 0.000000 0.000000 0.000000
# 2 0.000240 0.024136 0.005136 0.000000 0.000000 0.000000
# 3 -0.000070 0.005136 0.014642 0.000000 0.000000 0.000000
# 4 0.000000 0.000000 0.000000 0.000698 0.000000 0.000000
# 5 0.000000 0.000000 0.000000 0.000000 0.047538 0.000000
# 6 0.000000 0.000000 0.000000 0.000000 0.000000 0.038802
#
#
# Mechanical properties :
#
#
# Convention : Reuss Voigt Hill
#
# Bulk Modulus (GPa) = 16.18355 18.59529 17.38942
# Shear Modulus (GPa) = 33.73771 310.15714 171.94742
#
# Velocity S-wave (km/s) = 3.98122 12.07116 8.98785
# Velocity P-wave (km/s) = 5.36065 14.24851 10.76468
#
# Compressibility (1/GPa) = 0.06179113
#
# Stress axis : x y z
#
# Youngs Moduli (GPa) = 80.63468 41.43225 68.29845
#
# Poissons Ratio (x) = -0.00994 0.00477
# Poissons Ratio (y) = -0.01935 -0.35078
# Poissons Ratio (z) = 0.00563 -0.21279
#
# Static dielectric constant tensor:
#      x y z
#    x 1.724350 0.000000 0.000000 
#    y 0.000000 1.767210 0.000000 
#    z 0.000000 0.000000 1.768840 
# 
# From -- ./inp_files/32655.got.cif
#   From: 2010.05.17/outbox.cif.g08.bks.cpg/sg58_17_cif.got.tgz:32655.got - 2010.06.03 14:20:14.
