data_PCOD9444453
_publ_section_title
;
Structure prediction by ZEFSAII (Michael W. Deem and Ramdas Pophale) SiO2 
 PCOD9444453
Probable space group: P N N M
;
_chemical_formula_sum "Si O2"
_cell_formula_units_Z 64
_cell_length_a 17.494214
_cell_length_b 19.119328
_cell_length_c 8.297149
_cell_angle_alpha 90.000000
_cell_angle_beta 90.000000
_cell_angle_gamma 90.000000
_cell_volume 2775.210614
_symmetry_space_group_name_H-M "P N N M"
_symmetry_group_IT_number 58
_symmetry_cell_setting 'orthorhombic'
loop_
_space_group_symop_operation_xyz
x,y,z
-x,-y,z
1/2+x,1/2-y,1/2-z
1/2-x,1/2+y,1/2-z
-x,-y,-z
x,y,-z
1/2-x,1/2+y,1/2+z
1/2+x,1/2-y,1/2+z
loop_
_atom_site_type_symbol
_atom_site_label
_atom_site_fract_x
_atom_site_fract_y
_atom_site_fract_z
Si Si1 0.850879 0.805295 0.815506
Si Si2 0.764806 0.196112 0.697670
Si Si3 0.513276 0.111472 0.812247
Si Si4 0.853827 0.058508 0.186878
Si Si5 0.375959 0.999087 0.812222
Si Si6 0.590403 0.771789 0.817775
Si Si7 0.227613 0.070847 0.682195
Si Si8 0.002435 0.873832 0.322812
O O1 0.815809 0.731635 0.753544
O O2 0.785541 0.864542 0.800888
O O3 0.921187 0.844017 0.731105
O O4 0.872527 0.793998 0.000000
O O5 0.767031 0.194197 0.500000
O O6 0.795852 0.121421 0.759488
O O7 0.828557 0.252526 0.756911
O O8 0.445573 0.054157 0.812194
O O9 0.471883 0.178197 0.736087
O O10 0.588150 0.073087 0.744935
O O11 0.532076 0.127876 0.000000
O O12 0.942432 0.079309 0.213112
O O13 0.834565 0.989475 0.286649
O O14 0.840097 0.044226 0.000000
O O15 0.307177 0.032171 0.715637
O O16 0.353525 0.989044 0.000000
O O17 0.551677 0.696975 0.834347
O O18 0.604567 0.800368 0.000000
O O19 0.223506 0.096923 0.500000
O O20 0.996417 0.906000 0.500000
#
# Coordination Sequence:
#
# PCOD9444453 Si02
#       8
#     8   8   8   8   8   8   8   8
#     4  11  23  40  63  90 119 153 196 242 290 349
#     4   9  19  37  61  88 120 154 188 236 294 346
#     4   8  14  27  51  81 113 149 186 226 273 331
#     4  11  23  41  64  87 115 155 202 245 291 351
#     4   9  17  31  52  80 112 148 192 234 276 336
#     4   8  14  28  52  79 108 145 183 220 271 333
#     4  12  25  40  58  83 117 155 197 247 302 352
#     4  10  21  38  58  84 117 150 190 240 296 351
#
# _framework density 23.061312999999998
#
# number of rings (size 3 to 8) (size 9 to 14) (size 15 to 20)
#    0.000    2.250    0.000    5.250    0.000    4.500 
#    0.000    5.000    0.000    3.750    0.000    0.000 
#    0.000    0.000    0.000    0.000    0.000    0.000 
#
# Total GULP energy -357014.695710 kJ/mol
# GULP energy per Si atom -5578.354620 kJ/mol
# Density = 2.300882 g / cm^3
# Si number density = 23.061313 Si / 1000 Ang^3
#
#
#
# Elastic Constant Matrix: (Units=GPa)
#
#
# Indices 1 2 3 4 5 6 
#
# 1 66.1686 -0.4435 7.5241 0.0000 0.0000 0.0000
# 2 -0.4435 48.4471 -13.2169 0.0000 0.0000 0.0000
# 3 7.5241 -13.2169 40.1416 0.0000 0.0000 0.0000
# 4 0.0000 0.0000 0.0000 -11.0120 0.0000 0.0000
# 5 0.0000 0.0000 0.0000 0.0000 -13.8567 0.0000
# 6 0.0000 0.0000 0.0000 0.0000 0.0000 24.0775
#
#
#
# Elastic Compliance Matrix: (Units=1/GPa)
#
#
# Indices 1 2 3 4 5 6 
#
# 1 0.015464 -0.000713 -0.003133 0.000000 0.000000 0.000000
# 2 -0.000713 0.022711 0.007611 0.000000 0.000000 0.000000
# 3 -0.003133 0.007611 0.028005 0.000000 0.000000 0.000000
# 4 0.000000 0.000000 0.000000 -0.090810 0.000000 0.000000
# 5 0.000000 0.000000 0.000000 0.000000 -0.072167 0.000000
# 6 0.000000 0.000000 0.000000 0.000000 0.000000 0.041533
#
#
# Mechanical properties :
#
#
# Convention : Reuss Voigt Hill
#
# Bulk Modulus (GPa) = 13.56666 15.83164 14.69915
# Shear Modulus (GPa) = -130.81071 10.56800 -60.12136
#
# Velocity S-wave (km/s) = -7.53964 2.14302 -5.11144
# Velocity P-wave (km/s) = 8.36058 3.60601 5.33366
#
# Compressibility (1/GPa) = 0.07371010
#
# Stress axis : x y z
#
# Youngs Moduli (GPa) = 64.66452 44.03149 35.70758
#
# Poissons Ratio (x) = 0.03141 0.11189
# Poissons Ratio (y) = 0.04612 -0.27179
# Poissons Ratio (z) = 0.20263 -0.33514
#
# Static dielectric constant tensor:
#      x y z
#    x 1.967260 0.000000 0.000000 
#    y 0.000000 1.891110 0.000000 
#    z 0.000000 0.000000 1.812200 
# 
# From -- ./inp_files/8314.got.cif
#   From: 2010.05.17/outbox.cif.g08.bks.cpg/sg58_5_cif.got.tgz:8314.got - 2010.06.03 14:20:14.
