data_PCOD9444559
_publ_section_title
;
Structure prediction by ZEFSAII (Michael W. Deem and Ramdas Pophale) SiO2 
 PCOD9444559
Probable space group: P N N M
;
_chemical_formula_sum "Si O2"
_cell_formula_units_Z 48
_cell_length_a 23.174538
_cell_length_b 11.965341
_cell_length_c 8.882574
_cell_angle_alpha 90.000000
_cell_angle_beta 90.000000
_cell_angle_gamma 90.000000
_cell_volume 2463.060045
_symmetry_space_group_name_H-M "P N N M"
_symmetry_group_IT_number 58
_symmetry_cell_setting 'orthorhombic'
loop_
_space_group_symop_operation_xyz
x,y,z
-x,-y,z
1/2+x,1/2-y,1/2-z
1/2-x,1/2+y,1/2-z
-x,-y,-z
x,y,-z
1/2-x,1/2+y,1/2+z
1/2+x,1/2-y,1/2+z
loop_
_atom_site_type_symbol
_atom_site_label
_atom_site_fract_x
_atom_site_fract_y
_atom_site_fract_z
Si Si1 0.049096 0.311857 0.177027
Si Si2 0.226919 0.347745 0.320449
Si Si3 0.358278 0.650342 0.820078
Si Si4 0.138267 0.513979 0.175644
Si Si5 0.142817 0.906051 0.820764
Si Si6 0.074563 0.712600 0.321622
O O1 0.085721 0.218750 0.265416
O O2 0.085087 0.426709 0.190965
O O3 0.985587 0.320426 0.244091
O O4 0.046468 0.284063 0.000000
O O5 0.218730 0.363900 0.500000
O O6 0.195877 0.230963 0.280978
O O7 0.193552 0.446673 0.234999
O O8 0.294471 0.352441 0.288397
O O9 0.355723 0.532342 0.737978
O O10 0.359333 0.635160 0.000000
O O11 0.122195 0.622807 0.269359
O O12 0.145099 0.542947 0.000000
O O13 0.094808 0.832875 0.737888
O O14 0.133366 0.903251 0.000000
O O15 0.068321 0.712138 0.500000
#
# Coordination Sequence:
#
# PCOD9444559 Si02
#       6
#     8   8   8   8   8   8
#     4  10  21  40  64  90 120 159 201 248 302 360
#     4   9  21  40  62  88 120 157 198 246 299 354
#     4  10  21  40  63  89 120 157 200 248 301 359
#     4  10  21  38  63  92 122 158 200 247 301 356
#     4  11  24  41  60  88 122 161 203 247 299 358
#     4  12  25  39  59  90 124 160 202 250 300 355
#
# _framework density 19.487954999999999
#
# number of rings (size 3 to 8) (size 9 to 14) (size 15 to 20)
#    0.000    1.667    0.000    4.000    2.333    6.667 
#    0.000    3.333    0.000    0.000    0.000    0.000 
#    0.000    0.000    0.000    0.000    0.000    0.000 
#
# Total GULP energy -268414.344387 kJ/mol
# GULP energy per Si atom -5591.965508 kJ/mol
# Density = 1.944360 g / cm^3
# Si number density = 19.487955 Si / 1000 Ang^3
#
#
#
# Elastic Constant Matrix: (Units=GPa)
#
#
# Indices 1 2 3 4 5 6 
#
# 1 31.2388 -9.1790 14.9788 0.0000 0.0000 0.0000
# 2 -9.1790 46.3055 11.3001 0.0000 0.0000 0.0000
# 3 14.9788 11.3001 49.2203 0.0000 0.0000 0.0000
# 4 0.0000 0.0000 0.0000 35.5469 0.0000 0.0000
# 5 0.0000 0.0000 0.0000 0.0000 26.0685 0.0000
# 6 0.0000 0.0000 0.0000 0.0000 0.0000 1.1525
#
#
#
# Elastic Compliance Matrix: (Units=1/GPa)
#
#
# Indices 1 2 3 4 5 6 
#
# 1 0.043406 0.012530 -0.016086 0.000000 0.000000 0.000000
# 2 0.012530 0.026494 -0.009896 0.000000 0.000000 0.000000
# 3 -0.016086 -0.009896 0.027484 0.000000 0.000000 0.000000
# 4 0.000000 0.000000 0.000000 0.028132 0.000000 0.000000
# 5 0.000000 0.000000 0.000000 0.000000 0.038360 0.000000
# 6 0.000000 0.000000 0.000000 0.000000 0.000000 0.867677
#
#
# Mechanical properties :
#
#
# Convention : Reuss Voigt Hill
#
# Bulk Modulus (GPa) = 14.18827 17.88493 16.03660
# Shear Modulus (GPa) = 4.62128 19.86456 12.24292
#
# Velocity S-wave (km/s) = 1.54159 3.19615 2.50917
# Velocity P-wave (km/s) = 3.23497 4.77680 4.07939
#
# Compressibility (1/GPa) = 0.07048078
#
# Stress axis : x y z
#
# Youngs Moduli (GPa) = 23.03808 37.74388 36.38466
#
# Poissons Ratio (x) = -0.47293 0.58529
# Poissons Ratio (y) = -0.28866 0.36005
# Poissons Ratio (z) = 0.37059 0.37350
#
# Static dielectric constant tensor:
#      x y z
#    x 1.665500 0.000000 0.000000 
#    y 0.000000 1.664010 0.000000 
#    z 0.000000 0.000000 1.643190 
# 
# From -- ./inp_files/4226.got.cif
#   From: 2010.05.17/outbox.cif.g08.bks.cpg/sg58_3_cif.got.tgz:4226.got - 2010.06.03 14:20:14.
