data_PCOD9444009
_publ_section_title
;
Structure prediction by ZEFSAII (Michael W. Deem and Ramdas Pophale) SiO2 
 PCOD9444009
Probable space group: P N N M
;
_chemical_formula_sum "Si O2"
_cell_formula_units_Z 58
_cell_length_a 15.374359
_cell_length_b 8.943503
_cell_length_c 18.166144
_cell_angle_alpha 90.000000
_cell_angle_beta 90.000000
_cell_angle_gamma 90.000000
_cell_volume 2497.856169
_symmetry_space_group_name_H-M "P N N M"
_symmetry_group_IT_number 58
_symmetry_cell_setting 'orthorhombic'
loop_
_space_group_symop_operation_xyz
x,y,z
-x,-y,z
1/2+x,1/2-y,1/2-z
1/2-x,1/2+y,1/2-z
-x,-y,-z
x,y,-z
1/2-x,1/2+y,1/2+z
1/2+x,1/2-y,1/2+z
loop_
_atom_site_type_symbol
_atom_site_label
_atom_site_fract_x
_atom_site_fract_y
_atom_site_fract_z
Si Si1 0.001965 0.834191 0.716749
Si Si2 0.067179 0.187059 0.879871
Si Si3 0.976338 0.674754 0.580672
Si Si4 0.500000 0.500000 0.500000
Si Si5 0.691438 0.753668 0.718043
Si Si6 0.328605 0.243552 0.917249
Si Si7 0.304546 0.908657 0.331853
Si Si8 0.774811 0.030922 0.085295
O O1 0.946985 0.727536 0.661364
O O2 0.101288 0.784390 0.737958
O O3 0.957358 0.846930 0.796433
O O4 0.000000 0.000000 0.684286
O O5 0.108924 0.351768 0.873301
O O6 0.993443 0.132910 0.935389
O O7 0.145364 0.085316 0.911173
O O8 0.933515 0.703198 0.500000
O O9 0.068935 0.759979 0.580881
O O10 0.000000 0.500000 0.581765
O O11 0.773295 0.706838 0.768433
O O12 0.703595 0.659081 0.643337
O O13 0.689193 0.927151 0.699041
O O14 0.277289 0.382951 0.885300
O O15 0.304111 0.077008 0.887167
O O16 0.296619 0.227724 0.000000
O O17 0.763725 0.079940 0.000000
#
# Coordination Sequence:
#
# PCOD9444009 Si02
#       8
#     8   8   8   2   8   8   8   8
#     4  12  25  42  67  99 136 181 235 286 373 429
#     4  11  23  40  71 101 136 193 237 294 353 447
#     4  10  23  43  68  99 135 179 230 291 358 436
#     4  12  20  44  72 106 142 192 246 280 372 456
#     4  12  25  42  64 101 140 180 241 299 355 441
#     4   9  19  40  67  93 129 174 222 281 352 414
#     4  11  25  41  67  99 138 183 238 292 362 418
#     4  10  20  40  67  96 131 184 234 287 357 429
#
# _framework density 23.219912000000001
#
# number of rings (size 3 to 8) (size 9 to 14) (size 15 to 20)
#    0.000    1.241    4.138    1.655    2.897    0.828 
#    0.000    0.000    0.000    1.655    0.000    0.000 
#    0.000    0.000    0.000    0.000    0.000    0.000 
#
# Total GULP energy -322962.026814 kJ/mol
# GULP energy per Si atom -5568.310807 kJ/mol
# Density = 2.316706 g / cm^3
# Si number density = 23.219912 Si / 1000 Ang^3
#
#
#
# Elastic Constant Matrix: (Units=GPa)
#
#
# Indices 1 2 3 4 5 6 
#
# 1 61.8271 13.8072 3.2454 0.0000 0.0000 0.0000
# 2 13.8072 130.3036 44.8302 0.0000 0.0000 0.0000
# 3 3.2454 44.8302 155.9881 0.0000 0.0000 0.0000
# 4 0.0000 0.0000 0.0000 30.7813 0.0000 0.0000
# 5 0.0000 0.0000 0.0000 0.0000 347.9904 0.0000
# 6 0.0000 0.0000 0.0000 0.0000 0.0000 22.4743
#
#
#
# Elastic Compliance Matrix: (Units=1/GPa)
#
#
# Indices 1 2 3 4 5 6 
#
# 1 0.016571 -0.001817 0.000177 0.000000 0.000000 0.000000
# 2 -0.001817 0.008716 -0.002467 0.000000 0.000000 0.000000
# 3 0.000177 -0.002467 0.007116 0.000000 0.000000 0.000000
# 4 0.000000 0.000000 0.000000 0.032487 0.000000 0.000000
# 5 0.000000 0.000000 0.000000 0.000000 0.002874 0.000000
# 6 0.000000 0.000000 0.000000 0.000000 0.000000 0.044495
#
#
# Mechanical properties :
#
#
# Convention : Reuss Voigt Hill
#
# Bulk Modulus (GPa) = 41.34062 52.43159 46.88610
# Shear Modulus (GPa) = 38.90006 99.33162 69.11584
#
# Velocity S-wave (km/s) = 4.09747 6.54763 5.46172
# Velocity P-wave (km/s) = 6.34258 8.93261 7.74660
#
# Compressibility (1/GPa) = 0.02418929
#
# Stress axis : x y z
#
# Youngs Moduli (GPa) = 60.34796 114.73587 140.52706
#
# Poissons Ratio (x) = 0.20846 -0.02493
# Poissons Ratio (y) = 0.10964 0.34669
# Poissons Ratio (z) = -0.01071 0.28306
#
# Static dielectric constant tensor:
#      x y z
#    x 2.119550 0.000000 0.000000 
#    y 0.000000 1.859860 0.000000 
#    z 0.000000 0.000000 2.011090 
# 
# From -- ./inp_files/27294.got.cif
#   From: 2010.05.17/outbox.cif.g08.bks.cpg/sg58_14_cif.got.tgz:27294.got - 2010.06.03 14:20:14.
