data_PCOD9444827
_publ_section_title
;
Structure prediction by ZEFSAII (Michael W. Deem and Ramdas Pophale) SiO2 
 PCOD9444827
Probable space group: P N N M
;
_chemical_formula_sum "Si O2"
_cell_formula_units_Z 40
_cell_length_a 12.625867
_cell_length_b 9.790594
_cell_length_c 15.323750
_cell_angle_alpha 90.000000
_cell_angle_beta 90.000000
_cell_angle_gamma 90.000000
_cell_volume 1894.241337
_symmetry_space_group_name_H-M "P N N M"
_symmetry_group_IT_number 58
_symmetry_cell_setting 'orthorhombic'
loop_
_space_group_symop_operation_xyz
x,y,z
-x,-y,z
1/2+x,1/2-y,1/2-z
1/2-x,1/2+y,1/2-z
-x,-y,-z
x,y,-z
1/2-x,1/2+y,1/2+z
1/2+x,1/2-y,1/2+z
loop_
_atom_site_type_symbol
_atom_site_label
_atom_site_fract_x
_atom_site_fract_y
_atom_site_fract_z
Si Si1 0.423548 0.133048 0.407442
Si Si2 0.024402 0.662566 0.716285
Si Si3 0.898822 0.918522 0.243210
Si Si4 0.232352 0.666079 0.399447
Si Si5 0.712443 0.531040 0.906792
O O1 0.445124 0.206695 0.500000
O O2 0.436407 0.200576 0.313908
O O3 0.303481 0.081206 0.407792
O O4 0.500000 0.000000 0.407336
O O5 0.114878 0.675530 0.642835
O O6 0.000000 0.500000 0.716560
O O7 0.928347 0.771250 0.712263
O O8 0.809880 0.906733 0.168719
O O9 0.858002 0.009404 0.323254
O O10 0.000000 0.000000 0.207938
O O11 0.230666 0.615327 0.500000
O O12 0.270145 0.823172 0.401941
O O13 0.654071 0.528472 0.000000
#
# Coordination Sequence:
#
# PCOD9444827 Si02
#       5
#     8   8   8   8   8
#     4   9  17  34  63  93 119 159 214 265 318 385
#     4  11  23  40  68  93 133 176 222 274 336 396
#     4  12  25  41  70 101 130 172 227 274 323 396
#     4  11  24  43  66  96 139 177 214 273 343 395
#     4  10  21  41  68  96 127 171 224 270 319 393
#
# _framework density 21.116633
#
# number of rings (size 3 to 8) (size 9 to 14) (size 15 to 20)
#    0.000    1.400    4.000    2.400    0.000    4.400 
#    0.000    0.000    0.000    0.000    0.000    0.000 
#    0.000    0.000    0.000    0.000    0.000    0.000 
#
# Total GULP energy -222902.656340 kJ/mol
# GULP energy per Si atom -5572.566409 kJ/mol
# Density = 2.106857 g / cm^3
# Si number density = 21.116633 Si / 1000 Ang^3
#
#
#
# Elastic Constant Matrix: (Units=GPa)
#
#
# Indices 1 2 3 4 5 6 
#
# 1 37.4518 -7.4242 30.5012 0.0000 0.0000 0.0000
# 2 -7.4242 56.6621 10.3944 0.0000 0.0000 0.0000
# 3 30.5012 10.3944 167.3504 0.0000 0.0000 0.0000
# 4 0.0000 0.0000 0.0000 29.6944 0.0000 0.0000
# 5 0.0000 0.0000 0.0000 0.0000 49.4741 0.0000
# 6 0.0000 0.0000 0.0000 0.0000 0.0000 23.3325
#
#
#
# Elastic Compliance Matrix: (Units=1/GPa)
#
#
# Indices 1 2 3 4 5 6 
#
# 1 0.032957 0.005483 -0.006347 0.000000 0.000000 0.000000
# 2 0.005483 0.018764 -0.002165 0.000000 0.000000 0.000000
# 3 -0.006347 -0.002165 0.007267 0.000000 0.000000 0.000000
# 4 0.000000 0.000000 0.000000 0.033676 0.000000 0.000000
# 5 0.000000 0.000000 0.000000 0.000000 0.020213 0.000000
# 6 0.000000 0.000000 0.000000 0.000000 0.000000 0.042859
#
#
# Mechanical properties :
#
#
# Convention : Reuss Voigt Hill
#
# Bulk Modulus (GPa) = 18.89321 36.48969 27.69145
# Shear Modulus (GPa) = 27.86487 35.69971 31.78229
#
# Velocity S-wave (km/s) = 3.63653 4.11615 3.88375
# Velocity P-wave (km/s) = 5.15742 6.31726 5.76657
#
# Compressibility (1/GPa) = 0.05292906
#
# Stress axis : x y z
#
# Youngs Moduli (GPa) = 30.34244 53.29372 137.61230
#
# Poissons Ratio (x) = -0.29219 0.87346
# Poissons Ratio (y) = -0.16636 0.29789
# Poissons Ratio (z) = 0.19259 0.11537
#
# Static dielectric constant tensor:
#      x y z
#    x 1.815360 0.000000 0.000000 
#    y 0.000000 1.903670 0.000000 
#    z 0.000000 0.000000 1.820820 
# 
# From -- ./inp_files/21882.got.cif
#   From: 2010.05.17/outbox.cif.g08.bks.cpg/sg58_11_cif.got.tgz:21882.got - 2010.06.03 14:20:14.
