data_PCOD9444235
_publ_section_title
;
Structure prediction by ZEFSAII (Michael W. Deem and Ramdas Pophale) SiO2 
 PCOD9444235
Probable space group: P N N M
;
_chemical_formula_sum "Si O2"
_cell_formula_units_Z 58
_cell_length_a 29.783406
_cell_length_b 11.911662
_cell_length_c 7.464665
_cell_angle_alpha 90.000000
_cell_angle_beta 90.000000
_cell_angle_gamma 90.000000
_cell_volume 2648.238198
_symmetry_space_group_name_H-M "P N N M"
_symmetry_group_IT_number 58
_symmetry_cell_setting 'orthorhombic'
loop_
_space_group_symop_operation_xyz
x,y,z
-x,-y,z
1/2+x,1/2-y,1/2-z
1/2-x,1/2+y,1/2-z
-x,-y,-z
x,y,-z
1/2-x,1/2+y,1/2+z
1/2+x,1/2-y,1/2+z
loop_
_atom_site_type_symbol
_atom_site_label
_atom_site_fract_x
_atom_site_fract_y
_atom_site_fract_z
Si Si1 0.843890 0.902885 0.716469
Si Si2 0.500000 0.500000 0.500000
Si Si3 0.709772 0.183881 0.711538
Si Si4 0.066679 0.215804 0.294348
Si Si5 0.031960 0.849201 0.283593
Si Si6 0.810376 0.146335 0.280199
Si Si7 0.386282 0.185580 0.784966
Si Si8 0.880518 0.573749 0.208739
O O1 0.846504 0.904840 0.500000
O O2 0.805675 0.812322 0.763876
O O3 0.891113 0.852269 0.784314
O O4 0.831541 0.027515 0.775810
O O5 0.535115 0.541995 0.339710
O O6 0.712422 0.160020 0.500000
O O7 0.759254 0.159681 0.782966
O O8 0.668355 0.109514 0.784003
O O9 0.062807 0.179240 0.500000
O O10 0.081947 0.345427 0.291130
O O11 0.016853 0.198300 0.221142
O O12 0.033720 0.870142 0.500000
O O13 0.070367 0.759911 0.239429
O O14 0.810420 0.146975 0.500000
O O15 0.842080 0.248484 0.221763
O O16 0.388688 0.057609 0.724980
O O17 0.384507 0.182282 0.000000
O O18 0.880549 0.603997 0.000000
#
# Coordination Sequence:
#
# PCOD9444235 Si02
#       8
#     8   2   8   8   8   8   8   8
#     4   9  18  34  58  82 107 145 195 243 293 356
#     4  12  26  40  68  92 132 172 202 260 306 386
#     4   9  19  36  54  81 114 153 194 244 305 363
#     4   9  19  38  62  87 115 157 207 251 297 366
#     4  10  24  43  65  95 127 166 214 258 316 372
#     4   9  19  35  57  80 113 155 196 242 305 367
#     4  10  22  40  60  86 119 159 202 252 308 375
#     4  10  21  36  59  86 123 156 198 257 312 368
#
# _framework density 21.901354999999999
#
# number of rings (size 3 to 8) (size 9 to 14) (size 15 to 20)
#    0.000    2.483    0.000    0.621    5.793    1.103 
#    0.000    4.138    0.000    0.000    0.000    0.000 
#    0.000    0.000    0.000    0.000    0.000    0.000 
#
# Total GULP energy -323350.703285 kJ/mol
# GULP energy per Si atom -5575.012126 kJ/mol
# Density = 2.185151 g / cm^3
# Si number density = 21.901355 Si / 1000 Ang^3
#
#
#
# Elastic Constant Matrix: (Units=GPa)
#
#
# Indices 1 2 3 4 5 6 
#
# 1 110.5465 35.0100 14.5474 0.0000 0.0000 0.0000
# 2 35.0100 93.3437 -3.5968 0.0000 0.0000 0.0000
# 3 14.5474 -3.5968 72.9682 0.0000 0.0000 0.0000
# 4 0.0000 0.0000 0.0000 39.2462 0.0000 0.0000
# 5 0.0000 0.0000 0.0000 0.0000 5.7607 0.0000
# 6 0.0000 0.0000 0.0000 0.0000 0.0000 24.7783
#
#
#
# Elastic Compliance Matrix: (Units=1/GPa)
#
#
# Indices 1 2 3 4 5 6 
#
# 1 0.010644 -0.004082 -0.002323 0.000000 0.000000 0.000000
# 2 -0.004082 0.012299 0.001420 0.000000 0.000000 0.000000
# 3 -0.002323 0.001420 0.014238 0.000000 0.000000 0.000000
# 4 0.000000 0.000000 0.000000 0.025480 0.000000 0.000000
# 5 0.000000 0.000000 0.000000 0.000000 0.173591 0.000000
# 6 0.000000 0.000000 0.000000 0.000000 0.000000 0.040358
#
#
# Mechanical properties :
#
#
# Convention : Reuss Voigt Hill
#
# Bulk Modulus (GPa) = 36.75037 40.97551 38.86294
# Shear Modulus (GPa) = 16.91183 29.35022 23.13103
#
# Velocity S-wave (km/s) = 2.78183 3.66472 3.25337
# Velocity P-wave (km/s) = 5.20908 6.05447 5.64762
#
# Compressibility (1/GPa) = 0.02721061
#
# Stress axis : x y z
#
# Youngs Moduli (GPa) = 93.94580 81.30879 70.23564
#
# Poissons Ratio (x) = 0.33189 0.16318
# Poissons Ratio (y) = 0.38348 -0.09974
# Poissons Ratio (z) = 0.21827 -0.11546
#
# Static dielectric constant tensor:
#      x y z
#    x 1.810470 0.000000 0.000000 
#    y 0.000000 1.798910 0.000000 
#    z 0.000000 0.000000 1.842050 
# 
# From -- ./inp_files/4571.got.cif
#   From: 2010.05.17/outbox.cif.g08.bks.cpg/sg58_3_cif.got.tgz:4571.got - 2010.06.03 14:20:14.
