data_PCOD9444348
_publ_section_title
;
Structure prediction by ZEFSAII (Michael W. Deem and Ramdas Pophale) SiO2 
 PCOD9444348
Probable space group: P N N M
;
_chemical_formula_sum "Si O2"
_cell_formula_units_Z 48
_cell_length_a 10.818637
_cell_length_b 11.911309
_cell_length_c 17.616632
_cell_angle_alpha 90.000000
_cell_angle_beta 90.000000
_cell_angle_gamma 90.000000
_cell_volume 2270.151926
_symmetry_space_group_name_H-M "P N N M"
_symmetry_group_IT_number 58
_symmetry_cell_setting 'orthorhombic'
loop_
_space_group_symop_operation_xyz
x,y,z
-x,-y,z
1/2+x,1/2-y,1/2-z
1/2-x,1/2+y,1/2-z
-x,-y,-z
x,y,-z
1/2-x,1/2+y,1/2+z
1/2+x,1/2-y,1/2+z
loop_
_atom_site_type_symbol
_atom_site_label
_atom_site_fract_x
_atom_site_fract_y
_atom_site_fract_z
Si Si1 0.891245 0.832213 0.655387
Si Si2 0.828566 0.152509 0.325888
Si Si3 0.024880 0.740005 0.087286
Si Si4 0.806486 0.869766 0.172418
Si Si5 0.739476 0.622594 0.651422
Si Si6 0.819929 0.468497 0.087677
O O1 0.840797 0.873784 0.737962
O O2 0.863757 0.698148 0.652040
O O3 0.802940 0.891929 0.595181
O O4 0.032324 0.868680 0.647895
O O5 0.802842 0.282537 0.339733
O O6 0.817466 0.137173 0.235778
O O7 0.722004 0.077495 0.365204
O O8 0.146931 0.816351 0.094179
O O9 0.069799 0.615623 0.114767
O O10 0.923176 0.808875 0.133457
O O11 0.986935 0.729274 0.000000
O O12 0.766160 0.989762 0.140479
O O13 0.843107 0.496071 0.000000
#
# Coordination Sequence:
#
# PCOD9444348 Si02
#       6
#     8   8   8   8   8   8
#     4  10  21  37  58  87 121 158 203 250 300 365
#     4  11  22  36  59  88 120 161 203 246 305 368
#     4  10  22  40  62  89 120 157 202 252 305 361
#     4  11  22  36  59  88 120 161 203 246 305 368
#     4  10  21  37  58  87 121 158 203 250 300 365
#     4  10  22  40  62  89 120 157 202 252 305 361
#
# _framework density 21.14396
#
# number of rings (size 3 to 8) (size 9 to 14) (size 15 to 20)
#    0.000    1.667    3.333    1.000    0.000    4.667 
#    0.000    5.000    0.000    0.000    0.000    7.000 
#    0.000    0.000    0.000    0.000    0.000    0.000 
#
# Total GULP energy -267827.820423 kJ/mol
# GULP energy per Si atom -5579.746259 kJ/mol
# Density = 2.109584 g / cm^3
# Si number density = 21.143960 Si / 1000 Ang^3
#
#
#
# Elastic Constant Matrix: (Units=GPa)
#
#
# Indices 1 2 3 4 5 6 
#
# 1 68.6896 22.9856 9.7509 0.0000 0.0000 0.0000
# 2 22.9856 168.2968 12.2538 0.0000 0.0000 0.0000
# 3 9.7509 12.2538 59.9473 0.0000 0.0000 0.0000
# 4 0.0000 0.0000 0.0000 -109.5370 0.0000 0.0000
# 5 0.0000 0.0000 0.0000 0.0000 -24.6621 0.0000
# 6 0.0000 0.0000 0.0000 0.0000 0.0000 28.8696
#
#
#
# Elastic Compliance Matrix: (Units=1/GPa)
#
#
# Indices 1 2 3 4 5 6 
#
# 1 0.015517 -0.001965 -0.002122 0.000000 0.000000 0.000000
# 2 -0.001965 0.006280 -0.000964 0.000000 0.000000 0.000000
# 3 -0.002122 -0.000964 0.017224 0.000000 0.000000 0.000000
# 4 0.000000 0.000000 0.000000 -0.009129 0.000000 0.000000
# 5 0.000000 0.000000 0.000000 0.000000 -0.040548 0.000000
# 6 0.000000 0.000000 0.000000 0.000000 0.000000 0.034639
#
#
# Mechanical properties :
#
#
# Convention : Reuss Voigt Hill
#
# Bulk Modulus (GPa) = 34.57999 42.99047 38.78523
# Shear Modulus (GPa) = 114.35284 -4.26968 55.04158
#
# Velocity S-wave (km/s) = 7.36209 -1.42258 5.10767
# Velocity P-wave (km/s) = 9.41580 4.20453 7.29162
#
# Compressibility (1/GPa) = 0.02891846
#
# Stress axis : x y z
#
# Youngs Moduli (GPa) = 64.44551 159.22484 58.05982
#
# Poissons Ratio (x) = 0.31284 0.12322
# Poissons Ratio (y) = 0.12662 0.05598
# Poissons Ratio (z) = 0.13678 0.15352
#
# Static dielectric constant tensor:
#      x y z
#    x 1.770490 0.000000 0.000000 
#    y 0.000000 1.817180 0.000000 
#    z 0.000000 0.000000 1.713860 
# 
# From -- ./inp_files/26155.got.cif
#   From: 2010.05.17/outbox.cif.g08.bks.cpg/sg58_14_cif.got.tgz:26155.got - 2010.06.03 14:20:14.
