data_PCOD9444314
_publ_section_title
;
Structure prediction by ZEFSAII (Michael W. Deem and Ramdas Pophale) SiO2 
 PCOD9444314
Probable space group: P N N M
;
_chemical_formula_sum "Si O2"
_cell_formula_units_Z 64
_cell_length_a 21.876589
_cell_length_b 10.156660
_cell_length_c 14.637057
_cell_angle_alpha 90.000000
_cell_angle_beta 90.000000
_cell_angle_gamma 90.000000
_cell_volume 3252.252725
_symmetry_space_group_name_H-M "P N N M"
_symmetry_group_IT_number 58
_symmetry_cell_setting 'orthorhombic'
loop_
_space_group_symop_operation_xyz
x,y,z
-x,-y,z
1/2+x,1/2-y,1/2-z
1/2-x,1/2+y,1/2-z
-x,-y,-z
x,y,-z
1/2-x,1/2+y,1/2+z
1/2+x,1/2-y,1/2+z
loop_
_atom_site_type_symbol
_atom_site_label
_atom_site_fract_x
_atom_site_fract_y
_atom_site_fract_z
Si Si1 0.662855 0.566256 0.776567
Si Si2 0.820476 0.353521 0.721971
Si Si3 0.955497 0.891838 0.763422
Si Si4 0.097523 0.495511 0.398338
Si Si5 0.286308 0.554672 0.602653
Si Si6 0.781312 0.498570 0.107997
Si Si7 0.885379 0.721983 0.101074
Si Si8 0.497847 0.771294 0.898847
O O1 0.643709 0.717482 0.787003
O O2 0.606188 0.465527 0.772047
O O3 0.698230 0.553363 0.679111
O O4 0.714356 0.537985 0.853215
O O5 0.857276 0.478334 0.683894
O O6 0.763878 0.353038 0.651570
O O7 0.800376 0.379920 0.825068
O O8 0.935733 0.765992 0.825077
O O9 0.994185 0.835805 0.678963
O O10 0.000000 0.000000 0.810690
O O11 0.125360 0.508133 0.500000
O O12 0.064734 0.355847 0.393610
O O13 0.048251 0.613606 0.391304
O O14 0.269834 0.511264 0.500000
O O15 0.345919 0.644687 0.594587
O O16 0.834741 0.609224 0.121049
O O17 0.778342 0.471122 0.000000
O O18 0.911435 0.692339 0.000000
O O19 0.504119 0.712783 0.000000
#
# Coordination Sequence:
#
# PCOD9444314 Si02
#       8
#     8   8   8   8   8   8   8   8
#     4  10  22  35  54  81 115 151 192 235 289 349
#     4  11  19  32  55  81 106 139 185 237 282 341
#     4  11  22  36  56  85 119 155 192 235 292 347
#     4   9  18  33  56  81 105 145 192 232 276 334
#     4   9  18  33  52  73 103 139 179 229 283 337
#     4  10  21  37  57  82 113 151 193 242 299 346
#     4   9  18  36  58  77 105 147 191 237 286 343
#     4   9  19  36  53  76 114 150 186 229 277 336
#
# _framework density 19.678667999999998
#
# number of rings (size 3 to 8) (size 9 to 14) (size 15 to 20)
#    0.000    2.250    1.250    2.625    0.000    2.000 
#    0.000    0.000    0.000    2.250    0.000    8.750 
#    0.000    0.000    0.000    0.000    0.000    0.000 
#
# Total GULP energy -356290.638712 kJ/mol
# GULP energy per Si atom -5567.041230 kJ/mol
# Density = 1.963388 g / cm^3
# Si number density = 19.678668 Si / 1000 Ang^3
#
#
#
# Elastic Constant Matrix: (Units=GPa)
#
#
# Indices 1 2 3 4 5 6 
#
# 1 40.0189 -1.5844 21.7309 0.0000 0.0000 0.0000
# 2 -1.5844 28.1386 7.8293 0.0000 0.0000 0.0000
# 3 21.7309 7.8293 126.8418 0.0000 0.0000 0.0000
# 4 0.0000 0.0000 0.0000 16.2592 0.0000 0.0000
# 5 0.0000 0.0000 0.0000 0.0000 13.6326 0.0000
# 6 0.0000 0.0000 0.0000 0.0000 0.0000 23.5469
#
#
#
# Elastic Compliance Matrix: (Units=1/GPa)
#
#
# Indices 1 2 3 4 5 6 
#
# 1 0.027788 0.002940 -0.004942 0.000000 0.000000 0.000000
# 2 0.002940 0.036470 -0.002755 0.000000 0.000000 0.000000
# 3 -0.004942 -0.002755 0.008901 0.000000 0.000000 0.000000
# 4 0.000000 0.000000 0.000000 0.061504 0.000000 0.000000
# 5 0.000000 0.000000 0.000000 0.000000 0.073353 0.000000
# 6 0.000000 0.000000 0.000000 0.000000 0.000000 0.042468
#
#
# Mechanical properties :
#
#
# Convention : Reuss Voigt Hill
#
# Bulk Modulus (GPa) = 15.71219 27.88344 21.79781
# Shear Modulus (GPa) = 17.78004 21.82265 19.80134
#
# Velocity S-wave (km/s) = 3.00912 3.33370 3.17556
# Velocity P-wave (km/s) = 4.48049 5.38686 4.95444
#
# Compressibility (1/GPa) = 0.06364487
#
# Stress axis : x y z
#
# Youngs Moduli (GPa) = 35.98643 27.41948 112.35212
#
# Poissons Ratio (x) = -0.08061 0.55527
# Poissons Ratio (y) = -0.10579 0.30951
# Poissons Ratio (z) = 0.17785 0.07554
#
# Static dielectric constant tensor:
#      x y z
#    x 1.728750 0.000000 0.000000 
#    y 0.000000 1.686680 0.000000 
#    z 0.000000 0.000000 1.720200 
# 
# From -- ./inp_files/23546.got.cif
#   From: 2010.05.17/outbox.cif.g08.bks.cpg/sg58_12_cif.got.tgz:23546.got - 2010.06.03 14:20:14.
