data_PCOD9444361
_publ_section_title
;
Structure prediction by ZEFSAII (Michael W. Deem and Ramdas Pophale) SiO2 
 PCOD9444361
Probable space group: P N N M
;
_chemical_formula_sum "Si O2"
_cell_formula_units_Z 56
_cell_length_a 14.460633
_cell_length_b 9.405798
_cell_length_c 20.209819
_cell_angle_alpha 90.000000
_cell_angle_beta 90.000000
_cell_angle_gamma 90.000000
_cell_volume 2748.814137
_symmetry_space_group_name_H-M "P N N M"
_symmetry_group_IT_number 58
_symmetry_cell_setting 'orthorhombic'
loop_
_space_group_symop_operation_xyz
x,y,z
-x,-y,z
1/2+x,1/2-y,1/2-z
1/2-x,1/2+y,1/2-z
-x,-y,-z
x,y,-z
1/2-x,1/2+y,1/2+z
1/2+x,1/2-y,1/2+z
loop_
_atom_site_type_symbol
_atom_site_label
_atom_site_fract_x
_atom_site_fract_y
_atom_site_fract_z
Si Si1 0.923606 0.603627 0.923159
Si Si2 0.105880 0.549965 0.730821
Si Si3 0.831491 0.875983 0.919972
Si Si4 0.149224 0.791560 0.371313
Si Si5 0.525259 0.662100 0.000000
Si Si6 0.596532 0.085050 0.000000
Si Si7 0.779046 0.614653 0.375054
Si Si8 0.233569 0.559223 0.860022
O O1 0.910305 0.764128 0.896753
O O2 0.828397 0.516370 0.916279
O O3 0.000000 0.500000 0.893038
O O4 0.946391 0.623533 0.000000
O O5 0.108782 0.694492 0.687274
O O6 0.165195 0.433452 0.689586
O O7 0.164603 0.568858 0.797514
O O8 0.000000 0.500000 0.738602
O O9 0.739597 0.790988 0.898036
O O10 0.817056 0.028099 0.885304
O O11 0.836455 0.891188 0.000000
O O12 0.081484 0.802033 0.433685
O O13 0.182874 0.947907 0.348498
O O14 0.500000 0.500000 0.000000
O O15 0.432476 0.751954 0.000000
O O16 0.657313 0.060808 0.064352
O O17 0.500000 0.000000 0.000000
O O18 0.765260 0.782822 0.377465
#
# Coordination Sequence:
#
# PCOD9444361 Si02
#       8
#     8   8   8   8   4   4   8   8
#     4   9  19  35  59  85 115 157 207 256 307 358
#     4  11  23  41  62  83 117 166 213 252 299 368
#     4   9  16  33  56  82 116 153 196 241 302 369
#     4  10  21  37  59  84 122 160 197 247 307 378
#     4  12  22  34  56  92 127 153 188 245 317 374
#     4  12  22  36  60  94 127 155 194 245 311 382
#     4  11  22  36  61  91 123 160 204 255 309 377
#     4  11  23  38  60  86 123 157 209 251 312 367
#
# _framework density 20.372422
#
# number of rings (size 3 to 8) (size 9 to 14) (size 15 to 20)
#    0.000    1.571    1.429    5.143    2.000    0.000 
#    0.000    0.714    0.000    6.000    0.000    0.000 
#    0.000    0.000    0.000    0.000    0.000    0.000 
#
# Total GULP energy -312413.426406 kJ/mol
# GULP energy per Si atom -5578.811186 kJ/mol
# Density = 2.032605 g / cm^3
# Si number density = 20.372422 Si / 1000 Ang^3
#
#
#
# Elastic Constant Matrix: (Units=GPa)
#
#
# Indices 1 2 3 4 5 6 
#
# 1 61.0763 34.2427 21.1073 0.0000 0.0000 0.0000
# 2 34.2427 161.1799 11.6124 0.0000 0.0000 0.0000
# 3 21.1073 11.6124 71.9411 0.0000 0.0000 0.0000
# 4 0.0000 0.0000 0.0000 19.8053 0.0000 0.0000
# 5 0.0000 0.0000 0.0000 0.0000 0.4062 0.0000
# 6 0.0000 0.0000 0.0000 0.0000 0.0000 33.4137
#
#
#
# Elastic Compliance Matrix: (Units=1/GPa)
#
#
# Indices 1 2 3 4 5 6 
#
# 1 0.020444 -0.003957 -0.005359 0.000000 0.000000 0.000000
# 2 -0.003957 0.007043 0.000024 0.000000 0.000000 0.000000
# 3 -0.005359 0.000024 0.015469 0.000000 0.000000 0.000000
# 4 0.000000 0.000000 0.000000 0.050492 0.000000 0.000000
# 5 0.000000 0.000000 0.000000 0.000000 2.462132 0.000000
# 6 0.000000 0.000000 0.000000 0.000000 0.000000 0.029928
#
#
# Mechanical properties :
#
#
# Convention : Reuss Voigt Hill
#
# Bulk Modulus (GPa) = 41.03251 47.56912 44.30082
# Shear Modulus (GPa) = 1.91408 25.87400 13.89404
#
# Velocity S-wave (km/s) = 0.97035 3.56764 2.61435
# Velocity P-wave (km/s) = 4.63038 6.35384 5.55930
#
# Compressibility (1/GPa) = 0.02437092
#
# Stress axis : x y z
#
# Youngs Moduli (GPa) = 48.91479 141.98074 64.64627
#
# Poissons Ratio (x) = 0.56184 0.34646
# Poissons Ratio (y) = 0.19356 -0.00156
# Poissons Ratio (z) = 0.26215 -0.00343
#
# Static dielectric constant tensor:
#      x y z
#    x 1.789440 0.000000 0.000000 
#    y 0.000000 1.762700 0.000000 
#    z 0.000000 0.000000 1.742640 
# 
# From -- ./inp_files/30052.got.cif
#   From: 2010.05.17/outbox.cif.g08.bks.cpg/sg58_16_cif.got.tgz:30052.got - 2010.06.03 14:20:14.
