data_PCOD9444570
_publ_section_title
;
Structure prediction by ZEFSAII (Michael W. Deem and Ramdas Pophale) SiO2 
 PCOD9444570
Probable space group: P N N M
;
_chemical_formula_sum "Si O2"
_cell_formula_units_Z 52
_cell_length_a 14.942346
_cell_length_b 20.159307
_cell_length_c 7.442628
_cell_angle_alpha 90.000000
_cell_angle_beta 90.000000
_cell_angle_gamma 90.000000
_cell_volume 2241.923037
_symmetry_space_group_name_H-M "P N N M"
_symmetry_group_IT_number 58
_symmetry_cell_setting 'orthorhombic'
loop_
_space_group_symop_operation_xyz
x,y,z
-x,-y,z
1/2+x,1/2-y,1/2-z
1/2-x,1/2+y,1/2-z
-x,-y,-z
x,y,-z
1/2-x,1/2+y,1/2+z
1/2+x,1/2-y,1/2+z
loop_
_atom_site_type_symbol
_atom_site_label
_atom_site_fract_x
_atom_site_fract_y
_atom_site_fract_z
Si Si1 0.045990 0.265241 0.791443
Si Si2 0.269015 0.089478 0.214215
Si Si3 0.241081 0.240187 0.220290
Si Si4 0.475125 0.095927 0.713000
Si Si5 0.125277 0.435521 0.500000
Si Si6 0.902486 0.165006 0.714538
Si Si7 0.281963 0.450367 0.205206
O O1 0.983718 0.325760 0.730422
O O2 0.996150 0.195373 0.775624
O O3 0.145273 0.266577 0.712392
O O4 0.059067 0.278102 0.000000
O O5 0.250136 0.163835 0.277714
O O6 0.373261 0.074966 0.253122
O O7 0.210274 0.029906 0.290983
O O8 0.258106 0.087723 0.000000
O O9 0.323196 0.285855 0.279426
O O10 0.241975 0.240401 0.000000
O O11 0.493458 0.087033 0.500000
O O12 0.547540 0.063831 0.841877
O O13 0.203713 0.433257 0.343020
O O14 0.905984 0.170250 0.500000
O O15 0.870228 0.091115 0.758154
O O16 0.258816 0.429768 0.000000
#
# Coordination Sequence:
#
# PCOD9444570 Si02
#       7
#     8   8   8   8   4   8   8
#     4  10  21  38  63  98 131 168 217 271 328 385
#     4  11  21  41  66  90 127 177 216 260 332 392
#     4   9  19  38  65  92 124 166 218 269 321 385
#     4  11  23  39  63  98 135 168 214 270 328 394
#     4  12  24  41  66  92 127 174 218 264 324 394
#     4  10  21  41  65  92 128 168 211 274 328 376
#     4  11  25  43  64  93 132 173 218 269 325 389
#
# _framework density 23.194372000000001
#
# number of rings (size 3 to 8) (size 9 to 14) (size 15 to 20)
#    0.000    1.538    3.077    1.846    2.154    3.692 
#    0.000    3.846    0.000    4.615    0.000    0.000 
#    0.000    0.000    0.000    0.000    0.000    0.000 
#
# Total GULP energy -289697.784326 kJ/mol
# GULP energy per Si atom -5571.111237 kJ/mol
# Density = 2.314158 g / cm^3
# Si number density = 23.194372 Si / 1000 Ang^3
#
#
#
# Elastic Constant Matrix: (Units=GPa)
#
#
# Indices 1 2 3 4 5 6 
#
# 1 13.5718 -21.1968 -17.6289 0.0000 0.0000 0.0000
# 2 -21.1968 59.0049 -1.0308 0.0000 0.0000 0.0000
# 3 -17.6289 -1.0308 92.9508 0.0000 0.0000 0.0000
# 4 0.0000 0.0000 0.0000 16.7103 0.0000 0.0000
# 5 0.0000 0.0000 0.0000 0.0000 18.6611 0.0000
# 6 0.0000 0.0000 0.0000 0.0000 0.0000 25.0411
#
#
#
# Elastic Compliance Matrix: (Units=1/GPa)
#
#
# Indices 1 2 3 4 5 6 
#
# 1 0.404693 0.146751 0.078381 0.000000 0.000000 0.000000
# 2 0.146751 0.070166 0.028611 0.000000 0.000000 0.000000
# 3 0.078381 0.028611 0.025941 0.000000 0.000000 0.000000
# 4 0.000000 0.000000 0.000000 0.059843 0.000000 0.000000
# 5 0.000000 0.000000 0.000000 0.000000 0.053587 0.000000
# 6 0.000000 0.000000 0.000000 0.000000 0.000000 0.039934
#
#
# Mechanical properties :
#
#
# Convention : Reuss Voigt Hill
#
# Bulk Modulus (GPa) = 0.99178 9.53493 5.26335
# Shear Modulus (GPa) = 10.35678 25.77478 18.06578
#
# Velocity S-wave (km/s) = 2.11540 3.33716 2.79388
# Velocity P-wave (km/s) = 2.52885 4.35530 3.56116
#
# Compressibility (1/GPa) = 1.00828553
#
# Stress axis : x y z
#
# Youngs Moduli (GPa) = 2.47101 14.25189 38.54857
#
# Poissons Ratio (x) = -2.09148 -3.02148
# Poissons Ratio (y) = -0.36262 -1.10290
# Poissons Ratio (z) = -0.19368 -0.40776
#
# Static dielectric constant tensor:
#      x y z
#    x 1.809780 0.000000 0.000000 
#    y 0.000000 1.995820 0.000000 
#    z 0.000000 0.000000 1.870350 
# 
# From -- ./inp_files/6193.got.cif
#   From: 2010.05.17/outbox.cif.g08.bks.cpg/sg58_4_cif.got.tgz:6193.got - 2010.06.03 14:20:14.
