data_PCOD9444517
_publ_section_title
;
Structure prediction by ZEFSAII (Michael W. Deem and Ramdas Pophale) SiO2 
 PCOD9444517
Probable space group: P N N M
;
_chemical_formula_sum "Si O2"
_cell_formula_units_Z 64
_cell_length_a 31.358833
_cell_length_b 12.335399
_cell_length_c 7.758735
_cell_angle_alpha 90.000000
_cell_angle_beta 90.000000
_cell_angle_gamma 90.000000
_cell_volume 3001.262714
_symmetry_space_group_name_H-M "P N N M"
_symmetry_group_IT_number 58
_symmetry_cell_setting 'orthorhombic'
loop_
_space_group_symop_operation_xyz
x,y,z
-x,-y,z
1/2+x,1/2-y,1/2-z
1/2-x,1/2+y,1/2-z
-x,-y,-z
x,y,-z
1/2-x,1/2+y,1/2+z
1/2+x,1/2-y,1/2+z
loop_
_atom_site_type_symbol
_atom_site_label
_atom_site_fract_x
_atom_site_fract_y
_atom_site_fract_z
Si Si1 0.209688 0.943923 0.208786
Si Si2 0.545355 0.531916 0.197741
Si Si3 0.194693 0.493705 0.291352
Si Si4 0.618957 0.167533 0.294859
Si Si5 0.450641 0.003399 0.710712
Si Si6 0.334851 0.230502 0.796397
Si Si7 0.869198 0.910612 0.203021
Si Si8 0.927698 0.257715 0.803140
O O1 0.256771 0.977383 0.266810
O O2 0.171270 0.021661 0.273178
O O3 0.200218 0.821604 0.265557
O O4 0.209117 0.946547 0.000000
O O5 0.500000 0.500000 0.277664
O O6 0.587185 0.478330 0.279387
O O7 0.549357 0.661428 0.205140
O O8 0.545527 0.494567 0.000000
O O9 0.194603 0.492904 0.500000
O O10 0.161900 0.401729 0.232016
O O11 0.178461 0.611745 0.234887
O O12 0.611596 0.177926 0.500000
O O13 0.624064 0.289342 0.224150
O O14 0.579492 0.094481 0.227112
O O15 0.449158 0.000942 0.500000
O O16 0.433023 0.120700 0.765555
O O17 0.500000 0.000000 0.762085
O O18 0.377639 0.267069 0.702292
O O19 0.344199 0.225163 0.000000
O O20 0.860309 0.897274 0.000000
O O21 0.943359 0.255963 0.000000
#
# Coordination Sequence:
#
# PCOD9444517 Si02
#       8
#     8   8   8   8   8   8   8   8
#     4  10  22  40  59  85 118 155 199 245 292 344
#     4  11  25  42  60  86 122 158 196 243 295 352
#     4  10  23  40  59  86 122 158 194 242 298 355
#     4  10  21  38  61  87 118 156 198 242 292 349
#     4   9  19  35  57  88 120 150 193 247 293 340
#     4  11  22  38  62  88 118 155 196 244 300 352
#     4  10  22  39  62  87 116 154 199 247 292 346
#     4  11  21  37  64  90 117 153 198 248 293 347
#
# _framework density 21.324358
#
# number of rings (size 3 to 8) (size 9 to 14) (size 15 to 20)
#    0.000    1.750    2.500    1.125    3.500    2.500 
#    0.000    0.000    0.000    1.875    0.000    0.000 
#    0.000    0.000    0.000    0.000    0.000    0.000 
#
# Total GULP energy -357514.701735 kJ/mol
# GULP energy per Si atom -5586.167215 kJ/mol
# Density = 2.127582 g / cm^3
# Si number density = 21.324358 Si / 1000 Ang^3
#
#
#
# Elastic Constant Matrix: (Units=GPa)
#
#
# Indices 1 2 3 4 5 6 
#
# 1 96.6016 24.6663 -4.1261 0.0000 0.0000 0.0000
# 2 24.6663 121.2862 2.6557 0.0000 0.0000 0.0000
# 3 -4.1261 2.6557 29.9970 0.0000 0.0000 0.0000
# 4 0.0000 0.0000 0.0000 -76.5442 0.0000 0.0000
# 5 0.0000 0.0000 0.0000 0.0000 -14.7947 0.0000
# 6 0.0000 0.0000 0.0000 0.0000 0.0000 34.5972
#
#
#
# Elastic Compliance Matrix: (Units=1/GPa)
#
#
# Indices 1 2 3 4 5 6 
#
# 1 0.011006 -0.002276 0.001715 0.000000 0.000000 0.000000
# 2 -0.002276 0.008732 -0.001086 0.000000 0.000000 0.000000
# 3 0.001715 -0.001086 0.033669 0.000000 0.000000 0.000000
# 4 0.000000 0.000000 0.000000 -0.013064 0.000000 0.000000
# 5 0.000000 0.000000 0.000000 0.000000 -0.067592 0.000000
# 6 0.000000 0.000000 0.000000 0.000000 0.000000 0.028904
#
#
# Mechanical properties :
#
#
# Convention : Reuss Voigt Hill
#
# Bulk Modulus (GPa) = 19.95479 32.69743 26.32611
# Shear Modulus (GPa) = 230.92373 3.63092 117.27733
#
# Velocity S-wave (km/s) = 10.41759 1.30630 7.42403
# Velocity P-wave (km/s) = 12.41288 4.20022 9.26611
#
# Compressibility (1/GPa) = 0.05011328
#
# Stress axis : x y z
#
# Youngs Moduli (GPa) = 90.85792 114.52653 29.70115
#
# Poissons Ratio (x) = 0.26065 -0.05095
# Poissons Ratio (y) = 0.20679 0.03226
# Poissons Ratio (z) = -0.15586 0.12439
#
# Static dielectric constant tensor:
#      x y z
#    x 1.760670 0.000000 0.000000 
#    y 0.000000 1.758010 0.000000 
#    z 0.000000 0.000000 1.791100 
# 
# From -- ./inp_files/10987.got.cif
#   From: 2010.05.17/outbox.cif.g08.bks.cpg/sg58_6_cif.got.tgz:10987.got - 2010.06.03 14:20:14.
