data_PCOD9444728
_publ_section_title
;
Structure prediction by ZEFSAII (Michael W. Deem and Ramdas Pophale) SiO2 
 PCOD9444728
Probable space group: P N N M
;
_chemical_formula_sum "Si O2"
_cell_formula_units_Z 50
_cell_length_a 25.207772
_cell_length_b 8.984250
_cell_length_c 10.614465
_cell_angle_alpha 90.000000
_cell_angle_beta 90.000000
_cell_angle_gamma 90.000000
_cell_volume 2403.888942
_symmetry_space_group_name_H-M "P N N M"
_symmetry_group_IT_number 58
_symmetry_cell_setting 'orthorhombic'
loop_
_space_group_symop_operation_xyz
x,y,z
-x,-y,z
1/2+x,1/2-y,1/2-z
1/2-x,1/2+y,1/2-z
-x,-y,-z
x,y,-z
1/2-x,1/2+y,1/2+z
1/2+x,1/2-y,1/2+z
loop_
_atom_site_type_symbol
_atom_site_label
_atom_site_fract_x
_atom_site_fract_y
_atom_site_fract_z
Si Si1 0.371487 0.027828 0.643511
Si Si2 0.703016 0.552930 0.141678
Si Si3 0.078462 0.971325 0.640963
Si Si4 0.232549 0.730174 0.855874
Si Si5 0.500000 0.000000 0.000000
Si Si6 0.935245 0.687252 0.289365
Si Si7 0.033728 0.767697 0.858312
O O1 0.368210 0.971279 0.500000
O O2 0.318950 0.124838 0.665856
O O3 0.421922 0.139033 0.651948
O O4 0.382999 0.896962 0.741178
O O5 0.640041 0.573797 0.151351
O O6 0.717763 0.379906 0.153759
O O7 0.731241 0.644329 0.250960
O O8 0.719925 0.598528 0.000000
O O9 0.059623 0.928385 0.500000
O O10 0.075034 0.148034 0.658381
O O11 0.047129 0.886253 0.749774
O O12 0.229012 0.787342 0.000000
O O13 0.534409 0.087931 0.890929
O O14 0.975708 0.704930 0.171839
O O15 0.036784 0.829163 0.000000
#
# Coordination Sequence:
#
# PCOD9444728 Si02
#       7
#     8   8   8   8   2   8   8
#     4  10  21  40  64  90 120 162 205 259 310 366
#     4  10  23  43  64  95 128 158 205 257 310 376
#     4  11  25  41  62  91 129 166 205 257 317 369
#     4  10  22  43  68  93 125 164 207 255 317 374
#     4  12  24  40  56  92 128 164 216 252 308 380
#     4  12  24  40  62  90 125 168 213 261 305 373
#     4  11  23  41  64  91 124 163 210 259 312 371
#
# _framework density 20.799630000000001
#
# number of rings (size 3 to 8) (size 9 to 14) (size 15 to 20)
#    0.000    1.280    4.000    0.960    3.360    4.480 
#    1.440    0.000    0.000    0.000    0.000    0.000 
#    0.000    0.000    0.000    0.000    0.000    0.000 
#
# Total GULP energy -279034.738057 kJ/mol
# GULP energy per Si atom -5580.694761 kJ/mol
# Density = 2.075229 g / cm^3
# Si number density = 20.799630 Si / 1000 Ang^3
#
#
#
# Elastic Constant Matrix: (Units=GPa)
#
#
# Indices 1 2 3 4 5 6 
#
# 1 30.0467 -6.3762 12.6078 0.0000 0.0000 0.0000
# 2 -6.3762 52.8305 60.3571 0.0000 0.0000 0.0000
# 3 12.6078 60.3571 157.3634 0.0000 0.0000 0.0000
# 4 0.0000 0.0000 0.0000 32.8139 0.0000 0.0000
# 5 0.0000 0.0000 0.0000 0.0000-4813.9392 0.0000
# 6 0.0000 0.0000 0.0000 0.0000 0.0000 29.2340
#
#
#
# Elastic Compliance Matrix: (Units=1/GPa)
#
#
# Indices 1 2 3 4 5 6 
#
# 1 0.040321 0.015231 -0.009072 0.000000 0.000000 0.000000
# 2 0.015231 0.039446 -0.016350 0.000000 0.000000 0.000000
# 3 -0.009072 -0.016350 0.013353 0.000000 0.000000 0.000000
# 4 0.000000 0.000000 0.000000 0.030475 0.000000 0.000000
# 5 0.000000 0.000000 0.000000 0.000000 -0.000208 0.000000
# 6 0.000000 0.000000 0.000000 0.000000 0.000000 0.034207
#
#
# Mechanical properties :
#
#
# Convention : Reuss Voigt Hill
#
# Bulk Modulus (GPa) = 13.74813 41.49089 27.61951
# Shear Modulus (GPa) = 24.72544 -938.80146 -457.03801
#
# Velocity S-wave (km/s) = 3.45156 -21.26816 -14.83950
# Velocity P-wave (km/s) = 4.74431 24.14791 16.74236
#
# Compressibility (1/GPa) = 0.07273715
#
# Stress axis : x y z
#
# Youngs Moduli (GPa) = 24.80122 25.35112 74.89152
#
# Poissons Ratio (x) = -0.38613 0.67945
# Poissons Ratio (y) = -0.37776 1.22447
# Poissons Ratio (z) = 0.22501 0.41449
#
# Static dielectric constant tensor:
#      x y z
#    x 1.747840 0.000000 0.000000 
#    y 0.000000 1.732970 0.000000 
#    z 0.000000 0.000000 1.726550 
# 
# From -- ./inp_files/10797.got.cif
#   From: 2010.05.17/outbox.cif.g08.bks.cpg/sg58_6_cif.got.tgz:10797.got - 2010.06.03 14:20:14.
