data_PCOD9444810
_publ_section_title
;
Structure prediction by ZEFSAII (Michael W. Deem and Ramdas Pophale) SiO2 
 PCOD9444810
Probable space group: P N N M
;
_chemical_formula_sum "Si O2"
_cell_formula_units_Z 64
_cell_length_a 5.689498
_cell_length_b 25.678616
_cell_length_c 18.455521
_cell_angle_alpha 90.000000
_cell_angle_beta 90.000000
_cell_angle_gamma 90.000000
_cell_volume 2696.322724
_symmetry_space_group_name_H-M "P N N M"
_symmetry_group_IT_number 58
_symmetry_cell_setting 'orthorhombic'
loop_
_space_group_symop_operation_xyz
x,y,z
-x,-y,z
1/2+x,1/2-y,1/2-z
1/2-x,1/2+y,1/2-z
-x,-y,-z
x,y,-z
1/2-x,1/2+y,1/2+z
1/2+x,1/2-y,1/2+z
loop_
_atom_site_type_symbol
_atom_site_label
_atom_site_fract_x
_atom_site_fract_y
_atom_site_fract_z
Si Si1 0.724419 0.310380 0.708110
Si Si2 0.407415 0.057786 0.573787
Si Si3 0.697324 0.642325 0.919261
Si Si4 0.953439 0.280020 0.154594
Si Si5 0.390174 0.576188 0.655852
Si Si6 0.412455 0.793610 0.081875
Si Si7 0.938818 0.942171 0.679594
Si Si8 0.379645 0.918951 0.916994
O O1 0.530129 0.265983 0.708813
O O2 0.620834 0.361935 0.671862
O O3 0.822807 0.318276 0.788917
O O4 0.913389 0.290452 0.649613
O O5 0.248717 0.063127 0.500000
O O6 0.595160 0.102045 0.567585
O O7 0.326264 0.063405 0.655494
O O8 0.500000 0.000000 0.569979
O O9 0.827182 0.691579 0.883154
O O10 0.549050 0.607521 0.862097
O O11 0.594584 0.654783 0.000000
O O12 0.788280 0.249692 0.097277
O O13 0.453772 0.555756 0.735392
O O14 0.621570 0.561765 0.609018
O O15 0.122782 0.565515 0.625970
O O16 0.350025 0.855514 0.084514
O O17 0.507428 0.785365 0.000000
O O18 0.000000 0.000000 0.648498
O O19 0.418576 0.934295 0.000000
#
# Coordination Sequence:
#
# PCOD9444810 Si02
#       8
#     8   8   8   8   8   8   8   8
#     4  11  24  39  64  93 134 189 232 283 355 424
#     4  10  21  41  66  91 129 182 239 295 356 422
#     4  11  26  42  65  99 140 187 236 298 362 424
#     4  12  23  40  63  94 137 185 233 287 353 429
#     4  11  25  42  71 105 141 181 238 297 354 432
#     4  10  22  39  61  91 130 175 231 286 334 409
#     4  12  26  42  70 102 139 183 243 309 370 431
#     4  10  22  44  72 103 138 182 230 283 353 431
#
# _framework density 23.736031000000001
#
# number of rings (size 3 to 8) (size 9 to 14) (size 15 to 20)
#    0.000    1.125    3.750    1.875    7.000    3.000 
#    0.000    0.000    0.000    2.250    0.000    0.000 
#    0.000    0.000    0.000    0.000    0.000    0.000 
#
# Total GULP energy -356385.811071 kJ/mol
# GULP energy per Si atom -5568.528298 kJ/mol
# Density = 2.368201 g / cm^3
# Si number density = 23.736031 Si / 1000 Ang^3
#
#
#
# Elastic Constant Matrix: (Units=GPa)
#
#
# Indices 1 2 3 4 5 6 
#
# 1 59.5969 24.2154 29.4966 0.0000 0.0000 0.0000
# 2 24.2154 80.8529 12.2494 0.0000 0.0000 0.0000
# 3 29.4966 12.2494 124.9872 0.0000 0.0000 0.0000
# 4 0.0000 0.0000 0.0000 -127.4248 0.0000 0.0000
# 5 0.0000 0.0000 0.0000 0.0000 2.6947 0.0000
# 6 0.0000 0.0000 0.0000 0.0000 0.0000 31.1687
#
#
#
# Elastic Compliance Matrix: (Units=1/GPa)
#
#
# Indices 1 2 3 4 5 6 
#
# 1 0.021310 -0.005705 -0.004470 0.000000 0.000000 0.000000
# 2 -0.005705 0.014082 -0.000034 0.000000 0.000000 0.000000
# 3 -0.004470 -0.000034 0.009059 0.000000 0.000000 0.000000
# 4 0.000000 0.000000 0.000000 -0.007848 0.000000 0.000000
# 5 0.000000 0.000000 0.000000 0.000000 0.371097 0.000000
# 6 0.000000 0.000000 0.000000 0.000000 0.000000 0.032084
#
#
# Mechanical properties :
#
#
# Convention : Reuss Voigt Hill
#
# Bulk Modulus (GPa) = 41.60892 44.15107 42.87999
# Shear Modulus (GPa) = 10.67892 -5.41392 2.63250
#
# Velocity S-wave (km/s) = 2.12339 -1.51190 1.05427
# Velocity P-wave (km/s) = 4.85589 3.94886 4.42567
#
# Compressibility (1/GPa) = 0.02403331
#
# Stress axis : x y z
#
# Youngs Moduli (GPa) = 46.92676 71.01302 110.38736
#
# Poissons Ratio (x) = 0.40514 0.49342
# Poissons Ratio (y) = 0.26772 0.00372
# Poissons Ratio (z) = 0.20976 0.00239
#
# Static dielectric constant tensor:
#      x y z
#    x 1.966440 0.000000 0.000000 
#    y 0.000000 1.948390 0.000000 
#    z 0.000000 0.000000 2.026470 
# 
# From -- ./inp_files/24523.got.cif
#   From: 2010.05.17/outbox.cif.g08.bks.cpg/sg58_13_cif.got.tgz:24523.got - 2010.06.03 14:20:14.
