data_PCOD9444847
_publ_section_title
;
Structure prediction by ZEFSAII (Michael W. Deem and Ramdas Pophale) SiO2 
 PCOD9444847
Probable space group: P N N M
;
_chemical_formula_sum "Si O2"
_cell_formula_units_Z 40
_cell_length_a 26.519392
_cell_length_b 8.376691
_cell_length_c 8.260030
_cell_angle_alpha 90.000000
_cell_angle_beta 90.000000
_cell_angle_gamma 90.000000
_cell_volume 1834.922318
_symmetry_space_group_name_H-M "P N N M"
_symmetry_group_IT_number 58
_symmetry_cell_setting 'orthorhombic'
loop_
_space_group_symop_operation_xyz
x,y,z
-x,-y,z
1/2+x,1/2-y,1/2-z
1/2-x,1/2+y,1/2-z
-x,-y,-z
x,y,-z
1/2-x,1/2+y,1/2+z
1/2+x,1/2-y,1/2+z
loop_
_atom_site_type_symbol
_atom_site_label
_atom_site_fract_x
_atom_site_fract_y
_atom_site_fract_z
Si Si1 0.430937 0.216321 0.677958
Si Si2 0.069038 0.160111 0.500000
Si Si3 0.500000 0.500000 0.256259
Si Si4 0.683340 0.695801 0.313450
Si Si5 0.569811 0.980419 0.000000
Si Si6 0.668043 0.168981 0.000000
Si Si7 0.277445 0.940597 0.317666
O O1 0.425993 0.135041 0.500000
O O2 0.474004 0.348829 0.663566
O O3 0.376353 0.295160 0.714097
O O4 0.442206 0.107199 0.832764
O O5 0.045696 0.069705 0.650427
O O6 0.048011 0.341214 0.500000
O O7 0.128878 0.184315 0.500000
O O8 0.690631 0.644468 0.500000
O O9 0.717593 0.584009 0.202468
O O10 0.704712 0.876752 0.298555
O O11 0.630111 0.016145 0.000000
O O12 0.698817 0.156390 0.833377
O O13 0.292479 0.889024 0.500000
#
# Coordination Sequence:
#
# PCOD9444847 Si02
#       7
#     8   4   4   8   4   4   8
#     4  11  24  43  67  96 132 175 223 273 334 398
#     4   9  22  43  69  97 127 169 226 265 332 398
#     4  11  23  44  66  95 137 172 221 277 344 385
#     4  10  22  40  60  92 126 167 214 259 315 386
#     4  10  21  42  74  88 132 170 219 273 329 383
#     4  10  21  42  66  94 129 165 217 267 326 380
#     4  11  23  39  64  95 130 168 213 261 322 392
#
# _framework density 21.799287
#
# number of rings (size 3 to 8) (size 9 to 14) (size 15 to 20)
#    0.600    1.000    3.000    1.500    2.800    3.200 
#    0.000    7.000    0.000    0.000    0.000    0.000 
#    0.000    0.000    0.000    0.000    0.000    0.000 
#
# Total GULP energy -223145.504175 kJ/mol
# GULP energy per Si atom -5578.637604 kJ/mol
# Density = 2.174967 g / cm^3
# Si number density = 21.799287 Si / 1000 Ang^3
#
#
#
# Elastic Constant Matrix: (Units=GPa)
#
#
# Indices 1 2 3 4 5 6 
#
# 1 50.9382 -0.1633 22.9148 0.0000 0.0000 0.0000
# 2 -0.1633 43.0473 41.0300 0.0000 0.0000 0.0000
# 3 22.9148 41.0300 137.8771 0.0000 0.0000 0.0000
# 4 0.0000 0.0000 0.0000 -7.6227 0.0000 0.0000
# 5 0.0000 0.0000 0.0000 0.0000 23.0962 0.0000
# 6 0.0000 0.0000 0.0000 0.0000 0.0000 44.3055
#
#
#
# Elastic Compliance Matrix: (Units=1/GPa)
#
#
# Indices 1 2 3 4 5 6 
#
# 1 0.021954 0.004971 -0.005128 0.000000 0.000000 0.000000
# 2 0.004971 0.033554 -0.010811 0.000000 0.000000 0.000000
# 3 -0.005128 -0.010811 0.011322 0.000000 0.000000 0.000000
# 4 0.000000 0.000000 0.000000 -0.131187 0.000000 0.000000
# 5 0.000000 0.000000 0.000000 0.000000 0.043297 0.000000
# 6 0.000000 0.000000 0.000000 0.000000 0.000000 0.022571
#
#
# Mechanical properties :
#
#
# Convention : Reuss Voigt Hill
#
# Bulk Modulus (GPa) = 22.27472 39.93618 31.10545
# Shear Modulus (GPa) = 130.16559 23.16121 76.66340
#
# Velocity S-wave (km/s) = 7.73567 3.26310 5.93668
# Velocity P-wave (km/s) = 9.48829 5.70586 7.82894
#
# Compressibility (1/GPa) = 0.04489394
#
# Stress axis : x y z
#
# Youngs Moduli (GPa) = 45.54888 29.80302 88.32103
#
# Poissons Ratio (x) = -0.14815 0.45291
# Poissons Ratio (y) = -0.22642 0.95485
# Poissons Ratio (z) = 0.23358 0.32221
#
# Static dielectric constant tensor:
#      x y z
#    x 1.808980 0.000000 0.000000 
#    y 0.000000 1.776650 0.000000 
#    z 0.000000 0.000000 1.807430 
# 
# From -- ./inp_files/10308.got.cif
#   From: 2010.05.17/outbox.cif.g08.bks.cpg/sg58_6_cif.got.tgz:10308.got - 2010.06.03 14:20:14.
