data_PCOD9444952
_publ_section_title
;
Structure prediction by ZEFSAII (Michael W. Deem and Ramdas Pophale) SiO2 
 PCOD9444952
Probable space group: P N N M
;
_chemical_formula_sum "Si O2"
_cell_formula_units_Z 40
_cell_length_a 10.591104
_cell_length_b 6.072924
_cell_length_c 26.380472
_cell_angle_alpha 90.000000
_cell_angle_beta 90.000000
_cell_angle_gamma 90.000000
_cell_volume 1696.764778
_symmetry_space_group_name_H-M "P N N M"
_symmetry_group_IT_number 58
_symmetry_cell_setting 'orthorhombic'
loop_
_space_group_symop_operation_xyz
x,y,z
-x,-y,z
1/2+x,1/2-y,1/2-z
1/2-x,1/2+y,1/2-z
-x,-y,-z
x,y,-z
1/2-x,1/2+y,1/2+z
1/2+x,1/2-y,1/2+z
loop_
_atom_site_type_symbol
_atom_site_label
_atom_site_fract_x
_atom_site_fract_y
_atom_site_fract_z
Si Si1 0.156818 0.375258 0.303602
Si Si2 0.119611 0.846145 0.941079
Si Si3 0.230076 0.491179 0.127880
Si Si4 0.390991 0.659812 0.707203
Si Si5 0.370584 0.102789 0.907679
O O1 0.275884 0.497477 0.278062
O O2 0.070773 0.290619 0.257905
O O3 0.121132 0.545577 0.347638
O O4 0.198969 0.162619 0.335717
O O5 0.136117 0.632094 0.906668
O O6 0.248974 0.981622 0.930976
O O7 0.110347 0.786248 0.000000
O O8 0.000000 0.000000 0.929002
O O9 0.153822 0.322430 0.163245
O O10 0.332466 0.359450 0.093526
O O11 0.500000 0.500000 0.688970
O O12 0.500000 0.000000 0.929597
#
# Coordination Sequence:
#
# PCOD9444952 Si02
#       5
#     8   8   8   8   8
#     4  10  22  38  57  91 132 181 235 269 337 412
#     4  10  24  47  76 103 132 178 236 296 365 432
#     4  10  23  44  66  95 143 181 236 286 357 414
#     4  11  23  37  62  93 134 187 236 285 336 412
#     4  10  24  41  67 101 141 179 227 288 349 430
#
# _framework density 23.574276000000001
#
# number of rings (size 3 to 8) (size 9 to 14) (size 15 to 20)
#    0.000    1.800    2.000    0.000    2.800   14.000 
#    0.000    3.000    0.000    0.600    0.000    0.000 
#    0.000    0.000    0.000    0.000    0.000    0.000 
#
# Total GULP energy -223654.602990 kJ/mol
# GULP energy per Si atom -5591.365075 kJ/mol
# Density = 2.352062 g / cm^3
# Si number density = 23.574276 Si / 1000 Ang^3
#
#
#
# Elastic Constant Matrix: (Units=GPa)
#
#
# Indices 1 2 3 4 5 6 
#
# 1 121.1678 45.8107 26.3978 0.0000 0.0000 0.0000
# 2 45.8107 133.6477 38.3617 0.0000 0.0000 0.0000
# 3 26.3978 38.3617 98.4616 0.0000 0.0000 0.0000
# 4 0.0000 0.0000 0.0000 3.0807 0.0000 0.0000
# 5 0.0000 0.0000 0.0000 0.0000 11.1462 0.0000
# 6 0.0000 0.0000 0.0000 0.0000 0.0000 15.2112
#
#
#
# Elastic Compliance Matrix: (Units=1/GPa)
#
#
# Indices 1 2 3 4 5 6 
#
# 1 0.009666 -0.002893 -0.001464 0.000000 0.000000 0.000000
# 2 -0.002893 0.009290 -0.002844 0.000000 0.000000 0.000000
# 3 -0.001464 -0.002844 0.011657 0.000000 0.000000 0.000000
# 4 0.000000 0.000000 0.000000 0.324598 0.000000 0.000000
# 5 0.000000 0.000000 0.000000 0.000000 0.089717 0.000000
# 6 0.000000 0.000000 0.000000 0.000000 0.000000 0.065741
#
#
# Mechanical properties :
#
#
# Convention : Reuss Voigt Hill
#
# Bulk Modulus (GPa) = 61.68819 63.82416 62.75617
# Shear Modulus (GPa) = 9.42552 22.06808 15.74680
#
# Velocity S-wave (km/s) = 2.00172 3.06291 2.58731
# Velocity P-wave (km/s) = 5.61845 6.29611 5.96690
#
# Compressibility (1/GPa) = 0.01621056
#
# Stress axis : x y z
#
# Youngs Moduli (GPa) = 103.45805 107.63947 85.78615
#
# Poissons Ratio (x) = 0.31138 0.12562
# Poissons Ratio (y) = 0.29929 0.24398
# Poissons Ratio (z) = 0.15150 0.30613
#
# Static dielectric constant tensor:
#      x y z
#    x 2.025570 0.000000 0.000000 
#    y 0.000000 1.939970 0.000000 
#    z 0.000000 0.000000 1.855560 
# 
# From -- ./inp_files/33454.got.cif
#   From: 2010.05.17/outbox.cif.g08.bks.cpg/sg58_17_cif.got.tgz:33454.got - 2010.06.03 14:20:14.
