data_PCOD9444440
_publ_section_title
;
Structure prediction by ZEFSAII (Michael W. Deem and Ramdas Pophale) SiO2 
 PCOD9444440
Probable space group: P N N M
;
_chemical_formula_sum "Si O2"
_cell_formula_units_Z 48
_cell_length_a 20.450552
_cell_length_b 15.439971
_cell_length_c 8.362368
_cell_angle_alpha 90.000000
_cell_angle_beta 90.000000
_cell_angle_gamma 90.000000
_cell_volume 2640.467283
_symmetry_space_group_name_H-M "P N N M"
_symmetry_group_IT_number 58
_symmetry_cell_setting 'orthorhombic'
loop_
_space_group_symop_operation_xyz
x,y,z
-x,-y,z
1/2+x,1/2-y,1/2-z
1/2-x,1/2+y,1/2-z
-x,-y,-z
x,y,-z
1/2-x,1/2+y,1/2+z
1/2+x,1/2-y,1/2+z
loop_
_atom_site_type_symbol
_atom_site_label
_atom_site_fract_x
_atom_site_fract_y
_atom_site_fract_z
Si Si1 0.459245 0.582264 0.304847
Si Si2 0.165310 0.301706 0.689796
Si Si3 0.981386 0.726191 0.806722
Si Si4 0.803095 0.513111 0.191330
Si Si5 0.689682 0.387215 0.691532
Si Si6 0.058722 0.563889 0.805057
O O1 0.500000 0.500000 0.247945
O O2 0.460180 0.581079 0.500000
O O3 0.488829 0.674651 0.253518
O O4 0.383214 0.583145 0.256762
O O5 0.163362 0.296373 0.500000
O O6 0.090716 0.304912 0.754801
O O7 0.200995 0.389648 0.741684
O O8 0.196366 0.212840 0.755756
O O9 0.036726 0.659438 0.752129
O O10 0.981275 0.725558 0.000000
O O11 0.744146 0.450708 0.239904
O O12 0.871410 0.470659 0.250208
O O13 0.806146 0.519193 0.000000
O O14 0.691976 0.390334 0.500000
O O15 0.000000 0.500000 0.757526
O O16 0.060599 0.563898 0.000000
#
# Coordination Sequence:
#
# PCOD9444440 Si02
#       6
#     8   8   8   8   8   8
#     4   8  15  30  54  80 103 135 180 225 267 320
#     4  11  21  35  56  80 106 144 189 227 279 336
#     4   9  16  31  54  77 105 140 180 224 273 327
#     4  11  21  36  57  81 113 148 186 231 279 334
#     4  10  21  38  57  80 112 146 185 232 281 334
#     4   9  16  29  52  80 106 141 184 220 265 330
#
# _framework density 18.178601
#
# number of rings (size 3 to 8) (size 9 to 14) (size 15 to 20)
#    0.000    2.333    1.667    3.500    0.000    0.000 
#    3.000    2.500    0.000   12.500    0.000    0.000 
#    0.000    0.000    0.000    0.000    0.000    0.000 
#
# Total GULP energy -267757.839118 kJ/mol
# GULP energy per Si atom -5578.288315 kJ/mol
# Density = 1.813723 g / cm^3
# Si number density = 18.178601 Si / 1000 Ang^3
#
#
#
# Elastic Constant Matrix: (Units=GPa)
#
#
# Indices 1 2 3 4 5 6 
#
# 1 78.4166 72.1397 0.5958 0.0000 0.0000 0.0000
# 2 72.1397 141.8796 2.2434 0.0000 0.0000 0.0000
# 3 0.5958 2.2434 18.4792 0.0000 0.0000 0.0000
# 4 0.0000 0.0000 0.0000 20.3520 0.0000 0.0000
# 5 0.0000 0.0000 0.0000 0.0000 19.6086 0.0000
# 6 0.0000 0.0000 0.0000 0.0000 0.0000 33.7258
#
#
#
# Elastic Compliance Matrix: (Units=1/GPa)
#
#
# Indices 1 2 3 4 5 6 
#
# 1 0.023969 -0.012198 0.000708 0.000000 0.000000 0.000000
# 2 -0.012198 0.013270 -0.001218 0.000000 0.000000 0.000000
# 3 0.000708 -0.001218 0.054240 0.000000 0.000000 0.000000
# 4 0.000000 0.000000 0.000000 0.049135 0.000000 0.000000
# 5 0.000000 0.000000 0.000000 0.000000 0.050998 0.000000
# 6 0.000000 0.000000 0.000000 0.000000 0.000000 0.029651
#
#
# Mechanical properties :
#
#
# Convention : Reuss Voigt Hill
#
# Bulk Modulus (GPa) = 15.13708 43.19256 29.16482
# Shear Modulus (GPa) = 18.60811 25.65704 22.13257
#
# Velocity S-wave (km/s) = 3.20289 3.76092 3.49306
# Velocity P-wave (km/s) = 4.69286 6.53231 5.68744
#
# Compressibility (1/GPa) = 0.06606292
#
# Stress axis : x y z
#
# Youngs Moduli (GPa) = 41.72054 75.35880 18.43657
#
# Poissons Ratio (x) = 0.91926 -0.01306
# Poissons Ratio (y) = 0.50892 0.02245
# Poissons Ratio (z) = -0.02954 0.09176
#
# Static dielectric constant tensor:
#      x y z
#    x 1.600770 0.000000 0.000000 
#    y 0.000000 1.634940 0.000000 
#    z 0.000000 0.000000 1.626000 
# 
# From -- ./inp_files/7719.got.cif
#   From: 2010.05.17/outbox.cif.g08.bks.cpg/sg58_4_cif.got.tgz:7719.got - 2010.06.03 14:20:14.
