data_PCOD9444381
_publ_section_title
;
Structure prediction by ZEFSAII (Michael W. Deem and Ramdas Pophale) SiO2 
 PCOD9444381
Probable space group: P N N M
;
_chemical_formula_sum "Si O2"
_cell_formula_units_Z 40
_cell_length_a 5.088656
_cell_length_b 21.535217
_cell_length_c 18.123711
_cell_angle_alpha 90.000000
_cell_angle_beta 90.000000
_cell_angle_gamma 90.000000
_cell_volume 1986.092510
_symmetry_space_group_name_H-M "P N N M"
_symmetry_group_IT_number 58
_symmetry_cell_setting 'orthorhombic'
loop_
_space_group_symop_operation_xyz
x,y,z
-x,-y,z
1/2+x,1/2-y,1/2-z
1/2-x,1/2+y,1/2-z
-x,-y,-z
x,y,-z
1/2-x,1/2+y,1/2+z
1/2+x,1/2-y,1/2+z
loop_
_atom_site_type_symbol
_atom_site_label
_atom_site_fract_x
_atom_site_fract_y
_atom_site_fract_z
Si Si1 0.669958 0.437442 0.417035
Si Si2 0.584881 0.644366 0.777938
Si Si3 0.590198 0.931706 0.238058
Si Si4 0.579869 0.730838 0.917517
Si Si5 0.419234 0.308171 0.620123
O O1 0.500000 0.500000 0.405784
O O2 0.780741 0.438368 0.500000
O O3 0.878114 0.431678 0.350928
O O4 0.484636 0.377110 0.408322
O O5 0.371398 0.589786 0.768590
O O6 0.554456 0.679365 0.854544
O O7 0.540724 0.690098 0.708506
O O8 0.872984 0.616551 0.765092
O O9 0.500000 0.000000 0.260657
O O10 0.367446 0.784469 0.900721
O O11 0.866177 0.761483 0.912295
O O12 0.534566 0.706823 0.000000
#
# Coordination Sequence:
#
# PCOD9444381 Si02
#       5
#     8   8   8   8   8
#     4  10  21  37  59  90 127 163 200 241 287 345
#     4  11  23  40  63  87 118 156 198 242 289 355
#     4  11  22  40  63  87 117 157 199 241 292 350
#     4  12  24  40  62  88 119 153 196 249 300 346
#     4  11  22  39  60  86 121 160 197 235 287 350
#
# _framework density 20.140051
#
# number of rings (size 3 to 8) (size 9 to 14) (size 15 to 20)
#    0.000    1.000    0.000    9.600    0.000    0.400 
#    0.000    7.000    0.000    3.600    0.000    0.000 
#    0.000    0.000    0.000    0.000    0.000    0.000 
#
# Total GULP energy -223944.570958 kJ/mol
# GULP energy per Si atom -5598.614274 kJ/mol
# Density = 2.009421 g / cm^3
# Si number density = 20.140051 Si / 1000 Ang^3
#
#
#
# Elastic Constant Matrix: (Units=GPa)
#
#
# Indices 1 2 3 4 5 6 
#
# 1 36.3012 -8.3005 -4.7053 0.0000 0.0000 0.0000
# 2 -8.3005 59.7808 47.7812 0.0000 0.0000 0.0000
# 3 -4.7053 47.7812 152.0832 0.0000 0.0000 0.0000
# 4 0.0000 0.0000 0.0000 4.4826 0.0000 0.0000
# 5 0.0000 0.0000 0.0000 0.0000 7.9131 0.0000
# 6 0.0000 0.0000 0.0000 0.0000 0.0000 30.4422
#
#
#
# Elastic Compliance Matrix: (Units=1/GPa)
#
#
# Indices 1 2 3 4 5 6 
#
# 1 0.028477 0.004340 -0.000482 0.000000 0.000000 0.000000
# 2 0.004340 0.022998 -0.007091 0.000000 0.000000 0.000000
# 3 -0.000482 -0.007091 0.008788 0.000000 0.000000 0.000000
# 4 0.000000 0.000000 0.000000 0.223086 0.000000 0.000000
# 5 0.000000 0.000000 0.000000 0.000000 0.126372 0.000000
# 6 0.000000 0.000000 0.000000 0.000000 0.000000 0.032849
#
#
# Mechanical properties :
#
#
# Convention : Reuss Voigt Hill
#
# Bulk Modulus (GPa) = 18.58894 35.30177 26.94535
# Shear Modulus (GPa) = 10.70730 22.79357 16.75043
#
# Velocity S-wave (km/s) = 2.30824 3.36780 2.88705
# Velocity P-wave (km/s) = 4.04399 5.71743 4.95191
#
# Compressibility (1/GPa) = 0.05379543
#
# Stress axis : x y z
#
# Youngs Moduli (GPa) = 35.11597 43.48173 113.78713
#
# Poissons Ratio (x) = -0.18869 0.05488
# Poissons Ratio (y) = -0.15239 0.80689
# Poissons Ratio (z) = 0.01694 0.30834
#
# Static dielectric constant tensor:
#      x y z
#    x 1.718280 0.000000 0.000000 
#    y 0.000000 1.702520 0.000000 
#    z 0.000000 0.000000 1.710000 
# 
# From -- ./inp_files/24169.got.cif
#   From: 2010.05.17/outbox.cif.g08.bks.cpg/sg58_13_cif.got.tgz:24169.got - 2010.06.03 14:20:14.
