data_PCOD9444420
_publ_section_title
;
Structure prediction by ZEFSAII (Michael W. Deem and Ramdas Pophale) SiO2 
 PCOD9444420
Probable space group: P N N M
;
_chemical_formula_sum "Si O2"
_cell_formula_units_Z 58
_cell_length_a 8.891763
_cell_length_b 12.781764
_cell_length_c 25.711926
_cell_angle_alpha 90.000000
_cell_angle_beta 90.000000
_cell_angle_gamma 90.000000
_cell_volume 2922.222515
_symmetry_space_group_name_H-M "P N N M"
_symmetry_group_IT_number 58
_symmetry_cell_setting 'orthorhombic'
loop_
_space_group_symop_operation_xyz
x,y,z
-x,-y,z
1/2+x,1/2-y,1/2-z
1/2-x,1/2+y,1/2-z
-x,-y,-z
x,y,-z
1/2-x,1/2+y,1/2+z
1/2+x,1/2-y,1/2+z
loop_
_atom_site_type_symbol
_atom_site_label
_atom_site_fract_x
_atom_site_fract_y
_atom_site_fract_z
Si Si1 0.127969 0.814340 0.732791
Si Si2 0.542937 0.117515 0.902905
Si Si3 0.500000 0.500000 0.500000
Si Si4 0.369565 0.317254 0.575276
Si Si5 0.949639 0.614869 0.276885
Si Si6 0.710330 0.740649 0.875011
Si Si7 0.450494 0.885840 0.559234
Si Si8 0.467854 0.618964 0.671664
O O1 0.291080 0.848885 0.753070
O O2 0.128487 0.824077 0.670581
O O3 0.079591 0.694063 0.740883
O O4 0.003135 0.871306 0.767561
O O5 0.695393 0.154510 0.929629
O O6 0.563664 0.116026 0.839844
O O7 0.406721 0.197912 0.910936
O O8 0.500000 0.000000 0.919117
O O9 0.462470 0.408374 0.545044
O O10 0.417924 0.201613 0.558130
O O11 0.411809 0.319826 0.636441
O O12 0.000000 0.500000 0.260907
O O13 0.821722 0.667031 0.906327
O O14 0.810261 0.831183 0.846085
O O15 0.396970 0.900123 0.500000
O O16 0.500000 0.000000 0.578783
O O17 0.500000 0.500000 0.657807
#
# Coordination Sequence:
#
# PCOD9444420 Si02
#       8
#     8   8   2   8   8   8   8   8
#     4  11  21  37  55  90 123 163 216 262 314 390
#     4  10  21  37  62  92 131 171 206 265 342 395
#     4  12  24  40  68 104 134 158 224 274 336 396
#     4  11  22  40  66  97 132 163 215 276 321 393
#     4  10  22  37  57  83 126 172 214 264 319 391
#     4  10  23  40  59  94 129 163 221 272 318 395
#     4  10  23  46  71  91 121 175 227 267 325 393
#     4  11  21  36  62  86 122 173 208 256 326 386
#
# _framework density 19.847908
#
# number of rings (size 3 to 8) (size 9 to 14) (size 15 to 20)
#    0.000    1.517    4.138    0.828    5.793    0.552 
#    1.241    3.793    0.000    1.655    0.000    0.000 
#    0.000    0.000    0.000    0.000    0.000    0.000 
#
# Total GULP energy -322952.150656 kJ/mol
# GULP energy per Si atom -5568.140529 kJ/mol
# Density = 1.980273 g / cm^3
# Si number density = 19.847908 Si / 1000 Ang^3
#
#
#
# Elastic Constant Matrix: (Units=GPa)
#
#
# Indices 1 2 3 4 5 6 
#
# 1 72.6444 35.7313 1.8290 0.0000 0.0000 0.0000
# 2 35.7313 131.9308 20.1086 0.0000 0.0000 0.0000
# 3 1.8290 20.1086 45.2745 0.0000 0.0000 0.0000
# 4 0.0000 0.0000 0.0000 48.7952 0.0000 0.0000
# 5 0.0000 0.0000 0.0000 0.0000 -2.6923 0.0000
# 6 0.0000 0.0000 0.0000 0.0000 0.0000 19.0286
#
#
#
# Elastic Compliance Matrix: (Units=1/GPa)
#
#
# Indices 1 2 3 4 5 6 
#
# 1 0.015960 -0.004531 0.001368 0.000000 0.000000 0.000000
# 2 -0.004531 0.009416 -0.003999 0.000000 0.000000 0.000000
# 3 0.001368 -0.003999 0.023808 0.000000 0.000000 0.000000
# 4 0.000000 0.000000 0.000000 0.020494 0.000000 0.000000
# 5 0.000000 0.000000 0.000000 0.000000 -0.371436 0.000000
# 6 0.000000 0.000000 0.000000 0.000000 0.000000 0.052552
#
#
# Mechanical properties :
#
#
# Convention : Reuss Voigt Hill
#
# Bulk Modulus (GPa) = 28.68640 40.57641 34.63140
# Shear Modulus (GPa) = -22.39544 25.83837 1.72146
#
# Velocity S-wave (km/s) = -3.36274 3.61199 0.93231
# Velocity P-wave (km/s) = 0.76999 6.15494 4.31801
#
# Compressibility (1/GPa) = 0.03485973
#
# Stress axis : x y z
#
# Youngs Moduli (GPa) = 62.65716 106.19756 42.00182
#
# Poissons Ratio (x) = 0.48117 -0.05744
# Poissons Ratio (y) = 0.28389 0.16798
# Poissons Ratio (z) = -0.08569 0.42471
#
# Static dielectric constant tensor:
#      x y z
#    x 1.718730 0.000000 0.000000 
#    y 0.000000 1.683180 0.000000 
#    z 0.000000 0.000000 1.720490 
# 
# From -- ./inp_files/33359.got.cif
#   From: 2010.05.17/outbox.cif.g08.bks.cpg/sg58_17_cif.got.tgz:33359.got - 2010.06.03 14:20:14.
