data_PCOD9444940
_publ_section_title
;
Structure prediction by ZEFSAII (Michael W. Deem and Ramdas Pophale) SiO2 
 PCOD9444940
Probable space group: P N N M
;
_chemical_formula_sum "Si O2"
_cell_formula_units_Z 64
_cell_length_a 8.897190
_cell_length_b 17.608765
_cell_length_c 19.555082
_cell_angle_alpha 90.000000
_cell_angle_beta 90.000000
_cell_angle_gamma 90.000000
_cell_volume 3063.665909
_symmetry_space_group_name_H-M "P N N M"
_symmetry_group_IT_number 58
_symmetry_cell_setting 'orthorhombic'
loop_
_space_group_symop_operation_xyz
x,y,z
-x,-y,z
1/2+x,1/2-y,1/2-z
1/2-x,1/2+y,1/2-z
-x,-y,-z
x,y,-z
1/2-x,1/2+y,1/2+z
1/2+x,1/2-y,1/2+z
loop_
_atom_site_type_symbol
_atom_site_label
_atom_site_fract_x
_atom_site_fract_y
_atom_site_fract_z
Si Si1 0.166695 0.286708 0.078780
Si Si2 0.856319 0.113516 0.925546
Si Si3 0.698644 0.148806 0.205758
Si Si4 0.659556 0.591314 0.154315
Si Si5 0.290530 0.609122 0.577645
Si Si6 0.804671 0.921068 0.341485
Si Si7 0.101004 0.575154 0.292915
Si Si8 0.150933 0.724250 0.872657
O O1 0.292318 0.346360 0.099597
O O2 0.221542 0.200329 0.084840
O O3 0.024891 0.295896 0.129741
O O4 0.119406 0.298678 0.000000
O O5 0.758086 0.098275 0.858712
O O6 0.847823 0.205940 0.926124
O O7 0.030880 0.092320 0.914590
O O8 0.808308 0.084826 0.000000
O O9 0.762617 0.113962 0.274640
O O10 0.519387 0.143985 0.205452
O O11 0.770689 0.231875 0.191258
O O12 0.481942 0.590489 0.166807
O O13 0.713329 0.507261 0.132784
O O14 0.247112 0.589549 0.500000
O O15 0.191149 0.573320 0.636408
O O16 0.715822 0.916123 0.269712
O O17 0.739130 0.852729 0.386729
O O18 0.000000 0.500000 0.282839
#
# Coordination Sequence:
#
# PCOD9444940 Si02
#       8
#     8   8   8   8   8   8   8   8
#     4  10  22  43  71  97 128 165 211 266 326 388
#     4   8  17  38  62  91 125 159 211 262 315 376
#     4  10  22  37  63  96 121 170 213 264 317 381
#     4  11  24  43  63  92 128 173 216 266 329 385
#     4   9  20  38  61  88 122 165 210 264 314 378
#     4  11  25  41  61  91 132 168 213 275 321 379
#     4  12  24  40  61  89 132 170 214 265 329 377
#     4   9  21  37  65  94 122 161 214 256 320 379
#
# _framework density 20.890007000000001
#
# number of rings (size 3 to 8) (size 9 to 14) (size 15 to 20)
#    0.750    1.250    1.250    2.625    3.500    0.750 
#    0.000    4.375    0.000    1.500    0.000    0.000 
#    0.000    0.000    0.000    0.000    0.000    0.000 
#
# Total GULP energy -356985.544853 kJ/mol
# GULP energy per Si atom -5577.899138 kJ/mol
# Density = 2.084246 g / cm^3
# Si number density = 20.890007 Si / 1000 Ang^3
#
#
#
# Elastic Constant Matrix: (Units=GPa)
#
#
# Indices 1 2 3 4 5 6 
#
# 1 78.9982 52.6593 25.9774 0.0000 0.0000 0.0000
# 2 52.6593 110.8014 23.2897 0.0000 0.0000 0.0000
# 3 25.9774 23.2897 47.3170 0.0000 0.0000 0.0000
# 4 0.0000 0.0000 0.0000 12.9516 0.0000 0.0000
# 5 0.0000 0.0000 0.0000 0.0000 -733.6426 0.0000
# 6 0.0000 0.0000 0.0000 0.0000 0.0000 27.5104
#
#
#
# Elastic Compliance Matrix: (Units=1/GPa)
#
#
# Indices 1 2 3 4 5 6 
#
# 1 0.020520 -0.008237 -0.007212 0.000000 0.000000 0.000000
# 2 -0.008237 0.013373 -0.002060 0.000000 0.000000 0.000000
# 3 -0.007212 -0.002060 0.026107 0.000000 0.000000 0.000000
# 4 0.000000 0.000000 0.000000 0.077211 0.000000 0.000000
# 5 0.000000 0.000000 0.000000 0.000000 -0.001363 0.000000
# 6 0.000000 0.000000 0.000000 0.000000 0.000000 0.036350
#
#
# Mechanical properties :
#
#
# Convention : Reuss Voigt Hill
#
# Bulk Modulus (GPa) = 40.02651 48.99661 44.51156
# Shear Modulus (GPa) = 23.19720 -129.62346 -53.21313
#
# Velocity S-wave (km/s) = 3.33595 -7.88576 -5.05255
# Velocity P-wave (km/s) = 5.83440 7.70766 3.56145
#
# Compressibility (1/GPa) = 0.02498344
#
# Stress axis : x y z
#
# Youngs Moduli (GPa) = 48.73182 74.77907 38.30328
#
# Poissons Ratio (x) = 0.61593 0.27623
# Poissons Ratio (y) = 0.40139 0.07891
# Poissons Ratio (z) = 0.35144 0.15406
#
# Static dielectric constant tensor:
#      x y z
#    x 1.738440 0.000000 0.000000 
#    y 0.000000 1.816050 0.000000 
#    z 0.000000 0.000000 1.721550 
# 
# From -- ./inp_files/25666.got.cif
#   From: 2010.05.17/outbox.cif.g08.bks.cpg/sg58_13_cif.got.tgz:25666.got - 2010.06.03 14:20:14.
