data_PCOD9444052
_publ_section_title
;
Structure prediction by ZEFSAII (Michael W. Deem and Ramdas Pophale) SiO2 
 PCOD9444052
Probable space group: P N N M
;
_chemical_formula_sum "Si O2"
_cell_formula_units_Z 48
_cell_length_a 17.386147
_cell_length_b 17.437484
_cell_length_c 7.439211
_cell_angle_alpha 90.000000
_cell_angle_beta 90.000000
_cell_angle_gamma 90.000000
_cell_volume 2255.350510
_symmetry_space_group_name_H-M "P N N M"
_symmetry_group_IT_number 58
_symmetry_cell_setting 'orthorhombic'
loop_
_space_group_symop_operation_xyz
x,y,z
-x,-y,z
1/2+x,1/2-y,1/2-z
1/2-x,1/2+y,1/2-z
-x,-y,-z
x,y,-z
1/2-x,1/2+y,1/2+z
1/2+x,1/2-y,1/2+z
loop_
_atom_site_type_symbol
_atom_site_label
_atom_site_fract_x
_atom_site_fract_y
_atom_site_fract_z
Si Si1 0.320078 0.861163 0.717195
Si Si2 0.993230 0.914878 0.790408
Si Si3 0.148454 0.826556 0.282966
Si Si4 0.584811 0.987369 0.789930
Si Si5 0.683229 0.844794 0.780767
Si Si6 0.855260 0.809651 0.780510
O O1 0.320505 0.861709 0.500000
O O2 0.230672 0.861200 0.774702
O O3 0.367006 0.934578 0.778535
O O4 0.355747 0.779550 0.775715
O O5 0.074839 0.872759 0.780340
O O6 0.926424 0.860182 0.715146
O O7 0.972375 0.925163 0.000000
O O8 0.000000 0.000000 0.710849
O O9 0.147554 0.827752 0.500000
O O10 0.148219 0.737360 0.227054
O O11 0.500000 0.000000 0.710985
O O12 0.634140 0.916647 0.714674
O O13 0.573487 0.968134 0.000000
O O14 0.772763 0.844560 0.726460
O O15 0.684095 0.846046 0.000000
O O16 0.856626 0.808122 0.000000
#
# Coordination Sequence:
#
# PCOD9444052 Si02
#       6
#     8   8   8   8   8   8
#     4   9  19  36  55  74 100 140 179 208 253 314
#     4  10  21  33  52  82 107 131 172 217 257 305
#     4   9  19  36  56  75 101 139 177 211 257 313
#     4  10  21  33  52  83 109 131 170 219 262 304
#     4   8  16  33  54  72 100 141 173 205 257 314
#     4   8  16  33  53  72  99 139 176 205 250 312
#
# _framework density 21.282724000000002
#
# number of rings (size 3 to 8) (size 9 to 14) (size 15 to 20)
#    0.000    3.000    0.000    2.000    4.667    1.333 
#    0.000    0.833    0.000    2.000    0.000    0.000 
#    0.000    0.000    0.000    0.000    0.000    0.000 
#
# Total GULP energy -267945.738280 kJ/mol
# GULP energy per Si atom -5582.202881 kJ/mol
# Density = 2.123428 g / cm^3
# Si number density = 21.282724 Si / 1000 Ang^3
#
#
#
# Elastic Constant Matrix: (Units=GPa)
#
#
# Indices 1 2 3 4 5 6 
#
# 1 148.6707 123.5202 -13.1072 0.0000 0.0000 0.0000
# 2 123.5202 158.9081 -12.4796 0.0000 0.0000 0.0000
# 3 -13.1072 -12.4796 59.2711 0.0000 0.0000 0.0000
# 4 0.0000 0.0000 0.0000 6.4799 0.0000 0.0000
# 5 0.0000 0.0000 0.0000 0.0000 12.8005 0.0000
# 6 0.0000 0.0000 0.0000 0.0000 0.0000 29.6648
#
#
#
# Elastic Compliance Matrix: (Units=1/GPa)
#
#
# Indices 1 2 3 4 5 6 
#
# 1 0.019063 -0.014730 0.001114 0.000000 0.000000 0.000000
# 2 -0.014730 0.017781 0.000486 0.000000 0.000000 0.000000
# 3 0.001114 0.000486 0.017220 0.000000 0.000000 0.000000
# 4 0.000000 0.000000 0.000000 0.154322 0.000000 0.000000
# 5 0.000000 0.000000 0.000000 0.000000 0.078122 0.000000
# 6 0.000000 0.000000 0.000000 0.000000 0.000000 0.033710
#
#
# Mechanical properties :
#
#
# Convention : Reuss Voigt Hill
#
# Bulk Modulus (GPa) = 35.96492 62.52405 49.24449
# Shear Modulus (GPa) = 14.05500 27.71683 20.88592
#
# Velocity S-wave (km/s) = 2.57260 3.61268 3.13606
# Velocity P-wave (km/s) = 5.07540 6.84423 6.02508
#
# Compressibility (1/GPa) = 0.02780487
#
# Stress axis : x y z
#
# Youngs Moduli (GPa) = 52.45864 56.24028 58.07062
#
# Poissons Ratio (x) = 0.82842 -0.06470
# Poissons Ratio (y) = 0.77272 -0.02825
# Poissons Ratio (z) = -0.05844 -0.02735
#
# Static dielectric constant tensor:
#      x y z
#    x 1.732760 0.000000 0.000000 
#    y 0.000000 1.735710 0.000000 
#    z 0.000000 0.000000 1.827810 
# 
# From -- ./inp_files/7734.got.cif
#   From: 2010.05.17/outbox.cif.g08.bks.cpg/sg58_4_cif.got.tgz:7734.got - 2010.06.03 14:20:14.
