data_PCOD9444739
_publ_section_title
;
Structure prediction by ZEFSAII (Michael W. Deem and Ramdas Pophale) SiO2 
 PCOD9444739
Probable space group: P N N M
;
_chemical_formula_sum "Si O2"
_cell_formula_units_Z 64
_cell_length_a 31.372915
_cell_length_b 12.149059
_cell_length_c 8.557446
_cell_angle_alpha 90.000000
_cell_angle_beta 90.000000
_cell_angle_gamma 90.000000
_cell_volume 3261.682483
_symmetry_space_group_name_H-M "P N N M"
_symmetry_group_IT_number 58
_symmetry_cell_setting 'orthorhombic'
loop_
_space_group_symop_operation_xyz
x,y,z
-x,-y,z
1/2+x,1/2-y,1/2-z
1/2-x,1/2+y,1/2-z
-x,-y,-z
x,y,-z
1/2-x,1/2+y,1/2+z
1/2+x,1/2-y,1/2+z
loop_
_atom_site_type_symbol
_atom_site_label
_atom_site_fract_x
_atom_site_fract_y
_atom_site_fract_z
Si Si1 0.668768 0.984300 0.183568
Si Si2 0.873152 0.100013 0.809640
Si Si3 0.297189 0.241682 0.685792
Si Si4 0.875735 0.846124 0.810926
Si Si5 0.542199 0.217381 0.814824
Si Si6 0.075516 0.502343 0.813177
Si Si7 0.547437 0.750189 0.311448
Si Si8 0.206235 0.299025 0.814104
O O1 0.681626 0.875401 0.277061
O O2 0.621067 0.017316 0.233196
O O3 0.699017 0.085396 0.228361
O O4 0.670726 0.961799 0.000000
O O5 0.830564 0.164598 0.760850
O O6 0.914906 0.168418 0.760150
O O7 0.874130 0.973328 0.760294
O O8 0.873143 0.101571 0.000000
O O9 0.290945 0.252778 0.500000
O O10 0.252039 0.251375 0.770052
O O11 0.916636 0.784582 0.742165
O O12 0.832295 0.782607 0.768237
O O13 0.879127 0.843230 0.000000
O O14 0.498501 0.273924 0.760352
O O15 0.544853 0.096162 0.738011
O O16 0.543043 0.206012 0.000000
O O17 0.059984 0.624328 0.769654
O O18 0.080798 0.498791 0.000000
O O19 0.544423 0.744808 0.500000
O O20 0.203321 0.316512 0.000000
#
# Coordination Sequence:
#
# PCOD9444739 Si02
#       8
#     8   8   8   8   8   8   8   8
#     4  12  24  40  65  95 130 169 209 257 314 373
#     4   9  20  41  66  91 118 161 211 256 305 368
#     4  11  23  42  67  96 130 165 208 261 315 373
#     4  10  22  42  66  87 120 165 212 258 307 372
#     4  12  25  39  59  91 128 162 205 256 315 375
#     4  11  21  39  65  93 124 161 207 259 314 372
#     4  10  21  40  65  90 121 161 207 254 311 376
#     4  11  24  41  64  96 129 166 212 260 313 371
#
# _framework density 19.621775
#
# number of rings (size 3 to 8) (size 9 to 14) (size 15 to 20)
#    0.000    1.250    2.500    3.750    1.750    3.500 
#    0.000    4.375    0.000    0.000    0.000    0.000 
#    0.000    0.000    0.000    0.000    0.000    0.000 
#
# Total GULP energy -357909.672929 kJ/mol
# GULP energy per Si atom -5592.338640 kJ/mol
# Density = 1.957712 g / cm^3
# Si number density = 19.621775 Si / 1000 Ang^3
#
#
#
# Elastic Constant Matrix: (Units=GPa)
#
#
# Indices 1 2 3 4 5 6 
#
# 1 106.5057 23.9928 12.4074 0.0000 0.0000 0.0000
# 2 23.9928 105.2624 10.3242 0.0000 0.0000 0.0000
# 3 12.4074 10.3242 28.3497 0.0000 0.0000 0.0000
# 4 0.0000 0.0000 0.0000 15.0060 0.0000 0.0000
# 5 0.0000 0.0000 0.0000 0.0000 21.0188 0.0000
# 6 0.0000 0.0000 0.0000 0.0000 0.0000 16.9270
#
#
#
# Elastic Compliance Matrix: (Units=1/GPa)
#
#
# Indices 1 2 3 4 5 6 
#
# 1 0.010273 -0.001971 -0.003778 0.000000 0.000000 0.000000
# 2 -0.001971 0.010230 -0.002863 0.000000 0.000000 0.000000
# 3 -0.003778 -0.002863 0.037970 0.000000 0.000000 0.000000
# 4 0.000000 0.000000 0.000000 0.066640 0.000000 0.000000
# 5 0.000000 0.000000 0.000000 0.000000 0.047576 0.000000
# 6 0.000000 0.000000 0.000000 0.000000 0.000000 0.059077
#
#
# Mechanical properties :
#
#
# Convention : Reuss Voigt Hill
#
# Bulk Modulus (GPa) = 24.24314 37.06296 30.65305
# Shear Modulus (GPa) = 19.03011 23.48325 21.25668
#
# Velocity S-wave (km/s) = 3.11761 3.46323 3.29495
# Velocity P-wave (km/s) = 5.03402 5.90945 5.48922
#
# Compressibility (1/GPa) = 0.04124878
#
# Stress axis : x y z
#
# Youngs Moduli (GPa) = 97.33919 97.75047 26.33660
#
# Poissons Ratio (x) = 0.19267 0.09951
# Poissons Ratio (y) = 0.19186 0.07540
# Poissons Ratio (z) = 0.36779 0.27985
#
# Static dielectric constant tensor:
#      x y z
#    x 1.679050 0.000000 0.000000 
#    y 0.000000 1.665390 0.000000 
#    z 0.000000 0.000000 1.660110 
# 
# From -- ./inp_files/10957.got.cif
#   From: 2010.05.17/outbox.cif.g08.bks.cpg/sg58_6_cif.got.tgz:10957.got - 2010.06.03 14:20:14.
