data_PCOD9444408
_publ_section_title
;
Structure prediction by ZEFSAII (Michael W. Deem and Ramdas Pophale) SiO2 
 PCOD9444408
Probable space group: P N N M
;
_chemical_formula_sum "Si O2"
_cell_formula_units_Z 58
_cell_length_a 29.809304
_cell_length_b 12.211506
_cell_length_c 7.868356
_cell_angle_alpha 90.000000
_cell_angle_beta 90.000000
_cell_angle_gamma 90.000000
_cell_volume 2864.211370
_symmetry_space_group_name_H-M "P N N M"
_symmetry_group_IT_number 58
_symmetry_cell_setting 'orthorhombic'
loop_
_space_group_symop_operation_xyz
x,y,z
-x,-y,z
1/2+x,1/2-y,1/2-z
1/2-x,1/2+y,1/2-z
-x,-y,-z
x,y,-z
1/2-x,1/2+y,1/2+z
1/2+x,1/2-y,1/2+z
loop_
_atom_site_type_symbol
_atom_site_label
_atom_site_fract_x
_atom_site_fract_y
_atom_site_fract_z
Si Si1 0.667880 0.160880 0.303781
Si Si2 0.276173 0.630640 0.291807
Si Si3 0.395704 0.254506 0.699941
Si Si4 0.676815 0.916311 0.803539
Si Si5 0.858910 0.012586 0.794636
Si Si6 0.484119 0.339663 0.197500
Si Si7 0.000000 0.000000 0.000000
Si Si8 0.086325 0.199638 0.698997
O O1 0.678972 0.139889 0.500000
O O2 0.701878 0.254256 0.237495
O O3 0.618932 0.216564 0.293450
O O4 0.670213 0.046028 0.210925
O O5 0.276271 0.630234 0.500000
O O6 0.225757 0.613771 0.230487
O O7 0.310506 0.534415 0.239032
O O8 0.403082 0.265778 0.500000
O O9 0.363759 0.151297 0.725133
O O10 0.370975 0.365719 0.763499
O O11 0.444085 0.252596 0.788290
O O12 0.677746 0.884361 0.000000
O O13 0.894882 0.921844 0.736546
O O14 0.859110 0.011824 0.000000
O O15 0.475526 0.427945 0.346366
O O16 0.533885 0.295901 0.241715
O O17 0.485348 0.378730 0.000000
O O18 0.091298 0.221512 0.500000
#
# Coordination Sequence:
#
# PCOD9444408 Si02
#       8
#     8   8   8   8   8   8   2   8
#     4  10  21  40  64  87 118 159 211 258 309 379
#     4   8  18  37  59  86 118 158 201 255 314 373
#     4  11  23  39  60  89 127 170 210 258 319 382
#     4  11  23  39  61  86 123 163 207 261 319 375
#     4   9  19  35  58  86 121 159 202 249 304 372
#     4  11  24  39  60  93 132 170 217 263 320 387
#     4  12  22  36  64  94 130 176 206 264 320 384
#     4  10  21  37  61  91 122 158 202 256 312 373
#
# _framework density 20.249903
#
# number of rings (size 3 to 8) (size 9 to 14) (size 15 to 20)
#    0.000    1.931    0.690    3.517    5.793    2.207 
#    0.000    6.897    0.000    4.138    0.000    0.000 
#    0.000    0.000    0.000    0.000    0.000    0.000 
#
# Total GULP energy -323317.201022 kJ/mol
# GULP energy per Si atom -5574.434500 kJ/mol
# Density = 2.020381 g / cm^3
# Si number density = 20.249903 Si / 1000 Ang^3
#
#
#
# Elastic Constant Matrix: (Units=GPa)
#
#
# Indices 1 2 3 4 5 6 
#
# 1 105.3912 36.1990 16.5033 0.0000 0.0000 0.0000
# 2 36.1990 77.0099 0.8325 0.0000 0.0000 0.0000
# 3 16.5033 0.8325 53.3141 0.0000 0.0000 0.0000
# 4 0.0000 0.0000 0.0000 17.4246 0.0000 0.0000
# 5 0.0000 0.0000 0.0000 0.0000 33.9507 0.0000
# 6 0.0000 0.0000 0.0000 0.0000 0.0000 18.2409
#
#
#
# Elastic Compliance Matrix: (Units=1/GPa)
#
#
# Indices 1 2 3 4 5 6 
#
# 1 0.011975 -0.005590 -0.003620 0.000000 0.000000 0.000000
# 2 -0.005590 0.015597 0.001487 0.000000 0.000000 0.000000
# 3 -0.003620 0.001487 0.019854 0.000000 0.000000 0.000000
# 4 0.000000 0.000000 0.000000 0.057390 0.000000 0.000000
# 5 0.000000 0.000000 0.000000 0.000000 0.029454 0.000000
# 6 0.000000 0.000000 0.000000 0.000000 0.000000 0.054822
#
#
# Mechanical properties :
#
#
# Convention : Reuss Voigt Hill
#
# Bulk Modulus (GPa) = 31.26897 38.08720 34.67808
# Shear Modulus (GPa) = 23.23441 26.06861 24.65151
#
# Velocity S-wave (km/s) = 3.39098 3.59185 3.49286
# Velocity P-wave (km/s) = 5.55038 6.00427 5.78178
#
# Compressibility (1/GPa) = 0.03198059
#
# Stress axis : x y z
#
# Youngs Moduli (GPa) = 83.50560 64.11550 50.36773
#
# Poissons Ratio (x) = 0.35840 0.18231
# Poissons Ratio (y) = 0.46679 -0.07489
# Poissons Ratio (z) = 0.30226 -0.09533
#
# Static dielectric constant tensor:
#      x y z
#    x 1.760850 0.000000 0.000000 
#    y 0.000000 1.691060 0.000000 
#    z 0.000000 0.000000 1.718800 
# 
# From -- ./inp_files/10459.got.cif
#   From: 2010.05.17/outbox.cif.g08.bks.cpg/sg58_6_cif.got.tgz:10459.got - 2010.06.03 14:20:14.
