data_PCOD9444754
_publ_section_title
;
Structure prediction by ZEFSAII (Michael W. Deem and Ramdas Pophale) SiO2 
 PCOD9444754
Probable space group: P N N M
;
_chemical_formula_sum "Si O2"
_cell_formula_units_Z 58
_cell_length_a 16.290949
_cell_length_b 18.242813
_cell_length_c 9.631443
_cell_angle_alpha 90.000000
_cell_angle_beta 90.000000
_cell_angle_gamma 90.000000
_cell_volume 2862.394899
_symmetry_space_group_name_H-M "P N N M"
_symmetry_group_IT_number 58
_symmetry_cell_setting 'orthorhombic'
loop_
_space_group_symop_operation_xyz
x,y,z
-x,-y,z
1/2+x,1/2-y,1/2-z
1/2-x,1/2+y,1/2-z
-x,-y,-z
x,y,-z
1/2-x,1/2+y,1/2+z
1/2+x,1/2-y,1/2+z
loop_
_atom_site_type_symbol
_atom_site_label
_atom_site_fract_x
_atom_site_fract_y
_atom_site_fract_z
Si Si1 0.026819 0.080107 0.668003
Si Si2 0.499649 0.884161 0.243569
Si Si3 0.675752 0.923883 0.849714
Si Si4 0.802185 0.847438 0.335149
Si Si5 0.315682 0.904347 0.151358
Si Si6 0.000000 0.500000 0.000000
Si Si7 0.746751 0.215144 0.339282
Si Si8 0.058308 0.768741 0.664905
O O1 0.020603 0.077022 0.500000
O O2 0.120498 0.101354 0.700832
O O3 0.972548 0.150681 0.709085
O O4 0.000000 0.000000 0.721162
O O5 0.578487 0.913931 0.160249
O O6 0.412651 0.891455 0.168729
O O7 0.519306 0.797221 0.253298
O O8 0.495899 0.935096 0.379153
O O9 0.720131 0.885231 0.722152
O O10 0.697038 0.009010 0.843621
O O11 0.703789 0.893491 0.000000
O O12 0.800575 0.836335 0.500000
O O13 0.805725 0.771126 0.253452
O O14 0.269317 0.864192 0.274840
O O15 0.288655 0.876358 0.000000
O O16 0.723406 0.217670 0.500000
O O17 0.843126 0.233907 0.326877
O O18 0.036195 0.758494 0.500000
#
# Coordination Sequence:
#
# PCOD9444754 Si02
#       8
#     8   8   8   8   8   2   8   8
#     4   9  20  40  66  96 127 167 227 280 325 386
#     4  12  23  42  66  92 135 172 222 272 334 414
#     4  11  23  40  64  92 129 173 215 263 334 408
#     4  11  23  39  65  95 128 167 214 277 333 393
#     4  11  24  41  64  92 127 171 219 269 327 403
#     4  12  28  40  62 108 134 168 224 280 350 410
#     4  11  24  40  64  96 132 172 223 275 336 402
#     4  10  21  40  66  93 126 179 227 271 331 408
#
# _framework density 20.262751999999999
#
# number of rings (size 3 to 8) (size 9 to 14) (size 15 to 20)
#    0.000    1.241    2.759    2.897    3.862    2.759 
#    1.241    0.000    0.000    1.655    0.000    0.000 
#    0.000    0.000    0.000    0.000    0.000    0.000 
#
# Total GULP energy -323388.662033 kJ/mol
# GULP energy per Si atom -5575.666587 kJ/mol
# Density = 2.021663 g / cm^3
# Si number density = 20.262752 Si / 1000 Ang^3
#
#
#
# Elastic Constant Matrix: (Units=GPa)
#
#
# Indices 1 2 3 4 5 6 
#
# 1 40.4938 14.2838 24.2475 0.0000 0.0000 0.0000
# 2 14.2838 125.6466 38.1525 0.0000 0.0000 0.0000
# 3 24.2475 38.1525 93.6618 0.0000 0.0000 0.0000
# 4 0.0000 0.0000 0.0000 42.7623 0.0000 0.0000
# 5 0.0000 0.0000 0.0000 0.0000 -2.9786 0.0000
# 6 0.0000 0.0000 0.0000 0.0000 0.0000 20.4167
#
#
#
# Elastic Compliance Matrix: (Units=1/GPa)
#
#
# Indices 1 2 3 4 5 6 
#
# 1 0.029377 -0.001176 -0.007126 0.000000 0.000000 0.000000
# 2 -0.001176 0.009129 -0.003414 0.000000 0.000000 0.000000
# 3 -0.007126 -0.003414 0.013912 0.000000 0.000000 0.000000
# 4 0.000000 0.000000 0.000000 0.023385 0.000000 0.000000
# 5 0.000000 0.000000 0.000000 0.000000 -0.335726 0.000000
# 6 0.000000 0.000000 0.000000 0.000000 0.000000 0.048980
#
#
# Mechanical properties :
#
#
# Convention : Reuss Voigt Hill
#
# Bulk Modulus (GPa) = 34.49951 45.90775 40.20363
# Shear Modulus (GPa) = -28.11400 24.24796 -1.93302
#
# Velocity S-wave (km/s) = -3.72892 3.46305 -0.97778
# Velocity P-wave (km/s) = 1.21522 6.22059 4.31387
#
# Compressibility (1/GPa) = 0.02898592
#
# Stress axis : x y z
#
# Youngs Moduli (GPa) = 34.04014 109.53789 71.87826
#
# Poissons Ratio (x) = 0.12879 0.51223
# Poissons Ratio (y) = 0.04002 0.24542
# Poissons Ratio (z) = 0.24258 0.37400
#
# Static dielectric constant tensor:
#      x y z
#    x 1.712150 0.000000 0.000000 
#    y 0.000000 1.759130 0.000000 
#    z 0.000000 0.000000 1.694010 
# 
# From -- ./inp_files/8059.got.cif
#   From: 2010.05.17/outbox.cif.g08.bks.cpg/sg58_5_cif.got.tgz:8059.got - 2010.06.03 14:20:14.
