data_PCOD9444749
_publ_section_title
;
Structure prediction by ZEFSAII (Michael W. Deem and Ramdas Pophale) SiO2 
 PCOD9444749
Probable space group: P N N M
;
_chemical_formula_sum "Si O2"
_cell_formula_units_Z 40
_cell_length_a 8.419833
_cell_length_b 8.893674
_cell_length_c 27.049206
_cell_angle_alpha 90.000000
_cell_angle_beta 90.000000
_cell_angle_gamma 90.000000
_cell_volume 2025.532451
_symmetry_space_group_name_H-M "P N N M"
_symmetry_group_IT_number 58
_symmetry_cell_setting 'orthorhombic'
loop_
_space_group_symop_operation_xyz
x,y,z
-x,-y,z
1/2+x,1/2-y,1/2-z
1/2-x,1/2+y,1/2-z
-x,-y,-z
x,y,-z
1/2-x,1/2+y,1/2+z
1/2+x,1/2-y,1/2+z
loop_
_atom_site_type_symbol
_atom_site_label
_atom_site_fract_x
_atom_site_fract_y
_atom_site_fract_z
Si Si1 0.436314 0.332386 0.204086
Si Si2 0.436546 0.667814 0.401598
Si Si3 0.562070 0.824010 0.500000
Si Si4 0.424605 0.821218 0.000000
Si Si5 0.556768 0.828798 0.104226
Si Si6 0.943790 0.669184 0.801725
O O1 0.500000 0.500000 0.210140
O O2 0.495866 0.263923 0.152208
O O3 0.246313 0.329834 0.201568
O O4 0.489462 0.236542 0.251136
O O5 0.500000 0.500000 0.406844
O O6 0.489521 0.759507 0.449419
O O7 0.246441 0.668380 0.399156
O O8 0.495841 0.736999 0.349869
O O9 0.741919 0.745034 0.500000
O O10 0.500000 0.000000 0.500000
O O11 0.491584 0.766126 0.947600
O O12 0.500000 0.000000 0.000000
O O13 0.500000 0.000000 0.110371
O O14 0.000000 0.500000 0.808006
#
# Coordination Sequence:
#
# PCOD9444749 Si02
#       6
#     8   8   4   4   8   8
#     4  11  24  40  62  90 123 164 207 256 315 379
#     4  11  23  41  65  93 126 166 211 258 315 381
#     4  12  26  42  65  97 131 167 211 267 322 378
#     4  10  21  40  66  91 122 167 211 257 315 380
#     4  10  22  40  63  91 122 162 208 258 311 373
#     4  11  24  41  63  91 125 162 207 261 316 375
#
# _framework density 19.747893000000001
#
# number of rings (size 3 to 8) (size 9 to 14) (size 15 to 20)
#    0.000    1.200    0.000    6.300    0.000   12.800 
#    0.000    1.500    0.000    0.000    0.000    0.000 
#    0.000    0.000    0.000    0.000    0.000    0.000 
#
# Total GULP energy -223214.670171 kJ/mol
# GULP energy per Si atom -5580.366754 kJ/mol
# Density = 1.970295 g / cm^3
# Si number density = 19.747893 Si / 1000 Ang^3
#
#
#
# Elastic Constant Matrix: (Units=GPa)
#
#
# Indices 1 2 3 4 5 6 
#
# 1 71.2333 31.0716 41.6392 0.0000 0.0000 0.0000
# 2 31.0716 132.8887 71.1140 0.0000 0.0000 0.0000
# 3 41.6392 71.1140 178.1276 0.0000 0.0000 0.0000
# 4 0.0000 0.0000 0.0000 68.6688 0.0000 0.0000
# 5 0.0000 0.0000 0.0000 0.0000 41.6712 0.0000
# 6 0.0000 0.0000 0.0000 0.0000 0.0000 29.6579
#
#
#
# Elastic Compliance Matrix: (Units=1/GPa)
#
#
# Indices 1 2 3 4 5 6 
#
# 1 0.016806 -0.002324 -0.003001 0.000000 0.000000 0.000000
# 2 -0.002324 0.009891 -0.003406 0.000000 0.000000 0.000000
# 3 -0.003001 -0.003406 0.007675 0.000000 0.000000 0.000000
# 4 0.000000 0.000000 0.000000 0.014563 0.000000 0.000000
# 5 0.000000 0.000000 0.000000 0.000000 0.023997 0.000000
# 6 0.000000 0.000000 0.000000 0.000000 0.000000 0.033718
#
#
# Mechanical properties :
#
#
# Convention : Reuss Voigt Hill
#
# Bulk Modulus (GPa) = 59.13040 74.43323 66.78182
# Shear Modulus (GPa) = 38.53640 43.89456 41.21548
#
# Velocity S-wave (km/s) = 4.42228 4.71972 4.57342
# Velocity P-wave (km/s) = 7.48886 8.21429 7.85995
#
# Compressibility (1/GPa) = 0.01691178
#
# Stress axis : x y z
#
# Youngs Moduli (GPa) = 59.50211 101.10361 130.29214
#
# Poissons Ratio (x) = 0.23493 0.39100
# Poissons Ratio (y) = 0.13826 0.44372
# Poissons Ratio (z) = 0.17856 0.34431
#
# Static dielectric constant tensor:
#      x y z
#    x 1.702980 0.000000 0.000000 
#    y 0.000000 1.689590 0.000000 
#    z 0.000000 0.000000 1.676550 
# 
# From -- ./inp_files/33182.got.cif
#   From: 2010.05.17/outbox.cif.g08.bks.cpg/sg58_17_cif.got.tgz:33182.got - 2010.06.03 14:20:14.
