data_PCOD9444490
_publ_section_title
;
Structure prediction by ZEFSAII (Michael W. Deem and Ramdas Pophale) SiO2 
 PCOD9444490
Probable space group: P N N M
;
_chemical_formula_sum "Si O2"
_cell_formula_units_Z 48
_cell_length_a 31.734219
_cell_length_b 9.157232
_cell_length_c 8.725134
_cell_angle_alpha 90.000000
_cell_angle_beta 90.000000
_cell_angle_gamma 90.000000
_cell_volume 2535.503050
_symmetry_space_group_name_H-M "P N N M"
_symmetry_group_IT_number 58
_symmetry_cell_setting 'orthorhombic'
loop_
_space_group_symop_operation_xyz
x,y,z
-x,-y,z
1/2+x,1/2-y,1/2-z
1/2-x,1/2+y,1/2-z
-x,-y,-z
x,y,-z
1/2-x,1/2+y,1/2+z
1/2+x,1/2-y,1/2+z
loop_
_atom_site_type_symbol
_atom_site_label
_atom_site_fract_x
_atom_site_fract_y
_atom_site_fract_z
Si Si1 0.376577 0.080143 0.314807
Si Si2 0.626687 0.580482 0.314853
Si Si3 0.292342 0.584489 0.816232
Si Si4 0.958444 0.910277 0.185129
Si Si5 0.208359 0.410051 0.814898
Si Si6 0.957579 0.584761 0.316323
O O1 0.379508 0.075149 0.500000
O O2 0.333702 0.997590 0.269320
O O3 0.416890 0.999387 0.246475
O O4 0.375017 0.249856 0.268774
O O5 0.630012 0.575248 0.500000
O O6 0.666843 0.499896 0.245016
O O7 0.583699 0.497923 0.270834
O O8 0.250050 0.498676 0.767982
O O9 0.291702 0.748529 0.753204
O O10 0.293303 0.588539 0.000000
O O11 0.958301 0.749171 0.254102
O O12 0.958869 0.898387 0.000000
O O13 0.000000 0.000000 0.231672
O O14 0.208342 0.399611 0.000000
O O15 0.956138 0.587267 0.500000
O O16 0.000000 0.500000 0.267890
#
# Coordination Sequence:
#
# PCOD9444490 Si02
#       6
#     8   8   8   8   8   8
#     4  10  21  39  62  84 110 149 193 233 275 329
#     4  10  21  38  60  86 116 148 186 235 284 331
#     4  11  23  38  59  86 115 150 189 230 282 339
#     4  10  21  38  61  86 111 147 194 236 277 332
#     4  10  22  39  58  83 114 148 188 232 277 328
#     4  11  24  39  56  83 118 151 184 230 287 339
#
# _framework density 18.931155
#
# number of rings (size 3 to 8) (size 9 to 14) (size 15 to 20)
#    0.000    1.667    0.000    4.000    0.000   11.667 
#    0.000    0.000    0.000    0.000    0.000    0.000 
#    0.000    0.000    0.000    0.000    0.000    0.000 
#
# Total GULP energy -268390.629357 kJ/mol
# GULP energy per Si atom -5591.471445 kJ/mol
# Density = 1.888807 g / cm^3
# Si number density = 18.931155 Si / 1000 Ang^3
#
#
#
# Elastic Constant Matrix: (Units=GPa)
#
#
# Indices 1 2 3 4 5 6 
#
# 1 240.5988 149.6585 51.8616 0.0000 0.0000 0.0000
# 2 149.6585 242.4581 49.9264 0.0000 0.0000 0.0000
# 3 51.8616 49.9264 16.6798 0.0000 0.0000 0.0000
# 4 0.0000 0.0000 0.0000 17.0089 0.0000 0.0000
# 5 0.0000 0.0000 0.0000 0.0000 27.4048 0.0000
# 6 0.0000 0.0000 0.0000 0.0000 0.0000 45.0032
#
#
#
# Elastic Compliance Matrix: (Units=1/GPa)
#
#
# Indices 1 2 3 4 5 6 
#
# 1 0.012656 0.000759 -0.041621 0.000000 0.000000 0.000000
# 2 0.000759 0.010796 -0.034674 0.000000 0.000000 0.000000
# 3 -0.041621 -0.034674 0.293151 0.000000 0.000000 0.000000
# 4 0.000000 0.000000 0.000000 0.058793 0.000000 0.000000
# 5 0.000000 0.000000 0.000000 0.000000 0.036490 0.000000
# 6 0.000000 0.000000 0.000000 0.000000 0.000000 0.022221
#
#
# Mechanical properties :
#
#
# Convention : Reuss Voigt Hill
#
# Bulk Modulus (GPa) = 6.04121 111.40331 58.72226
# Shear Modulus (GPa) = 7.80816 34.43607 21.12211
#
# Velocity S-wave (km/s) = 2.03309 4.26962 3.34388
# Velocity P-wave (km/s) = 2.95116 9.12581 6.78196
#
# Compressibility (1/GPa) = 0.16552963
#
# Stress axis : x y z
#
# Youngs Moduli (GPa) = 79.01394 92.62520 3.41121
#
# Poissons Ratio (x) = -0.07026 0.14198
# Poissons Ratio (y) = -0.05994 0.11828
# Poissons Ratio (z) = 3.28865 3.21169
#
# Static dielectric constant tensor:
#      x y z
#    x 1.630550 0.000000 0.000000 
#    y 0.000000 1.611690 0.000000 
#    z 0.000000 0.000000 1.642460 
# 
# From -- ./inp_files/2959.got.cif
#   From: 2010.05.17/outbox.cif.g08.bks.cpg/sg58_2_cif.got.tgz:2959.got - 2010.06.03 14:20:14.
