data_PCOD9444584
_publ_section_title
;
Structure prediction by ZEFSAII (Michael W. Deem and Ramdas Pophale) SiO2 
 PCOD9444584
Probable space group: P N N M
;
_chemical_formula_sum "Si O2"
_cell_formula_units_Z 64
_cell_length_a 20.244519
_cell_length_b 9.742062
_cell_length_c 14.416792
_cell_angle_alpha 90.000000
_cell_angle_beta 90.000000
_cell_angle_gamma 90.000000
_cell_volume 2843.328148
_symmetry_space_group_name_H-M "P N N M"
_symmetry_group_IT_number 58
_symmetry_cell_setting 'orthorhombic'
loop_
_space_group_symop_operation_xyz
x,y,z
-x,-y,z
1/2+x,1/2-y,1/2-z
1/2-x,1/2+y,1/2-z
-x,-y,-z
x,y,-z
1/2-x,1/2+y,1/2+z
1/2+x,1/2-y,1/2+z
loop_
_atom_site_type_symbol
_atom_site_label
_atom_site_fract_x
_atom_site_fract_y
_atom_site_fract_z
Si Si1 0.692581 0.913673 0.361056
Si Si2 0.621186 0.036025 0.898118
Si Si3 0.938019 0.597671 0.892489
Si Si4 0.325098 0.470758 0.810060
Si Si5 0.613786 0.795253 0.783389
Si Si6 0.276761 0.399391 0.396180
Si Si7 0.500737 0.342934 0.707913
Si Si8 0.434595 0.663783 0.893778
O O1 0.679964 0.863522 0.256687
O O2 0.706914 0.763999 0.403996
O O3 0.628674 0.006424 0.384788
O O4 0.756807 0.006396 0.362416
O O5 0.584762 0.925486 0.834218
O O6 0.698000 0.078635 0.880904
O O7 0.581837 0.176413 0.897613
O O8 0.621386 0.972908 0.000000
O O9 0.945188 0.738075 0.833214
O O10 0.000000 0.500000 0.867938
O O11 0.945881 0.637310 0.000000
O O12 0.360943 0.331981 0.841464
O O13 0.312219 0.457170 0.697947
O O14 0.373856 0.590638 0.841125
O O15 0.569421 0.734271 0.700216
O O16 0.293350 0.457567 0.500000
O O17 0.500000 0.500000 0.672424
O O18 0.507069 0.351724 0.819730
O O19 0.443217 0.615646 0.000000
#
# Coordination Sequence:
#
# PCOD9444584 Si02
#       8
#     8   8   8   8   8   8   8   8
#     4  11  21  40  70 100 135 182 227 284 348 412
#     4  10  21  39  64  98 137 174 222 282 341 408
#     4  11  25  45  72 103 135 180 237 292 345 422
#     4  11  23  41  70 100 138 181 229 282 350 418
#     4  11  23  42  64 100 132 184 227 290 344 406
#     4  10  21  38  65 100 139 180 222 278 348 414
#     4  12  26  47  70  97 139 186 235 290 356 411
#     4  11  25  44  71 101 135 181 233 287 347 419
#
# _framework density 22.508832000000002
#
# number of rings (size 3 to 8) (size 9 to 14) (size 15 to 20)
#    0.000    1.125    5.000    1.125    0.000    2.000 
#    0.000    1.875    0.000    0.000    0.000    0.000 
#    0.000    0.000    0.000    0.000    0.000    0.000 
#
# Total GULP energy -356575.374577 kJ/mol
# GULP energy per Si atom -5571.490228 kJ/mol
# Density = 2.245760 g / cm^3
# Si number density = 22.508832 Si / 1000 Ang^3
#
#
#
# Elastic Constant Matrix: (Units=GPa)
#
#
# Indices 1 2 3 4 5 6 
#
# 1 84.0659 27.3821 8.2263 0.0000 0.0000 0.0000
# 2 27.3821 135.9949 41.5914 0.0000 0.0000 0.0000
# 3 8.2263 41.5914 88.7958 0.0000 0.0000 0.0000
# 4 0.0000 0.0000 0.0000 16.5867 0.0000 0.0000
# 5 0.0000 0.0000 0.0000 0.0000 14.0254 0.0000
# 6 0.0000 0.0000 0.0000 0.0000 0.0000 27.5209
#
#
#
# Elastic Compliance Matrix: (Units=1/GPa)
#
#
# Indices 1 2 3 4 5 6 
#
# 1 0.012730 -0.002571 0.000025 0.000000 0.000000 0.000000
# 2 -0.002571 0.009102 -0.004025 0.000000 0.000000 0.000000
# 3 0.000025 -0.004025 0.013145 0.000000 0.000000 0.000000
# 4 0.000000 0.000000 0.000000 0.060289 0.000000 0.000000
# 5 0.000000 0.000000 0.000000 0.000000 0.071299 0.000000
# 6 0.000000 0.000000 0.000000 0.000000 0.000000 0.036336
#
#
# Mechanical properties :
#
#
# Convention : Reuss Voigt Hill
#
# Bulk Modulus (GPa) = 45.79839 51.47289 48.63564
# Shear Modulus (GPa) = 22.38921 27.07041 24.72981
#
# Velocity S-wave (km/s) = 3.15729 3.47170 3.31822
# Velocity P-wave (km/s) = 5.80364 6.24402 6.02785
#
# Compressibility (1/GPa) = 0.02183483
#
# Stress axis : x y z
#
# Youngs Moduli (GPa) = 78.55231 109.86811 76.07563
#
# Poissons Ratio (x) = 0.28245 -0.00188
# Poissons Ratio (y) = 0.20194 0.30621
# Poissons Ratio (z) = -0.00195 0.44223
#
# Static dielectric constant tensor:
#      x y z
#    x 1.882510 0.000000 0.000000 
#    y 0.000000 1.921470 0.000000 
#    z 0.000000 0.000000 1.908010 
# 
# From -- ./inp_files/23562.got.cif
#   From: 2010.05.17/outbox.cif.g08.bks.cpg/sg58_12_cif.got.tgz:23562.got - 2010.06.03 14:20:14.
