data_PCOD9444535
_publ_section_title
;
Structure prediction by ZEFSAII (Michael W. Deem and Ramdas Pophale) SiO2 
 PCOD9444535
Probable space group: P N N M
;
_chemical_formula_sum "Si O2"
_cell_formula_units_Z 48
_cell_length_a 9.811510
_cell_length_b 17.570704
_cell_length_c 14.095525
_cell_angle_alpha 90.000000
_cell_angle_beta 90.000000
_cell_angle_gamma 90.000000
_cell_volume 2429.999978
_symmetry_space_group_name_H-M "P N N M"
_symmetry_group_IT_number 58
_symmetry_cell_setting 'orthorhombic'
loop_
_space_group_symop_operation_xyz
x,y,z
-x,-y,z
1/2+x,1/2-y,1/2-z
1/2-x,1/2+y,1/2-z
-x,-y,-z
x,y,-z
1/2-x,1/2+y,1/2+z
1/2+x,1/2-y,1/2+z
loop_
_atom_site_type_symbol
_atom_site_label
_atom_site_fract_x
_atom_site_fract_y
_atom_site_fract_z
Si Si1 0.096029 0.257649 0.791962
Si Si2 0.258319 0.408868 0.260588
Si Si3 0.707395 0.961825 0.890992
Si Si4 0.657735 0.981167 0.390678
Si Si5 0.174758 0.658059 0.227857
Si Si6 0.990888 0.879689 0.895358
O O1 0.181410 0.336090 0.783860
O O2 0.180745 0.199475 0.727916
O O3 0.944695 0.281304 0.765039
O O4 0.078153 0.204362 0.885037
O O5 0.181534 0.455533 0.345083
O O6 0.258028 0.471232 0.176794
O O7 0.401231 0.388544 0.310421
O O8 0.654696 0.898674 0.817152
O O9 0.870187 0.941959 0.889514
O O10 0.662467 0.955468 0.000000
O O11 0.681990 0.998052 0.500000
O O12 0.667427 0.892831 0.365415
O O13 0.500000 0.000000 0.367618
O O14 0.055309 0.886110 0.000000
#
# Coordination Sequence:
#
# PCOD9444535 Si02
#       6
#     8   8   8   8   8   8
#     4  11  21  37  58  88 122 160 196 246 308 357
#     4  11  20  35  62  89 120 151 205 260 304 342
#     4   9  20  38  62  89 118 157 204 250 306 371
#     4  10  21  38  62  87 116 163 213 251 298 370
#     4  10  21  39  60  85 124 156 202 251 304 364
#     4  10  21  38  63  91 119 161 208 247 299 374
#
# _framework density 19.753086
#
# number of rings (size 3 to 8) (size 9 to 14) (size 15 to 20)
#    0.000    1.833    3.333    1.000    0.000    2.667 
#    0.000    3.333    0.000   20.000    0.000    0.000 
#    0.000    0.000    0.000    0.000    0.000    0.000 
#
# Total GULP energy -267338.377017 kJ/mol
# GULP energy per Si atom -5569.549521 kJ/mol
# Density = 1.970813 g / cm^3
# Si number density = 19.753086 Si / 1000 Ang^3
#
#
#
# Elastic Constant Matrix: (Units=GPa)
#
#
# Indices 1 2 3 4 5 6 
#
# 1 59.8582 18.4473 29.3732 0.0000 0.0000 0.0000
# 2 18.4473 97.2362 21.1242 0.0000 0.0000 0.0000
# 3 29.3732 21.1242 79.6103 0.0000 0.0000 0.0000
# 4 0.0000 0.0000 0.0000 29.1665 0.0000 0.0000
# 5 0.0000 0.0000 0.0000 0.0000 19.3895 0.0000
# 6 0.0000 0.0000 0.0000 0.0000 0.0000 41.3463
#
#
#
# Elastic Compliance Matrix: (Units=1/GPa)
#
#
# Indices 1 2 3 4 5 6 
#
# 1 0.020928 -0.002433 -0.007076 0.000000 0.000000 0.000000
# 2 -0.002433 0.011196 -0.002073 0.000000 0.000000 0.000000
# 3 -0.007076 -0.002073 0.015722 0.000000 0.000000 0.000000
# 4 0.000000 0.000000 0.000000 0.034286 0.000000 0.000000
# 5 0.000000 0.000000 0.000000 0.000000 0.051574 0.000000
# 6 0.000000 0.000000 0.000000 0.000000 0.000000 0.024186
#
#
# Mechanical properties :
#
#
# Convention : Reuss Voigt Hill
#
# Bulk Modulus (GPa) = 40.51566 41.62158 41.06862
# Shear Modulus (GPa) = 26.41516 29.16445 27.78980
#
# Velocity S-wave (km/s) = 3.66083 3.84663 3.75488
# Velocity P-wave (km/s) = 6.19875 6.39104 6.29563
#
# Compressibility (1/GPa) = 0.02468181
#
# Stress axis : x y z
#
# Youngs Moduli (GPa) = 47.78198 89.31582 63.60471
#
# Poissons Ratio (x) = 0.21732 0.45008
# Poissons Ratio (y) = 0.11626 0.13186
# Poissons Ratio (z) = 0.33811 0.18516
#
# Static dielectric constant tensor:
#      x y z
#    x 1.730370 0.000000 0.000000 
#    y 0.000000 1.753750 0.000000 
#    z 0.000000 0.000000 1.681170 
# 
# From -- ./inp_files/19798.got.cif
#   From: 2010.05.17/outbox.cif.g08.bks.cpg/sg58_10_cif.got.tgz:19798.got - 2010.06.03 14:20:14.
