data_PCOD9444192
_publ_section_title
;
Structure prediction by ZEFSAII (Michael W. Deem and Ramdas Pophale) SiO2 
 PCOD9444192
Probable space group: P N N M
;
_chemical_formula_sum "Si O2"
_cell_formula_units_Z 48
_cell_length_a 15.350023
_cell_length_b 19.393051
_cell_length_c 8.912424
_cell_angle_alpha 90.000000
_cell_angle_beta 90.000000
_cell_angle_gamma 90.000000
_cell_volume 2653.084055
_symmetry_space_group_name_H-M "P N N M"
_symmetry_group_IT_number 58
_symmetry_cell_setting 'orthorhombic'
loop_
_space_group_symop_operation_xyz
x,y,z
-x,-y,z
1/2+x,1/2-y,1/2-z
1/2-x,1/2+y,1/2-z
-x,-y,-z
x,y,-z
1/2-x,1/2+y,1/2+z
1/2+x,1/2-y,1/2+z
loop_
_atom_site_type_symbol
_atom_site_label
_atom_site_fract_x
_atom_site_fract_y
_atom_site_fract_z
Si Si1 0.351875 0.668646 0.178467
Si Si2 0.348583 0.325828 0.821194
Si Si3 0.338960 0.827656 0.179529
Si Si4 0.997079 0.080627 0.179154
Si Si5 0.505219 0.919768 0.180176
Si Si6 0.351256 0.176714 0.678794
O O1 0.368918 0.749343 0.213613
O O2 0.415401 0.619069 0.268093
O O3 0.249538 0.657724 0.210699
O O4 0.366076 0.659089 0.000000
O O5 0.250917 0.341574 0.764465
O O6 0.416740 0.380440 0.756514
O O7 0.370330 0.249752 0.757601
O O8 0.352327 0.324750 0.000000
O O9 0.415164 0.880785 0.216204
O O10 0.321819 0.829889 0.000000
O O11 0.988028 0.085942 0.000000
O O12 0.000000 0.000000 0.220105
O O13 0.583394 0.880662 0.261511
O O14 0.500000 0.000000 0.220286
O O15 0.517873 0.914562 0.000000
O O16 0.359130 0.185653 0.500000
#
# Coordination Sequence:
#
# PCOD9444192 Si02
#       6
#     8   8   8   8   8   8
#     4   9  19  36  58  83 110 144 186 233 280 325
#     4  11  22  37  60  85 109 142 186 233 280 332
#     4   9  19  37  58  82 113 145 183 231 277 325
#     4  11  24  39  56  81 114 151 187 226 276 333
#     4  10  21  36  56  84 118 154 188 226 275 329
#     4  10  21  38  60  84 112 145 184 232 280 329
#
# _framework density 18.092153
#
# number of rings (size 3 to 8) (size 9 to 14) (size 15 to 20)
#    0.000    2.000    0.000    4.500    0.000    8.333 
#    0.000    5.000    0.000    0.000    0.000    0.000 
#    0.000    0.000    0.000    0.000    0.000    0.000 
#
# Total GULP energy -268191.817680 kJ/mol
# GULP energy per Si atom -5587.329535 kJ/mol
# Density = 1.805097 g / cm^3
# Si number density = 18.092153 Si / 1000 Ang^3
#
#
#
# Elastic Constant Matrix: (Units=GPa)
#
#
# Indices 1 2 3 4 5 6 
#
# 1 122.4209 124.3948 76.3618 0.0000 0.0000 0.0000
# 2 124.3948 168.8274 85.1501 0.0000 0.0000 0.0000
# 3 76.3618 85.1501 79.1136 0.0000 0.0000 0.0000
# 4 0.0000 0.0000 0.0000 68.5534 0.0000 0.0000
# 5 0.0000 0.0000 0.0000 0.0000 52.9610 0.0000
# 6 0.0000 0.0000 0.0000 0.0000 0.0000 -24.7823
#
#
#
# Elastic Compliance Matrix: (Units=1/GPa)
#
#
# Indices 1 2 3 4 5 6 
#
# 1 0.039010 -0.021333 -0.014693 0.000000 0.000000 0.000000
# 2 -0.021333 0.024623 -0.005911 0.000000 0.000000 0.000000
# 3 -0.014693 -0.005911 0.033183 0.000000 0.000000 0.000000
# 4 0.000000 0.000000 0.000000 0.014587 0.000000 0.000000
# 5 0.000000 0.000000 0.000000 0.000000 0.018882 0.000000
# 6 0.000000 0.000000 0.000000 0.000000 0.000000 -0.040351
#
#
# Mechanical properties :
#
#
# Convention : Reuss Voigt Hill
#
# Bulk Modulus (GPa) = 77.25682 104.68613 90.97148
# Shear Modulus (GPa) = 28.07089 24.97676 26.52383
#
# Velocity S-wave (km/s) = 3.94325 3.71958 3.83304
# Velocity P-wave (km/s) = 7.97037 8.74273 8.36547
#
# Compressibility (1/GPa) = 0.01294384
#
# Stress axis : x y z
#
# Youngs Moduli (GPa) = 25.63439 40.61289 30.13573
#
# Poissons Ratio (x) = 0.86639 0.44277
# Poissons Ratio (y) = 0.54686 0.17812
# Poissons Ratio (z) = 0.37664 0.24005
#
# Static dielectric constant tensor:
#      x y z
#    x 1.599400 0.000000 0.000000 
#    y 0.000000 1.594760 0.000000 
#    z 0.000000 0.000000 1.605100 
# 
# From -- ./inp_files/5798.got.cif
#   From: 2010.05.17/outbox.cif.g08.bks.cpg/sg58_3_cif.got.tgz:5798.got - 2010.06.03 14:20:14.
