data_PCOD9444804
_publ_section_title
;
Structure prediction by ZEFSAII (Michael W. Deem and Ramdas Pophale) SiO2 
 PCOD9444804
Probable space group: P N N M
;
_chemical_formula_sum "Si O2"
_cell_formula_units_Z 56
_cell_length_a 14.785076
_cell_length_b 6.832042
_cell_length_c 27.213402
_cell_angle_alpha 90.000000
_cell_angle_beta 90.000000
_cell_angle_gamma 90.000000
_cell_volume 2748.887244
_symmetry_space_group_name_H-M "P N N M"
_symmetry_group_IT_number 58
_symmetry_cell_setting 'orthorhombic'
loop_
_space_group_symop_operation_xyz
x,y,z
-x,-y,z
1/2+x,1/2-y,1/2-z
1/2-x,1/2+y,1/2-z
-x,-y,-z
x,y,-z
1/2-x,1/2+y,1/2+z
1/2+x,1/2-y,1/2+z
loop_
_atom_site_type_symbol
_atom_site_label
_atom_site_fract_x
_atom_site_fract_y
_atom_site_fract_z
Si Si1 0.124252 0.092407 0.218347
Si Si2 0.743832 0.767426 0.444513
Si Si3 0.687018 0.730707 0.796983
Si Si4 0.405290 0.898689 0.554896
Si Si5 0.603847 0.479869 0.608607
Si Si6 0.893583 0.952833 0.624040
Si Si7 0.083202 0.374768 0.705102
O O1 0.206191 0.240488 0.206004
O O2 0.057668 0.238944 0.248002
O O3 0.153434 0.921417 0.255712
O O4 0.098532 0.996503 0.166992
O O5 0.762901 0.694153 0.500000
O O6 0.685431 0.608949 0.413452
O O7 0.832737 0.863300 0.419714
O O8 0.671328 0.940514 0.448054
O O9 0.650764 0.641559 0.848546
O O10 0.653794 0.951658 0.786499
O O11 0.417031 0.810198 0.500000
O O12 0.375770 0.741476 0.594198
O O13 0.500000 0.000000 0.568323
O O14 0.500000 0.500000 0.588592
O O15 0.887986 0.780713 0.664623
O O16 0.000000 0.000000 0.613593
O O17 0.000000 0.500000 0.686276
#
# Coordination Sequence:
#
# PCOD9444804 Si02
#       7
#     8   8   8   8   8   8   8
#     4  11  25  37  61  94 129 171 217 262 320 393
#     4  11  25  44  69  97 130 171 222 280 337 398
#     4  11  22  42  62  90 126 174 217 268 325 393
#     4  10  21  41  65  90 124 172 216 259 329 401
#     4  12  25  39  63  98 136 171 212 271 333 399
#     4  11  24  43  69  94 125 174 227 275 339 395
#     4  11  23  41  64  90 129 174 217 267 330 398
#
# _framework density 20.371880999999998
#
# number of rings (size 3 to 8) (size 9 to 14) (size 15 to 20)
#    0.000    1.000    4.286    2.143    4.000    2.571 
#    0.000    0.000    0.000    0.429    0.000    0.000 
#    0.000    0.000    0.000    0.000    0.000    0.000 
#
# Total GULP energy -312198.295692 kJ/mol
# GULP energy per Si atom -5574.969566 kJ/mol
# Density = 2.032551 g / cm^3
# Si number density = 20.371881 Si / 1000 Ang^3
#
#
#
# Elastic Constant Matrix: (Units=GPa)
#
#
# Indices 1 2 3 4 5 6 
#
# 1 92.9255 34.3301 34.7717 0.0000 0.0000 0.0000
# 2 34.3301 68.8387 34.4738 0.0000 0.0000 0.0000
# 3 34.7717 34.4738 111.0961 0.0000 0.0000 0.0000
# 4 0.0000 0.0000 0.0000 21.5528 0.0000 0.0000
# 5 0.0000 0.0000 0.0000 0.0000 26.8240 0.0000
# 6 0.0000 0.0000 0.0000 0.0000 0.0000 32.3622
#
#
#
# Elastic Compliance Matrix: (Units=1/GPa)
#
#
# Indices 1 2 3 4 5 6 
#
# 1 0.013791 -0.005584 -0.002584 0.000000 0.000000 0.000000
# 2 -0.005584 0.019460 -0.004291 0.000000 0.000000 0.000000
# 3 -0.002584 -0.004291 0.011141 0.000000 0.000000 0.000000
# 4 0.000000 0.000000 0.000000 0.046398 0.000000 0.000000
# 5 0.000000 0.000000 0.000000 0.000000 0.037280 0.000000
# 6 0.000000 0.000000 0.000000 0.000000 0.000000 0.030900
#
#
# Mechanical properties :
#
#
# Convention : Reuss Voigt Hill
#
# Bulk Modulus (GPa) = 51.34595 53.33459 52.34027
# Shear Modulus (GPa) = 26.26336 27.43344 26.84840
#
# Velocity S-wave (km/s) = 3.59443 3.67363 3.63425
# Velocity P-wave (km/s) = 6.51810 6.65067 6.58472
#
# Compressibility (1/GPa) = 0.01947573
#
# Stress axis : x y z
#
# Youngs Moduli (GPa) = 72.51142 51.38698 89.75521
#
# Poissons Ratio (x) = 0.28693 0.23190
# Poissons Ratio (y) = 0.40488 0.38514
# Poissons Ratio (z) = 0.18735 0.22050
#
# Static dielectric constant tensor:
#      x y z
#    x 1.870580 0.000000 0.000000 
#    y 0.000000 1.780350 0.000000 
#    z 0.000000 0.000000 1.787920 
# 
# From -- ./inp_files/35039.got.cif
#   From: 2010.05.17/outbox.cif.g08.bks.cpg/sg58_18_cif.got.tgz:35039.got - 2010.06.03 14:20:14.
