data_PCOD9444378
_publ_section_title
;
Structure prediction by ZEFSAII (Michael W. Deem and Ramdas Pophale) SiO2 
 PCOD9444378
Probable space group: P N N M
;
_chemical_formula_sum "Si O2"
_cell_formula_units_Z 48
_cell_length_a 9.545011
_cell_length_b 27.650578
_cell_length_c 9.313520
_cell_angle_alpha 90.000000
_cell_angle_beta 90.000000
_cell_angle_gamma 90.000000
_cell_volume 2458.071429
_symmetry_space_group_name_H-M "P N N M"
_symmetry_group_IT_number 58
_symmetry_cell_setting 'orthorhombic'
loop_
_space_group_symop_operation_xyz
x,y,z
-x,-y,z
1/2+x,1/2-y,1/2-z
1/2-x,1/2+y,1/2-z
-x,-y,-z
x,y,-z
1/2-x,1/2+y,1/2+z
1/2+x,1/2-y,1/2+z
loop_
_atom_site_type_symbol
_atom_site_label
_atom_site_fract_x
_atom_site_fract_y
_atom_site_fract_z
Si Si1 0.199239 0.894534 0.330704
Si Si2 0.802065 0.393440 0.665186
Si Si3 0.820113 0.710050 0.172445
Si Si4 0.578456 0.046752 0.834632
Si Si5 0.922723 0.949372 0.669129
Si Si6 0.653933 0.795410 0.328316
O O1 0.227808 0.898966 0.500000
O O2 0.250624 0.841428 0.286536
O O3 0.288980 0.934919 0.250559
O O4 0.036864 0.906776 0.309136
O O5 0.761583 0.384367 0.500000
O O6 0.962340 0.411214 0.666805
O O7 0.707644 0.435813 0.732563
O O8 0.792851 0.345536 0.760347
O O9 0.740416 0.752113 0.256578
O O10 0.986922 0.709512 0.201835
O O11 0.802373 0.716261 0.000000
O O12 0.500000 0.000000 0.773293
O O13 0.616536 0.035806 0.000000
O O14 0.883717 0.950912 0.500000
O O15 0.000000 0.000000 0.701956
O O16 0.671954 0.795788 0.500000
#
# Coordination Sequence:
#
# PCOD9444378 Si02
#       6
#     8   8   8   8   8   8
#     4  10  21  39  61  86 119 157 198 249 298 354
#     4  11  23  39  61  89 123 159 200 250 302 358
#     4  10  23  42  62  90 122 154 201 249 302 364
#     4  10  21  37  59  88 120 156 198 244 297 356
#     4  10  22  39  60  90 125 164 209 251 300 359
#     4  11  24  42  65  90 119 156 199 246 302 364
#
# _framework density 19.527501999999998
#
# number of rings (size 3 to 8) (size 9 to 14) (size 15 to 20)
#    0.000    1.667    1.667    2.000    2.333    4.000 
#    0.000    0.000    0.000    0.000    0.000    0.000 
#    0.000    0.000    0.000    0.000    0.000    0.000 
#
# Total GULP energy -268190.980902 kJ/mol
# GULP energy per Si atom -5587.312102 kJ/mol
# Density = 1.948306 g / cm^3
# Si number density = 19.527502 Si / 1000 Ang^3
#
#
#
# Elastic Constant Matrix: (Units=GPa)
#
#
# Indices 1 2 3 4 5 6 
#
# 1 55.7927 10.8294 36.3220 0.0000 0.0000 0.0000
# 2 10.8294 78.8949 23.7171 0.0000 0.0000 0.0000
# 3 36.3220 23.7171 43.7197 0.0000 0.0000 0.0000
# 4 0.0000 0.0000 0.0000 34.9648 0.0000 0.0000
# 5 0.0000 0.0000 0.0000 0.0000 18.1349 0.0000
# 6 0.0000 0.0000 0.0000 0.0000 0.0000 36.3082
#
#
#
# Elastic Compliance Matrix: (Units=1/GPa)
#
#
# Indices 1 2 3 4 5 6 
#
# 1 0.040943 0.005503 -0.037001 0.000000 0.000000 0.000000
# 2 0.005503 0.015885 -0.013189 0.000000 0.000000 0.000000
# 3 -0.037001 -0.013189 0.060768 0.000000 0.000000 0.000000
# 4 0.000000 0.000000 0.000000 0.028600 0.000000 0.000000
# 5 0.000000 0.000000 0.000000 0.000000 0.055142 0.000000
# 6 0.000000 0.000000 0.000000 0.000000 0.000000 0.027542
#
#
# Mechanical properties :
#
#
# Convention : Reuss Voigt Hill
#
# Bulk Modulus (GPa) = 35.43297 35.57158 35.50227
# Shear Modulus (GPa) = 15.25970 25.05084 20.15527
#
# Velocity S-wave (km/s) = 2.79847 3.58557 3.21619
# Velocity P-wave (km/s) = 5.35037 5.94958 5.65791
#
# Compressibility (1/GPa) = 0.02822230
#
# Stress axis : x y z
#
# Youngs Moduli (GPa) = 24.42393 62.95443 16.45616
#
# Poissons Ratio (x) = -0.34643 0.60889
# Poissons Ratio (y) = -0.13440 0.21704
# Poissons Ratio (z) = 0.90370 0.83029
#
# Static dielectric constant tensor:
#      x y z
#    x 1.675610 0.000000 0.000000 
#    y 0.000000 1.688580 0.000000 
#    z 0.000000 0.000000 1.659560 
# 
# From -- ./inp_files/2934.got.cif
#   From: 2010.05.17/outbox.cif.g08.bks.cpg/sg58_2_cif.got.tgz:2934.got - 2010.06.03 14:20:14.
