data_PCOD9444125
_publ_section_title
;
Structure prediction by ZEFSAII (Michael W. Deem and Ramdas Pophale) SiO2 
 PCOD9444125
Probable space group: P N N M
;
_chemical_formula_sum "Si O2"
_cell_formula_units_Z 48
_cell_length_a 11.995054
_cell_length_b 7.934382
_cell_length_c 24.057021
_cell_angle_alpha 90.000000
_cell_angle_beta 90.000000
_cell_angle_gamma 90.000000
_cell_volume 2289.587052
_symmetry_space_group_name_H-M "P N N M"
_symmetry_group_IT_number 58
_symmetry_cell_setting 'orthorhombic'
loop_
_space_group_symop_operation_xyz
x,y,z
-x,-y,z
1/2+x,1/2-y,1/2-z
1/2-x,1/2+y,1/2-z
-x,-y,-z
x,y,-z
1/2-x,1/2+y,1/2+z
1/2+x,1/2-y,1/2+z
loop_
_atom_site_type_symbol
_atom_site_label
_atom_site_fract_x
_atom_site_fract_y
_atom_site_fract_z
Si Si1 0.780025 0.993895 0.631675
Si Si2 0.070456 0.672641 0.166047
Si Si3 0.127870 0.956624 0.753829
Si Si4 0.349745 0.661742 0.636987
Si Si5 0.541246 0.278865 0.065299
Si Si6 0.329036 0.073870 0.935902
O O1 0.676215 0.865626 0.628230
O O2 0.885899 0.918045 0.598445
O O3 0.809364 0.017645 0.696666
O O4 0.716772 0.169069 0.619847
O O5 0.119325 0.770073 0.219695
O O6 0.000000 0.500000 0.178996
O O7 0.979929 0.795607 0.137808
O O8 0.171267 0.083230 0.801916
O O9 0.000000 0.000000 0.742033
O O10 0.288560 0.543084 0.593813
O O11 0.419307 0.214405 0.086333
O O12 0.609122 0.104477 0.067315
O O13 0.532550 0.324406 0.000000
O O14 0.311380 0.119919 0.000000
#
# Coordination Sequence:
#
# PCOD9444125 Si02
#       6
#     8   8   8   8   8   8
#     4  11  21  35  59  84 119 156 203 243 307 371
#     4   9  20  39  57  83 119 159 194 251 298 357
#     4  10  21  36  57  84 119 153 199 244 295 365
#     4  10  21  35  57  84 118 158 196 251 302 359
#     4   9  20  38  60  88 122 158 206 269 316 364
#     4   9  19  38  61  86 119 161 209 261 320 371
#
# _framework density 20.964479000000001
#
# number of rings (size 3 to 8) (size 9 to 14) (size 15 to 20)
#    0.000    2.333    0.000    3.000    2.333    0.667 
#    0.000    4.167    0.000    9.500    0.000    0.000 
#    0.000    0.000    0.000    0.000    0.000    0.000 
#
# Total GULP energy -267247.844555 kJ/mol
# GULP energy per Si atom -5567.663428 kJ/mol
# Density = 2.091676 g / cm^3
# Si number density = 20.964479 Si / 1000 Ang^3
#
#
#
# Elastic Constant Matrix: (Units=GPa)
#
#
# Indices 1 2 3 4 5 6 
#
# 1 111.0055 20.9246 41.3460 0.0000 0.0000 0.0000
# 2 20.9246 93.1677 -1.5081 0.0000 0.0000 0.0000
# 3 41.3460 -1.5081 30.8052 0.0000 0.0000 0.0000
# 4 0.0000 0.0000 0.0000 13.8660 0.0000 0.0000
# 5 0.0000 0.0000 0.0000 0.0000 37.7185 0.0000
# 6 0.0000 0.0000 0.0000 0.0000 0.0000 31.0555
#
#
#
# Elastic Compliance Matrix: (Units=1/GPa)
#
#
# Indices 1 2 3 4 5 6 
#
# 1 0.020058 -0.004945 -0.027164 0.000000 0.000000 0.000000
# 2 -0.004945 0.011961 0.007222 0.000000 0.000000 0.000000
# 3 -0.027164 0.007222 0.069274 0.000000 0.000000 0.000000
# 4 0.000000 0.000000 0.000000 0.072119 0.000000 0.000000
# 5 0.000000 0.000000 0.000000 0.000000 0.026512 0.000000
# 6 0.000000 0.000000 0.000000 0.000000 0.000000 0.032200
#
#
# Mechanical properties :
#
#
# Convention : Reuss Voigt Hill
#
# Bulk Modulus (GPa) = 19.40975 39.61148 29.51062
# Shear Modulus (GPa) = 16.71847 28.14240 22.43043
#
# Velocity S-wave (km/s) = 2.82701 3.66783 3.27452
# Velocity P-wave (km/s) = 4.46480 6.07231 5.32951
#
# Compressibility (1/GPa) = 0.05152049
#
# Stress axis : x y z
#
# Youngs Moduli (GPa) = 49.85485 83.60681 14.43543
#
# Poissons Ratio (x) = 0.41340 0.39212
# Poissons Ratio (y) = 0.24651 -0.10425
# Poissons Ratio (z) = 1.35424 -0.60381
#
# Static dielectric constant tensor:
#      x y z
#    x 1.781330 0.000000 0.000000 
#    y 0.000000 1.916680 0.000000 
#    z 0.000000 0.000000 1.763480 
# 
# From -- ./inp_files/33513.got.cif
#   From: 2010.05.17/outbox.cif.g08.bks.cpg/sg58_17_cif.got.tgz:33513.got - 2010.06.03 14:20:14.
