data_PCOD9444644
_publ_section_title
;
Structure prediction by ZEFSAII (Michael W. Deem and Ramdas Pophale) SiO2 
 PCOD9444644
Probable space group: P N N M
;
_chemical_formula_sum "Si O2"
_cell_formula_units_Z 64
_cell_length_a 11.593821
_cell_length_b 14.322470
_cell_length_c 18.140327
_cell_angle_alpha 90.000000
_cell_angle_beta 90.000000
_cell_angle_gamma 90.000000
_cell_volume 3012.240363
_symmetry_space_group_name_H-M "P N N M"
_symmetry_group_IT_number 58
_symmetry_cell_setting 'orthorhombic'
loop_
_space_group_symop_operation_xyz
x,y,z
-x,-y,z
1/2+x,1/2-y,1/2-z
1/2-x,1/2+y,1/2-z
-x,-y,-z
x,y,-z
1/2-x,1/2+y,1/2+z
1/2+x,1/2-y,1/2+z
loop_
_atom_site_type_symbol
_atom_site_label
_atom_site_fract_x
_atom_site_fract_y
_atom_site_fract_z
Si Si1 0.237438 0.973600 0.693169
Si Si2 0.664802 0.677724 0.298592
Si Si3 0.610781 0.107549 0.583133
Si Si4 0.782292 0.811415 0.082828
Si Si5 0.554008 0.872095 0.125724
Si Si6 0.072108 0.083623 0.203085
Si Si7 0.419409 0.123866 0.709204
Si Si8 0.181788 0.431481 0.416848
O O1 0.224848 0.871206 0.728780
O O2 0.280870 0.955523 0.610373
O O3 0.130517 0.035288 0.724796
O O4 0.344884 0.031720 0.723698
O O5 0.528154 0.659052 0.286217
O O6 0.667541 0.789173 0.306585
O O7 0.723320 0.618096 0.364883
O O8 0.576372 0.083890 0.500000
O O9 0.652614 0.214032 0.583604
O O10 0.506221 0.106970 0.641947
O O11 0.647769 0.797509 0.100241
O O12 0.835254 0.875245 0.147222
O O13 0.794793 0.850840 0.000000
O O14 0.523796 0.859598 0.211484
O O15 0.433888 0.869172 0.084174
O O16 0.624397 0.969409 0.109108
O O17 0.000000 0.000000 0.165986
O O18 0.225171 0.440699 0.500000
#
# Coordination Sequence:
#
# PCOD9444644 Si02
#       8
#     8   8   8   8   8   8   8   8
#     4  11  23  41  65  94 133 173 225 284 335 404
#     4  11  23  41  65  99 137 173 230 280 345 405
#     4  11  26  44  65  98 136 180 230 283 344 407
#     4  11  21  39  64  95 135 175 221 275 346 412
#     4  11  21  37  61  98 129 175 225 271 337 404
#     4  10  21  39  62  97 133 174 225 276 347 410
#     4  12  23  39  71  92 133 180 224 284 331 408
#     4  11  23  39  62  96 139 175 217 277 345 406
#
# _framework density 21.246645000000001
#
# number of rings (size 3 to 8) (size 9 to 14) (size 15 to 20)
#    0.000    1.000    3.750    4.125    1.750    3.250 
#    0.000    1.250    0.000    3.375    0.000    0.000 
#    0.000    0.000    0.000    0.000    0.000    0.000 
#
# Total GULP energy -356808.658216 kJ/mol
# GULP energy per Si atom -5575.135285 kJ/mol
# Density = 2.119829 g / cm^3
# Si number density = 21.246645 Si / 1000 Ang^3
#
#
#
# Elastic Constant Matrix: (Units=GPa)
#
#
# Indices 1 2 3 4 5 6 
#
# 1 103.9191 22.3154 33.6951 0.0000 0.0000 0.0000
# 2 22.3154 63.8348 15.3880 0.0000 0.0000 0.0000
# 3 33.6951 15.3880 129.6293 0.0000 0.0000 0.0000
# 4 0.0000 0.0000 0.0000 22.9722 0.0000 0.0000
# 5 0.0000 0.0000 0.0000 0.0000 16.6580 0.0000
# 6 0.0000 0.0000 0.0000 0.0000 0.0000 36.1921
#
#
#
# Elastic Compliance Matrix: (Units=1/GPa)
#
#
# Indices 1 2 3 4 5 6 
#
# 1 0.011142 -0.003291 -0.002506 0.000000 0.000000 0.000000
# 2 -0.003291 0.017099 -0.001174 0.000000 0.000000 0.000000
# 3 -0.002506 -0.001174 0.008505 0.000000 0.000000 0.000000
# 4 0.000000 0.000000 0.000000 0.043531 0.000000 0.000000
# 5 0.000000 0.000000 0.000000 0.000000 0.060031 0.000000
# 6 0.000000 0.000000 0.000000 0.000000 0.000000 0.027630
#
#
# Mechanical properties :
#
#
# Convention : Reuss Voigt Hill
#
# Bulk Modulus (GPa) = 43.85158 48.90890 46.38024
# Shear Modulus (GPa) = 26.38778 30.23011 28.30894
#
# Velocity S-wave (km/s) = 3.52799 3.77612 3.65416
# Velocity P-wave (km/s) = 6.10571 6.48704 6.29926
#
# Compressibility (1/GPa) = 0.02280420
#
# Stress axis : x y z
#
# Youngs Moduli (GPa) = 89.75063 58.48292 117.57826
#
# Poissons Ratio (x) = 0.19247 0.29459
# Poissons Ratio (y) = 0.29537 0.13808
# Poissons Ratio (z) = 0.22487 0.06868
#
# Static dielectric constant tensor:
#      x y z
#    x 1.804590 0.000000 0.000000 
#    y 0.000000 1.852060 0.000000 
#    z 0.000000 0.000000 1.788020 
# 
# From -- ./inp_files/26368.got.cif
#   From: 2010.05.17/outbox.cif.g08.bks.cpg/sg58_14_cif.got.tgz:26368.got - 2010.06.03 14:20:14.
