data_PCOD9444320
_publ_section_title
;
Structure prediction by ZEFSAII (Michael W. Deem and Ramdas Pophale) SiO2 
 PCOD9444320
Probable space group: P N N M
;
_chemical_formula_sum "Si O2"
_cell_formula_units_Z 48
_cell_length_a 12.034130
_cell_length_b 23.867395
_cell_length_c 7.688522
_cell_angle_alpha 90.000000
_cell_angle_beta 90.000000
_cell_angle_gamma 90.000000
_cell_volume 2208.322924
_symmetry_space_group_name_H-M "P N N M"
_symmetry_group_IT_number 58
_symmetry_cell_setting 'orthorhombic'
loop_
_space_group_symop_operation_xyz
x,y,z
-x,-y,z
1/2+x,1/2-y,1/2-z
1/2-x,1/2+y,1/2-z
-x,-y,-z
x,y,-z
1/2-x,1/2+y,1/2+z
1/2+x,1/2-y,1/2+z
loop_
_atom_site_type_symbol
_atom_site_label
_atom_site_fract_x
_atom_site_fract_y
_atom_site_fract_z
Si Si1 0.721089 0.613282 0.792944
Si Si2 0.322584 0.655329 0.299186
Si Si3 0.561203 0.056859 0.207261
Si Si4 0.367478 0.779847 0.286277
Si Si5 0.013282 0.062886 0.203231
Si Si6 0.420920 0.160660 0.696234
O O1 0.809605 0.564107 0.751668
O O2 0.780589 0.671337 0.731055
O O3 0.602757 0.596438 0.715625
O O4 0.707429 0.617755 0.000000
O O5 0.359788 0.659357 0.500000
O O6 0.339600 0.717638 0.225465
O O7 0.391936 0.603913 0.220382
O O8 0.191045 0.646437 0.294419
O O9 0.498192 0.106309 0.304077
O O10 0.500000 0.000000 0.255051
O O11 0.548923 0.064828 0.000000
O O12 0.366789 0.781988 0.500000
O O13 0.493466 0.793810 0.229556
O O14 0.042952 0.054275 0.000000
O O15 0.000000 0.000000 0.278729
O O16 0.390021 0.176536 0.500000
#
# Coordination Sequence:
#
# PCOD9444320 Si02
#       6
#     8   8   8   8   8   8
#     4  10  21  38  60  86 118 149 188 244 295 345
#     4  10  21  38  60  82 114 157 195 237 288 344
#     4  10  21  37  60  85 112 150 193 233 281 345
#     4   8  18  37  58  83 114 148 186 236 294 349
#     4  10  23  40  58  83 117 159 203 240 283 350
#     4  10  21  37  57  86 119 145 187 242 292 344
#
# _framework density 21.735952000000001
#
# number of rings (size 3 to 8) (size 9 to 14) (size 15 to 20)
#    0.000    2.333    0.000    2.500    4.667    2.333 
#    0.000    4.167    0.000    0.000    0.000    0.000 
#    0.000    0.000    0.000    0.000    0.000    0.000 
#
# Total GULP energy -267769.396687 kJ/mol
# GULP energy per Si atom -5578.529098 kJ/mol
# Density = 2.168648 g / cm^3
# Si number density = 21.735952 Si / 1000 Ang^3
#
#
#
# Elastic Constant Matrix: (Units=GPa)
#
#
# Indices 1 2 3 4 5 6 
#
# 1 114.2903 32.4591 -13.7751 0.0000 0.0000 0.0000
# 2 32.4591 73.1076 5.2670 0.0000 0.0000 0.0000
# 3 -13.7751 5.2670 35.6109 0.0000 0.0000 0.0000
# 4 0.0000 0.0000 0.0000 5.2747 0.0000 0.0000
# 5 0.0000 0.0000 0.0000 0.0000 12.9313 0.0000
# 6 0.0000 0.0000 0.0000 0.0000 0.0000 9.9178
#
#
#
# Elastic Compliance Matrix: (Units=1/GPa)
#
#
# Indices 1 2 3 4 5 6 
#
# 1 0.010810 -0.005156 0.004944 0.000000 0.000000 0.000000
# 2 -0.005156 0.016285 -0.004403 0.000000 0.000000 0.000000
# 3 0.004944 -0.004403 0.030645 0.000000 0.000000 0.000000
# 4 0.000000 0.000000 0.000000 0.189584 0.000000 0.000000
# 5 0.000000 0.000000 0.000000 0.000000 0.077332 0.000000
# 6 0.000000 0.000000 0.000000 0.000000 0.000000 0.100829
#
#
# Mechanical properties :
#
#
# Convention : Reuss Voigt Hill
#
# Bulk Modulus (GPa) = 20.61416 30.10121 25.35768
# Shear Modulus (GPa) = 11.08934 18.89527 14.99231
#
# Velocity S-wave (km/s) = 2.26118 2.95160 2.62915
# Velocity P-wave (km/s) = 4.04001 5.04922 4.57254
#
# Compressibility (1/GPa) = 0.04851035
#
# Stress axis : x y z
#
# Youngs Moduli (GPa) = 92.50904 61.40722 32.63183
#
# Poissons Ratio (x) = 0.31659 -0.16133
# Poissons Ratio (y) = 0.47694 0.14367
# Poissons Ratio (z) = -0.45736 0.27037
#
# Static dielectric constant tensor:
#      x y z
#    x 1.805710 0.000000 0.000000 
#    y 0.000000 1.841010 0.000000 
#    z 0.000000 0.000000 1.823600 
# 
# From -- ./inp_files/4263.got.cif
#   From: 2010.05.17/outbox.cif.g08.bks.cpg/sg58_3_cif.got.tgz:4263.got - 2010.06.03 14:20:14.
