data_PCOD9444998
_publ_section_title
;
Structure prediction by ZEFSAII (Michael W. Deem and Ramdas Pophale) SiO2 
 PCOD9444998
Probable space group: P N N M
;
_chemical_formula_sum "Si O2"
_cell_formula_units_Z 40
_cell_length_a 27.296377
_cell_length_b 9.505194
_cell_length_c 7.446941
_cell_angle_alpha 90.000000
_cell_angle_beta 90.000000
_cell_angle_gamma 90.000000
_cell_volume 1932.163644
_symmetry_space_group_name_H-M "P N N M"
_symmetry_group_IT_number 58
_symmetry_cell_setting 'orthorhombic'
loop_
_space_group_symop_operation_xyz
x,y,z
-x,-y,z
1/2+x,1/2-y,1/2-z
1/2-x,1/2+y,1/2-z
-x,-y,-z
x,y,-z
1/2-x,1/2+y,1/2+z
1/2+x,1/2-y,1/2+z
loop_
_atom_site_type_symbol
_atom_site_label
_atom_site_fract_x
_atom_site_fract_y
_atom_site_fract_z
Si Si1 0.688546 0.988533 0.791301
Si Si2 0.778835 0.183562 0.716675
Si Si3 0.627173 0.497718 0.787532
Si Si4 0.602766 0.181080 0.785074
Si Si5 0.450640 0.408988 0.500000
Si Si6 0.018542 0.343270 0.000000
O O1 0.729447 0.109809 0.781632
O O2 0.638176 0.055197 0.720264
O O3 0.709433 0.841532 0.716428
O O4 0.678376 0.958851 0.000000
O O5 0.775005 0.187693 0.500000
O O6 0.823909 0.081156 0.764252
O O7 0.629999 0.330410 0.755536
O O8 0.582310 0.555254 0.671680
O O9 0.619163 0.519154 0.000000
O O10 0.553052 0.184923 0.672230
O O11 0.594237 0.168479 0.000000
O O12 0.500000 0.500000 0.500000
O O13 0.470716 0.252612 0.500000
O O14 0.000000 0.500000 0.000000
#
# Coordination Sequence:
#
# PCOD9444998 Si02
#       6
#     8   8   8   8   4   4
#     4  10  22  39  61  91 126 165 207 254 315 379
#     4  10  22  39  61  93 125 165 207 254 316 380
#     4  10  22  41  67  93 127 165 209 263 321 378
#     4  10  22  43  66  91 128 167 209 264 320 376
#     4  12  24  44  66  98 126 166 220 266 314 380
#     4  12  28  44  64  98 128 168 222 264 322 374
#
# _framework density 20.702182000000001
#
# number of rings (size 3 to 8) (size 9 to 14) (size 15 to 20)
#    0.000    1.600    2.000    1.200    5.600    4.000 
#    0.000    0.000    0.000    0.000    0.000    0.000 
#    0.000    0.000    0.000    0.000    0.000    0.000 
#
# Total GULP energy -223524.591739 kJ/mol
# GULP energy per Si atom -5588.114793 kJ/mol
# Density = 2.065506 g / cm^3
# Si number density = 20.702182 Si / 1000 Ang^3
#
#
#
# Elastic Constant Matrix: (Units=GPa)
#
#
# Indices 1 2 3 4 5 6 
#
# 1 51.5382 -0.0415 8.8861 0.0000 0.0000 0.0000
# 2 -0.0415 107.4962 14.1868 0.0000 0.0000 0.0000
# 3 8.8861 14.1868 58.2970 0.0000 0.0000 0.0000
# 4 0.0000 0.0000 0.0000 19.0638 0.0000 0.0000
# 5 0.0000 0.0000 0.0000 0.0000 7.3464 0.0000
# 6 0.0000 0.0000 0.0000 0.0000 0.0000 47.3460
#
#
#
# Elastic Compliance Matrix: (Units=1/GPa)
#
#
# Indices 1 2 3 4 5 6 
#
# 1 0.019945 0.000422 -0.003143 0.000000 0.000000 0.000000
# 2 0.000422 0.009620 -0.002406 0.000000 0.000000 0.000000
# 3 -0.003143 -0.002406 0.018218 0.000000 0.000000 0.000000
# 4 0.000000 0.000000 0.000000 0.052456 0.000000 0.000000
# 5 0.000000 0.000000 0.000000 0.000000 0.136121 0.000000
# 6 0.000000 0.000000 0.000000 0.000000 0.000000 0.021121
#
#
# Mechanical properties :
#
#
# Convention : Reuss Voigt Hill
#
# Bulk Modulus (GPa) = 26.64429 29.26602 27.95515
# Shear Modulus (GPa) = 17.84157 27.70456 22.77307
#
# Velocity S-wave (km/s) = 2.93886 3.66217 3.32027
# Velocity P-wave (km/s) = 4.94106 5.66121 5.31335
#
# Compressibility (1/GPa) = 0.03753150
#
# Stress axis : x y z
#
# Youngs Moduli (GPa) = 50.13707 103.94698 54.89072
#
# Poissons Ratio (x) = -0.04392 0.17252
# Poissons Ratio (y) = -0.02118 0.13204
# Poissons Ratio (z) = 0.15758 0.25005
#
# Static dielectric constant tensor:
#      x y z
#    x 1.726140 0.000000 0.000000 
#    y 0.000000 1.888190 0.000000 
#    z 0.000000 0.000000 1.748970 
# 
# From -- ./inp_files/9609.got.cif
#   From: 2010.05.17/outbox.cif.g08.bks.cpg/sg58_5_cif.got.tgz:9609.got - 2010.06.03 14:20:14.
