data_PCOD9444138
_publ_section_title
;
Structure prediction by ZEFSAII (Michael W. Deem and Ramdas Pophale) SiO2 
 PCOD9444138
Probable space group: P N N M
;
_chemical_formula_sum "Si O2"
_cell_formula_units_Z 64
_cell_length_a 29.637628
_cell_length_b 5.448360
_cell_length_c 18.768882
_cell_angle_alpha 90.000000
_cell_angle_beta 90.000000
_cell_angle_gamma 90.000000
_cell_volume 3030.732753
_symmetry_space_group_name_H-M "P N N M"
_symmetry_group_IT_number 58
_symmetry_cell_setting 'orthorhombic'
loop_
_space_group_symop_operation_xyz
x,y,z
-x,-y,z
1/2+x,1/2-y,1/2-z
1/2-x,1/2+y,1/2-z
-x,-y,-z
x,y,-z
1/2-x,1/2+y,1/2+z
1/2+x,1/2-y,1/2+z
loop_
_atom_site_type_symbol
_atom_site_label
_atom_site_fract_x
_atom_site_fract_y
_atom_site_fract_z
Si Si1 0.972310 0.748455 0.414481
Si Si2 0.952393 0.903841 0.197461
Si Si3 0.409806 0.809948 0.421636
Si Si4 0.249361 0.670266 0.345106
Si Si5 0.606268 0.160766 0.190559
Si Si6 0.374033 0.194858 0.693439
Si Si7 0.825532 0.051921 0.922213
Si Si8 0.296875 0.667344 0.190260
O O1 0.968401 0.762530 0.500000
O O2 0.922459 0.701667 0.381028
O O3 0.000000 0.500000 0.396282
O O4 0.000000 0.000000 0.392723
O O5 0.953526 0.795636 0.117923
O O6 0.933527 0.707845 0.252552
O O7 0.914021 0.109880 0.198605
O O8 0.000000 0.000000 0.220067
O O9 0.417713 0.910242 0.500000
O O10 0.372532 0.595305 0.425775
O O11 0.389463 0.000614 0.366228
O O12 0.285410 0.637617 0.408082
O O13 0.276876 0.677324 0.270287
O O14 0.219259 0.422822 0.345311
O O15 0.222535 0.924954 0.347212
O O16 0.648878 0.342148 0.192010
O O17 0.629702 0.922491 0.228116
O O18 0.329801 0.297017 0.652275
O O19 0.819998 0.177072 0.000000
#
# Coordination Sequence:
#
# PCOD9444138 Si02
#       8
#     8   8   8   8   8   8   8   8
#     4  10  24  46  71 101 134 173 219 267 335 419
#     4  10  22  36  54  85 123 157 213 269 324 380
#     4   9  19  35  54  80 117 165 215 263 320 377
#     4  10  22  39  60  88 126 165 211 270 321 387
#     4  11  24  37  65  94 127 166 211 275 334 398
#     4  10  21  35  60  89 125 164 216 270 328 382
#     4  10  21  38  61  89 125 172 221 269 319 383
#     4  10  23  38  61  91 124 161 212 266 331 386
#
# _framework density 21.117004000000001
#
# number of rings (size 3 to 8) (size 9 to 14) (size 15 to 20)
#    0.000    2.000    0.000    3.000   12.250    2.250 
#    0.000    1.875    0.000    0.000    0.000    0.000 
#    0.000    0.000    0.000    0.000    0.000    0.000 
#
# Total GULP energy -356538.708550 kJ/mol
# GULP energy per Si atom -5570.917321 kJ/mol
# Density = 2.106894 g / cm^3
# Si number density = 21.117004 Si / 1000 Ang^3
#
#
#
# Elastic Constant Matrix: (Units=GPa)
#
#
# Indices 1 2 3 4 5 6 
#
# 1 62.7365 4.5816 21.2873 0.0000 0.0000 0.0000
# 2 4.5816 76.6075 21.1000 0.0000 0.0000 0.0000
# 3 21.2873 21.1000 58.3445 0.0000 0.0000 0.0000
# 4 0.0000 0.0000 0.0000 17.1425 0.0000 0.0000
# 5 0.0000 0.0000 0.0000 0.0000 -18.2453 0.0000
# 6 0.0000 0.0000 0.0000 0.0000 0.0000 12.3865
#
#
#
# Elastic Compliance Matrix: (Units=1/GPa)
#
#
# Indices 1 2 3 4 5 6 
#
# 1 0.018239 0.000824 -0.006952 0.000000 0.000000 0.000000
# 2 0.000824 0.014535 -0.005557 0.000000 0.000000 0.000000
# 3 -0.006952 -0.005557 0.021686 0.000000 0.000000 0.000000
# 4 0.000000 0.000000 0.000000 0.058335 0.000000 0.000000
# 5 0.000000 0.000000 0.000000 0.000000 -0.054809 0.000000
# 6 0.000000 0.000000 0.000000 0.000000 0.000000 0.080733
#
#
# Mechanical properties :
#
#
# Convention : Reuss Voigt Hill
#
# Bulk Modulus (GPa) = 32.16634 32.40291 32.28462
# Shear Modulus (GPa) = 28.99353 12.30471 20.64912
#
# Velocity S-wave (km/s) = 3.70941 2.41652 3.13044
# Velocity P-wave (km/s) = 5.79757 4.81289 5.32803
#
# Compressibility (1/GPa) = 0.03108840
#
# Stress axis : x y z
#
# Youngs Moduli (GPa) = 54.82884 68.80005 46.11277
#
# Poissons Ratio (x) = -0.05670 0.32060
# Poissons Ratio (y) = -0.04519 0.25626
# Poissons Ratio (z) = 0.38120 0.38233
#
# Static dielectric constant tensor:
#      x y z
#    x 1.755220 0.000000 0.000000 
#    y 0.000000 1.873690 0.000000 
#    z 0.000000 0.000000 1.820450 
# 
# From -- ./inp_files/27786.got.cif
#   From: 2010.05.17/outbox.cif.g08.bks.cpg/sg58_14_cif.got.tgz:27786.got - 2010.06.03 14:20:14.
