data_PCOD9444034
_publ_section_title
;
Structure prediction by ZEFSAII (Michael W. Deem and Ramdas Pophale) SiO2 
 PCOD9444034
Probable space group: P N N M
;
_chemical_formula_sum "Si O2"
_cell_formula_units_Z 58
_cell_length_a 16.215714
_cell_length_b 7.274841
_cell_length_c 21.133610
_cell_angle_alpha 90.000000
_cell_angle_beta 90.000000
_cell_angle_gamma 90.000000
_cell_volume 2493.063098
_symmetry_space_group_name_H-M "P N N M"
_symmetry_group_IT_number 58
_symmetry_cell_setting 'orthorhombic'
loop_
_space_group_symop_operation_xyz
x,y,z
-x,-y,z
1/2+x,1/2-y,1/2-z
1/2-x,1/2+y,1/2-z
-x,-y,-z
x,y,-z
1/2-x,1/2+y,1/2+z
1/2+x,1/2-y,1/2+z
loop_
_atom_site_type_symbol
_atom_site_label
_atom_site_fract_x
_atom_site_fract_y
_atom_site_fract_z
Si Si1 0.155245 0.189726 0.834133
Si Si2 0.500000 0.500000 0.500000
Si Si3 0.342213 0.614252 0.202627
Si Si4 0.598014 0.545946 0.070818
Si Si5 0.980591 0.290233 0.891397
Si Si6 0.409249 0.961158 0.170075
Si Si7 0.660827 0.888585 0.293221
Si Si8 0.200556 0.581292 0.428830
O O1 0.158078 0.046375 0.775387
O O2 0.179108 0.396117 0.811022
O O3 0.218656 0.138249 0.889655
O O4 0.063271 0.216043 0.858482
O O5 0.464711 0.356510 0.554421
O O6 0.362133 0.514860 0.137401
O O7 0.412405 0.769793 0.206617
O O8 0.250378 0.696927 0.198663
O O9 0.500000 0.500000 0.075567
O O10 0.631985 0.755286 0.068661
O O11 0.622605 0.470931 0.000000
O O12 0.907443 0.314957 0.841067
O O13 0.000000 0.500000 0.914686
O O14 0.500000 0.000000 0.147451
O O15 0.373082 0.105919 0.220990
O O16 0.347955 0.932345 0.112019
O O17 0.222294 0.529651 0.500000
#
# Coordination Sequence:
#
# PCOD9444034 Si02
#       8
#     8   2   8   8   8   8   8   8
#     4  10  21  42  65  94 130 177 226 272 352 407
#     4  12  26  48  64 110 132 180 250 276 348 430
#     4  11  21  39  69  96 125 169 222 284 326 408
#     4  10  22  41  63  93 129 168 215 267 329 401
#     4  10  24  46  71  97 143 190 225 295 351 419
#     4  11  23  40  65  96 131 169 215 275 354 411
#     4  10  20  42  66  94 129 170 227 277 348 410
#     4  11  23  39  62  91 131 176 215 268 329 408
#
# _framework density 23.264551999999998
#
# number of rings (size 3 to 8) (size 9 to 14) (size 15 to 20)
#    0.000    1.517    2.759    3.103    0.966    1.931 
#    6.207    0.000    0.000    0.000    0.000    0.000 
#    0.000    0.000    0.000    0.000    0.000    0.000 
#
# Total GULP energy -323001.955377 kJ/mol
# GULP energy per Si atom -5568.999231 kJ/mol
# Density = 2.321160 g / cm^3
# Si number density = 23.264552 Si / 1000 Ang^3
#
#
#
# Elastic Constant Matrix: (Units=GPa)
#
#
# Indices 1 2 3 4 5 6 
#
# 1 92.8130 -3.0477 51.4850 0.0000 0.0000 0.0000
# 2 -3.0477 43.3131 35.0738 0.0000 0.0000 0.0000
# 3 51.4850 35.0738 202.4680 0.0000 0.0000 0.0000
# 4 0.0000 0.0000 0.0000 45.9550 0.0000 0.0000
# 5 0.0000 0.0000 0.0000 0.0000 4.3065 0.0000
# 6 0.0000 0.0000 0.0000 0.0000 0.0000 23.4424
#
#
#
# Elastic Compliance Matrix: (Units=1/GPa)
#
#
# Indices 1 2 3 4 5 6 
#
# 1 0.013179 0.004235 -0.004085 0.000000 0.000000 0.000000
# 2 0.004235 0.028216 -0.005965 0.000000 0.000000 0.000000
# 3 -0.004085 -0.005965 0.007011 0.000000 0.000000 0.000000
# 4 0.000000 0.000000 0.000000 0.021760 0.000000 0.000000
# 5 0.000000 0.000000 0.000000 0.000000 0.232209 0.000000
# 6 0.000000 0.000000 0.000000 0.000000 0.000000 0.042658
#
#
# Mechanical properties :
#
#
# Convention : Reuss Voigt Hill
#
# Bulk Modulus (GPa) = 27.19066 56.17961 41.68514
# Shear Modulus (GPa) = 13.55301 31.74631 22.64966
#
# Velocity S-wave (km/s) = 2.41625 3.69803 3.12359
# Velocity P-wave (km/s) = 4.41558 6.51417 5.56470
#
# Compressibility (1/GPa) = 0.03677733
#
# Stress axis : x y z
#
# Youngs Moduli (GPa) = 75.87549 35.44099 142.63022
#
# Poissons Ratio (x) = -0.15010 0.58265
# Poissons Ratio (y) = -0.32136 0.85077
# Poissons Ratio (z) = 0.30996 0.21140
#
# Static dielectric constant tensor:
#      x y z
#    x 1.853310 0.000000 0.000000 
#    y 0.000000 1.970790 0.000000 
#    z 0.000000 0.000000 1.894590 
# 
# From -- ./inp_files/27296.got.cif
#   From: 2010.05.17/outbox.cif.g08.bks.cpg/sg58_14_cif.got.tgz:27296.got - 2010.06.03 14:20:14.
