data_PCOD9444908
_publ_section_title
;
Structure prediction by ZEFSAII (Michael W. Deem and Ramdas Pophale) SiO2 
 PCOD9444908
Probable space group: P N N M
;
_chemical_formula_sum "Si O2"
_cell_formula_units_Z 58
_cell_length_a 12.416771
_cell_length_b 29.470510
_cell_length_c 7.481503
_cell_angle_alpha 90.000000
_cell_angle_beta 90.000000
_cell_angle_gamma 90.000000
_cell_volume 2737.695724
_symmetry_space_group_name_H-M "P N N M"
_symmetry_group_IT_number 58
_symmetry_cell_setting 'orthorhombic'
loop_
_space_group_symop_operation_xyz
x,y,z
-x,-y,z
1/2+x,1/2-y,1/2-z
1/2-x,1/2+y,1/2-z
-x,-y,-z
x,y,-z
1/2-x,1/2+y,1/2+z
1/2+x,1/2-y,1/2+z
loop_
_atom_site_type_symbol
_atom_site_label
_atom_site_fract_x
_atom_site_fract_y
_atom_site_fract_z
Si Si1 0.502031 0.853431 0.795479
Si Si2 0.347192 0.334883 0.284145
Si Si3 0.807149 0.992545 0.291117
Si Si4 0.191110 0.416668 0.209025
Si Si5 0.724705 0.894097 0.781739
Si Si6 0.651133 0.225115 0.216456
Si Si7 0.088776 0.172531 0.210422
Si Si8 0.000000 0.000000 0.000000
O O1 0.412084 0.892946 0.796185
O O2 0.612884 0.871943 0.717638
O O3 0.442000 0.809325 0.716783
O O4 0.527138 0.840933 0.000000
O O5 0.350438 0.332128 0.500000
O O6 0.290775 0.382278 0.237446
O O7 0.265413 0.295520 0.222760
O O8 0.468201 0.331264 0.214576
O O9 0.837646 0.000754 0.500000
O O10 0.744488 0.945098 0.279795
O O11 0.729491 0.033973 0.232575
O O12 0.907804 0.991401 0.157411
O O13 0.165791 0.418792 0.000000
O O14 0.824265 0.862989 0.719521
O O15 0.722856 0.894717 0.000000
O O16 0.630587 0.276372 0.269968
O O17 0.650750 0.223052 0.000000
O O18 0.079485 0.162297 0.000000
#
# Coordination Sequence:
#
# PCOD9444908 Si02
#       8
#     8   8   8   8   8   8   8   2
#     4   9  20  39  64  87 124 169 215 258 318 397
#     4   9  20  37  58  83 116 156 205 250 307 389
#     4  11  26  43  66 101 131 169 226 268 323 392
#     4  10  22  39  62  94 123 156 208 270 318 374
#     4  10  22  41  61  91 127 171 215 266 328 384
#     4   9  19  36  55  83 117 159 206 258 313 376
#     4  10  22  36  58  85 117 158 208 257 316 389
#     4  12  26  44  72  88 136 184 202 268 326 386
#
# _framework density 21.185701000000002
#
# number of rings (size 3 to 8) (size 9 to 14) (size 15 to 20)
#    0.000    2.207    0.690    1.448    5.793    4.414 
#    0.000    2.759    0.000    0.000    0.000    0.000 
#    0.000    0.000    0.000    0.000    0.000    0.000 
#
# Total GULP energy -323356.740092 kJ/mol
# GULP energy per Si atom -5575.116208 kJ/mol
# Density = 2.113748 g / cm^3
# Si number density = 21.185701 Si / 1000 Ang^3
#
#
#
# Elastic Constant Matrix: (Units=GPa)
#
#
# Indices 1 2 3 4 5 6 
#
# 1 280.1583 406.6315 73.4268 0.0000 0.0000 0.0000
# 2 406.6315 838.3092 143.5997 0.0000 0.0000 0.0000
# 3 73.4268 143.5997 113.0067 0.0000 0.0000 0.0000
# 4 0.0000 0.0000 0.0000 23.6487 0.0000 0.0000
# 5 0.0000 0.0000 0.0000 0.0000 -0.7728 0.0000
# 6 0.0000 0.0000 0.0000 0.0000 0.0000 -2.8481
#
#
#
# Elastic Compliance Matrix: (Units=1/GPa)
#
#
# Indices 1 2 3 4 5 6 
#
# 1 0.012084 -0.005773 -0.000516 0.000000 0.000000 0.000000
# 2 -0.005773 0.004283 -0.001691 0.000000 0.000000 0.000000
# 3 -0.000516 -0.001691 0.011333 0.000000 0.000000 0.000000
# 4 0.000000 0.000000 0.000000 0.042286 0.000000 0.000000
# 5 0.000000 0.000000 0.000000 0.000000 -1.294063 0.000000
# 6 0.000000 0.000000 0.000000 0.000000 0.000000 -0.351114
#
#
# Mechanical properties :
#
#
# Convention : Reuss Voigt Hill
#
# Bulk Modulus (GPa) = 85.17887 275.42114 180.30000
# Shear Modulus (GPa) = -3.21478 44.52666 20.65594
#
# Velocity S-wave (km/s) = -1.23318 4.58944 3.12588
# Velocity P-wave (km/s) = 6.18591 12.58449 9.91552
#
# Compressibility (1/GPa) = 0.01174000
#
# Stress axis : x y z
#
# Youngs Moduli (GPa) = 82.75608 233.48916 88.23692
#
# Poissons Ratio (x) = 1.34794 0.04549
# Poissons Ratio (y) = 0.47775 0.14923
# Poissons Ratio (z) = 0.04267 0.39489
#
# Static dielectric constant tensor:
#      x y z
#    x 1.754960 0.000000 0.000000 
#    y 0.000000 1.725180 0.000000 
#    z 0.000000 0.000000 1.839510 
# 
# From -- ./inp_files/4432.got.cif
#   From: 2010.05.17/outbox.cif.g08.bks.cpg/sg58_3_cif.got.tgz:4432.got - 2010.06.03 14:20:14.
