data_PCOD9444510
_publ_section_title
;
Structure prediction by ZEFSAII (Michael W. Deem and Ramdas Pophale) SiO2 
 PCOD9444510
Probable space group: P N N M
;
_chemical_formula_sum "Si O2"
_cell_formula_units_Z 48
_cell_length_a 12.248233
_cell_length_b 24.010844
_cell_length_c 8.086521
_cell_angle_alpha 90.000000
_cell_angle_beta 90.000000
_cell_angle_gamma 90.000000
_cell_volume 2378.168291
_symmetry_space_group_name_H-M "P N N M"
_symmetry_group_IT_number 58
_symmetry_cell_setting 'orthorhombic'
loop_
_space_group_symop_operation_xyz
x,y,z
-x,-y,z
1/2+x,1/2-y,1/2-z
1/2-x,1/2+y,1/2-z
-x,-y,-z
x,y,-z
1/2-x,1/2+y,1/2+z
1/2+x,1/2-y,1/2+z
loop_
_atom_site_type_symbol
_atom_site_label
_atom_site_fract_x
_atom_site_fract_y
_atom_site_fract_z
Si Si1 0.000391 0.374493 0.201521
Si Si2 0.728721 0.921716 0.702779
Si Si3 0.166859 0.847414 0.190787
Si Si4 0.577478 0.345297 0.192477
Si Si5 0.801499 0.548639 0.800066
Si Si6 0.854650 0.728541 0.193024
O O1 0.083167 0.423950 0.251733
O O2 0.055066 0.316371 0.253447
O O3 0.878126 0.387236 0.256341
O O4 0.000509 0.373739 0.000000
O O5 0.729070 0.921112 0.500000
O O6 0.839823 0.892257 0.757529
O O7 0.716228 0.985647 0.756162
O O8 0.209235 0.908443 0.242093
O O9 0.239084 0.802658 0.289798
O O10 0.038721 0.842348 0.219682
O O11 0.193116 0.838121 0.000000
O O12 0.636848 0.285968 0.210967
O O13 0.555701 0.356789 0.000000
O O14 0.801174 0.548202 0.000000
O O15 0.875412 0.740137 0.000000
#
# Coordination Sequence:
#
# PCOD9444510 Si02
#       6
#     8   8   8   8   8   8
#     4   8  15  30  56  87 113 141 183 234 285 342
#     4   9  18  32  55  87 117 148 186 233 288 351
#     4  11  23  40  59  79 112 155 198 239 288 342
#     4  11  23  37  56  85 119 153 193 238 290 349
#     4   9  17  34  60  86 113 146 190 238 287 346
#     4  10  21  38  61  86 114 148 192 240 292 350
#
# _framework density 20.183599000000001
#
# number of rings (size 3 to 8) (size 9 to 14) (size 15 to 20)
#    0.000    2.333    0.000    4.000    2.333    2.667 
#    0.000    5.000    0.000   10.000    0.000    0.000 
#    0.000    0.000    0.000    0.000    0.000    0.000 
#
# Total GULP energy -268035.350542 kJ/mol
# GULP energy per Si atom -5584.069803 kJ/mol
# Density = 2.013766 g / cm^3
# Si number density = 20.183599 Si / 1000 Ang^3
#
#
#
# Elastic Constant Matrix: (Units=GPa)
#
#
# Indices 1 2 3 4 5 6 
#
# 1 82.8176 6.1023 -5.9787 0.0000 0.0000 0.0000
# 2 6.1023 22.1720 -7.5898 0.0000 0.0000 0.0000
# 3 -5.9787 -7.5898 21.9988 0.0000 0.0000 0.0000
# 4 0.0000 0.0000 0.0000 18.8821 0.0000 0.0000
# 5 0.0000 0.0000 0.0000 0.0000 10.6924 0.0000
# 6 0.0000 0.0000 0.0000 0.0000 0.0000 9.2142
#
#
#
# Elastic Compliance Matrix: (Units=1/GPa)
#
#
# Indices 1 2 3 4 5 6 
#
# 1 0.012444 -0.002571 0.002495 0.000000 0.000000 0.000000
# 2 -0.002571 0.051673 0.017129 0.000000 0.000000 0.000000
# 3 0.002495 0.017129 0.052045 0.000000 0.000000 0.000000
# 4 0.000000 0.000000 0.000000 0.052960 0.000000 0.000000
# 5 0.000000 0.000000 0.000000 0.000000 0.093524 0.000000
# 6 0.000000 0.000000 0.000000 0.000000 0.000000 0.108529
#
#
# Mechanical properties :
#
#
# Convention : Reuss Voigt Hill
#
# Bulk Modulus (GPa) = 6.65475 12.45067 9.55271
# Shear Modulus (GPa) = 12.91462 16.72138 14.81800
#
# Velocity S-wave (km/s) = 2.53228 2.88143 2.71248
# Velocity P-wave (km/s) = 3.44299 4.15358 3.81487
#
# Compressibility (1/GPa) = 0.15026850
#
# Stress axis : x y z
#
# Youngs Moduli (GPa) = 80.35817 19.35244 19.21419
#
# Poissons Ratio (x) = 0.04975 -0.04794
# Poissons Ratio (y) = 0.20659 -0.32912
# Poissons Ratio (z) = -0.20050 -0.33149
#
# Static dielectric constant tensor:
#      x y z
#    x 1.694430 0.000000 0.000000 
#    y 0.000000 1.694390 0.000000 
#    z 0.000000 0.000000 1.713260 
# 
# From -- ./inp_files/4177.got.cif
#   From: 2010.05.17/outbox.cif.g08.bks.cpg/sg58_3_cif.got.tgz:4177.got - 2010.06.03 14:20:14.
