data_PCOD9444712
_publ_section_title
;
Structure prediction by ZEFSAII (Michael W. Deem and Ramdas Pophale) SiO2 
 PCOD9444712
Probable space group: P N N M
;
_chemical_formula_sum "Si O2"
_cell_formula_units_Z 32
_cell_length_a 5.306460
_cell_length_b 21.092269
_cell_length_c 11.206061
_cell_angle_alpha 90.000000
_cell_angle_beta 90.000000
_cell_angle_gamma 90.000000
_cell_volume 1254.241535
_symmetry_space_group_name_H-M "P N N M"
_symmetry_group_IT_number 58
_symmetry_cell_setting 'orthorhombic'
loop_
_space_group_symop_operation_xyz
x,y,z
-x,-y,z
1/2+x,1/2-y,1/2-z
1/2-x,1/2+y,1/2-z
-x,-y,-z
x,y,-z
1/2-x,1/2+y,1/2+z
1/2+x,1/2-y,1/2+z
loop_
_atom_site_type_symbol
_atom_site_label
_atom_site_fract_x
_atom_site_fract_y
_atom_site_fract_z
Si Si1 0.256260 0.541128 0.241551
Si Si2 0.441951 0.076589 0.500000
Si Si3 0.652721 0.933531 0.000000
Si Si4 0.523622 0.711736 0.743150
Si Si5 0.887522 0.178247 0.500000
Si Si6 0.799286 0.687431 0.500000
O O1 0.500000 0.500000 0.211431
O O2 0.298878 0.569023 0.373874
O O3 0.000000 0.500000 0.253775
O O4 0.198984 0.582737 0.125464
O O5 0.635290 0.134611 0.500000
O O6 0.500000 0.000000 0.500000
O O7 0.500000 0.000000 0.000000
O O8 0.463907 0.875123 0.000000
O O9 0.733174 0.767409 0.766331
O O10 0.559866 0.667971 0.857723
O O11 0.624252 0.688426 0.616319
O O12 0.020424 0.249859 0.500000
#
# Coordination Sequence:
#
# PCOD9444712 Si02
#       6
#     8   4   4   8   4   4
#     4  10  21  40  63  92 126 166 212 266 323 386
#     4  10  21  40  63  91 123 163 209 264 324 386
#     4  10  21  40  64  95 134 174 220 272 331 396
#     4  10  21  40  62  90 124 164 210 262 320 386
#     4  10  21  40  62  91 125 163 212 264 320 386
#     4  10  21  40  65  95 129 174 220 272 331 396
#
# _framework density 25.513427
#
# number of rings (size 3 to 8) (size 9 to 14) (size 15 to 20)
#    0.000    2.000    0.000    3.000    0.000    0.000 
#    0.000   65.000    0.000    0.000    0.000    0.000 
#    0.000    0.000    0.000    0.000    0.000    0.000 
#
# Total GULP energy -178219.351427 kJ/mol
# GULP energy per Si atom -5569.354732 kJ/mol
# Density = 2.545536 g / cm^3
# Si number density = 25.513427 Si / 1000 Ang^3
#
#
#
# Elastic Constant Matrix: (Units=GPa)
#
#
# Indices 1 2 3 4 5 6 
#
# 1 85.3709 60.9971 38.9668 0.0000 0.0000 0.0000
# 2 60.9971 116.9184 40.9633 0.0000 0.0000 0.0000
# 3 38.9668 40.9633 293.1600 0.0000 0.0000 0.0000
# 4 0.0000 0.0000 0.0000 35.2758 0.0000 0.0000
# 5 0.0000 0.0000 0.0000 0.0000 64.6488 0.0000
# 6 0.0000 0.0000 0.0000 0.0000 0.0000 83.8663
#
#
#
# Elastic Compliance Matrix: (Units=1/GPa)
#
#
# Indices 1 2 3 4 5 6 
#
# 1 0.019070 -0.009527 -0.001204 0.000000 0.000000 0.000000
# 2 -0.009527 0.013753 -0.000655 0.000000 0.000000 0.000000
# 3 -0.001204 -0.000655 0.003663 0.000000 0.000000 0.000000
# 4 0.000000 0.000000 0.000000 0.028348 0.000000 0.000000
# 5 0.000000 0.000000 0.000000 0.000000 0.015468 0.000000
# 6 0.000000 0.000000 0.000000 0.000000 0.000000 0.011924
#
#
# Mechanical properties :
#
#
# Convention : Reuss Voigt Hill
#
# Bulk Modulus (GPa) = 72.92141 86.36710 79.64425
# Shear Modulus (GPa) = 41.81666 60.39298 51.10482
#
# Velocity S-wave (km/s) = 4.05286 4.87057 4.48041
# Velocity P-wave (km/s) = 7.10946 8.09661 7.61904
#
# Compressibility (1/GPa) = 0.01371339
#
# Stress axis : x y z
#
# Youngs Moduli (GPa) = 52.43786 72.71106 273.02609
#
# Poissons Ratio (x) = 0.69275 0.32860
# Poissons Ratio (y) = 0.49959 0.17893
# Poissons Ratio (z) = 0.06311 0.04765
#
# Static dielectric constant tensor:
#      x y z
#    x 1.962640 0.000000 0.000000 
#    y 0.000000 1.985600 0.000000 
#    z 0.000000 0.000000 2.015790 
# 
# From -- ./inp_files/11565.got.cif
#   From: 2010.05.17/outbox.cif.g08.bks.cpg/sg58_6_cif.got.tgz:11565.got - 2010.06.03 14:20:14.
