data_PCOD9444485
_publ_section_title
;
Structure prediction by ZEFSAII (Michael W. Deem and Ramdas Pophale) SiO2 
 PCOD9444485
Probable space group: P N N M
;
_chemical_formula_sum "Si O2"
_cell_formula_units_Z 44
_cell_length_a 13.925155
_cell_length_b 8.479881
_cell_length_c 19.715865
_cell_angle_alpha 90.000000
_cell_angle_beta 90.000000
_cell_angle_gamma 90.000000
_cell_volume 2328.121446
_symmetry_space_group_name_H-M "P N N M"
_symmetry_group_IT_number 58
_symmetry_cell_setting 'orthorhombic'
loop_
_space_group_symop_operation_xyz
x,y,z
-x,-y,z
1/2+x,1/2-y,1/2-z
1/2-x,1/2+y,1/2-z
-x,-y,-z
x,y,-z
1/2-x,1/2+y,1/2+z
1/2+x,1/2-y,1/2+z
loop_
_atom_site_type_symbol
_atom_site_label
_atom_site_fract_x
_atom_site_fract_y
_atom_site_fract_z
Si Si1 0.342379 0.229597 0.303414
Si Si2 0.500000 0.000000 0.739224
Si Si3 0.741157 0.092312 0.078088
Si Si4 0.342434 0.245394 0.919300
Si Si5 0.829710 0.007847 0.688869
Si Si6 0.554831 0.221728 0.856205
O O1 0.436084 0.120456 0.303338
O O2 0.314139 0.321826 0.371517
O O3 0.255046 0.109065 0.288447
O O4 0.351066 0.360183 0.244744
O O5 0.438057 0.894700 0.791729
O O6 0.636709 0.170897 0.091004
O O7 0.723023 0.907940 0.093593
O O8 0.768806 0.108919 0.000000
O O9 0.302972 0.396100 0.879177
O O10 0.449288 0.214662 0.888790
O O11 0.349567 0.269155 0.000000
O O12 0.917169 0.893577 0.670216
#
# Coordination Sequence:
#
# PCOD9444485 Si02
#       6
#     8   4   8   8   8   8
#     4  11  23  38  59  83 120 165 212 257 299 356
#     4  12  22  38  60  92 120 162 204 258 302 356
#     4  10  21  38  60  84 120 165 204 248 309 370
#     4  11  21  35  58  92 128 160 195 245 309 383
#     4  11  22  37  56  85 121 165 202 253 302 367
#     4  11  20  35  60  90 125 155 197 245 317 378
#
# _framework density 18.899357999999999
#
# number of rings (size 3 to 8) (size 9 to 14) (size 15 to 20)
#    0.000    1.091    3.636    4.364    0.000    5.818 
#    0.000    0.455    0.000    0.000    0.000    5.091 
#    0.000    0.000    0.000    0.000    0.000    0.000 
#
# Total GULP energy -245781.324568 kJ/mol
# GULP energy per Si atom -5585.939195 kJ/mol
# Density = 1.885634 g / cm^3
# Si number density = 18.899358 Si / 1000 Ang^3
#
#
#
# Elastic Constant Matrix: (Units=GPa)
#
#
# Indices 1 2 3 4 5 6 
#
# 1 37.1329 41.1033 43.3521 0.0000 0.0000 0.0000
# 2 41.1033 152.7809 72.1617 0.0000 0.0000 0.0000
# 3 43.3521 72.1617 104.5127 0.0000 0.0000 0.0000
# 4 0.0000 0.0000 0.0000 30.8450 0.0000 0.0000
# 5 0.0000 0.0000 0.0000 0.0000 23.5475 0.0000
# 6 0.0000 0.0000 0.0000 0.0000 0.0000 35.4059
#
#
#
# Elastic Compliance Matrix: (Units=1/GPa)
#
#
# Indices 1 2 3 4 5 6 
#
# 1 0.055746 -0.006048 -0.018948 0.000000 0.000000 0.000000
# 2 -0.006048 0.010369 -0.004651 0.000000 0.000000 0.000000
# 3 -0.018948 -0.004651 0.020639 0.000000 0.000000 0.000000
# 4 0.000000 0.000000 0.000000 0.032420 0.000000 0.000000
# 5 0.000000 0.000000 0.000000 0.000000 0.042467 0.000000
# 6 0.000000 0.000000 0.000000 0.000000 0.000000 0.028244
#
#
# Mechanical properties :
#
#
# Convention : Reuss Voigt Hill
#
# Bulk Modulus (GPa) = 36.41497 67.51784 51.96641
# Shear Modulus (GPa) = 19.35491 27.14697 23.25094
#
# Velocity S-wave (km/s) = 3.20363 3.79409 3.51130
# Velocity P-wave (km/s) = 5.74404 7.41593 6.63287
#
# Compressibility (1/GPa) = 0.02746123
#
# Stress axis : x y z
#
# Youngs Moduli (GPa) = 17.93838 96.44041 48.45254
#
# Poissons Ratio (x) = 0.58330 0.91806
# Poissons Ratio (y) = 0.10850 0.22533
# Poissons Ratio (z) = 0.33989 0.44850
#
# Static dielectric constant tensor:
#      x y z
#    x 1.662580 0.000000 0.000000 
#    y 0.000000 1.685050 0.000000 
#    z 0.000000 0.000000 1.633930 
# 
# From -- ./inp_files/26727.got.cif
#   From: 2010.05.17/outbox.cif.g08.bks.cpg/sg58_14_cif.got.tgz:26727.got - 2010.06.03 14:20:14.
