data_PCOD9444063
_publ_section_title
;
Structure prediction by ZEFSAII (Michael W. Deem and Ramdas Pophale) SiO2 
 PCOD9444063
Probable space group: P N N M
;
_chemical_formula_sum "Si O2"
_cell_formula_units_Z 48
_cell_length_a 10.127176
_cell_length_b 14.608887
_cell_length_c 13.491633
_cell_angle_alpha 90.000000
_cell_angle_beta 90.000000
_cell_angle_gamma 90.000000
_cell_volume 1996.043522
_symmetry_space_group_name_H-M "P N N M"
_symmetry_group_IT_number 58
_symmetry_cell_setting 'orthorhombic'
loop_
_space_group_symop_operation_xyz
x,y,z
-x,-y,z
1/2+x,1/2-y,1/2-z
1/2-x,1/2+y,1/2-z
-x,-y,-z
x,y,-z
1/2-x,1/2+y,1/2+z
1/2+x,1/2-y,1/2+z
loop_
_atom_site_type_symbol
_atom_site_label
_atom_site_fract_x
_atom_site_fract_y
_atom_site_fract_z
Si Si1 0.534046 0.646044 0.894175
Si Si2 0.543536 0.793656 0.607888
Si Si3 0.819000 0.554283 0.897540
Si Si4 0.532839 0.599985 0.322866
Si Si5 0.822209 0.531638 0.681901
Si Si6 0.086242 0.650964 0.671184
O O1 0.670613 0.590316 0.898015
O O2 0.474757 0.613297 0.789115
O O3 0.571518 0.753059 0.884915
O O4 0.463841 0.629691 0.000000
O O5 0.612594 0.800592 0.500000
O O6 0.417763 0.860258 0.605893
O O7 0.494843 0.689342 0.618007
O O8 0.610991 0.815462 0.714430
O O9 0.841810 0.502646 0.796675
O O10 0.845089 0.503046 0.000000
O O11 0.500000 0.500000 0.361466
O O12 0.692749 0.593634 0.322652
O O13 0.816910 0.430510 0.633645
O O14 0.946489 0.596428 0.659136
#
# Coordination Sequence:
#
# PCOD9444063 Si02
#       6
#     8   8   8   8   8   8
#     4   9  18  34  53  74 100 134 172 205 244 294
#     4   9  18  33  51  77 104 130 165 204 253 300
#     4   8  15  29  52  75 100 131 166 208 248 294
#     4  10  21  34  52  75 104 135 164 206 252 296
#     4   9  18  33  50  75 104 130 167 207 248 292
#     4   9  18  33  55  74  98 135 168 207 246 291
#
# _framework density 24.047573
#
# number of rings (size 3 to 8) (size 9 to 14) (size 15 to 20)
#    0.000    3.000    0.000    0.000    2.333    1.333 
#    3.000    6.667    0.000    0.000    0.000    0.000 
#    0.000    0.000    0.000    0.000    0.000    0.000 
#
# Total GULP energy -267470.684092 kJ/mol
# GULP energy per Si atom -5572.305919 kJ/mol
# Density = 2.399284 g / cm^3
# Si number density = 24.047573 Si / 1000 Ang^3
#
#
#
# Elastic Constant Matrix: (Units=GPa)
#
#
# Indices 1 2 3 4 5 6 
#
# 1 19.8019 -6.7214 5.5246 0.0000 0.0000 0.0000
# 2 -6.7214 148.9410 11.7185 0.0000 0.0000 0.0000
# 3 5.5246 11.7185 62.7009 0.0000 0.0000 0.0000
# 4 0.0000 0.0000 0.0000 39.6112 0.0000 0.0000
# 5 0.0000 0.0000 0.0000 0.0000 30.1980 0.0000
# 6 0.0000 0.0000 0.0000 0.0000 0.0000 15.1268
#
#
#
# Elastic Compliance Matrix: (Units=1/GPa)
#
#
# Indices 1 2 3 4 5 6 
#
# 1 0.052895 0.002795 -0.005183 0.000000 0.000000 0.000000
# 2 0.002795 0.006962 -0.001547 0.000000 0.000000 0.000000
# 3 -0.005183 -0.001547 0.016695 0.000000 0.000000 0.000000
# 4 0.000000 0.000000 0.000000 0.025245 0.000000 0.000000
# 5 0.000000 0.000000 0.000000 0.000000 0.033115 0.000000
# 6 0.000000 0.000000 0.000000 0.000000 0.000000 0.066108
#
#
# Mechanical properties :
#
#
# Convention : Reuss Voigt Hill
#
# Bulk Modulus (GPa) = 14.56020 28.05411 21.30716
# Shear Modulus (GPa) = 21.57183 31.71533 26.64358
#
# Velocity S-wave (km/s) = 2.99833 3.63555 3.33220
# Velocity P-wave (km/s) = 4.24906 5.41427 4.86667
#
# Compressibility (1/GPa) = 0.06868038
#
# Stress axis : x y z
#
# Youngs Moduli (GPa) = 18.90546 143.63812 59.89961
#
# Poissons Ratio (x) = -0.40144 0.31045
# Poissons Ratio (y) = -0.05284 0.09269
# Poissons Ratio (z) = 0.09798 0.22227
#
# Static dielectric constant tensor:
#      x y z
#    x 1.947940 0.000000 0.000000 
#    y 0.000000 1.886310 0.000000 
#    z 0.000000 0.000000 2.043190 
# 
# From -- ./inp_files/21173.got.cif
#   From: 2010.05.17/outbox.cif.g08.bks.cpg/sg58_11_cif.got.tgz:21173.got - 2010.06.03 14:20:14.
