data_PCOD9444657
_publ_section_title
;
Structure prediction by ZEFSAII (Michael W. Deem and Ramdas Pophale) SiO2 
 PCOD9444657
Probable space group: P N N M
;
_chemical_formula_sum "Si O2"
_cell_formula_units_Z 48
_cell_length_a 16.903636
_cell_length_b 19.017226
_cell_length_c 7.855223
_cell_angle_alpha 90.000000
_cell_angle_beta 90.000000
_cell_angle_gamma 90.000000
_cell_volume 2525.142075
_symmetry_space_group_name_H-M "P N N M"
_symmetry_group_IT_number 58
_symmetry_cell_setting 'orthorhombic'
loop_
_space_group_symop_operation_xyz
x,y,z
-x,-y,z
1/2+x,1/2-y,1/2-z
1/2-x,1/2+y,1/2-z
-x,-y,-z
x,y,-z
1/2-x,1/2+y,1/2+z
1/2+x,1/2-y,1/2+z
loop_
_atom_site_type_symbol
_atom_site_label
_atom_site_fract_x
_atom_site_fract_y
_atom_site_fract_z
Si Si1 0.844797 0.174136 0.806606
Si Si2 0.370924 0.172675 0.195639
Si Si3 0.809908 0.593955 0.297378
Si Si4 0.563216 0.602514 0.000000
Si Si5 0.235177 0.058458 0.797523
Si Si6 0.987143 0.579182 0.802349
Si Si7 0.612693 0.438960 0.000000
O O1 0.859327 0.257187 0.802728
O O2 0.754768 0.153424 0.757161
O O3 0.901431 0.138519 0.668434
O O4 0.857003 0.147144 0.000000
O O5 0.305016 0.114117 0.233951
O O6 0.455406 0.135261 0.216377
O O7 0.360640 0.194421 0.000000
O O8 0.824310 0.595024 0.500000
O O9 0.769240 0.519083 0.256860
O O10 0.895225 0.598667 0.212305
O O11 0.590033 0.521372 0.000000
O O12 0.468468 0.604134 0.000000
O O13 0.164021 0.074258 0.669455
O O14 0.214974 0.060051 0.000000
O O15 0.000000 0.500000 0.731545
O O16 0.010998 0.577133 0.000000
#
# Coordination Sequence:
#
# PCOD9444657 Si02
#       7
#     8   8   8   4   8   8   4
#     4  11  24  44  66  89 130 174 213 262 325 384
#     4  11  23  41  64  91 130 173 212 263 320 382
#     4  10  21  39  63  90 123 169 210 257 319 381
#     4  11  24  44  66  97 121 171 214 264 332 368
#     4  10  22  39  64  96 129 164 210 264 320 377
#     4  11  23  35  59  95 130 167 212 264 318 380
#     4  11  24  40  72  94 125 160 219 278 308 387
#
# _framework density 19.008832000000002
#
# number of rings (size 3 to 8) (size 9 to 14) (size 15 to 20)
#    0.000    1.333    4.167    1.000    4.667    1.333 
#    3.000    1.667    0.000    0.000    0.000    0.000 
#    0.000    0.000    0.000    0.000    0.000    0.000 
#
# Total GULP energy -268155.134906 kJ/mol
# GULP energy per Si atom -5586.565311 kJ/mol
# Density = 1.896557 g / cm^3
# Si number density = 19.008832 Si / 1000 Ang^3
#
#
#
# Elastic Constant Matrix: (Units=GPa)
#
#
# Indices 1 2 3 4 5 6 
#
# 1 142.0347 39.2474 52.6983 0.0000 0.0000 0.0000
# 2 39.2474 78.6767 22.3708 0.0000 0.0000 0.0000
# 3 52.6983 22.3708 74.5418 0.0000 0.0000 0.0000
# 4 0.0000 0.0000 0.0000 0.7314 0.0000 0.0000
# 5 0.0000 0.0000 0.0000 0.0000 26.5385 0.0000
# 6 0.0000 0.0000 0.0000 0.0000 0.0000 25.3560
#
#
#
# Elastic Compliance Matrix: (Units=1/GPa)
#
#
# Indices 1 2 3 4 5 6 
#
# 1 0.010293 -0.003352 -0.006271 0.000000 0.000000 0.000000
# 2 -0.003352 0.014987 -0.002128 0.000000 0.000000 0.000000
# 3 -0.006271 -0.002128 0.018488 0.000000 0.000000 0.000000
# 4 0.000000 0.000000 0.000000 1.367255 0.000000 0.000000
# 5 0.000000 0.000000 0.000000 0.000000 0.037681 0.000000
# 6 0.000000 0.000000 0.000000 0.000000 0.000000 0.039438
#
#
# Mechanical properties :
#
#
# Convention : Reuss Voigt Hill
#
# Bulk Modulus (GPa) = 49.34399 58.20955 53.77677
# Shear Modulus (GPa) = 3.29294 22.58762 12.94028
#
# Velocity S-wave (km/s) = 1.31760 3.45087 2.61195
# Velocity P-wave (km/s) = 5.32255 6.82399 6.11949
#
# Compressibility (1/GPa) = 0.02026589
#
# Stress axis : x y z
#
# Youngs Moduli (GPa) = 97.14913 66.72276 54.09042
#
# Poissons Ratio (x) = 0.22363 0.33921
# Poissons Ratio (y) = 0.32561 0.11512
# Poissons Ratio (z) = 0.60924 0.14201
#
# Static dielectric constant tensor:
#      x y z
#    x 1.629140 0.000000 0.000000 
#    y 0.000000 1.654600 0.000000 
#    z 0.000000 0.000000 1.663710 
# 
# From -- ./inp_files/5931.got.cif
#   From: 2010.05.17/outbox.cif.g08.bks.cpg/sg58_3_cif.got.tgz:5931.got - 2010.06.03 14:20:14.
