data_PCOD9444344
_publ_section_title
;
Structure prediction by ZEFSAII (Michael W. Deem and Ramdas Pophale) SiO2 
 PCOD9444344
Probable space group: P N N M
;
_chemical_formula_sum "Si O2"
_cell_formula_units_Z 56
_cell_length_a 16.344819
_cell_length_b 19.719523
_cell_length_c 9.385510
_cell_angle_alpha 90.000000
_cell_angle_beta 90.000000
_cell_angle_gamma 90.000000
_cell_volume 3025.062820
_symmetry_space_group_name_H-M "P N N M"
_symmetry_group_IT_number 58
_symmetry_cell_setting 'orthorhombic'
loop_
_space_group_symop_operation_xyz
x,y,z
-x,-y,z
1/2+x,1/2-y,1/2-z
1/2-x,1/2+y,1/2-z
-x,-y,-z
x,y,-z
1/2-x,1/2+y,1/2+z
1/2+x,1/2-y,1/2+z
loop_
_atom_site_type_symbol
_atom_site_label
_atom_site_fract_x
_atom_site_fract_y
_atom_site_fract_z
Si Si1 0.108679 0.542167 0.160174
Si Si2 0.527486 0.843376 0.831650
Si Si3 0.712693 0.614459 0.335124
Si Si4 0.594267 0.488308 0.329237
Si Si5 0.331294 0.228828 0.333330
Si Si6 0.214758 0.108212 0.665595
Si Si7 0.621774 0.115537 0.663516
O O1 0.064867 0.584347 0.282524
O O2 0.205368 0.559035 0.173399
O O3 0.093130 0.462800 0.167348
O O4 0.083745 0.565482 0.000000
O O5 0.591980 0.792072 0.761967
O O6 0.439290 0.839946 0.757734
O O7 0.522383 0.836956 0.000000
O O8 0.738688 0.602450 0.500000
O O9 0.645944 0.557044 0.300691
O O10 0.681028 0.691245 0.325686
O O11 0.789093 0.612235 0.230925
O O12 0.500000 0.500000 0.284209
O O13 0.594228 0.477285 0.500000
O O14 0.642409 0.426058 0.255351
O O15 0.346487 0.211350 0.500000
O O16 0.253021 0.181656 0.291158
O O17 0.189901 0.112741 0.500000
O O18 0.622761 0.138053 0.500000
#
# Coordination Sequence:
#
# PCOD9444344 Si02
#       7
#     8   8   8   8   8   8   8
#     4   9  18  33  54  80 112 147 182 223 279 342
#     4  11  22  34  53  83 115 147 190 234 279 338
#     4  10  21  39  61  82 114 154 193 243 297 345
#     4  10  21  37  58  86 117 148 188 242 296 346
#     4   9  20  40  60  79 113 156 194 235 296 356
#     4   9  17  34  58  82 107 144 190 233 280 343
#     4  11  21  35  56  82 114 148 186 230 286 350
#
# _framework density 18.512011000000001
#
# number of rings (size 3 to 8) (size 9 to 14) (size 15 to 20)
#    0.000    2.143    1.429    3.000    0.000    6.000 
#    2.571    0.000    0.000    0.000    0.000    0.000 
#    0.000    0.000    0.000    0.000    0.000    0.000 
#
# Total GULP energy -312366.184837 kJ/mol
# GULP energy per Si atom -5577.967586 kJ/mol
# Density = 1.846988 g / cm^3
# Si number density = 18.512011 Si / 1000 Ang^3
#
#
#
# Elastic Constant Matrix: (Units=GPa)
#
#
# Indices 1 2 3 4 5 6 
#
# 1 108.1898 15.3693 65.2751 0.0000 0.0000 0.0000
# 2 15.3693 57.7355 29.3634 0.0000 0.0000 0.0000
# 3 65.2751 29.3634 108.3158 0.0000 0.0000 0.0000
# 4 0.0000 0.0000 0.0000 15.7981 0.0000 0.0000
# 5 0.0000 0.0000 0.0000 0.0000 -60.9901 0.0000
# 6 0.0000 0.0000 0.0000 0.0000 0.0000 3.0124
#
#
#
# Elastic Compliance Matrix: (Units=1/GPa)
#
#
# Indices 1 2 3 4 5 6 
#
# 1 0.014547 0.000680 -0.008951 0.000000 0.000000 0.000000
# 2 0.000680 0.020122 -0.005865 0.000000 0.000000 0.000000
# 3 -0.008951 -0.005865 0.016216 0.000000 0.000000 0.000000
# 4 0.000000 0.000000 0.000000 0.063299 0.000000 0.000000
# 5 0.000000 0.000000 0.000000 0.000000 -0.016396 0.000000
# 6 0.000000 0.000000 0.000000 0.000000 0.000000 0.331962
#
#
# Mechanical properties :
#
#
# Convention : Reuss Voigt Hill
#
# Bulk Modulus (GPa) = 44.22046 54.91741 49.56893
# Shear Modulus (GPa) = 10.73978 2.51297 6.62638
#
# Velocity S-wave (km/s) = 2.41125 1.16637 1.89401
# Velocity P-wave (km/s) = 5.62952 5.61642 5.62297
#
# Compressibility (1/GPa) = 0.02261397
#
# Stress axis : x y z
#
# Youngs Moduli (GPa) = 68.74391 49.69680 61.66705
#
# Poissons Ratio (x) = -0.03378 0.55196
# Poissons Ratio (y) = -0.04673 0.36165
# Poissons Ratio (z) = 0.61531 0.29145
#
# Static dielectric constant tensor:
#      x y z
#    x 1.657400 0.000000 0.000000 
#    y 0.000000 1.646500 0.000000 
#    z 0.000000 0.000000 1.628560 
# 
# From -- ./inp_files/6395.got.cif
#   From: 2010.05.17/outbox.cif.g08.bks.cpg/sg58_4_cif.got.tgz:6395.got - 2010.06.03 14:20:14.
