data_PCOD9444750
_publ_section_title
;
Structure prediction by ZEFSAII (Michael W. Deem and Ramdas Pophale) SiO2 
 PCOD9444750
Probable space group: P N N M
;
_chemical_formula_sum "Si O2"
_cell_formula_units_Z 40
_cell_length_a 9.718072
_cell_length_b 7.836646
_cell_length_c 24.780814
_cell_angle_alpha 90.000000
_cell_angle_beta 90.000000
_cell_angle_gamma 90.000000
_cell_volume 1887.234684
_symmetry_space_group_name_H-M "P N N M"
_symmetry_group_IT_number 58
_symmetry_cell_setting 'orthorhombic'
loop_
_space_group_symop_operation_xyz
x,y,z
-x,-y,z
1/2+x,1/2-y,1/2-z
1/2-x,1/2+y,1/2-z
-x,-y,-z
x,y,-z
1/2-x,1/2+y,1/2+z
1/2+x,1/2-y,1/2+z
loop_
_atom_site_type_symbol
_atom_site_label
_atom_site_fract_x
_atom_site_fract_y
_atom_site_fract_z
Si Si1 0.410881 0.231131 0.563583
Si Si2 0.293107 0.863299 0.859178
Si Si3 0.919089 0.266650 0.662881
Si Si4 0.645914 0.126434 0.624572
Si Si5 0.458668 0.302257 0.711633
O O1 0.402233 0.214154 0.500000
O O2 0.304161 0.364359 0.588569
O O3 0.568352 0.255204 0.583089
O O4 0.371251 0.055977 0.595299
O O5 0.435363 0.763870 0.867332
O O6 0.194385 0.784928 0.813080
O O7 0.345527 0.048882 0.841416
O O8 0.804590 0.145428 0.638108
O O9 0.953157 0.231494 0.725147
O O10 0.563515 0.176928 0.679876
O O11 0.500000 0.500000 0.701673
#
# Coordination Sequence:
#
# PCOD9444750 Si02
#       5
#     8   8   8   8   8
#     4  10  23  45  69  90 119 168 225 283 324 371
#     4  10  24  40  60  91 133 162 209 266 318 389
#     4  11  23  39  59  95 133 170 199 257 325 389
#     4  10  21  40  66  91 127 161 221 264 313 390
#     4  11  22  37  62  93 132 175 215 247 316 399
#
# _framework density 21.195032000000001
#
# number of rings (size 3 to 8) (size 9 to 14) (size 15 to 20)
#    0.000    1.600    2.000    2.400    2.800    9.600 
#    0.000    8.000    0.000    0.000    0.000    0.000 
#    0.000    0.000    0.000    0.000    0.000    0.000 
#
# Total GULP energy -223218.180149 kJ/mol
# GULP energy per Si atom -5580.454504 kJ/mol
# Density = 2.114679 g / cm^3
# Si number density = 21.195032 Si / 1000 Ang^3
#
#
#
# Elastic Constant Matrix: (Units=GPa)
#
#
# Indices 1 2 3 4 5 6 
#
# 1 82.6095 28.2086 9.2511 0.0000 0.0000 0.0000
# 2 28.2086 67.3126 30.8289 0.0000 0.0000 0.0000
# 3 9.2511 30.8289 118.6327 0.0000 0.0000 0.0000
# 4 0.0000 0.0000 0.0000 10.9813 0.0000 0.0000
# 5 0.0000 0.0000 0.0000 0.0000 48.0424 0.0000
# 6 0.0000 0.0000 0.0000 0.0000 0.0000 25.1005
#
#
#
# Elastic Compliance Matrix: (Units=1/GPa)
#
#
# Indices 1 2 3 4 5 6 
#
# 1 0.014152 -0.006158 0.000497 0.000000 0.000000 0.000000
# 2 -0.006158 0.019543 -0.004598 0.000000 0.000000 0.000000
# 3 0.000497 -0.004598 0.009586 0.000000 0.000000 0.000000
# 4 0.000000 0.000000 0.000000 0.091064 0.000000 0.000000
# 5 0.000000 0.000000 0.000000 0.000000 0.020815 0.000000
# 6 0.000000 0.000000 0.000000 0.000000 0.000000 0.039840
#
#
# Mechanical properties :
#
#
# Convention : Reuss Voigt Hill
#
# Bulk Modulus (GPa) = 43.93484 45.01468 44.47476
# Shear Modulus (GPa) = 22.41085 30.17592 26.29339
#
# Velocity S-wave (km/s) = 3.25524 3.77732 3.52596
# Velocity P-wave (km/s) = 5.90784 6.34891 6.13234
#
# Compressibility (1/GPa) = 0.02276098
#
# Stress axis : x y z
#
# Youngs Moduli (GPa) = 70.65940 51.16960 104.32305
#
# Poissons Ratio (x) = 0.31512 -0.05182
# Poissons Ratio (y) = 0.43514 0.47971
# Poissons Ratio (z) = -0.03510 0.23530
#
# Static dielectric constant tensor:
#      x y z
#    x 1.833740 0.000000 0.000000 
#    y 0.000000 1.907480 0.000000 
#    z 0.000000 0.000000 1.719570 
# 
# From -- ./inp_files/31289.got.cif
#   From: 2010.05.17/outbox.cif.g08.bks.cpg/sg58_16_cif.got.tgz:31289.got - 2010.06.03 14:20:14.
