data_PCOD9444174
_publ_section_title
;
Structure prediction by ZEFSAII (Michael W. Deem and Ramdas Pophale) SiO2 
 PCOD9444174
Probable space group: P N N M
;
_chemical_formula_sum "Si O2"
_cell_formula_units_Z 32
_cell_length_a 5.048416
_cell_length_b 13.399330
_cell_length_c 25.506497
_cell_angle_alpha 90.000000
_cell_angle_beta 90.000000
_cell_angle_gamma 90.000000
_cell_volume 1725.396987
_symmetry_space_group_name_H-M "P N N M"
_symmetry_group_IT_number 58
_symmetry_cell_setting 'orthorhombic'
loop_
_space_group_symop_operation_xyz
x,y,z
-x,-y,z
1/2+x,1/2-y,1/2-z
1/2-x,1/2+y,1/2-z
-x,-y,-z
x,y,-z
1/2-x,1/2+y,1/2+z
1/2+x,1/2-y,1/2+z
loop_
_atom_site_type_symbol
_atom_site_label
_atom_site_fract_x
_atom_site_fract_y
_atom_site_fract_z
Si Si1 0.254115 0.933391 0.675978
Si Si2 0.658549 0.294491 0.658092
Si Si3 0.370623 0.895570 0.796907
Si Si4 0.751073 0.927825 0.059093
O O1 0.307823 0.823662 0.653404
O O2 0.263261 0.918993 0.739185
O O3 0.500000 0.000000 0.660540
O O4 0.000000 0.000000 0.662449
O O5 0.370464 0.341450 0.672425
O O6 0.751254 0.346144 0.604323
O O7 0.871926 0.325076 0.702821
O O8 0.500000 0.000000 0.817755
O O9 0.500000 0.000000 0.061077
O O10 0.768673 0.885315 0.000000
O O11 0.000000 0.000000 0.067610
#
# Coordination Sequence:
#
# PCOD9444174 Si02
#       4
#     8   8   8   8
#     4  11  23  37  51  75 111 146 182 221 255 301
#     4  12  21  35  57  78 106 145 181 213 265 322
#     4  11  21  34  54  82 110 138 176 220 267 320
#     4  10  21  36  55  81 108 131 164 216 273 323
#
# _framework density 18.546455999999999
#
# number of rings (size 3 to 8) (size 9 to 14) (size 15 to 20)
#    0.000    1.000    0.000   10.500    0.000    0.000 
#    0.000    0.000    0.000    1.500    0.000    0.000 
#    0.000    0.000    0.000    0.000    0.000    0.000 
#
# Total GULP energy -178616.370553 kJ/mol
# GULP energy per Si atom -5581.761580 kJ/mol
# Density = 1.850424 g / cm^3
# Si number density = 18.546456 Si / 1000 Ang^3
#
#
#
# Elastic Constant Matrix: (Units=GPa)
#
#
# Indices 1 2 3 4 5 6 
#
# 1 162.7540 73.1026 10.5155 0.0000 0.0000 0.0000
# 2 73.1026 172.9990 39.9849 0.0000 0.0000 0.0000
# 3 10.5155 39.9849 60.4884 0.0000 0.0000 0.0000
# 4 0.0000 0.0000 0.0000 17.5492 0.0000 0.0000
# 5 0.0000 0.0000 0.0000 0.0000 16.7109 0.0000
# 6 0.0000 0.0000 0.0000 0.0000 0.0000 30.9167
#
#
#
# Elastic Compliance Matrix: (Units=1/GPa)
#
#
# Indices 1 2 3 4 5 6 
#
# 1 0.007630 -0.003444 0.000950 0.000000 0.000000 0.000000
# 2 -0.003444 0.008377 -0.004939 0.000000 0.000000 0.000000
# 3 0.000950 -0.004939 0.019632 0.000000 0.000000 0.000000
# 4 0.000000 0.000000 0.000000 0.056983 0.000000 0.000000
# 5 0.000000 0.000000 0.000000 0.000000 0.059841 0.000000
# 6 0.000000 0.000000 0.000000 0.000000 0.000000 0.032345
#
#
# Mechanical properties :
#
#
# Convention : Reuss Voigt Hill
#
# Bulk Modulus (GPa) = 48.13849 71.49415 59.81632
# Shear Modulus (GPa) = 24.20176 31.21123 27.70650
#
# Velocity S-wave (km/s) = 3.61630 4.10673 3.86929
# Velocity P-wave (km/s) = 6.59157 7.81788 7.23077
#
# Compressibility (1/GPa) = 0.02077340
#
# Stress axis : x y z
#
# Youngs Moduli (GPa) = 131.06929 119.37479 50.93802
#
# Poissons Ratio (x) = 0.41107 -0.04839
# Poissons Ratio (y) = 0.45134 0.25157
# Poissons Ratio (z) = -0.12451 0.58957
#
# Static dielectric constant tensor:
#      x y z
#    x 1.637110 0.000000 0.000000 
#    y 0.000000 1.650290 0.000000 
#    z 0.000000 0.000000 1.645300 
# 
# From -- ./inp_files/30766.got.cif
#   From: 2010.05.17/outbox.cif.g08.bks.cpg/sg58_16_cif.got.tgz:30766.got - 2010.06.03 14:20:14.
