data_PCOD9444129
_publ_section_title
;
Structure prediction by ZEFSAII (Michael W. Deem and Ramdas Pophale) SiO2 
 PCOD9444129
Probable space group: P N N M
;
_chemical_formula_sum "Si O2"
_cell_formula_units_Z 64
_cell_length_a 21.719173
_cell_length_b 8.783778
_cell_length_c 16.895331
_cell_angle_alpha 90.000000
_cell_angle_beta 90.000000
_cell_angle_gamma 90.000000
_cell_volume 3223.230323
_symmetry_space_group_name_H-M "P N N M"
_symmetry_group_IT_number 58
_symmetry_cell_setting 'orthorhombic'
loop_
_space_group_symop_operation_xyz
x,y,z
-x,-y,z
1/2+x,1/2-y,1/2-z
1/2-x,1/2+y,1/2-z
-x,-y,-z
x,y,-z
1/2-x,1/2+y,1/2+z
1/2+x,1/2-y,1/2+z
loop_
_atom_site_type_symbol
_atom_site_label
_atom_site_fract_x
_atom_site_fract_y
_atom_site_fract_z
Si Si1 0.145450 0.921787 0.829034
Si Si2 0.069175 0.701144 0.090708
Si Si3 0.364067 0.905348 0.411802
Si Si4 0.561617 0.093638 0.196287
Si Si5 0.943738 0.810938 0.161698
Si Si6 0.637342 0.794378 0.824625
Si Si7 0.732488 0.324345 0.596104
Si Si8 0.012935 0.824347 0.405520
O O1 0.126937 0.813042 0.901616
O O2 0.152434 0.808674 0.753496
O O3 0.084290 0.026455 0.818571
O O4 0.199846 0.036756 0.855510
O O5 0.094105 0.540101 0.122683
O O6 0.013839 0.771319 0.141878
O O7 0.048402 0.684198 0.000000
O O8 0.349956 0.960904 0.500000
O O9 0.406768 0.755940 0.412648
O O10 0.301820 0.833696 0.378501
O O11 0.577237 0.208365 0.265589
O O12 0.538772 0.204254 0.124914
O O13 0.500000 0.000000 0.217112
O O14 0.614694 0.968758 0.187690
O O15 0.697081 0.805185 0.879465
O O16 0.577904 0.719922 0.866472
O O17 0.725570 0.341968 0.500000
O O18 0.016922 0.814169 0.500000
O O19 0.000000 0.000000 0.383325
#
# Coordination Sequence:
#
# PCOD9444129 Si02
#       8
#     8   8   8   8   8   8   8   8
#     4  11  24  37  56  85 120 155 198 260 313 358
#     4  11  21  34  56  85 119 159 198 238 297 370
#     4   9  19  35  55  81 114 153 198 248 295 350
#     4  10  21  35  57  87 118 150 189 241 297 357
#     4  11  20  34  55  83 118 154 194 239 299 370
#     4  11  23  40  64  88 116 160 207 252 313 382
#     4  10  23  43  63  84 117 163 214 263 310 368
#     4  10  21  39  63  92 125 155 192 251 317 375
#
# _framework density 19.855857
#
# number of rings (size 3 to 8) (size 9 to 14) (size 15 to 20)
#    0.000    1.625    0.000    5.625    0.000    8.750 
#    0.000    1.250    0.000    1.500    0.000    0.000 
#    0.000    0.000    0.000    0.000    0.000    0.000 
#
# Total GULP energy -356423.107570 kJ/mol
# GULP energy per Si atom -5569.111056 kJ/mol
# Density = 1.981066 g / cm^3
# Si number density = 19.855857 Si / 1000 Ang^3
#
#
#
# Elastic Constant Matrix: (Units=GPa)
#
#
# Indices 1 2 3 4 5 6 
#
# 1 95.0294 43.9567 39.3394 0.0000 0.0000 0.0000
# 2 43.9567 112.6521 45.1722 0.0000 0.0000 0.0000
# 3 39.3394 45.1722 89.0646 0.0000 0.0000 0.0000
# 4 0.0000 0.0000 0.0000 26.3552 0.0000 0.0000
# 5 0.0000 0.0000 0.0000 0.0000 25.1626 0.0000
# 6 0.0000 0.0000 0.0000 0.0000 0.0000 20.4393
#
#
#
# Elastic Compliance Matrix: (Units=1/GPa)
#
#
# Indices 1 2 3 4 5 6 
#
# 1 0.014039 -0.003755 -0.004296 0.000000 0.000000 0.000000
# 2 -0.003755 0.012148 -0.004502 0.000000 0.000000 0.000000
# 3 -0.004296 -0.004502 0.015409 0.000000 0.000000 0.000000
# 4 0.000000 0.000000 0.000000 0.037943 0.000000 0.000000
# 5 0.000000 0.000000 0.000000 0.000000 0.039741 0.000000
# 6 0.000000 0.000000 0.000000 0.000000 0.000000 0.048925
#
#
# Mechanical properties :
#
#
# Convention : Reuss Voigt Hill
#
# Bulk Modulus (GPa) = 60.65179 61.52029 61.08604
# Shear Modulus (GPa) = 25.14984 25.60995 25.37990
#
# Velocity S-wave (km/s) = 3.56282 3.59527 3.57908
# Velocity P-wave (km/s) = 6.89473 6.94876 6.92180
#
# Compressibility (1/GPa) = 0.01648756
#
# Stress axis : x y z
#
# Youngs Moduli (GPa) = 71.23258 82.32115 64.89714
#
# Poissons Ratio (x) = 0.30912 0.27881
# Poissons Ratio (y) = 0.26748 0.29220
# Poissons Ratio (z) = 0.30603 0.37065
#
# Static dielectric constant tensor:
#      x y z
#    x 1.709110 0.000000 0.000000 
#    y 0.000000 1.749090 0.000000 
#    z 0.000000 0.000000 1.757770 
# 
# From -- ./inp_files/27549.got.cif
#   From: 2010.05.17/outbox.cif.g08.bks.cpg/sg58_14_cif.got.tgz:27549.got - 2010.06.03 14:20:14.
