data_PCOD9444108
_publ_section_title
;
Structure prediction by ZEFSAII (Michael W. Deem and Ramdas Pophale) SiO2 
 PCOD9444108
Probable space group: P N N M
;
_chemical_formula_sum "Si O2"
_cell_formula_units_Z 64
_cell_length_a 25.090194
_cell_length_b 14.794737
_cell_length_c 9.381632
_cell_angle_alpha 90.000000
_cell_angle_beta 90.000000
_cell_angle_gamma 90.000000
_cell_volume 3482.488269
_symmetry_space_group_name_H-M "P N N M"
_symmetry_group_IT_number 58
_symmetry_cell_setting 'orthorhombic'
loop_
_space_group_symop_operation_xyz
x,y,z
-x,-y,z
1/2+x,1/2-y,1/2-z
1/2-x,1/2+y,1/2-z
-x,-y,-z
x,y,-z
1/2-x,1/2+y,1/2+z
1/2+x,1/2-y,1/2+z
loop_
_atom_site_type_symbol
_atom_site_label
_atom_site_fract_x
_atom_site_fract_y
_atom_site_fract_z
Si Si1 0.254911 0.656495 0.667374
Si Si2 0.562600 0.748427 0.169632
Si Si3 0.670773 0.509025 0.669520
Si Si4 0.351671 0.142175 0.665822
Si Si5 0.475539 0.903185 0.169540
Si Si6 0.050926 0.937558 0.829436
Si Si7 0.627307 0.063599 0.666529
Si Si8 0.243136 0.371319 0.830741
O O1 0.240595 0.642855 0.500000
O O2 0.304710 0.590649 0.697339
O O3 0.206810 0.629931 0.770102
O O4 0.262183 0.763566 0.688052
O O5 0.616416 0.785447 0.241689
O O6 0.517331 0.823603 0.197352
O O7 0.547362 0.654850 0.242426
O O8 0.569538 0.739386 0.000000
O O9 0.675566 0.525446 0.500000
O O10 0.608407 0.518085 0.706113
O O11 0.707720 0.582121 0.749927
O O12 0.349981 0.168347 0.500000
O O13 0.379390 0.044428 0.677410
O O14 0.419742 0.889680 0.247916
O O15 0.500000 0.000000 0.214184
O O16 0.466460 0.907903 0.000000
O O17 0.050721 0.919563 0.000000
O O18 0.000000 0.000000 0.798099
O O19 0.624515 0.088919 0.500000
O O20 0.686705 0.087127 0.717630
O O21 0.249360 0.389374 0.000000
#
# Coordination Sequence:
#
# PCOD9444108 Si02
#       8
#     8   8   8   8   8   8   8   8
#     4  10  21  36  58  84 115 155 196 238 290 349
#     4  11  23  39  61  88 118 157 200 244 294 348
#     4  10  21  38  60  87 116 153 196 239 291 350
#     4  11  21  35  57  86 118 151 195 243 290 346
#     4  10  21  37  56  81 116 154 192 235 285 346
#     4  10  23  43  65  89 118 154 198 249 299 346
#     4  10  21  35  55  83 115 150 188 238 293 344
#     4  10  21  38  57  85 119 152 191 238 289 342
#
# _framework density 18.377663999999999
#
# number of rings (size 3 to 8) (size 9 to 14) (size 15 to 20)
#    0.000    1.750    2.500    1.500    0.000    6.500 
#    0.000    2.500    0.000    0.000    0.000    0.000 
#    0.000    0.000    0.000    0.000    0.000    0.000 
#
# Total GULP energy -357311.520002 kJ/mol
# GULP energy per Si atom -5582.992500 kJ/mol
# Density = 1.833584 g / cm^3
# Si number density = 18.377664 Si / 1000 Ang^3
#
#
#
# Elastic Constant Matrix: (Units=GPa)
#
#
# Indices 1 2 3 4 5 6 
#
# 1 151.0561 66.7561 68.1160 0.0000 0.0000 0.0000
# 2 66.7561 98.6637 55.9027 0.0000 0.0000 0.0000
# 3 68.1160 55.9027 48.2997 0.0000 0.0000 0.0000
# 4 0.0000 0.0000 0.0000 28.8756 0.0000 0.0000
# 5 0.0000 0.0000 0.0000 0.0000 27.1727 0.0000
# 6 0.0000 0.0000 0.0000 0.0000 0.0000 26.7516
#
#
#
# Elastic Compliance Matrix: (Units=1/GPa)
#
#
# Indices 1 2 3 4 5 6 
#
# 1 0.019726 0.007018 -0.035941 0.000000 0.000000 0.000000
# 2 0.007018 0.031942 -0.046867 0.000000 0.000000 0.000000
# 3 -0.035941 -0.046867 0.125635 0.000000 0.000000 0.000000
# 4 0.000000 0.000000 0.000000 0.034631 0.000000 0.000000
# 5 0.000000 0.000000 0.000000 0.000000 0.036802 0.000000
# 6 0.000000 0.000000 0.000000 0.000000 0.000000 0.037381
#
#
# Mechanical properties :
#
#
# Convention : Reuss Voigt Hill
#
# Bulk Modulus (GPa) = 38.87671 75.50766 57.19219
# Shear Modulus (GPa) = 11.20394 23.70962 17.45678
#
# Velocity S-wave (km/s) = 2.47179 3.59574 3.08537
# Velocity P-wave (km/s) = 5.41725 7.64297 6.62426
#
# Compressibility (1/GPa) = 0.02572234
#
# Stress axis : x y z
#
# Youngs Moduli (GPa) = 50.69536 31.30678 7.95955
#
# Poissons Ratio (x) = -0.21970 0.28607
# Poissons Ratio (y) = -0.35576 0.37304
# Poissons Ratio (z) = 1.82204 1.46725
#
# Static dielectric constant tensor:
#      x y z
#    x 1.626230 0.000000 0.000000 
#    y 0.000000 1.648230 0.000000 
#    z 0.000000 0.000000 1.613150 
# 
# From -- ./inp_files/6781.got.cif
#   From: 2010.05.17/outbox.cif.g08.bks.cpg/sg58_4_cif.got.tgz:6781.got - 2010.06.03 14:20:14.
