data_PCOD9444382
_publ_section_title
;
Structure prediction by ZEFSAII (Michael W. Deem and Ramdas Pophale) SiO2 
 PCOD9444382
Probable space group: P N N M
;
_chemical_formula_sum "Si O2"
_cell_formula_units_Z 56
_cell_length_a 14.695147
_cell_length_b 8.800230
_cell_length_c 20.910807
_cell_angle_alpha 90.000000
_cell_angle_beta 90.000000
_cell_angle_gamma 90.000000
_cell_volume 2704.199644
_symmetry_space_group_name_H-M "P N N M"
_symmetry_group_IT_number 58
_symmetry_cell_setting 'orthorhombic'
loop_
_space_group_symop_operation_xyz
x,y,z
-x,-y,z
1/2+x,1/2-y,1/2-z
1/2-x,1/2+y,1/2-z
-x,-y,-z
x,y,-z
1/2-x,1/2+y,1/2+z
1/2+x,1/2-y,1/2+z
loop_
_atom_site_type_symbol
_atom_site_label
_atom_site_fract_x
_atom_site_fract_y
_atom_site_fract_z
Si Si1 0.427736 0.867074 0.431178
Si Si2 0.359753 0.670591 0.923508
Si Si3 0.293938 0.156164 0.187719
Si Si4 0.271341 0.309716 0.320523
Si Si5 0.493295 0.314150 0.820901
Si Si6 0.770896 0.141005 0.571197
Si Si7 0.010143 0.821036 0.180708
O O1 0.432072 0.785400 0.500000
O O2 0.327531 0.938635 0.427882
O O3 0.453894 0.759980 0.373707
O O4 0.500000 0.000000 0.430631
O O5 0.277088 0.741293 0.882943
O O6 0.448162 0.724556 0.883663
O O7 0.346180 0.487539 0.916029
O O8 0.361109 0.701674 0.000000
O O9 0.253529 0.221289 0.253870
O O10 0.397156 0.224313 0.180722
O O11 0.256407 0.229767 0.122975
O O12 0.269986 0.978784 0.187253
O O13 0.380980 0.297213 0.325901
O O14 0.500000 0.500000 0.818625
O O15 0.527986 0.269796 0.750026
O O16 0.788031 0.201990 0.500000
O O17 0.000000 0.000000 0.175939
#
# Coordination Sequence:
#
# PCOD9444382 Si02
#       7
#     8   8   8   8   8   8   8
#     4  10  21  37  59  90 127 163 209 262 318 385
#     4  11  24  43  68  97 136 177 221 277 339 402
#     4  11  23  42  66  93 130 169 220 279 325 400
#     4  11  25  40  65  95 126 176 221 273 339 389
#     4  10  22  42  65  96 129 168 221 268 339 401
#     4  10  21  37  63  95 123 168 215 260 325 396
#     4  10  22  40  60  92 128 169 212 270 321 394
#
# _framework density 20.708531000000001
#
# number of rings (size 3 to 8) (size 9 to 14) (size 15 to 20)
#    0.000    1.571    1.429    2.571    6.000    5.143 
#    0.000    0.714    0.000    0.000    0.000    0.000 
#    0.000    0.000    0.000    0.000    0.000    0.000 
#
# Total GULP energy -311986.802145 kJ/mol
# GULP energy per Si atom -5571.192895 kJ/mol
# Density = 2.066140 g / cm^3
# Si number density = 20.708531 Si / 1000 Ang^3
#
#
#
# Elastic Constant Matrix: (Units=GPa)
#
#
# Indices 1 2 3 4 5 6 
#
# 1 80.4726 9.0011 52.3167 0.0000 0.0000 0.0000
# 2 9.0011 63.7889 62.4294 0.0000 0.0000 0.0000
# 3 52.3167 62.4294 194.9367 0.0000 0.0000 0.0000
# 4 0.0000 0.0000 0.0000 30.1149 0.0000 0.0000
# 5 0.0000 0.0000 0.0000 0.0000 35.1654 0.0000
# 6 0.0000 0.0000 0.0000 0.0000 0.0000 27.4563
#
#
#
# Elastic Compliance Matrix: (Units=1/GPa)
#
#
# Indices 1 2 3 4 5 6 
#
# 1 0.015371 0.002721 -0.004997 0.000000 0.000000 0.000000
# 2 0.002721 0.023315 -0.008197 0.000000 0.000000 0.000000
# 3 -0.004997 -0.008197 0.009096 0.000000 0.000000 0.000000
# 4 0.000000 0.000000 0.000000 0.033206 0.000000 0.000000
# 5 0.000000 0.000000 0.000000 0.000000 0.028437 0.000000
# 6 0.000000 0.000000 0.000000 0.000000 0.000000 0.036422
#
#
# Mechanical properties :
#
#
# Convention : Reuss Voigt Hill
#
# Bulk Modulus (GPa) = 37.26237 65.18807 51.22522
# Shear Modulus (GPa) = 28.45162 32.91073 30.68118
#
# Velocity S-wave (km/s) = 3.71065 3.99085 3.85329
# Velocity P-wave (km/s) = 6.03252 7.26519 6.67736
#
# Compressibility (1/GPa) = 0.02683673
#
# Stress axis : x y z
#
# Youngs Moduli (GPa) = 65.05927 42.89066 109.93841
#
# Poissons Ratio (x) = -0.11671 0.54932
# Poissons Ratio (y) = -0.17704 0.90117
# Poissons Ratio (z) = 0.32508 0.35158
#
# Static dielectric constant tensor:
#      x y z
#    x 1.809220 0.000000 0.000000 
#    y 0.000000 1.689450 0.000000 
#    z 0.000000 0.000000 1.795060 
# 
# From -- ./inp_files/30007.got.cif
#   From: 2010.05.17/outbox.cif.g08.bks.cpg/sg58_16_cif.got.tgz:30007.got - 2010.06.03 14:20:14.
