data_PCOD9444512
_publ_section_title
;
Structure prediction by ZEFSAII (Michael W. Deem and Ramdas Pophale) SiO2 
 PCOD9444512
Probable space group: P N N M
;
_chemical_formula_sum "Si O2"
_cell_formula_units_Z 64
_cell_length_a 12.949288
_cell_length_b 29.326095
_cell_length_c 7.746903
_cell_angle_alpha 90.000000
_cell_angle_beta 90.000000
_cell_angle_gamma 90.000000
_cell_volume 2941.902296
_symmetry_space_group_name_H-M "P N N M"
_symmetry_group_IT_number 58
_symmetry_cell_setting 'orthorhombic'
loop_
_space_group_symop_operation_xyz
x,y,z
-x,-y,z
1/2+x,1/2-y,1/2-z
1/2-x,1/2+y,1/2-z
-x,-y,-z
x,y,-z
1/2-x,1/2+y,1/2+z
1/2+x,1/2-y,1/2+z
loop_
_atom_site_type_symbol
_atom_site_label
_atom_site_fract_x
_atom_site_fract_y
_atom_site_fract_z
Si Si1 0.291840 0.658765 0.704338
Si Si2 0.496731 0.051205 0.198567
Si Si3 0.072304 0.702586 0.209976
Si Si4 0.836470 0.119478 0.291809
Si Si5 0.995889 0.198505 0.207099
Si Si6 0.388294 0.861209 0.698974
Si Si7 0.268680 0.060927 0.700572
Si Si8 0.113050 0.982889 0.288708
O O1 0.304719 0.652295 0.500000
O O2 0.182273 0.682690 0.735454
O O3 0.387999 0.688601 0.769610
O O4 0.291278 0.608533 0.785678
O O5 0.566503 0.087717 0.294787
O O6 0.377661 0.066181 0.205480
O O7 0.500000 0.000000 0.269824
O O8 0.532374 0.049788 0.000000
O O9 0.052591 0.754138 0.270268
O O10 0.977161 0.671224 0.274001
O O11 0.072286 0.700929 0.000000
O O12 0.827910 0.116321 0.500000
O O13 0.924880 0.155475 0.249805
O O14 0.725949 0.137162 0.223385
O O15 0.862682 0.068422 0.230651
O O16 0.000826 0.202867 0.000000
O O17 0.376477 0.846561 0.500000
O O18 0.293095 0.052434 0.500000
O O19 0.200054 0.019052 0.766586
O O20 0.113298 0.983277 0.500000
O O21 0.000000 0.000000 0.234165
#
# Coordination Sequence:
#
# PCOD9444512 Si02
#       8
#     8   8   8   8   8   8   8   8
#     4  11  23  40  63  91 123 156 198 250 308 364
#     4  11  23  37  55  84 121 158 197 244 299 359
#     4  10  22  41  62  86 116 156 201 250 306 360
#     4  10  21  38  62  91 120 158 207 250 297 357
#     4  10  24  42  61  88 124 160 197 248 310 371
#     4  10  21  38  61  86 116 155 202 252 299 356
#     4  11  21  36  61  88 118 157 201 250 301 357
#     4   9  18  33  55  85 119 155 199 248 293 346
#
# _framework density 21.754632999999998
#
# number of rings (size 3 to 8) (size 9 to 14) (size 15 to 20)
#    0.000    1.750    1.250    2.625    1.750    5.000 
#    0.000    1.250    0.000    3.375    0.000    0.000 
#    0.000    0.000    0.000    0.000    0.000    0.000 
#
# Total GULP energy -357758.123346 kJ/mol
# GULP energy per Si atom -5589.970677 kJ/mol
# Density = 2.170512 g / cm^3
# Si number density = 21.754633 Si / 1000 Ang^3
#
#
#
# Elastic Constant Matrix: (Units=GPa)
#
#
# Indices 1 2 3 4 5 6 
#
# 1 144.7877 56.9454 -2.4099 0.0000 0.0000 0.0000
# 2 56.9454 142.4149 -5.3014 0.0000 0.0000 0.0000
# 3 -2.4099 -5.3014 34.5279 0.0000 0.0000 0.0000
# 4 0.0000 0.0000 0.0000 21.3701 0.0000 0.0000
# 5 0.0000 0.0000 0.0000 0.0000 22.6821 0.0000
# 6 0.0000 0.0000 0.0000 0.0000 0.0000 36.5215
#
#
#
# Elastic Compliance Matrix: (Units=1/GPa)
#
#
# Indices 1 2 3 4 5 6 
#
# 1 0.008196 -0.003275 0.000069 0.000000 0.000000 0.000000
# 2 -0.003275 0.008370 0.001057 0.000000 0.000000 0.000000
# 3 0.000069 0.001057 0.029129 0.000000 0.000000 0.000000
# 4 0.000000 0.000000 0.000000 0.046794 0.000000 0.000000
# 5 0.000000 0.000000 0.000000 0.000000 0.044088 0.000000
# 6 0.000000 0.000000 0.000000 0.000000 0.000000 0.027381
#
#
# Mechanical properties :
#
#
# Convention : Reuss Voigt Hill
#
# Bulk Modulus (GPa) = 24.15575 46.68875 35.42225
# Shear Modulus (GPa) = 27.46422 34.28116 30.87269
#
# Velocity S-wave (km/s) = 3.55696 3.97395 3.77122
# Velocity P-wave (km/s) = 5.29123 6.52415 5.93976
#
# Compressibility (1/GPa) = 0.04139801
#
# Stress axis : x y z
#
# Youngs Moduli (GPa) = 122.01537 119.46858 34.32987
#
# Poissons Ratio (x) = 0.39120 -0.00238
# Poissons Ratio (y) = 0.39954 -0.03627
# Poissons Ratio (z) = -0.00845 -0.12623
#
# Static dielectric constant tensor:
#      x y z
#    x 1.775270 0.000000 0.000000 
#    y 0.000000 1.767190 0.000000 
#    z 0.000000 0.000000 1.801320 
# 
# From -- ./inp_files/4653.got.cif
#   From: 2010.05.17/outbox.cif.g08.bks.cpg/sg58_3_cif.got.tgz:4653.got - 2010.06.03 14:20:14.
