data_PCOD9444285
_publ_section_title
;
Structure prediction by ZEFSAII (Michael W. Deem and Ramdas Pophale) SiO2 
 PCOD9444285
Probable space group: P N N M
;
_chemical_formula_sum "Si O2"
_cell_formula_units_Z 48
_cell_length_a 6.846087
_cell_length_b 29.192881
_cell_length_c 11.426369
_cell_angle_alpha 90.000000
_cell_angle_beta 90.000000
_cell_angle_gamma 90.000000
_cell_volume 2283.639865
_symmetry_space_group_name_H-M "P N N M"
_symmetry_group_IT_number 58
_symmetry_cell_setting 'orthorhombic'
loop_
_space_group_symop_operation_xyz
x,y,z
-x,-y,z
1/2+x,1/2-y,1/2-z
1/2-x,1/2+y,1/2-z
-x,-y,-z
x,y,-z
1/2-x,1/2+y,1/2+z
1/2+x,1/2-y,1/2+z
loop_
_atom_site_type_symbol
_atom_site_label
_atom_site_fract_x
_atom_site_fract_y
_atom_site_fract_z
Si Si1 0.335171 0.586497 0.366043
Si Si2 0.369909 0.890131 0.865742
Si Si3 0.939602 0.662911 0.128492
Si Si4 0.845187 0.243208 0.369430
Si Si5 0.220976 0.490982 0.641314
Si Si6 0.332856 0.676037 0.234120
O O1 0.404179 0.588263 0.500000
O O2 0.347742 0.534531 0.317745
O O3 0.411036 0.630017 0.294253
O O4 0.099692 0.595795 0.370401
O O5 0.359586 0.860095 0.747712
O O6 0.248515 0.936913 0.842437
O O7 0.326611 0.872978 0.000000
O O8 0.855918 0.714432 0.129664
O O9 0.174341 0.662125 0.136772
O O10 0.878363 0.643731 0.000000
O O11 0.920284 0.248853 0.500000
O O12 0.800404 0.293033 0.319957
O O13 0.998449 0.210170 0.306056
O O14 0.221258 0.496627 0.500000
O O15 0.000000 0.500000 0.684592
#
# Coordination Sequence:
#
# PCOD9444285 Si02
#       6
#     8   8   8   8   8   8
#     4   8  14  25  47  77 107 135 173 226 273 317
#     4   8  14  27  50  78 107 140 179 217 263 323
#     4  10  21  37  55  80 113 145 178 221 274 321
#     4  11  23  38  55  78 109 143 183 229 274 326
#     4   7  10  20  42  74 105 133 168 217 270 314
#     4  11  20  37  56  78 104 144 185 223 273 329
#
# _framework density 21.019075999999998
#
# number of rings (size 3 to 8) (size 9 to 14) (size 15 to 20)
#    0.000    2.833    1.667    3.000    0.000    0.667 
#    0.000    1.667    0.000   14.500    0.000    5.833 
#    0.000    0.000    0.000    0.000    0.000    0.000 
#
# Total GULP energy -267361.634089 kJ/mol
# GULP energy per Si atom -5570.034044 kJ/mol
# Density = 2.097124 g / cm^3
# Si number density = 21.019076 Si / 1000 Ang^3
#
#
#
# Elastic Constant Matrix: (Units=GPa)
#
#
# Indices 1 2 3 4 5 6 
#
# 1 60.9326 18.1209 8.5835 0.0000 0.0000 0.0000
# 2 18.1209 126.2006 73.2348 0.0000 0.0000 0.0000
# 3 8.5835 73.2348 119.8201 0.0000 0.0000 0.0000
# 4 0.0000 0.0000 0.0000 23.8499 0.0000 0.0000
# 5 0.0000 0.0000 0.0000 0.0000 14.6562 0.0000
# 6 0.0000 0.0000 0.0000 0.0000 0.0000 39.5224
#
#
#
# Elastic Compliance Matrix: (Units=1/GPa)
#
#
# Indices 1 2 3 4 5 6 
#
# 1 0.017158 -0.002712 0.000429 0.000000 0.000000 0.000000
# 2 -0.002712 0.012708 -0.007573 0.000000 0.000000 0.000000
# 3 0.000429 -0.007573 0.012944 0.000000 0.000000 0.000000
# 4 0.000000 0.000000 0.000000 0.041929 0.000000 0.000000
# 5 0.000000 0.000000 0.000000 0.000000 0.068230 0.000000
# 6 0.000000 0.000000 0.000000 0.000000 0.000000 0.025302
#
#
# Mechanical properties :
#
#
# Convention : Reuss Voigt Hill
#
# Bulk Modulus (GPa) = 43.29691 56.31462 49.80576
# Shear Modulus (GPa) = 24.30926 29.40664 26.85795
#
# Velocity S-wave (km/s) = 3.40447 3.74444 3.57850
# Velocity P-wave (km/s) = 6.00812 6.74868 6.38914
#
# Compressibility (1/GPa) = 0.02309634
#
# Stress axis : x y z
#
# Youngs Moduli (GPa) = 58.28242 78.69096 77.25760
#
# Poissons Ratio (x) = 0.21345 -0.03312
# Poissons Ratio (y) = 0.15809 0.58506
# Poissons Ratio (z) = -0.02499 0.59592
#
# Static dielectric constant tensor:
#      x y z
#    x 1.865520 0.000000 0.000000 
#    y 0.000000 1.790010 0.000000 
#    z 0.000000 0.000000 1.750750 
# 
# From -- ./inp_files/13154.got.cif
#   From: 2010.05.17/outbox.cif.g08.bks.cpg/sg58_7_cif.got.tgz:13154.got - 2010.06.03 14:20:14.
