data_PCOD9444033
_publ_section_title
;
Structure prediction by ZEFSAII (Michael W. Deem and Ramdas Pophale) SiO2 
 PCOD9444033
Probable space group: P N N M
;
_chemical_formula_sum "Si O2"
_cell_formula_units_Z 58
_cell_length_a 17.279777
_cell_length_b 18.746027
_cell_length_c 7.855267
_cell_angle_alpha 90.000000
_cell_angle_beta 90.000000
_cell_angle_gamma 90.000000
_cell_volume 2544.534379
_symmetry_space_group_name_H-M "P N N M"
_symmetry_group_IT_number 58
_symmetry_cell_setting 'orthorhombic'
loop_
_space_group_symop_operation_xyz
x,y,z
-x,-y,z
1/2+x,1/2-y,1/2-z
1/2-x,1/2+y,1/2-z
-x,-y,-z
x,y,-z
1/2-x,1/2+y,1/2+z
1/2+x,1/2-y,1/2+z
loop_
_atom_site_type_symbol
_atom_site_label
_atom_site_fract_x
_atom_site_fract_y
_atom_site_fract_z
Si Si1 0.739528 0.945649 0.698205
Si Si2 0.462163 0.414800 0.684654
Si Si3 0.069953 0.315853 0.705936
Si Si4 0.282038 0.895741 0.802214
Si Si5 0.103821 0.648236 0.705248
Si Si6 0.500000 0.500000 0.000000
Si Si7 0.851233 0.200053 0.307846
Si Si8 0.620061 0.344462 0.791742
O O1 0.755643 0.956733 0.500000
O O2 0.652398 0.916816 0.721619
O O3 0.800789 0.884994 0.757553
O O4 0.743969 0.022872 0.783723
O O5 0.446513 0.446883 0.500000
O O6 0.446647 0.463789 0.847960
O O7 0.410898 0.344549 0.698662
O O8 0.549752 0.388358 0.710606
O O9 0.064252 0.312109 0.500000
O O10 0.130106 0.378395 0.749675
O O11 0.105782 0.238542 0.756118
O O12 0.983358 0.334585 0.765486
O O13 0.227787 0.842507 0.699377
O O14 0.274296 0.875042 0.000000
O O15 0.102169 0.638769 0.500000
O O16 0.153175 0.718886 0.749019
O O17 0.883069 0.201824 0.500000
O O18 0.611685 0.349803 0.000000
#
# Coordination Sequence:
#
# PCOD9444033 Si02
#       8
#     8   8   8   8   8   2   8   8
#     4  11  25  41  63  93 133 176 216 272 341 398
#     4  12  25  40  66  99 132 182 229 269 335 404
#     4   9  19  40  69  93 122 172 224 277 340 397
#     4  11  24  41  64  95 131 173 228 275 326 411
#     4  10  21  41  70  94 125 170 221 276 338 401
#     4  12  26  44  60  94 148 180 218 280 336 394
#     4  11  22  42  67  95 135 174 214 275 342 397
#     4  10  20  42  66  90 128 173 219 275 340 397
#
# _framework density 22.793952000000001
#
# number of rings (size 3 to 8) (size 9 to 14) (size 15 to 20)
#    0.000    1.379    2.759    2.276    1.931    3.862 
#    0.000    5.517    0.000    0.000    0.000    0.000 
#    0.000    0.000    0.000    0.000    0.000    0.000 
#
# Total GULP energy -323618.789234 kJ/mol
# GULP energy per Si atom -5579.634297 kJ/mol
# Density = 2.274207 g / cm^3
# Si number density = 22.793952 Si / 1000 Ang^3
#
#
#
# Elastic Constant Matrix: (Units=GPa)
#
#
# Indices 1 2 3 4 5 6 
#
# 1 119.2950 27.0326 -2.1184 0.0000 0.0000 0.0000
# 2 27.0326 27.2993 4.8409 0.0000 0.0000 0.0000
# 3 -2.1184 4.8409 86.6843 0.0000 0.0000 0.0000
# 4 0.0000 0.0000 0.0000 9.8563 0.0000 0.0000
# 5 0.0000 0.0000 0.0000 0.0000 21.7182 0.0000
# 6 0.0000 0.0000 0.0000 0.0000 0.0000 259.1842
#
#
#
# Elastic Compliance Matrix: (Units=1/GPa)
#
#
# Indices 1 2 3 4 5 6 
#
# 1 0.010873 -0.010922 0.000876 0.000000 0.000000 0.000000
# 2 -0.010922 0.047969 -0.002946 0.000000 0.000000 0.000000
# 3 0.000876 -0.002946 0.011722 0.000000 0.000000 0.000000
# 4 0.000000 0.000000 0.000000 0.101458 0.000000 0.000000
# 5 0.000000 0.000000 0.000000 0.000000 0.046044 0.000000
# 6 0.000000 0.000000 0.000000 0.000000 0.000000 0.003858
#
#
# Mechanical properties :
#
#
# Convention : Reuss Voigt Hill
#
# Bulk Modulus (GPa) = 22.43190 32.53210 27.48200
# Shear Modulus (GPa) = 19.02812 71.71996 45.37404
#
# Velocity S-wave (km/s) = 2.89240 5.61541 4.46647
# Velocity P-wave (km/s) = 4.58445 7.50646 6.21949
#
# Compressibility (1/GPa) = 0.04457938
#
# Stress axis : x y z
#
# Youngs Moduli (GPa) = 91.96984 20.84691 85.30955
#
# Poissons Ratio (x) = 0.22769 -0.07470
# Poissons Ratio (y) = 1.00451 0.25130
# Poissons Ratio (z) = -0.08054 0.06141
#
# Static dielectric constant tensor:
#      x y z
#    x 1.866860 0.000000 0.000000 
#    y 0.000000 1.876600 0.000000 
#    z 0.000000 0.000000 1.860030 
# 
# From -- ./inp_files/7988.got.cif
#   From: 2010.05.17/outbox.cif.g08.bks.cpg/sg58_4_cif.got.tgz:7988.got - 2010.06.03 14:20:14.
