data_PCOD9444424
_publ_section_title
;
Structure prediction by ZEFSAII (Michael W. Deem and Ramdas Pophale) SiO2 
 PCOD9444424
Probable space group: P N N M
;
_chemical_formula_sum "Si O2"
_cell_formula_units_Z 34
_cell_length_a 20.206297
_cell_length_b 6.220838
_cell_length_c 12.506109
_cell_angle_alpha 90.000000
_cell_angle_beta 90.000000
_cell_angle_gamma 90.000000
_cell_volume 1572.019155
_symmetry_space_group_name_H-M "P N N M"
_symmetry_group_IT_number 58
_symmetry_cell_setting 'orthorhombic'
loop_
_space_group_symop_operation_xyz
x,y,z
-x,-y,z
1/2+x,1/2-y,1/2-z
1/2-x,1/2+y,1/2-z
-x,-y,-z
x,y,-z
1/2-x,1/2+y,1/2+z
1/2+x,1/2-y,1/2+z
loop_
_atom_site_type_symbol
_atom_site_label
_atom_site_fract_x
_atom_site_fract_y
_atom_site_fract_z
Si Si1 0.844058 0.387677 0.732096
Si Si2 0.948257 0.695103 0.806615
Si Si3 0.500000 0.500000 0.500000
Si Si4 0.902944 0.998253 0.624170
Si Si5 0.231109 0.266526 0.617211
O O1 0.877907 0.569090 0.806496
O O2 0.806849 0.511426 0.637573
O O3 0.788756 0.264043 0.798404
O O4 0.897713 0.226499 0.683110
O O5 0.944310 0.832647 0.696736
O O6 0.000000 0.500000 0.806848
O O7 0.964289 0.851075 0.905085
O O8 0.922872 0.009474 0.500000
O O9 0.827022 0.909856 0.625495
O O10 0.260886 0.258400 0.500000
#
# Coordination Sequence:
#
# PCOD9444424 Si02
#       5
#     8   8   2   8   8
#     4  11  21  41  65 101 137 182 226 279 346 418
#     4  11  26  46  70  96 136 184 236 288 346 410
#     4  12  26  52  70  98 140 180 234 302 342 422
#     4  10  22  43  70 102 141 179 229 293 347 412
#     4  10  21  37  62  97 140 178 223 278 344 414
#
# _framework density 21.628236000000001
#
# number of rings (size 3 to 8) (size 9 to 14) (size 15 to 20)
#    0.000    1.412    2.353    2.471    1.647    1.412 
#    2.118    4.118    0.000    0.000    0.000    0.000 
#    0.000    0.000    0.000    0.000    0.000    0.000 
#
# Total GULP energy -189394.906591 kJ/mol
# GULP energy per Si atom -5570.438429 kJ/mol
# Density = 2.157901 g / cm^3
# Si number density = 21.628236 Si / 1000 Ang^3
#
#
#
# Elastic Constant Matrix: (Units=GPa)
#
#
# Indices 1 2 3 4 5 6 
#
# 1 64.4716 19.2973 31.5550 0.0000 0.0000 0.0000
# 2 19.2973 85.8031 49.0372 0.0000 0.0000 0.0000
# 3 31.5550 49.0372 159.9358 0.0000 0.0000 0.0000
# 4 0.0000 0.0000 0.0000 12.4977 0.0000 0.0000
# 5 0.0000 0.0000 0.0000 0.0000 17.6056 0.0000
# 6 0.0000 0.0000 0.0000 0.0000 0.0000 39.3991
#
#
#
# Elastic Compliance Matrix: (Units=1/GPa)
#
#
# Indices 1 2 3 4 5 6 
#
# 1 0.017563 -0.002388 -0.002733 0.000000 0.000000 0.000000
# 2 -0.002388 0.014455 -0.003961 0.000000 0.000000 0.000000
# 3 -0.002733 -0.003961 0.008006 0.000000 0.000000 0.000000
# 4 0.000000 0.000000 0.000000 0.080015 0.000000 0.000000
# 5 0.000000 0.000000 0.000000 0.000000 0.056800 0.000000
# 6 0.000000 0.000000 0.000000 0.000000 0.000000 0.025381
#
#
# Mechanical properties :
#
#
# Convention : Reuss Voigt Hill
#
# Bulk Modulus (GPa) = 45.74417 56.66549 51.20483
# Shear Modulus (GPa) = 21.96145 27.92188 24.94166
#
# Velocity S-wave (km/s) = 3.19000 3.59694 3.39956
# Velocity P-wave (km/s) = 5.89612 6.59600 6.25586
#
# Compressibility (1/GPa) = 0.02186071
#
# Stress axis : x y z
#
# Youngs Moduli (GPa) = 56.93756 69.17840 124.90372
#
# Poissons Ratio (x) = 0.16520 0.34136
# Poissons Ratio (y) = 0.13597 0.49474
# Poissons Ratio (z) = 0.15561 0.27401
#
# Static dielectric constant tensor:
#      x y z
#    x 1.814710 0.000000 0.000000 
#    y 0.000000 1.818240 0.000000 
#    z 0.000000 0.000000 1.729070 
# 
# From -- ./inp_files/11653.got.cif
#   From: 2010.05.17/outbox.cif.g08.bks.cpg/sg58_6_cif.got.tgz:11653.got - 2010.06.03 14:20:14.
