data_PCOD9444459
_publ_section_title
;
Structure prediction by ZEFSAII (Michael W. Deem and Ramdas Pophale) SiO2 
 PCOD9444459
Probable space group: P N N M
;
_chemical_formula_sum "Si O2"
_cell_formula_units_Z 56
_cell_length_a 9.235557
_cell_length_b 23.008962
_cell_length_c 13.367758
_cell_angle_alpha 90.000000
_cell_angle_beta 90.000000
_cell_angle_gamma 90.000000
_cell_volume 2840.656329
_symmetry_space_group_name_H-M "P N N M"
_symmetry_group_IT_number 58
_symmetry_cell_setting 'orthorhombic'
loop_
_space_group_symop_operation_xyz
x,y,z
-x,-y,z
1/2+x,1/2-y,1/2-z
1/2-x,1/2+y,1/2-z
-x,-y,-z
x,y,-z
1/2-x,1/2+y,1/2+z
1/2+x,1/2-y,1/2+z
loop_
_atom_site_type_symbol
_atom_site_label
_atom_site_fract_x
_atom_site_fract_y
_atom_site_fract_z
Si Si1 0.240244 0.946701 0.792784
Si Si2 0.251232 0.647852 0.883304
Si Si3 0.441466 0.355875 0.387183
Si Si4 0.032292 0.931663 0.610182
Si Si5 0.713036 0.427268 0.383756
Si Si6 0.688024 0.220074 0.121118
Si Si7 0.978810 0.375134 0.288918
O O1 0.171322 0.909500 0.883028
O O2 0.148378 0.924806 0.697620
O O3 0.404134 0.926665 0.777567
O O4 0.217500 0.014025 0.818540
O O5 0.381862 0.601994 0.874855
O O6 0.315698 0.711564 0.860208
O O7 0.118558 0.634294 0.809599
O O8 0.204147 0.648296 0.000000
O O9 0.476815 0.338225 0.500000
O O10 0.589433 0.382757 0.346480
O O11 0.345951 0.303807 0.343324
O O12 0.088566 0.914179 0.500000
O O13 0.000000 0.000000 0.608438
O O14 0.682557 0.441769 0.500000
O O15 0.865426 0.395368 0.372776
O O16 0.567352 0.181790 0.176682
O O17 0.677466 0.210597 0.000000
#
# Coordination Sequence:
#
# PCOD9444459 Si02
#       7
#     8   8   8   8   8   8   8
#     4  11  21  34  54  82 114 149 188 233 284 343
#     4  10  22  41  62  83 113 155 199 242 291 345
#     4   9  18  33  54  80 111 149 189 228 274 338
#     4  10  21  38  59  80 106 145 192 239 284 336
#     4  11  22  36  57  86 120 155 189 229 286 355
#     4   9  20  39  59  82 114 150 190 238 290 341
#     4  11  23  35  56  86 116 149 188 238 292 341
#
# _framework density 19.713754999999999
#
# number of rings (size 3 to 8) (size 9 to 14) (size 15 to 20)
#    0.000    1.857    0.000    4.286    0.000    7.429 
#    0.000    0.000    0.000   10.286    0.000    0.000 
#    0.000    0.000    0.000    0.000    0.000    0.000 
#
# Total GULP energy -312398.825062 kJ/mol
# GULP energy per Si atom -5578.550448 kJ/mol
# Density = 1.966889 g / cm^3
# Si number density = 19.713755 Si / 1000 Ang^3
#
#
#
# Elastic Constant Matrix: (Units=GPa)
#
#
# Indices 1 2 3 4 5 6 
#
# 1 129.8118 54.9839 37.9132 0.0000 0.0000 0.0000
# 2 54.9839 104.9986 22.8860 0.0000 0.0000 0.0000
# 3 37.9132 22.8860 103.7015 0.0000 0.0000 0.0000
# 4 0.0000 0.0000 0.0000 19.7014 0.0000 0.0000
# 5 0.0000 0.0000 0.0000 0.0000 26.5719 0.0000
# 6 0.0000 0.0000 0.0000 0.0000 0.0000 25.3975
#
#
#
# Elastic Compliance Matrix: (Units=1/GPa)
#
#
# Indices 1 2 3 4 5 6 
#
# 1 0.010615 -0.004951 -0.002788 0.000000 0.000000 0.000000
# 2 -0.004951 0.012314 -0.000908 0.000000 0.000000 0.000000
# 3 -0.002788 -0.000908 0.010863 0.000000 0.000000 0.000000
# 4 0.000000 0.000000 0.000000 0.050758 0.000000 0.000000
# 5 0.000000 0.000000 0.000000 0.000000 0.037634 0.000000
# 6 0.000000 0.000000 0.000000 0.000000 0.000000 0.039374
#
#
# Mechanical properties :
#
#
# Convention : Reuss Voigt Hill
#
# Bulk Modulus (GPa) = 60.61133 63.34201 61.97667
# Shear Modulus (GPa) = 27.12230 29.18275 28.15253
#
# Velocity S-wave (km/s) = 3.71321 3.85167 3.78307
# Velocity P-wave (km/s) = 7.01401 7.20979 7.11258
#
# Compressibility (1/GPa) = 0.01649857
#
# Stress axis : x y z
#
# Youngs Moduli (GPa) = 94.20824 81.20607 92.05801
#
# Poissons Ratio (x) = 0.40204 0.25667
# Poissons Ratio (y) = 0.46641 0.08356
# Poissons Ratio (z) = 0.26267 0.07371
#
# Static dielectric constant tensor:
#      x y z
#    x 1.679780 0.000000 0.000000 
#    y 0.000000 1.686560 0.000000 
#    z 0.000000 0.000000 1.752560 
# 
# From -- ./inp_files/20127.got.cif
#   From: 2010.05.17/outbox.cif.g08.bks.cpg/sg58_11_cif.got.tgz:20127.got - 2010.06.03 14:20:14.
