data_PCOD9444077
_publ_section_title
;
Structure prediction by ZEFSAII (Michael W. Deem and Ramdas Pophale) SiO2 
 PCOD9444077
Probable space group: P N N M
;
_chemical_formula_sum "Si O2"
_cell_formula_units_Z 48
_cell_length_a 15.695530
_cell_length_b 8.500187
_cell_length_c 18.201826
_cell_angle_alpha 90.000000
_cell_angle_beta 90.000000
_cell_angle_gamma 90.000000
_cell_volume 2428.395525
_symmetry_space_group_name_H-M "P N N M"
_symmetry_group_IT_number 58
_symmetry_cell_setting 'orthorhombic'
loop_
_space_group_symop_operation_xyz
x,y,z
-x,-y,z
1/2+x,1/2-y,1/2-z
1/2-x,1/2+y,1/2-z
-x,-y,-z
x,y,-z
1/2-x,1/2+y,1/2+z
1/2+x,1/2-y,1/2+z
loop_
_atom_site_type_symbol
_atom_site_label
_atom_site_fract_x
_atom_site_fract_y
_atom_site_fract_z
Si Si1 0.340991 0.895136 0.316179
Si Si2 0.973721 0.677508 0.306084
Si Si3 0.075619 0.878256 0.207490
Si Si4 0.856052 0.343620 0.916335
Si Si5 0.674153 0.175753 0.914416
Si Si6 0.750941 0.928081 0.806501
O O1 0.421671 0.835194 0.270411
O O2 0.274861 0.752013 0.319297
O O3 0.362082 0.974765 0.392832
O O4 0.304880 0.036641 0.265333
O O5 0.906487 0.735739 0.367047
O O6 0.000000 0.500000 0.326566
O O7 0.051946 0.788467 0.283445
O O8 0.088749 0.757067 0.140755
O O9 0.161917 0.978219 0.209415
O O10 0.000000 0.000000 0.192792
O O11 0.756991 0.288056 0.909549
O O12 0.881856 0.316037 0.000000
O O13 0.704297 0.014866 0.874106
O O14 0.653421 0.153636 0.000000
#
# Coordination Sequence:
#
# PCOD9444077 Si02
#       6
#     8   8   8   8   8   8
#     4  11  20  37  56  88 111 151 202 238 290 338
#     4  11  21  35  60  87 116 153 193 245 286 344
#     4  11  21  36  58  88 115 151 195 235 294 342
#     4  10  22  40  59  81 118 155 191 238 290 351
#     4   9  21  40  59  85 118 157 194 237 294 348
#     4  10  21  34  62  83 114 152 196 248 279 350
#
# _framework density 19.766138000000002
#
# number of rings (size 3 to 8) (size 9 to 14) (size 15 to 20)
#    0.000    1.667    3.333    3.000    2.333    1.333 
#    0.000    1.667    0.000    0.500    0.000    0.000 
#    0.000    0.000    0.000    0.000    0.000    0.000 
#
# Total GULP energy -267994.240176 kJ/mol
# GULP energy per Si atom -5583.213337 kJ/mol
# Density = 1.972115 g / cm^3
# Si number density = 19.766138 Si / 1000 Ang^3
#
#
#
# Elastic Constant Matrix: (Units=GPa)
#
#
# Indices 1 2 3 4 5 6 
#
# 1 67.9812 7.8765 37.9261 0.0000 0.0000 0.0000
# 2 7.8765 72.6171 22.9241 0.0000 0.0000 0.0000
# 3 37.9261 22.9241 105.0735 0.0000 0.0000 0.0000
# 4 0.0000 0.0000 0.0000 13.8676 0.0000 0.0000
# 5 0.0000 0.0000 0.0000 0.0000 27.3164 0.0000
# 6 0.0000 0.0000 0.0000 0.0000 0.0000 23.9989
#
#
#
# Elastic Compliance Matrix: (Units=1/GPa)
#
#
# Indices 1 2 3 4 5 6 
#
# 1 0.018420 0.000108 -0.006672 0.000000 0.000000 0.000000
# 2 0.000108 0.014790 -0.003266 0.000000 0.000000 0.000000
# 3 -0.006672 -0.003266 0.012638 0.000000 0.000000 0.000000
# 4 0.000000 0.000000 0.000000 0.072110 0.000000 0.000000
# 5 0.000000 0.000000 0.000000 0.000000 0.036608 0.000000
# 6 0.000000 0.000000 0.000000 0.000000 0.000000 0.041669
#
#
# Mechanical properties :
#
#
# Convention : Reuss Voigt Hill
#
# Bulk Modulus (GPa) = 38.18490 42.56949 40.37720
# Shear Modulus (GPa) = 22.25945 24.83294 23.54619
#
# Velocity S-wave (km/s) = 3.35944 3.54833 3.45518
# Velocity P-wave (km/s) = 5.86584 6.19442 6.03237
#
# Compressibility (1/GPa) = 0.02618836
#
# Stress axis : x y z
#
# Youngs Moduli (GPa) = 54.28949 67.61283 79.12635
#
# Poissons Ratio (x) = -0.00733 0.52795
# Poissons Ratio (y) = -0.00588 0.25842
# Poissons Ratio (z) = 0.36223 0.22082
#
# Static dielectric constant tensor:
#      x y z
#    x 1.737820 0.000000 0.000000 
#    y 0.000000 1.735480 0.000000 
#    z 0.000000 0.000000 1.668280 
# 
# From -- ./inp_files/25264.got.cif
#   From: 2010.05.17/outbox.cif.g08.bks.cpg/sg58_13_cif.got.tgz:25264.got - 2010.06.03 14:20:14.
