data_PCOD9444829
_publ_section_title
;
Structure prediction by ZEFSAII (Michael W. Deem and Ramdas Pophale) SiO2 
 PCOD9444829
Probable space group: P N N M
;
_chemical_formula_sum "Si O2"
_cell_formula_units_Z 32
_cell_length_a 7.424929
_cell_length_b 7.095738
_cell_length_c 29.100055
_cell_angle_alpha 90.000000
_cell_angle_beta 90.000000
_cell_angle_gamma 90.000000
_cell_volume 1533.146608
_symmetry_space_group_name_H-M "P N N M"
_symmetry_group_IT_number 58
_symmetry_cell_setting 'orthorhombic'
loop_
_space_group_symop_operation_xyz
x,y,z
-x,-y,z
1/2+x,1/2-y,1/2-z
1/2-x,1/2+y,1/2-z
-x,-y,-z
x,y,-z
1/2-x,1/2+y,1/2+z
1/2+x,1/2-y,1/2+z
loop_
_atom_site_type_symbol
_atom_site_label
_atom_site_fract_x
_atom_site_fract_y
_atom_site_fract_z
Si Si1 0.500000 0.000000 0.575355
Si Si2 0.500000 0.500000 0.741067
Si Si3 0.015809 0.225839 0.000000
Si Si4 0.598390 0.299625 0.000000
Si Si5 0.141994 0.343466 0.699334
Si Si6 0.372962 0.681218 0.898827
O O1 0.408595 0.830043 0.544920
O O2 0.666861 0.898315 0.599910
O O3 0.343843 0.406934 0.710658
O O4 0.594334 0.345996 0.773429
O O5 0.813741 0.306945 0.000000
O O6 0.000000 0.000000 0.000000
O O7 0.500000 0.500000 0.000000
O O8 0.570544 0.224186 0.948001
O O9 0.114286 0.311016 0.645288
O O10 0.000000 0.500000 0.715386
O O11 0.500000 0.500000 0.892976
#
# Coordination Sequence:
#
# PCOD9444829 Si02
#       6
#     4   4   4   4   8   8
#     4   9  20  38  62  88 136 178 214 284 342 391
#     4  12  26  48  76 100 140 176 226 296 358 410
#     4   9  17  36  61  90 124 176 237 276 324 399
#     4   8  17  38  62  88 135 182 213 267 334 390
#     4  12  26  46  72 104 138 179 231 289 352 422
#     4  10  21  41  69  96 137 182 226 273 341 408
#
# _framework density 20.872107
#
# number of rings (size 3 to 8) (size 9 to 14) (size 15 to 20)
#    0.000    1.750    3.750    0.750    0.000    4.000 
#   18.000    0.625    0.000    0.000    0.000    0.000 
#    0.000    0.000    0.000    0.000    0.000    0.000 
#
# Total GULP energy -178286.720337 kJ/mol
# GULP energy per Si atom -5571.460011 kJ/mol
# Density = 2.082460 g / cm^3
# Si number density = 20.872107 Si / 1000 Ang^3
#
#
#
# Elastic Constant Matrix: (Units=GPa)
#
#
# Indices 1 2 3 4 5 6 
#
# 1 107.0826 33.7320 22.6839 0.0000 0.0000 0.0000
# 2 33.7320 108.4251 38.6051 0.0000 0.0000 0.0000
# 3 22.6839 38.6051 133.8060 0.0000 0.0000 0.0000
# 4 0.0000 0.0000 0.0000 55.7354 0.0000 0.0000
# 5 0.0000 0.0000 0.0000 0.0000 34.8021 0.0000
# 6 0.0000 0.0000 0.0000 0.0000 0.0000 29.1918
#
#
#
# Elastic Compliance Matrix: (Units=1/GPa)
#
#
# Indices 1 2 3 4 5 6 
#
# 1 0.010456 -0.002922 -0.000930 0.000000 0.000000 0.000000
# 2 -0.002922 0.011095 -0.002706 0.000000 0.000000 0.000000
# 3 -0.000930 -0.002706 0.008412 0.000000 0.000000 0.000000
# 4 0.000000 0.000000 0.000000 0.017942 0.000000 0.000000
# 5 0.000000 0.000000 0.000000 0.000000 0.028734 0.000000
# 6 0.000000 0.000000 0.000000 0.000000 0.000000 0.034256
#
#
# Mechanical properties :
#
#
# Convention : Reuss Voigt Hill
#
# Bulk Modulus (GPa) = 59.35273 59.92840 59.64056
# Shear Modulus (GPa) = 38.57251 40.89871 39.73561
#
# Velocity S-wave (km/s) = 4.30355 4.43142 4.36795
# Velocity P-wave (km/s) = 7.29330 7.41335 7.35357
#
# Compressibility (1/GPa) = 0.01684843
#
# Stress axis : x y z
#
# Youngs Moduli (GPa) = 95.63945 90.12724 118.88107
#
# Poissons Ratio (x) = 0.26335 0.11051
# Poissons Ratio (y) = 0.27945 0.32167
# Poissons Ratio (z) = 0.08890 0.24387
#
# Static dielectric constant tensor:
#      x y z
#    x 1.728590 0.000000 0.000000 
#    y 0.000000 1.692370 0.000000 
#    z 0.000000 0.000000 1.802680 
# 
# From -- ./inp_files/34398.got.cif
#   From: 2010.05.17/outbox.cif.g08.bks.cpg/sg58_18_cif.got.tgz:34398.got - 2010.06.03 14:20:14.
