data_PCOD9444079
_publ_section_title
;
Structure prediction by ZEFSAII (Michael W. Deem and Ramdas Pophale) SiO2 
 PCOD9444079
Probable space group: P N N M
;
_chemical_formula_sum "Si O2"
_cell_formula_units_Z 64
_cell_length_a 13.726417
_cell_length_b 9.723903
_cell_length_c 22.721678
_cell_angle_alpha 90.000000
_cell_angle_beta 90.000000
_cell_angle_gamma 90.000000
_cell_volume 3032.761144
_symmetry_space_group_name_H-M "P N N M"
_symmetry_group_IT_number 58
_symmetry_cell_setting 'orthorhombic'
loop_
_space_group_symop_operation_xyz
x,y,z
-x,-y,z
1/2+x,1/2-y,1/2-z
1/2-x,1/2+y,1/2-z
-x,-y,-z
x,y,-z
1/2-x,1/2+y,1/2+z
1/2+x,1/2-y,1/2+z
loop_
_atom_site_type_symbol
_atom_site_label
_atom_site_fract_x
_atom_site_fract_y
_atom_site_fract_z
Si Si1 0.438969 0.868667 0.915850
Si Si2 0.844994 0.729940 0.176247
Si Si3 0.879906 0.551721 0.285533
Si Si4 0.709081 0.046996 0.568029
Si Si5 0.618003 0.732158 0.781482
Si Si6 0.069859 0.876253 0.593765
Si Si7 0.216279 0.779216 0.066228
Si Si8 0.346375 0.452034 0.324998
O O1 0.424273 0.889009 0.845578
O O2 0.514195 0.751686 0.932199
O O3 0.329387 0.830461 0.935015
O O4 0.500000 0.000000 0.935643
O O5 0.895515 0.648348 0.229388
O O6 0.847064 0.639475 0.116363
O O7 0.731940 0.734736 0.198048
O O8 0.877386 0.888661 0.169062
O O9 0.907513 0.392955 0.274185
O O10 0.764486 0.545829 0.300227
O O11 0.677847 0.706930 0.500000
O O12 0.821245 0.097098 0.572542
O O13 0.710594 0.883253 0.582759
O O14 0.570153 0.654564 0.836390
O O15 0.601083 0.642509 0.723334
O O16 0.000000 0.000000 0.580028
O O17 0.160073 0.872496 0.113221
O O18 0.823702 0.562908 0.000000
#
# Coordination Sequence:
#
# PCOD9444079 Si02
#       8
#     8   8   8   8   8   8   8   8
#     4  11  21  34  47  69 100 131 165 198 235 283
#     4   9  18  30  48  70  88 116 156 203 249 282
#     4   9  17  30  48  65  92 122 152 196 244 290
#     4  10  21  35  49  66  94 132 170 202 236 281
#     4   9  17  30  47  67  91 121 154 195 245 288
#     4  11  21  32  48  70  98 133 165 199 233 278
#     4  10  21  35  49  66  94 132 168 203 238 279
#     4   9  18  30  48  70  89 114 157 204 248 284
#
# _framework density 21.102882999999999
#
# number of rings (size 3 to 8) (size 9 to 14) (size 15 to 20)
#    0.000    2.250    2.500    0.750    3.500    4.500 
#    0.000    0.000    0.000    0.000    0.000    0.000 
#    0.000    2.000    0.000    0.125    0.000    0.000 
#
# Total GULP energy -357072.626970 kJ/mol
# GULP energy per Si atom -5579.259796 kJ/mol
# Density = 2.105485 g / cm^3
# Si number density = 21.102883 Si / 1000 Ang^3
#
#
#
# Elastic Constant Matrix: (Units=GPa)
#
#
# Indices 1 2 3 4 5 6 
#
# 1 17.8614 4.3584 13.8792 0.0000 0.0000 0.0000
# 2 4.3584 184.8774 90.6447 0.0000 0.0000 0.0000
# 3 13.8792 90.6447 172.1702 0.0000 0.0000 0.0000
# 4 0.0000 0.0000 0.0000 25.8069 0.0000 0.0000
# 5 0.0000 0.0000 0.0000 0.0000 -29.4743 0.0000
# 6 0.0000 0.0000 0.0000 0.0000 0.0000 12.3795
#
#
#
# Elastic Compliance Matrix: (Units=1/GPa)
#
#
# Indices 1 2 3 4 5 6 
#
# 1 0.059955 0.001289 -0.005512 0.000000 0.000000 0.000000
# 2 0.001289 0.007319 -0.003957 0.000000 0.000000 0.000000
# 3 -0.005512 -0.003957 0.008336 0.000000 0.000000 0.000000
# 4 0.000000 0.000000 0.000000 0.038749 0.000000 0.000000
# 5 0.000000 0.000000 0.000000 0.000000 -0.033928 0.000000
# 6 0.000000 0.000000 0.000000 0.000000 0.000000 0.080779
#
#
# Mechanical properties :
#
#
# Convention : Reuss Voigt Hill
#
# Bulk Modulus (GPa) = 16.87769 65.85262 41.36515
# Shear Modulus (GPa) = 25.33956 19.47752 22.40854
#
# Velocity S-wave (km/s) = 3.46896 3.04135 3.26217
# Velocity P-wave (km/s) = 4.90511 6.60351 5.81663
#
# Compressibility (1/GPa) = 0.05924981
#
# Stress axis : x y z
#
# Youngs Moduli (GPa) = 16.67917 136.63513 119.96324
#
# Poissons Ratio (x) = -0.17612 0.66121
# Poissons Ratio (y) = -0.02150 0.47471
# Poissons Ratio (z) = 0.09193 0.54068
#
# Static dielectric constant tensor:
#      x y z
#    x 1.761010 0.000000 0.000000 
#    y 0.000000 1.718660 0.000000 
#    z 0.000000 0.000000 1.757770 
# 
# From -- ./inp_files/25642.got.cif
#   From: 2010.05.17/outbox.cif.g08.bks.cpg/sg58_13_cif.got.tgz:25642.got - 2010.06.03 14:20:14.
