data_PCOD9444556
_publ_section_title
;
Structure prediction by ZEFSAII (Michael W. Deem and Ramdas Pophale) SiO2 
 PCOD9444556
Probable space group: P N N M
;
_chemical_formula_sum "Si O2"
_cell_formula_units_Z 40
_cell_length_a 8.202216
_cell_length_b 8.242773
_cell_length_c 27.826280
_cell_angle_alpha 90.000000
_cell_angle_beta 90.000000
_cell_angle_gamma 90.000000
_cell_volume 1881.307092
_symmetry_space_group_name_H-M "P N N M"
_symmetry_group_IT_number 58
_symmetry_cell_setting 'orthorhombic'
loop_
_space_group_symop_operation_xyz
x,y,z
-x,-y,z
1/2+x,1/2-y,1/2-z
1/2-x,1/2+y,1/2-z
-x,-y,-z
x,y,-z
1/2-x,1/2+y,1/2+z
1/2+x,1/2-y,1/2+z
loop_
_atom_site_type_symbol
_atom_site_label
_atom_site_fract_x
_atom_site_fract_y
_atom_site_fract_z
Si Si1 0.569434 0.181162 0.444429
Si Si2 0.357949 0.699931 0.187529
Si Si3 0.162041 0.402285 0.783130
Si Si4 0.646626 0.608014 0.378265
Si Si5 0.686122 0.787268 0.134153
O O1 0.607252 0.213869 0.500000
O O2 0.433920 0.309398 0.425114
O O3 0.727909 0.197526 0.410520
O O4 0.500000 0.000000 0.440079
O O5 0.313054 0.527699 0.211335
O O6 0.366699 0.829691 0.230483
O O7 0.203814 0.748749 0.155407
O O8 0.510738 0.723036 0.151604
O O9 0.204183 0.258464 0.819558
O O10 0.000000 0.500000 0.795953
O O11 0.500000 0.500000 0.357928
O O12 0.793716 0.476859 0.379779
#
# Coordination Sequence:
#
# PCOD9444556 Si02
#       5
#     8   8   8   8   8
#     4  10  22  43  70  97 127 168 216 264 326 400
#     4  12  24  40  62  93 130 170 217 272 327 386
#     4  12  24  39  60  87 129 175 219 262 324 399
#     4  10  21  38  63  90 126 167 214 262 318 389
#     4  11  23  39  62  94 130 168 218 275 327 382
#
# _framework density 21.261814000000001
#
# number of rings (size 3 to 8) (size 9 to 14) (size 15 to 20)
#    0.000    1.000    0.000    9.000    0.000    5.200 
#    0.000    1.000    0.000   10.800    0.000    0.000 
#    0.000    0.000    0.000    0.000    0.000    0.000 
#
# Total GULP energy -223268.911653 kJ/mol
# GULP energy per Si atom -5581.722791 kJ/mol
# Density = 2.121342 g / cm^3
# Si number density = 21.261814 Si / 1000 Ang^3
#
#
#
# Elastic Constant Matrix: (Units=GPa)
#
#
# Indices 1 2 3 4 5 6 
#
# 1 90.5505 37.8250 51.3390 0.0000 0.0000 0.0000
# 2 37.8250 95.5032 43.4544 0.0000 0.0000 0.0000
# 3 51.3390 43.4544 139.8862 0.0000 0.0000 0.0000
# 4 0.0000 0.0000 0.0000 90.3386 0.0000 0.0000
# 5 0.0000 0.0000 0.0000 0.0000 69.6450 0.0000
# 6 0.0000 0.0000 0.0000 0.0000 0.0000 30.2492
#
#
#
# Elastic Compliance Matrix: (Units=1/GPa)
#
#
# Indices 1 2 3 4 5 6 
#
# 1 0.015181 -0.004050 -0.004313 0.000000 0.000000 0.000000
# 2 -0.004050 0.013275 -0.002637 0.000000 0.000000 0.000000
# 3 -0.004313 -0.002637 0.009551 0.000000 0.000000 0.000000
# 4 0.000000 0.000000 0.000000 0.011069 0.000000 0.000000
# 5 0.000000 0.000000 0.000000 0.000000 0.014359 0.000000
# 6 0.000000 0.000000 0.000000 0.000000 0.000000 0.033059
#
#
# Mechanical properties :
#
#
# Convention : Reuss Voigt Hill
#
# Bulk Modulus (GPa) = 62.47912 65.68629 64.08270
# Shear Modulus (GPa) = 40.37798 50.93467 45.65633
#
# Velocity S-wave (km/s) = 4.36258 4.89979 4.63897
# Velocity P-wave (km/s) = 7.40442 7.93547 7.67454
#
# Compressibility (1/GPa) = 0.01600535
#
# Stress axis : x y z
#
# Youngs Moduli (GPa) = 65.87249 75.33020 104.70130
#
# Poissons Ratio (x) = 0.30508 0.45162
# Poissons Ratio (y) = 0.26678 0.27614
# Poissons Ratio (z) = 0.28413 0.19867
#
# Static dielectric constant tensor:
#      x y z
#    x 1.930960 0.000000 0.000000 
#    y 0.000000 1.842540 0.000000 
#    z 0.000000 0.000000 1.728050 
# 
# From -- ./inp_files/31252.got.cif
#   From: 2010.05.17/outbox.cif.g08.bks.cpg/sg58_16_cif.got.tgz:31252.got - 2010.06.03 14:20:14.
