data_PCOD9444710
_publ_section_title
;
Structure prediction by ZEFSAII (Michael W. Deem and Ramdas Pophale) SiO2 
 PCOD9444710
Probable space group: P N N M
;
_chemical_formula_sum "Si O2"
_cell_formula_units_Z 64
_cell_length_a 16.764962
_cell_length_b 19.712731
_cell_length_c 7.729616
_cell_angle_alpha 90.000000
_cell_angle_beta 90.000000
_cell_angle_gamma 90.000000
_cell_volume 2554.508123
_symmetry_space_group_name_H-M "P N N M"
_symmetry_group_IT_number 58
_symmetry_cell_setting 'orthorhombic'
loop_
_space_group_symop_operation_xyz
x,y,z
-x,-y,z
1/2+x,1/2-y,1/2-z
1/2-x,1/2+y,1/2-z
-x,-y,-z
x,y,-z
1/2-x,1/2+y,1/2+z
1/2+x,1/2-y,1/2+z
loop_
_atom_site_type_symbol
_atom_site_label
_atom_site_fract_x
_atom_site_fract_y
_atom_site_fract_z
Si Si1 0.342518 0.946803 0.197937
Si Si2 0.673628 0.204936 0.787954
Si Si3 0.912255 0.419280 0.298400
Si Si4 0.429418 0.345379 0.296217
Si Si5 0.261371 0.167436 0.701235
Si Si6 0.327544 0.464681 0.197690
Si Si7 0.003508 0.709182 0.291569
Si Si8 0.097383 0.096358 0.204609
O O1 0.329523 0.872393 0.275837
O O2 0.252842 0.975833 0.196210
O O3 0.396786 0.006068 0.277621
O O4 0.369783 0.935445 0.000000
O O5 0.740629 0.257433 0.728234
O O6 0.585338 0.231462 0.741194
O O7 0.680394 0.203820 0.000000
O O8 0.931308 0.430468 0.500000
O O9 0.830208 0.375974 0.290067
O O10 0.976894 0.366500 0.226569
O O11 0.423806 0.358920 0.500000
O O12 0.359022 0.388294 0.213524
O O13 0.433824 0.265089 0.269038
O O14 0.513925 0.374467 0.228074
O O15 0.284295 0.172468 0.500000
O O16 0.176348 0.129057 0.713194
O O17 0.394831 0.516112 0.263203
O O18 0.308835 0.480596 0.000000
O O19 0.006315 0.707226 0.500000
O O20 0.100660 0.109777 0.000000
#
# Coordination Sequence:
#
# PCOD9444710 Si02
#       8
#     8   8   8   8   8   8   8   8
#     4  10  21  40  62  88 121 160 204 249 302 359
#     4   9  20  38  62  89 120 158 201 252 302 354
#     4  10  22  38  61  89 122 161 200 251 304 357
#     4  11  24  40  60  88 122 161 200 246 303 361
#     4  11  21  36  61  89 121 160 200 245 300 359
#     4  12  25  39  59  90 123 160 201 247 300 359
#     4  10  21  40  62  90 122 156 204 254 302 355
#     4  11  22  39  62  88 120 159 201 245 300 366
#
# _framework density 25.053747000000001
#
# number of rings (size 3 to 8) (size 9 to 14) (size 15 to 20)
#    0.000    1.500    2.500    2.625    1.750    4.000 
#    0.000    3.750    0.000    0.000    0.000    2.625 
#    0.000    0.000    0.000    0.000    0.000    0.000 
#
# Total GULP energy -358049.464726 kJ/mol
# GULP energy per Si atom -5594.522886 kJ/mol
# Density = 2.499672 g / cm^3
# Si number density = 25.053747 Si / 1000 Ang^3
#
#
#
# Elastic Constant Matrix: (Units=GPa)
#
#
# Indices 1 2 3 4 5 6 
#
# 1 73.4473 7.0222 2.0695 0.0000 0.0000 0.0000
# 2 7.0222 143.4525 -3.2074 0.0000 0.0000 0.0000
# 3 2.0695 -3.2074 62.1651 0.0000 0.0000 0.0000
# 4 0.0000 0.0000 0.0000 17.2313 0.0000 0.0000
# 5 0.0000 0.0000 0.0000 0.0000 2.5758 0.0000
# 6 0.0000 0.0000 0.0000 0.0000 0.0000 42.5894
#
#
#
# Elastic Compliance Matrix: (Units=1/GPa)
#
#
# Indices 1 2 3 4 5 6 
#
# 1 0.013694 -0.000681 -0.000491 0.000000 0.000000 0.000000
# 2 -0.000681 0.007013 0.000385 0.000000 0.000000 0.000000
# 3 -0.000491 0.000385 0.016122 0.000000 0.000000 0.000000
# 4 0.000000 0.000000 0.000000 0.058034 0.000000 0.000000
# 5 0.000000 0.000000 0.000000 0.000000 0.388221 0.000000
# 6 0.000000 0.000000 0.000000 0.000000 0.000000 0.023480
#
#
# Mechanical properties :
#
#
# Convention : Reuss Voigt Hill
#
# Bulk Modulus (GPa) = 28.36578 32.31483 30.34031
# Shear Modulus (GPa) = 9.61739 30.69135 20.15437
#
# Velocity S-wave (km/s) = 1.96139 3.50383 2.83935
# Velocity P-wave (km/s) = 4.05906 5.41251 4.78389
#
# Compressibility (1/GPa) = 0.03525374
#
# Stress axis : x y z
#
# Youngs Moduli (GPa) = 73.02372 142.59436 62.02557
#
# Poissons Ratio (x) = 0.09715 0.03046
# Poissons Ratio (y) = 0.04975 -0.02385
# Poissons Ratio (z) = 0.03586 -0.05483
#
# Static dielectric constant tensor:
#      x y z
#    x 1.962620 0.000000 0.000000 
#    y 0.000000 2.031930 0.000000 
#    z 0.000000 0.000000 1.911090 
# 
# From -- ./inp_files/8352.got.cif
#   From: 2010.05.17/outbox.cif.g08.bks.cpg/sg58_5_cif.got.tgz:8352.got - 2010.06.03 14:20:14.
