data_PCOD9444183
_publ_section_title
;
Structure prediction by ZEFSAII (Michael W. Deem and Ramdas Pophale) SiO2 
 PCOD9444183
Probable space group: P N N M
;
_chemical_formula_sum "Si O2"
_cell_formula_units_Z 36
_cell_length_a 9.225152
_cell_length_b 19.171764
_cell_length_c 10.275737
_cell_angle_alpha 90.000000
_cell_angle_beta 90.000000
_cell_angle_gamma 90.000000
_cell_volume 1817.391888
_symmetry_space_group_name_H-M "P N N M"
_symmetry_group_IT_number 58
_symmetry_cell_setting 'orthorhombic'
loop_
_space_group_symop_operation_xyz
x,y,z
-x,-y,z
1/2+x,1/2-y,1/2-z
1/2-x,1/2+y,1/2-z
-x,-y,-z
x,y,-z
1/2-x,1/2+y,1/2+z
1/2+x,1/2-y,1/2+z
loop_
_atom_site_type_symbol
_atom_site_label
_atom_site_fract_x
_atom_site_fract_y
_atom_site_fract_z
Si Si1 0.804200 0.120705 0.148630
Si Si2 0.476420 0.289301 0.149907
Si Si3 0.476669 0.121985 0.850452
Si Si4 0.271775 0.605346 0.851925
Si Si5 0.000000 0.000000 0.752047
O O1 0.862853 0.177750 0.249790
O O2 0.640017 0.097847 0.178199
O O3 0.911703 0.055619 0.163383
O O4 0.804863 0.147374 0.000000
O O5 0.482471 0.206308 0.159051
O O6 0.632280 0.325247 0.176275
O O7 0.439101 0.307940 0.000000
O O8 0.356800 0.096966 0.750102
O O9 0.440007 0.103324 0.000000
O O10 0.386018 0.542876 0.833941
O O11 0.219024 0.608939 0.000000
#
# Coordination Sequence:
#
# PCOD9444183 Si02
#       5
#     8   8   8   8   4
#     4  10  21  37  58  82 111 147 185 227 273 326
#     4   9  19  36  57  82 113 146 179 220 273 329
#     4  10  21  36  55  84 116 142 176 226 279 327
#     4  10  21  38  60  82 109 147 187 227 270 323
#     4  10  22  40  58  78 106 146 192 232 274 324
#
# _framework density 19.808606000000001
#
# number of rings (size 3 to 8) (size 9 to 14) (size 15 to 20)
#    0.000    2.222    0.000    2.000    0.000    9.778 
#    0.000    3.333    0.000    0.000    0.000    0.000 
#    0.000    0.000    0.000    0.000    0.000    0.000 
#
# Total GULP energy -201095.460423 kJ/mol
# GULP energy per Si atom -5585.985012 kJ/mol
# Density = 1.976352 g / cm^3
# Si number density = 19.808606 Si / 1000 Ang^3
#
#
#
# Elastic Constant Matrix: (Units=GPa)
#
#
# Indices 1 2 3 4 5 6 
#
# 1 130.8884 19.9114 88.2284 0.0000 0.0000 0.0000
# 2 19.9114 41.6039 11.7710 0.0000 0.0000 0.0000
# 3 88.2284 11.7710 100.9443 0.0000 0.0000 0.0000
# 4 0.0000 0.0000 0.0000 -10.9154 0.0000 0.0000
# 5 0.0000 0.0000 0.0000 0.0000 -2.4981 0.0000
# 6 0.0000 0.0000 0.0000 0.0000 0.0000 -7.5714
#
#
#
# Elastic Compliance Matrix: (Units=1/GPa)
#
#
# Indices 1 2 3 4 5 6 
#
# 1 0.019428 -0.004647 -0.016439 0.000000 0.000000 0.000000
# 2 -0.004647 0.025968 0.001034 0.000000 0.000000 0.000000
# 3 -0.016439 0.001034 0.024154 0.000000 0.000000 0.000000
# 4 0.000000 0.000000 0.000000 -0.091613 0.000000 0.000000
# 5 0.000000 0.000000 0.000000 0.000000 -0.400302 0.000000
# 6 0.000000 0.000000 0.000000 0.000000 0.000000 -0.132075
#
#
# Mechanical properties :
#
#
# Convention : Reuss Voigt Hill
#
# Bulk Modulus (GPa) = 33.96127 57.02867 45.49497
# Shear Modulus (GPa) = -9.91038 6.03805 -1.93616
#
# Velocity S-wave (km/s) = -2.23918 1.74780 -0.98973
# Velocity P-wave (km/s) = 3.23986 5.73807 4.65951
#
# Compressibility (1/GPa) = 0.02944530
#
# Stress axis : x y z
#
# Youngs Moduli (GPa) = 51.47223 38.50911 41.40124
#
# Poissons Ratio (x) = 0.17896 0.68058
# Poissons Ratio (y) = 0.23920 -0.04279
# Poissons Ratio (z) = 0.84614 -0.03981
#
# Static dielectric constant tensor:
#      x y z
#    x 1.677900 0.000000 0.000000 
#    y 0.000000 1.715140 0.000000 
#    z 0.000000 0.000000 1.673370 
# 
# From -- ./inp_files/2250.got.cif
#   From: 2010.05.17/outbox.cif.g08.bks.cpg/sg58_2_cif.got.tgz:2250.got - 2010.06.03 14:20:14.
