data_PCOD9444586
_publ_section_title
;
Structure prediction by ZEFSAII (Michael W. Deem and Ramdas Pophale) SiO2 
 PCOD9444586
Probable space group: P N N M
;
_chemical_formula_sum "Si O2"
_cell_formula_units_Z 34
_cell_length_a 20.663861
_cell_length_b 9.056791
_cell_length_c 7.297944
_cell_angle_alpha 90.000000
_cell_angle_beta 90.000000
_cell_angle_gamma 90.000000
_cell_volume 1365.797597
_symmetry_space_group_name_H-M "P N N M"
_symmetry_group_IT_number 58
_symmetry_cell_setting 'orthorhombic'
loop_
_space_group_symop_operation_xyz
x,y,z
-x,-y,z
1/2+x,1/2-y,1/2-z
1/2-x,1/2+y,1/2-z
-x,-y,-z
x,y,-z
1/2-x,1/2+y,1/2+z
1/2+x,1/2-y,1/2+z
loop_
_atom_site_type_symbol
_atom_site_label
_atom_site_fract_x
_atom_site_fract_y
_atom_site_fract_z
Si Si1 0.524284 0.832075 0.210894
Si Si2 0.413565 0.610567 0.219997
Si Si3 0.336490 0.105629 0.212930
Si Si4 0.287357 0.788758 0.220550
Si Si5 0.000000 0.000000 0.000000
O O1 0.464311 0.738019 0.285845
O O2 0.595669 0.841539 0.293627
O O3 0.500000 0.000000 0.209354
O O4 0.530092 0.779200 0.000000
O O5 0.342720 0.669546 0.269452
O O6 0.443270 0.480195 0.338222
O O7 0.415479 0.588295 0.000000
O O8 0.281938 0.230263 0.218619
O O9 0.307960 0.951294 0.287373
O O10 0.351758 0.071935 0.000000
O O11 0.285546 0.793678 0.000000
#
# Coordination Sequence:
#
# PCOD9444586 Si02
#       5
#     8   8   8   8   2
#     4   9  16  36  68  92 115 165 221 266 322 385
#     4  10  22  43  68  91 132 173 216 267 332 391
#     4  10  21  38  65  93 126 169 220 271 327 392
#     4  10  22  41  62  91 127 173 212 267 330 393
#     4  12  26  40  62 102 132 172 208 276 322 392
#
# _framework density 24.893878000000001
#
# number of rings (size 3 to 8) (size 9 to 14) (size 15 to 20)
#    0.000    2.118    2.353    0.353    1.647    2.824 
#    6.353    5.294    0.000    0.000    0.000    0.000 
#    0.000    0.000    0.000    0.000    0.000    0.000 
#
# Total GULP energy -189510.192946 kJ/mol
# GULP energy per Si atom -5573.829204 kJ/mol
# Density = 2.483722 g / cm^3
# Si number density = 24.893878 Si / 1000 Ang^3
#
#
#
# Elastic Constant Matrix: (Units=GPa)
#
#
# Indices 1 2 3 4 5 6 
#
# 1 186.8154 19.0795 10.3238 0.0000 0.0000 0.0000
# 2 19.0795 45.3308 -6.2933 0.0000 0.0000 0.0000
# 3 10.3238 -6.2933 124.5544 0.0000 0.0000 0.0000
# 4 0.0000 0.0000 0.0000 -36.8533 0.0000 0.0000
# 5 0.0000 0.0000 0.0000 0.0000 -35.5358 0.0000
# 6 0.0000 0.0000 0.0000 0.0000 0.0000 47.3320
#
#
#
# Elastic Compliance Matrix: (Units=1/GPa)
#
#
# Indices 1 2 3 4 5 6 
#
# 1 0.005636 -0.002454 -0.000591 0.000000 0.000000 0.000000
# 2 -0.002454 0.023285 0.001380 0.000000 0.000000 0.000000
# 3 -0.000591 0.001380 0.008147 0.000000 0.000000 0.000000
# 4 0.000000 0.000000 0.000000 -0.027135 0.000000 0.000000
# 5 0.000000 0.000000 0.000000 0.000000 -0.028141 0.000000
# 6 0.000000 0.000000 0.000000 0.000000 0.000000 0.021127
#
#
# Mechanical properties :
#
#
# Convention : Reuss Voigt Hill
#
# Bulk Modulus (GPa) = 29.64099 44.76894 37.20497
# Shear Modulus (GPa) = 285.76102 17.22795 151.49448
#
# Velocity S-wave (km/s) = 10.72571 2.63355 7.80950
# Velocity P-wave (km/s) = 12.85771 5.22211 9.81303
#
# Compressibility (1/GPa) = 0.03373706
#
# Stress axis : x y z
#
# Youngs Moduli (GPa) = 177.42426 42.94677 122.73938
#
# Poissons Ratio (x) = 0.10541 0.07256
# Poissons Ratio (y) = 0.43546 -0.16937
# Poissons Ratio (z) = 0.10489 -0.05926
#
# Static dielectric constant tensor:
#      x y z
#    x 1.931860 0.000000 0.000000 
#    y 0.000000 2.321930 0.000000 
#    z 0.000000 0.000000 2.033910 
# 
# From -- ./inp_files/2263.got.cif
#   From: 2010.05.17/outbox.cif.g08.bks.cpg/sg58_2_cif.got.tgz:2263.got - 2010.06.03 14:20:14.
