data_PCOD9444529
_publ_section_title
;
Structure prediction by ZEFSAII (Michael W. Deem and Ramdas Pophale) SiO2 
 PCOD9444529
Probable space group: P N N M
;
_chemical_formula_sum "Si O2"
_cell_formula_units_Z 56
_cell_length_a 19.925627
_cell_length_b 16.024518
_cell_length_c 8.853409
_cell_angle_alpha 90.000000
_cell_angle_beta 90.000000
_cell_angle_gamma 90.000000
_cell_volume 2826.880820
_symmetry_space_group_name_H-M "P N N M"
_symmetry_group_IT_number 58
_symmetry_cell_setting 'orthorhombic'
loop_
_space_group_symop_operation_xyz
x,y,z
-x,-y,z
1/2+x,1/2-y,1/2-z
1/2-x,1/2+y,1/2-z
-x,-y,-z
x,y,-z
1/2-x,1/2+y,1/2+z
1/2+x,1/2-y,1/2+z
loop_
_atom_site_type_symbol
_atom_site_label
_atom_site_fract_x
_atom_site_fract_y
_atom_site_fract_z
Si Si1 0.458086 0.584647 0.177736
Si Si2 0.330284 0.010145 0.319850
Si Si3 0.532408 0.244935 0.322023
Si Si4 0.818596 0.186334 0.179377
Si Si5 0.675446 0.505440 0.820119
Si Si6 0.906009 0.333528 0.320341
Si Si7 0.162010 0.327977 0.320301
O O1 0.500000 0.500000 0.196154
O O2 0.485110 0.660581 0.275327
O O3 0.381743 0.560885 0.218651
O O4 0.460898 0.608294 0.000000
O O5 0.340021 0.003289 0.500000
O O6 0.250863 0.026116 0.292288
O O7 0.374282 0.084144 0.253017
O O8 0.345640 0.922056 0.241312
O O9 0.527947 0.233388 0.500000
O O10 0.480743 0.183605 0.239453
O O11 0.607087 0.227667 0.262323
O O12 0.861772 0.254649 0.266283
O O13 0.738991 0.198462 0.208860
O O14 0.834605 0.092533 0.233805
O O15 0.830214 0.194251 0.000000
O O16 0.668974 0.522420 0.000000
O O17 0.905433 0.339774 0.500000
O O18 0.151282 0.325430 0.500000
#
# Coordination Sequence:
#
# PCOD9444529 Si02
#       7
#     8   8   8   8   8   8   8
#     4  10  21  38  61  90 126 167 205 246 304 373
#     4  10  21  39  62  91 123 158 206 258 309 362
#     4  12  26  42  62  91 124 162 208 259 311 366
#     4  10  21  38  63  92 125 161 202 255 306 360
#     4   9  19  36  60  89 123 162 201 247 303 365
#     4  12  25  41  62  88 122 163 208 254 310 373
#     4  10  22  42  65  91 125 164 205 252 310 371
#
# _framework density 19.809820999999999
#
# number of rings (size 3 to 8) (size 9 to 14) (size 15 to 20)
#    0.000    1.571    0.000    4.714    2.000    4.857 
#    0.000    2.857    0.000    0.000    0.000    0.000 
#    0.000    0.000    0.000    0.000    0.000    0.000 
#
# Total GULP energy -313230.136218 kJ/mol
# GULP energy per Si atom -5593.395290 kJ/mol
# Density = 1.976473 g / cm^3
# Si number density = 19.809821 Si / 1000 Ang^3
#
#
#
# Elastic Constant Matrix: (Units=GPa)
#
#
# Indices 1 2 3 4 5 6 
#
# 1 36.8300 6.3054 11.7763 0.0000 0.0000 0.0000
# 2 6.3054 23.6723 4.3127 0.0000 0.0000 0.0000
# 3 11.7763 4.3127 53.0916 0.0000 0.0000 0.0000
# 4 0.0000 0.0000 0.0000 37.3543 0.0000 0.0000
# 5 0.0000 0.0000 0.0000 0.0000 35.6020 0.0000
# 6 0.0000 0.0000 0.0000 0.0000 0.0000 29.4321
#
#
#
# Elastic Compliance Matrix: (Units=1/GPa)
#
#
# Indices 1 2 3 4 5 6 
#
# 1 0.030311 -0.006952 -0.006159 0.000000 0.000000 0.000000
# 2 -0.006952 0.044472 -0.002071 0.000000 0.000000 0.000000
# 3 -0.006159 -0.002071 0.020370 0.000000 0.000000 0.000000
# 4 0.000000 0.000000 0.000000 0.026771 0.000000 0.000000
# 5 0.000000 0.000000 0.000000 0.000000 0.028088 0.000000
# 6 0.000000 0.000000 0.000000 0.000000 0.000000 0.033977
#
#
# Mechanical properties :
#
#
# Convention : Reuss Voigt Hill
#
# Bulk Modulus (GPa) = 15.43419 17.59808 16.51614
# Shear Modulus (GPa) = 21.19116 26.55764 23.87440
#
# Velocity S-wave (km/s) = 3.27422 3.66543 3.47534
# Velocity P-wave (km/s) = 4.70129 5.17848 4.94564
#
# Compressibility (1/GPa) = 0.06479122
#
# Stress axis : x y z
#
# Youngs Moduli (GPa) = 32.99118 22.48591 49.09273
#
# Poissons Ratio (x) = 0.15631 0.30235
# Poissons Ratio (y) = 0.22934 0.10165
# Poissons Ratio (z) = 0.20318 0.04656
#
# Static dielectric constant tensor:
#      x y z
#    x 1.714500 0.000000 0.000000 
#    y 0.000000 1.669040 0.000000 
#    z 0.000000 0.000000 1.658230 
# 
# From -- ./inp_files/8969.got.cif
#   From: 2010.05.17/outbox.cif.g08.bks.cpg/sg58_5_cif.got.tgz:8969.got - 2010.06.03 14:20:14.
