data_PCOD9444850
_publ_section_title
;
Structure prediction by ZEFSAII (Michael W. Deem and Ramdas Pophale) SiO2 
 PCOD9444850
Probable space group: P N N M
;
_chemical_formula_sum "Si O2"
_cell_formula_units_Z 32
_cell_length_a 5.563494
_cell_length_b 7.401948
_cell_length_c 34.841905
_cell_angle_alpha 90.000000
_cell_angle_beta 90.000000
_cell_angle_gamma 90.000000
_cell_volume 1434.813803
_symmetry_space_group_name_H-M "P N N M"
_symmetry_group_IT_number 58
_symmetry_cell_setting 'orthorhombic'
loop_
_space_group_symop_operation_xyz
x,y,z
-x,-y,z
1/2+x,1/2-y,1/2-z
1/2-x,1/2+y,1/2-z
-x,-y,-z
x,y,-z
1/2-x,1/2+y,1/2+z
1/2+x,1/2-y,1/2+z
loop_
_atom_site_type_symbol
_atom_site_label
_atom_site_fract_x
_atom_site_fract_y
_atom_site_fract_z
Si Si1 0.000000 0.500000 0.263253
Si Si2 0.754113 0.382291 0.500000
Si Si3 0.818383 0.850361 0.695672
Si Si4 0.769674 0.214260 0.582635
Si Si5 0.721661 0.801047 0.612754
O O1 0.066391 0.333099 0.289666
O O2 0.203490 0.562737 0.233535
O O3 0.500000 0.500000 0.500000
O O4 0.775535 0.257827 0.537770
O O5 0.000000 0.500000 0.500000
O O6 0.663831 0.810964 0.658187
O O7 0.000000 0.000000 0.680455
O O8 0.512593 0.292208 0.595616
O O9 0.015305 0.280657 0.603334
O O10 0.746425 0.001884 0.594107
#
# Coordination Sequence:
#
# PCOD9444850 Si02
#       5
#     4   4   8   8   8
#     4  12  26  42  74 102 144 194 246 308 374 436
#     4  12  26  44  66  98 148 179 225 297 356 432
#     4  12  24  45  68 106 145 187 245 304 365 432
#     4  10  21  42  67  98 125 183 222 282 353 416
#     4  10  22  41  72  97 134 175 237 294 341 435
#
# _framework density 22.302544000000001
#
# number of rings (size 3 to 8) (size 9 to 14) (size 15 to 20)
#    0.000    1.000    5.000    3.000    0.000    4.000 
#    6.750    0.000    0.000    0.000    0.000    0.000 
#    0.000    0.000    0.000    0.000    0.000    0.000 
#
# Total GULP energy -178564.579939 kJ/mol
# GULP energy per Si atom -5580.143123 kJ/mol
# Density = 2.225178 g / cm^3
# Si number density = 22.302544 Si / 1000 Ang^3
#
#
#
# Elastic Constant Matrix: (Units=GPa)
#
#
# Indices 1 2 3 4 5 6 
#
# 1 150.2630 13.6873 16.5156 0.0000 0.0000 0.0000
# 2 13.6873 80.8943 27.1552 0.0000 0.0000 0.0000
# 3 16.5156 27.1552 156.4689 0.0000 0.0000 0.0000
# 4 0.0000 0.0000 0.0000 223.6455 0.0000 0.0000
# 5 0.0000 0.0000 0.0000 0.0000 50.3344 0.0000
# 6 0.0000 0.0000 0.0000 0.0000 0.0000 12.6699
#
#
#
# Elastic Compliance Matrix: (Units=1/GPa)
#
#
# Indices 1 2 3 4 5 6 
#
# 1 0.006804 -0.000966 -0.000550 0.000000 0.000000 0.000000
# 2 -0.000966 0.013264 -0.002200 0.000000 0.000000 0.000000
# 3 -0.000550 -0.002200 0.006831 0.000000 0.000000 0.000000
# 4 0.000000 0.000000 0.000000 0.004471 0.000000 0.000000
# 5 0.000000 0.000000 0.000000 0.000000 0.019867 0.000000
# 6 0.000000 0.000000 0.000000 0.000000 0.000000 0.078927
#
#
# Mechanical properties :
#
#
# Convention : Reuss Voigt Hill
#
# Bulk Modulus (GPa) = 51.37474 55.81582 53.59528
# Shear Modulus (GPa) = 34.70160 79.34784 57.02472
#
# Velocity S-wave (km/s) = 3.94883 5.97119 5.06204
# Velocity P-wave (km/s) = 6.62393 8.52181 7.63209
#
# Compressibility (1/GPa) = 0.01946482
#
# Stress axis : x y z
#
# Youngs Moduli (GPa) = 146.98270 75.39311 146.39271
#
# Poissons Ratio (x) = 0.07286 0.08058
# Poissons Ratio (y) = 0.14204 0.32205
# Poissons Ratio (z) = 0.08090 0.16586
#
# Static dielectric constant tensor:
#      x y z
#    x 1.947870 0.000000 0.000000 
#    y 0.000000 1.809540 0.000000 
#    z 0.000000 0.000000 1.745170 
# 
# From -- ./inp_files/34012.got.cif
#   From: 2010.05.17/outbox.cif.g08.bks.cpg/sg58_18_cif.got.tgz:34012.got - 2010.06.03 14:20:14.
