data_PCOD9444770
_publ_section_title
;
Structure prediction by ZEFSAII (Michael W. Deem and Ramdas Pophale) SiO2 
 PCOD9444770
Probable space group: P N N M
;
_chemical_formula_sum "Si O2"
_cell_formula_units_Z 48
_cell_length_a 7.289876
_cell_length_b 10.595236
_cell_length_c 29.877325
_cell_angle_alpha 90.000000
_cell_angle_beta 90.000000
_cell_angle_gamma 90.000000
_cell_volume 2307.663533
_symmetry_space_group_name_H-M "P N N M"
_symmetry_group_IT_number 58
_symmetry_cell_setting 'orthorhombic'
loop_
_space_group_symop_operation_xyz
x,y,z
-x,-y,z
1/2+x,1/2-y,1/2-z
1/2-x,1/2+y,1/2-z
-x,-y,-z
x,y,-z
1/2-x,1/2+y,1/2+z
1/2+x,1/2-y,1/2+z
loop_
_atom_site_type_symbol
_atom_site_label
_atom_site_fract_x
_atom_site_fract_y
_atom_site_fract_z
Si Si1 0.860708 0.880459 0.783976
Si Si2 0.917603 0.774284 0.948023
Si Si3 0.719132 0.240054 0.888203
Si Si4 0.429459 0.358912 0.049134
Si Si5 0.897560 0.367064 0.198352
Si Si6 0.215221 0.038673 0.876853
O O1 0.735051 0.885218 0.740558
O O2 0.746269 0.892144 0.830283
O O3 0.966250 0.747655 0.788513
O O4 0.000000 0.000000 0.780972
O O5 0.788827 0.651222 0.944931
O O6 0.794484 0.877843 0.921531
O O7 0.108687 0.757645 0.922654
O O8 0.946042 0.807086 0.000000
O O9 0.542112 0.296065 0.911497
O O10 0.784806 0.315432 0.844466
O O11 0.680990 0.092889 0.879045
O O12 0.500000 0.500000 0.047392
O O13 0.467685 0.299047 0.000000
O O14 0.000000 0.500000 0.189004
O O15 0.000000 0.000000 0.872511
#
# Coordination Sequence:
#
# PCOD9444770 Si02
#       6
#     8   8   8   8   8   8
#     4  11  22  47  63  91 138 171 221 280 330 396
#     4  10  21  40  67  96 129 169 217 273 328 394
#     4  11  23  42  66  95 130 170 220 274 330 396
#     4  10  24  41  61  95 135 176 218 266 333 400
#     4  12  26  40  69 100 128 176 228 272 337 406
#     4   9  19  40  64  89 126 169 212 269 332 393
#
# _framework density 20.800259
#
# number of rings (size 3 to 8) (size 9 to 14) (size 15 to 20)
#    0.000    1.500    5.000    1.500    2.333    6.333 
#    0.000    4.167    0.000    0.000    0.000    0.000 
#    0.000    0.000    0.000    0.000    0.000    0.000 
#
# Total GULP energy -267989.462092 kJ/mol
# GULP energy per Si atom -5583.113794 kJ/mol
# Density = 2.075292 g / cm^3
# Si number density = 20.800259 Si / 1000 Ang^3
#
#
#
# Elastic Constant Matrix: (Units=GPa)
#
#
# Indices 1 2 3 4 5 6 
#
# 1 49.9898 12.9143 31.7645 0.0000 0.0000 0.0000
# 2 12.9143 69.7539 7.4541 0.0000 0.0000 0.0000
# 3 31.7645 7.4541 143.7990 0.0000 0.0000 0.0000
# 4 0.0000 0.0000 0.0000 31.7334 0.0000 0.0000
# 5 0.0000 0.0000 0.0000 0.0000 34.0151 0.0000
# 6 0.0000 0.0000 0.0000 0.0000 0.0000 31.9765
#
#
#
# Elastic Compliance Matrix: (Units=1/GPa)
#
#
# Indices 1 2 3 4 5 6 
#
# 1 0.024306 -0.003948 -0.005164 0.000000 0.000000 0.000000
# 2 -0.003948 0.015057 0.000092 0.000000 0.000000 0.000000
# 3 -0.005164 0.000092 0.008090 0.000000 0.000000 0.000000
# 4 0.000000 0.000000 0.000000 0.031513 0.000000 0.000000
# 5 0.000000 0.000000 0.000000 0.000000 0.029399 0.000000
# 6 0.000000 0.000000 0.000000 0.000000 0.000000 0.031273
#
#
# Mechanical properties :
#
#
# Convention : Reuss Voigt Hill
#
# Bulk Modulus (GPa) = 34.00043 40.86760 37.43402
# Shear Modulus (GPa) = 29.85383 33.63897 31.74640
#
# Velocity S-wave (km/s) = 3.79260 4.02585 3.91096
# Velocity P-wave (km/s) = 5.96322 6.42653 6.19921
#
# Compressibility (1/GPa) = 0.02941139
#
# Stress axis : x y z
#
# Youngs Moduli (GPa) = 41.14285 66.41302 123.60666
#
# Poissons Ratio (x) = 0.26220 0.63834
# Poissons Ratio (y) = 0.16244 -0.01132
# Poissons Ratio (z) = 0.21247 -0.00608
#
# Static dielectric constant tensor:
#      x y z
#    x 1.699120 0.000000 0.000000 
#    y 0.000000 1.920200 0.000000 
#    z 0.000000 0.000000 1.774450 
# 
# From -- ./inp_files/34583.got.cif
#   From: 2010.05.17/outbox.cif.g08.bks.cpg/sg58_18_cif.got.tgz:34583.got - 2010.06.03 14:20:14.
