data_PCOD9444094
_publ_section_title
;
Structure prediction by ZEFSAII (Michael W. Deem and Ramdas Pophale) SiO2 
 PCOD9444094
Probable space group: P N N M
;
_chemical_formula_sum "Si O2"
_cell_formula_units_Z 48
_cell_length_a 5.121615
_cell_length_b 34.282893
_cell_length_c 13.902931
_cell_angle_alpha 90.000000
_cell_angle_beta 90.000000
_cell_angle_gamma 90.000000
_cell_volume 2441.129165
_symmetry_space_group_name_H-M "P N N M"
_symmetry_group_IT_number 58
_symmetry_cell_setting 'orthorhombic'
loop_
_space_group_symop_operation_xyz
x,y,z
-x,-y,z
1/2+x,1/2-y,1/2-z
1/2-x,1/2+y,1/2-z
-x,-y,-z
x,y,-z
1/2-x,1/2+y,1/2+z
1/2+x,1/2-y,1/2+z
loop_
_atom_site_type_symbol
_atom_site_label
_atom_site_fract_x
_atom_site_fract_y
_atom_site_fract_z
Si Si1 0.966619 0.624254 0.294905
Si Si2 0.024199 0.069224 0.390440
Si Si3 0.086666 0.224322 0.253669
Si Si4 0.485653 0.956474 0.279543
Si Si5 0.471936 0.658462 0.387418
Si Si6 0.239073 0.654251 0.112874
O O1 0.040068 0.578841 0.292815
O O2 0.679597 0.630727 0.334863
O O3 0.179212 0.646044 0.359886
O O4 0.007667 0.641919 0.187047
O O5 0.954593 0.060853 0.500000
O O6 0.293978 0.048456 0.361422
O O7 0.076490 0.115804 0.382009
O O8 0.795683 0.053853 0.323084
O O9 0.360500 0.244518 0.227153
O O10 0.134763 0.192857 0.339384
O O11 0.987821 0.200199 0.161638
O O12 0.500000 0.000000 0.240664
O O13 0.513472 0.658535 0.500000
O O14 0.168400 0.659447 0.000000
#
# Coordination Sequence:
#
# PCOD9444094 Si02
#       6
#     8   8   8   8   8   8
#     4  10  21  40  61  88 116 148 201 243 275 344
#     4  10  21  35  53  80 113 155 203 233 267 342
#     4  11  23  38  57  87 122 148 186 240 288 344
#     4  11  21  34  55  82 117 155 185 235 300 337
#     4  11  23  42  66  85 111 154 199 243 291 338
#     4   9  20  39  61  83 115 158 192 228 281 342
#
# _framework density 19.663029999999999
#
# number of rings (size 3 to 8) (size 9 to 14) (size 15 to 20)
#    0.000    1.667    0.000    6.500    0.000    5.333 
#    0.000   10.000    0.000    3.000    0.000    0.000 
#    0.000    0.000    0.000    0.000    0.000    0.000 
#
# Total GULP energy -268043.354481 kJ/mol
# GULP energy per Si atom -5584.236552 kJ/mol
# Density = 1.961828 g / cm^3
# Si number density = 19.663030 Si / 1000 Ang^3
#
#
#
# Elastic Constant Matrix: (Units=GPa)
#
#
# Indices 1 2 3 4 5 6 
#
# 1 57.7605 0.5984 7.9791 0.0000 0.0000 0.0000
# 2 0.5984 100.1772 23.4618 0.0000 0.0000 0.0000
# 3 7.9791 23.4618 115.2997 0.0000 0.0000 0.0000
# 4 0.0000 0.0000 0.0000 8.5059 0.0000 0.0000
# 5 0.0000 0.0000 0.0000 0.0000 11.7867 0.0000
# 6 0.0000 0.0000 0.0000 0.0000 0.0000 20.8367
#
#
#
# Elastic Compliance Matrix: (Units=1/GPa)
#
#
# Indices 1 2 3 4 5 6 
#
# 1 0.017483 0.000188 -0.001248 0.000000 0.000000 0.000000
# 2 0.000188 0.010484 -0.002146 0.000000 0.000000 0.000000
# 3 -0.001248 -0.002146 0.009196 0.000000 0.000000 0.000000
# 4 0.000000 0.000000 0.000000 0.117566 0.000000 0.000000
# 5 0.000000 0.000000 0.000000 0.000000 0.084841 0.000000
# 6 0.000000 0.000000 0.000000 0.000000 0.000000 0.047992
#
#
# Mechanical properties :
#
#
# Convention : Reuss Voigt Hill
#
# Bulk Modulus (GPa) = 32.52007 37.47955 34.99981
# Shear Modulus (GPa) = 16.43515 24.30573 20.37044
#
# Velocity S-wave (km/s) = 2.89423 3.51965 3.22215
# Velocity P-wave (km/s) = 5.26719 5.96821 5.62863
#
# Compressibility (1/GPa) = 0.03075024
#
# Stress axis : x y z
#
# Youngs Moduli (GPa) = 57.19730 95.38469 108.74092
#
# Poissons Ratio (x) = -0.01792 0.13572
# Poissons Ratio (y) = -0.01075 0.23339
# Poissons Ratio (z) = 0.07139 0.20473
#
# Static dielectric constant tensor:
#      x y z
#    x 1.701800 0.000000 0.000000 
#    y 0.000000 1.721540 0.000000 
#    z 0.000000 0.000000 1.673440 
# 
# From -- ./inp_files/18709.got.cif
#   From: 2010.05.17/outbox.cif.g08.bks.cpg/sg58_10_cif.got.tgz:18709.got - 2010.06.03 14:20:14.
