data_PCOD9444606
_publ_section_title
;
Structure prediction by ZEFSAII (Michael W. Deem and Ramdas Pophale) SiO2 
 PCOD9444606
Probable space group: P N N M
;
_chemical_formula_sum "Si O2"
_cell_formula_units_Z 48
_cell_length_a 28.494736
_cell_length_b 9.504848
_cell_length_c 7.586422
_cell_angle_alpha 90.000000
_cell_angle_beta 90.000000
_cell_angle_gamma 90.000000
_cell_volume 2054.692382
_symmetry_space_group_name_H-M "P N N M"
_symmetry_group_IT_number 58
_symmetry_cell_setting 'orthorhombic'
loop_
_space_group_symop_operation_xyz
x,y,z
-x,-y,z
1/2+x,1/2-y,1/2-z
1/2-x,1/2+y,1/2-z
-x,-y,-z
x,y,-z
1/2-x,1/2+y,1/2+z
1/2+x,1/2-y,1/2+z
loop_
_atom_site_type_symbol
_atom_site_label
_atom_site_fract_x
_atom_site_fract_y
_atom_site_fract_z
Si Si1 0.810402 0.027512 0.202030
Si Si2 0.854262 0.506956 0.291910
Si Si3 0.989663 0.841253 0.213003
Si Si4 0.882978 0.813541 0.213690
Si Si5 0.268687 0.183157 0.298495
Si Si6 0.044709 0.579196 0.295628
O O1 0.857222 0.955440 0.278071
O O2 0.772702 0.901301 0.204337
O O3 0.786800 0.168183 0.279504
O O4 0.821442 0.067394 0.000000
O O5 0.850643 0.474860 0.500000
O O6 0.854778 0.674571 0.268453
O O7 0.812351 0.423833 0.202758
O O8 0.904625 0.454719 0.220025
O O9 0.937062 0.800086 0.271636
O O10 0.029635 0.739963 0.285321
O O11 0.990851 0.831715 0.000000
O O12 0.000000 0.000000 0.263806
O O13 0.883005 0.818754 0.000000
O O14 0.252834 0.209189 0.500000
O O15 0.047617 0.533351 0.500000
O O16 0.000000 0.500000 0.212953
#
# Coordination Sequence:
#
# PCOD9444606 Si02
#       6
#     8   8   8   8   8   8
#     4  10  23  42  63  88 122 155 192 241 293 353
#     4  11  23  39  61  88 120 157 199 246 296 349
#     4  10  22  37  59  89 122 159 200 247 295 345
#     4  10  21  39  61  88 121 159 198 243 296 349
#     4  11  24  41  64  91 118 153 194 241 296 353
#     4  10  21  39  59  84 120 160 201 245 290 345
#
# _framework density 23.361159000000001
#
# number of rings (size 3 to 8) (size 9 to 14) (size 15 to 20)
#    0.000    1.667    1.667    2.000    2.333    6.667 
#    0.000    0.000    0.000    0.000    0.000    0.000 
#    0.000    0.000    0.000    0.000    0.000    0.000 
#
# Total GULP energy -268348.166354 kJ/mol
# GULP energy per Si atom -5590.586799 kJ/mol
# Density = 2.330799 g / cm^3
# Si number density = 23.361159 Si / 1000 Ang^3
#
#
#
# Elastic Constant Matrix: (Units=GPa)
#
#
# Indices 1 2 3 4 5 6 
#
# 1 69.0043 1.5831 -4.3369 0.0000 0.0000 0.0000
# 2 1.5831 103.6499 -9.1506 0.0000 0.0000 0.0000
# 3 -4.3369 -9.1506 62.2600 0.0000 0.0000 0.0000
# 4 0.0000 0.0000 0.0000 19.3019 0.0000 0.0000
# 5 0.0000 0.0000 0.0000 0.0000 6.2386 0.0000
# 6 0.0000 0.0000 0.0000 0.0000 0.0000 45.0357
#
#
#
# Elastic Compliance Matrix: (Units=1/GPa)
#
#
# Indices 1 2 3 4 5 6 
#
# 1 0.014557 -0.000135 0.000994 0.000000 0.000000 0.000000
# 2 -0.000135 0.009776 0.001427 0.000000 0.000000 0.000000
# 3 0.000994 0.001427 0.016341 0.000000 0.000000 0.000000
# 4 0.000000 0.000000 0.000000 0.051808 0.000000 0.000000
# 5 0.000000 0.000000 0.000000 0.000000 0.160293 0.000000
# 6 0.000000 0.000000 0.000000 0.000000 0.000000 0.022205
#
#
# Mechanical properties :
#
#
# Convention : Reuss Voigt Hill
#
# Bulk Modulus (GPa) = 22.10023 23.45613 22.77818
# Shear Modulus (GPa) = 17.51384 30.56982 24.04183
#
# Velocity S-wave (km/s) = 2.74103 3.62135 3.21150
# Velocity P-wave (km/s) = 4.41571 5.24862 4.85008
#
# Compressibility (1/GPa) = 0.04524839
#
# Stress axis : x y z
#
# Youngs Moduli (GPa) = 68.69342 102.29193 61.19679
#
# Poissons Ratio (x) = 0.01376 -0.06085
# Poissons Ratio (y) = 0.00924 -0.08735
# Poissons Ratio (z) = -0.06830 -0.14602
#
# Static dielectric constant tensor:
#      x y z
#    x 1.879100 0.000000 0.000000 
#    y 0.000000 1.874000 0.000000 
#    z 0.000000 0.000000 1.888980 
# 
# From -- ./inp_files/2908.got.cif
#   From: 2010.05.17/outbox.cif.g08.bks.cpg/sg58_2_cif.got.tgz:2908.got - 2010.06.03 14:20:14.
