data_PCOD9444141
_publ_section_title
;
Structure prediction by ZEFSAII (Michael W. Deem and Ramdas Pophale) SiO2 
 PCOD9444141
Probable space group: P N N M
;
_chemical_formula_sum "Si O2"
_cell_formula_units_Z 58
_cell_length_a 17.238534
_cell_length_b 20.139741
_cell_length_c 7.729230
_cell_angle_alpha 90.000000
_cell_angle_beta 90.000000
_cell_angle_gamma 90.000000
_cell_volume 2683.431057
_symmetry_space_group_name_H-M "P N N M"
_symmetry_group_IT_number 58
_symmetry_cell_setting 'orthorhombic'
loop_
_space_group_symop_operation_xyz
x,y,z
-x,-y,z
1/2+x,1/2-y,1/2-z
1/2-x,1/2+y,1/2-z
-x,-y,-z
x,y,-z
1/2-x,1/2+y,1/2+z
1/2+x,1/2-y,1/2+z
loop_
_atom_site_type_symbol
_atom_site_label
_atom_site_fract_x
_atom_site_fract_y
_atom_site_fract_z
Si Si1 0.480195 0.165931 0.298705
Si Si2 0.398693 0.032888 0.293606
Si Si3 0.000000 0.500000 0.500000
Si Si4 0.214887 0.041225 0.702943
Si Si5 0.811243 0.106759 0.795638
Si Si6 0.040558 0.812777 0.212363
Si Si7 0.134669 0.176900 0.202037
Si Si8 0.156900 0.322897 0.298937
O O1 0.458966 0.165215 0.500000
O O2 0.436476 0.102212 0.226963
O O3 0.452418 0.236545 0.227818
O O4 0.573206 0.164262 0.285685
O O5 0.415033 0.020881 0.500000
O O6 0.307189 0.037612 0.273786
O O7 0.435826 0.983397 0.155824
O O8 0.198148 0.042824 0.500000
O O9 0.181732 0.109315 0.777789
O O10 0.182504 0.972062 0.774298
O O11 0.887833 0.143200 0.726030
O O12 0.729901 0.136171 0.724571
O O13 0.808490 0.121818 0.000000
O O14 0.953837 0.834212 0.265451
O O15 0.041236 0.813751 0.000000
O O16 0.170231 0.243139 0.286457
O O17 0.129507 0.193872 0.000000
O O18 0.147811 0.339624 0.500000
#
# Coordination Sequence:
#
# PCOD9444141 Si02
#       8
#     8   8   2   8   8   8   8   8
#     4   9  19  38  62  85 119 161 206 255 314 376
#     4  10  25  42  63  94 129 174 214 264 320 385
#     4  12  26  40  68  86 132 170 222 254 316 380
#     4  11  25  42  60  88 129 166 209 260 320 379
#     4  10  22  38  61  88 120 159 207 257 312 383
#     4   8  17  37  62  88 113 154 206 260 316 377
#     4  10  21  40  65  87 119 163 213 260 315 383
#     4  10  21  35  60  93 124 157 202 257 317 378
#
# _framework density 21.614121000000001
#
# number of rings (size 3 to 8) (size 9 to 14) (size 15 to 20)
#    0.000    2.207    0.000    2.276    6.759    1.655 
#    0.000    6.207    0.000    0.000    0.000    0.000 
#    0.000    0.000    0.000    0.000    0.000    0.000 
#
# Total GULP energy -323333.003489 kJ/mol
# GULP energy per Si atom -5574.706957 kJ/mol
# Density = 2.156493 g / cm^3
# Si number density = 21.614121 Si / 1000 Ang^3
#
#
#
# Elastic Constant Matrix: (Units=GPa)
#
#
# Indices 1 2 3 4 5 6 
#
# 1 41.0417 34.6286 13.3050 0.0000 0.0000 0.0000
# 2 34.6286 111.0307 1.3074 0.0000 0.0000 0.0000
# 3 13.3050 1.3074 59.3007 0.0000 0.0000 0.0000
# 4 0.0000 0.0000 0.0000 16.0892 0.0000 0.0000
# 5 0.0000 0.0000 0.0000 0.0000 -43.4135 0.0000
# 6 0.0000 0.0000 0.0000 0.0000 0.0000 34.8346
#
#
#
# Elastic Compliance Matrix: (Units=1/GPa)
#
#
# Indices 1 2 3 4 5 6 
#
# 1 0.036449 -0.011274 -0.007929 0.000000 0.000000 0.000000
# 2 -0.011274 0.012496 0.002254 0.000000 0.000000 0.000000
# 3 -0.007929 0.002254 0.018593 0.000000 0.000000 0.000000
# 4 0.000000 0.000000 0.000000 0.062153 0.000000 0.000000
# 5 0.000000 0.000000 0.000000 0.000000 -0.023034 0.000000
# 6 0.000000 0.000000 0.000000 0.000000 0.000000 0.028707
#
#
# Mechanical properties :
#
#
# Convention : Reuss Voigt Hill
#
# Bulk Modulus (GPa) = 29.72791 34.42833 32.07812
# Shear Modulus (GPa) = 27.70462 12.31087 20.00775
#
# Velocity S-wave (km/s) = 3.58408 2.38917 3.04580
# Velocity P-wave (km/s) = 5.55980 4.85531 5.21945
#
# Compressibility (1/GPa) = 0.03363843
#
# Stress axis : x y z
#
# Youngs Moduli (GPa) = 27.43590 80.02403 53.78496
#
# Poissons Ratio (x) = 0.90222 0.42647
# Poissons Ratio (y) = 0.30932 -0.12123
# Poissons Ratio (z) = 0.21755 -0.18038
#
# Static dielectric constant tensor:
#      x y z
#    x 1.791340 0.000000 0.000000 
#    y 0.000000 1.842290 0.000000 
#    z 0.000000 0.000000 1.808090 
# 
# From -- ./inp_files/8018.got.cif
#   From: 2010.05.17/outbox.cif.g08.bks.cpg/sg58_5_cif.got.tgz:8018.got - 2010.06.03 14:20:14.
