data_PCOD9444931
_publ_section_title
;
Structure prediction by ZEFSAII (Michael W. Deem and Ramdas Pophale) SiO2 
 PCOD9444931
Probable space group: P N N M
;
_chemical_formula_sum "Si O2"
_cell_formula_units_Z 56
_cell_length_a 17.219348
_cell_length_b 19.468064
_cell_length_c 7.682320
_cell_angle_alpha 90.000000
_cell_angle_beta 90.000000
_cell_angle_gamma 90.000000
_cell_volume 2575.323921
_symmetry_space_group_name_H-M "P N N M"
_symmetry_group_IT_number 58
_symmetry_cell_setting 'orthorhombic'
loop_
_space_group_symop_operation_xyz
x,y,z
-x,-y,z
1/2+x,1/2-y,1/2-z
1/2-x,1/2+y,1/2-z
-x,-y,-z
x,y,-z
1/2-x,1/2+y,1/2+z
1/2+x,1/2-y,1/2+z
loop_
_atom_site_type_symbol
_atom_site_label
_atom_site_fract_x
_atom_site_fract_y
_atom_site_fract_z
Si Si1 0.229156 0.277660 0.287521
Si Si2 0.811226 0.451851 0.700803
Si Si3 0.592163 0.705703 0.712947
Si Si4 0.450897 0.144844 0.294828
Si Si5 0.664248 0.368083 0.799266
Si Si6 0.621476 0.096029 0.789206
Si Si7 0.001575 0.075853 0.200543
O O1 0.229862 0.276070 0.500000
O O2 0.318188 0.287733 0.233730
O O3 0.194605 0.204897 0.228846
O O4 0.175074 0.340569 0.232557
O O5 0.788866 0.462858 0.500000
O O6 0.881592 0.397696 0.709119
O O7 0.736300 0.420175 0.791482
O O8 0.843323 0.523844 0.772398
O O9 0.589530 0.703872 0.500000
O O10 0.548837 0.775935 0.766257
O O11 0.551907 0.636160 0.777286
O O12 0.433033 0.145540 0.500000
O O13 0.533372 0.109193 0.266484
O O14 0.589312 0.396807 0.703612
O O15 0.641125 0.358128 0.000000
O O16 0.621292 0.094250 0.000000
O O17 0.974963 0.067514 0.000000
O O18 0.000000 0.000000 0.282013
#
# Coordination Sequence:
#
# PCOD9444931 Si02
#       7
#     8   8   8   8   8   8   8
#     4   9  18  36  61  85 112 151 195 238 287 340
#     4  11  23  38  59  87 118 150 192 239 283 341
#     4   9  18  35  59  85 115 151 195 239 283 340
#     4  11  21  37  60  84 117 155 188 230 288 346
#     4  11  22  39  62  85 117 154 192 239 294 348
#     4  10  22  37  59  86 114 148 189 238 286 338
#     4  10  22  38  62  90 118 155 199 244 289 344
#
# _framework density 21.744835999999999
#
# number of rings (size 3 to 8) (size 9 to 14) (size 15 to 20)
#    0.000    1.857    1.429    2.571    2.000    3.143 
#    0.000    1.429    0.000    0.000    0.000    0.000 
#    0.000    0.000    0.000    0.000    0.000    0.000 
#
# Total GULP energy -313055.183166 kJ/mol
# GULP energy per Si atom -5590.271128 kJ/mol
# Density = 2.169534 g / cm^3
# Si number density = 21.744836 Si / 1000 Ang^3
#
#
#
# Elastic Constant Matrix: (Units=GPa)
#
#
# Indices 1 2 3 4 5 6 
#
# 1 83.8742 65.1965 -10.7848 0.0000 0.0000 0.0000
# 2 65.1965 120.0078 -3.0808 0.0000 0.0000 0.0000
# 3 -10.7848 -3.0808 42.9964 0.0000 0.0000 0.0000
# 4 0.0000 0.0000 0.0000 3.9346 0.0000 0.0000
# 5 0.0000 0.0000 0.0000 0.0000 -5.8180 0.0000
# 6 0.0000 0.0000 0.0000 0.0000 0.0000 2.5503
#
#
#
# Elastic Compliance Matrix: (Units=1/GPa)
#
#
# Indices 1 2 3 4 5 6 
#
# 1 0.021496 -0.011561 0.004563 0.000000 0.000000 0.000000
# 2 -0.011561 0.014566 -0.001856 0.000000 0.000000 0.000000
# 3 0.004563 -0.001856 0.024269 0.000000 0.000000 0.000000
# 4 0.000000 0.000000 0.000000 0.254155 0.000000 0.000000
# 5 0.000000 0.000000 0.000000 0.000000 -0.171880 0.000000
# 6 0.000000 0.000000 0.000000 0.000000 0.000000 0.392111
#
#
# Mechanical properties :
#
#
# Convention : Reuss Voigt Hill
#
# Bulk Modulus (GPa) = 23.46101 38.83779 31.14940
# Shear Modulus (GPa) = 8.82408 13.16988 10.99698
#
# Velocity S-wave (km/s) = 2.01664 2.46368 2.25128
# Velocity P-wave (km/s) = 4.02928 5.09828 4.59497
#
# Compressibility (1/GPa) = 0.04262391
#
# Stress axis : x y z
#
# Youngs Moduli (GPa) = 46.52078 68.65405 41.20412
#
# Poissons Ratio (x) = 0.79370 -0.18803
# Poissons Ratio (y) = 0.53782 0.07648
# Poissons Ratio (z) = -0.21229 0.12743
#
# Static dielectric constant tensor:
#      x y z
#    x 1.718360 0.000000 0.000000 
#    y 0.000000 1.791570 0.000000 
#    z 0.000000 0.000000 1.836260 
# 
# From -- ./inp_files/6428.got.cif
#   From: 2010.05.17/outbox.cif.g08.bks.cpg/sg58_4_cif.got.tgz:6428.got - 2010.06.03 14:20:14.
