data_PCOD9444456
_publ_section_title
;
Structure prediction by ZEFSAII (Michael W. Deem and Ramdas Pophale) SiO2 
 PCOD9444456
Probable space group: P N N M
;
_chemical_formula_sum "Si O2"
_cell_formula_units_Z 42
_cell_length_a 9.732865
_cell_length_b 21.419861
_cell_length_c 7.652656
_cell_angle_alpha 90.000000
_cell_angle_beta 90.000000
_cell_angle_gamma 90.000000
_cell_volume 1595.399822
_symmetry_space_group_name_H-M "P N N M"
_symmetry_group_IT_number 58
_symmetry_cell_setting 'orthorhombic'
loop_
_space_group_symop_operation_xyz
x,y,z
-x,-y,z
1/2+x,1/2-y,1/2-z
1/2-x,1/2+y,1/2-z
-x,-y,-z
x,y,-z
1/2-x,1/2+y,1/2+z
1/2+x,1/2-y,1/2+z
loop_
_atom_site_type_symbol
_atom_site_label
_atom_site_fract_x
_atom_site_fract_y
_atom_site_fract_z
Si Si1 0.593159 0.241773 0.198370
Si Si2 0.835805 0.939455 0.709964
Si Si3 0.335794 0.936732 0.295923
Si Si4 0.083659 0.859953 0.798390
Si Si5 0.168607 0.678270 0.205911
Si Si6 0.500000 0.000000 0.000000
O O1 0.500671 0.305286 0.203709
O O2 0.736539 0.265343 0.278880
O O3 0.491693 0.190898 0.277900
O O4 0.615532 0.222364 0.000000
O O5 0.851175 0.937677 0.500000
O O6 0.731046 0.885813 0.774562
O O7 0.982847 0.919994 0.784215
O O8 0.765582 0.004741 0.748767
O O9 0.379608 0.940391 0.500000
O O10 0.233583 0.878123 0.270810
O O11 0.452931 0.949408 0.155056
O O12 0.093875 0.841054 0.000000
O O13 0.198272 0.677432 0.000000
#
# Coordination Sequence:
#
# PCOD9444456 Si02
#       6
#     8   8   8   8   8   2
#     4  10  21  38  58  86 120 158 200 251 311 369
#     4   9  20  38  63  90 119 154 197 252 316 365
#     4  11  23  43  64  88 125 165 200 256 307 362
#     4  11  21  36  63  93 118 151 203 258 308 366
#     4   9  19  38  58  85 119 154 201 253 303 370
#     4  12  26  44  58  90 128 164 218 242 296 380
#
# _framework density 26.325690000000002
#
# number of rings (size 3 to 8) (size 9 to 14) (size 15 to 20)
#    0.000    1.905    0.952    4.286    1.333    6.095 
#    3.429    0.000    0.000    0.000    0.000    0.000 
#    0.000    0.000    0.000    0.000    0.000    0.000 
#
# Total GULP energy -234600.427770 kJ/mol
# GULP energy per Si atom -5585.724471 kJ/mol
# Density = 2.626577 g / cm^3
# Si number density = 26.325690 Si / 1000 Ang^3
#
#
#
# Elastic Constant Matrix: (Units=GPa)
#
#
# Indices 1 2 3 4 5 6 
#
# 1 157.3394 22.6854 23.3739 0.0000 0.0000 0.0000
# 2 22.6854 70.8557 5.9376 0.0000 0.0000 0.0000
# 3 23.3739 5.9376 75.4493 0.0000 0.0000 0.0000
# 4 0.0000 0.0000 0.0000 4.0493 0.0000 0.0000
# 5 0.0000 0.0000 0.0000 0.0000 314.6677 0.0000
# 6 0.0000 0.0000 0.0000 0.0000 0.0000 51.8374
#
#
#
# Elastic Compliance Matrix: (Units=1/GPa)
#
#
# Indices 1 2 3 4 5 6 
#
# 1 0.006948 -0.002058 -0.001991 0.000000 0.000000 0.000000
# 2 -0.002058 0.014816 -0.000529 0.000000 0.000000 0.000000
# 3 -0.001991 -0.000529 0.013912 0.000000 0.000000 0.000000
# 4 0.000000 0.000000 0.000000 0.246958 0.000000 0.000000
# 5 0.000000 0.000000 0.000000 0.000000 0.003178 0.000000
# 6 0.000000 0.000000 0.000000 0.000000 0.000000 0.019291
#
#
# Mechanical properties :
#
#
# Convention : Reuss Voigt Hill
#
# Bulk Modulus (GPa) = 37.70317 45.29314 41.49816
# Shear Modulus (GPa) = 15.47519 90.88738 53.18128
#
# Velocity S-wave (km/s) = 2.42716 5.88211 4.49946
# Velocity P-wave (km/s) = 4.71251 7.96081 6.54149
#
# Compressibility (1/GPa) = 0.02652297
#
# Stress axis : x y z
#
# Youngs Moduli (GPa) = 143.92457 67.49327 71.87943
#
# Poissons Ratio (x) = 0.13888 0.14308
# Poissons Ratio (y) = 0.29616 0.03799
# Poissons Ratio (z) = 0.28649 0.03567
#
# Static dielectric constant tensor:
#      x y z
#    x 2.079970 0.000000 0.000000 
#    y 0.000000 2.159920 0.000000 
#    z 0.000000 0.000000 1.947510 
# 
# From -- ./inp_files/4132.got.cif
#   From: 2010.05.17/outbox.cif.g08.bks.cpg/sg58_3_cif.got.tgz:4132.got - 2010.06.03 14:20:14.
