data_PCOD9444647
_publ_section_title
;
Structure prediction by ZEFSAII (Michael W. Deem and Ramdas Pophale) SiO2 
 PCOD9444647
Probable space group: P N N M
;
_chemical_formula_sum "Si O2"
_cell_formula_units_Z 48
_cell_length_a 10.446562
_cell_length_b 16.256711
_cell_length_c 15.407148
_cell_angle_alpha 90.000000
_cell_angle_beta 90.000000
_cell_angle_gamma 90.000000
_cell_volume 2616.545708
_symmetry_space_group_name_H-M "P N N M"
_symmetry_group_IT_number 58
_symmetry_cell_setting 'orthorhombic'
loop_
_space_group_symop_operation_xyz
x,y,z
-x,-y,z
1/2+x,1/2-y,1/2-z
1/2-x,1/2+y,1/2-z
-x,-y,-z
x,y,-z
1/2-x,1/2+y,1/2+z
1/2+x,1/2-y,1/2+z
loop_
_atom_site_type_symbol
_atom_site_label
_atom_site_fract_x
_atom_site_fract_y
_atom_site_fract_z
Si Si1 0.907054 0.078497 0.598428
Si Si2 0.622680 0.553803 0.599807
Si Si3 0.554787 0.864306 0.742514
Si Si4 0.299112 0.970970 0.741138
Si Si5 0.842827 0.243375 0.099715
Si Si6 0.037347 0.255411 0.397680
O O1 0.853906 0.084712 0.500000
O O2 0.984670 0.162731 0.615467
O O3 0.800750 0.060735 0.669998
O O4 0.000000 0.000000 0.600231
O O5 0.500000 0.500000 0.626457
O O6 0.653069 0.532664 0.500000
O O7 0.738457 0.538408 0.664173
O O8 0.600388 0.651496 0.603560
O O9 0.664110 0.933411 0.734435
O O10 0.582726 0.799481 0.667114
O O11 0.538981 0.816074 0.833574
O O12 0.424058 0.914954 0.731610
O O13 0.690241 0.240546 0.120754
O O14 0.852779 0.273133 0.000000
O O15 0.021280 0.276188 0.500000
#
# Coordination Sequence:
#
# PCOD9444647 Si02
#       6
#     8   8   8   8   8   8
#     4  10  21  39  63  88 116 156 203 249 301 362
#     4  10  21  40  63  87 118 158 202 247 296 353
#     4  11  24  37  59  88 120 162 198 244 309 363
#     4  11  23  39  57  87 124 157 198 249 301 362
#     4  10  21  40  63  88 121 158 201 252 304 359
#     4  10  21  39  63  89 119 157 203 254 303 358
#
# _framework density 18.344798000000001
#
# number of rings (size 3 to 8) (size 9 to 14) (size 15 to 20)
#    0.000    1.667    1.667    2.500    0.000    4.667 
#    0.000    3.333    0.000    0.000    0.000    0.000 
#    0.000    0.000    0.000    0.000    0.000    0.000 
#
# Total GULP energy -267913.019688 kJ/mol
# GULP energy per Si atom -5581.521244 kJ/mol
# Density = 1.830304 g / cm^3
# Si number density = 18.344798 Si / 1000 Ang^3
#
#
#
# Elastic Constant Matrix: (Units=GPa)
#
#
# Indices 1 2 3 4 5 6 
#
# 1 61.3158 37.1383 40.3166 0.0000 0.0000 0.0000
# 2 37.1383 105.2270 44.6388 0.0000 0.0000 0.0000
# 3 40.3166 44.6388 66.5734 0.0000 0.0000 0.0000
# 4 0.0000 0.0000 0.0000 27.9399 0.0000 0.0000
# 5 0.0000 0.0000 0.0000 0.0000 -194.3197 0.0000
# 6 0.0000 0.0000 0.0000 0.0000 0.0000 31.7832
#
#
#
# Elastic Compliance Matrix: (Units=1/GPa)
#
#
# Indices 1 2 3 4 5 6 
#
# 1 0.028134 -0.003776 -0.014506 0.000000 0.000000 0.000000
# 2 -0.003776 0.013788 -0.006958 0.000000 0.000000 0.000000
# 3 -0.014506 -0.006958 0.028472 0.000000 0.000000 0.000000
# 4 0.000000 0.000000 0.000000 0.035791 0.000000 0.000000
# 5 0.000000 0.000000 0.000000 0.000000 -0.005146 0.000000
# 6 0.000000 0.000000 0.000000 0.000000 0.000000 0.031463
#
#
# Mechanical properties :
#
#
# Convention : Reuss Voigt Hill
#
# Bulk Modulus (GPa) = 50.21888 53.03376 51.62632
# Shear Modulus (GPa) = 26.36856 -19.51781 3.42538
#
# Velocity S-wave (km/s) = 3.79540 -3.26535 1.36794
# Velocity P-wave (km/s) = 6.82943 3.84129 5.54061
#
# Compressibility (1/GPa) = 0.01991283
#
# Stress axis : x y z
#
# Youngs Moduli (GPa) = 35.54398 72.52845 35.12272
#
# Poissons Ratio (x) = 0.27385 0.50950
# Poissons Ratio (y) = 0.13421 0.24440
# Poissons Ratio (z) = 0.51561 0.50468
#
# Static dielectric constant tensor:
#      x y z
#    x 1.611500 0.000000 0.000000 
#    y 0.000000 1.660470 0.000000 
#    z 0.000000 0.000000 1.631930 
# 
# From -- ./inp_files/19801.got.cif
#   From: 2010.05.17/outbox.cif.g08.bks.cpg/sg58_10_cif.got.tgz:19801.got - 2010.06.03 14:20:14.
