data_PCOD9444412
_publ_section_title
;
Structure prediction by ZEFSAII (Michael W. Deem and Ramdas Pophale) SiO2 
 PCOD9444412
Probable space group: P N N M
;
_chemical_formula_sum "Si O2"
_cell_formula_units_Z 48
_cell_length_a 13.116786
_cell_length_b 9.541494
_cell_length_c 15.098899
_cell_angle_alpha 90.000000
_cell_angle_beta 90.000000
_cell_angle_gamma 90.000000
_cell_volume 1889.683603
_symmetry_space_group_name_H-M "P N N M"
_symmetry_group_IT_number 58
_symmetry_cell_setting 'orthorhombic'
loop_
_space_group_symop_operation_xyz
x,y,z
-x,-y,z
1/2+x,1/2-y,1/2-z
1/2-x,1/2+y,1/2-z
-x,-y,-z
x,y,-z
1/2-x,1/2+y,1/2+z
1/2+x,1/2-y,1/2+z
loop_
_atom_site_type_symbol
_atom_site_label
_atom_site_fract_x
_atom_site_fract_y
_atom_site_fract_z
Si Si1 0.590343 0.788794 0.500000
Si Si2 0.950370 0.302874 0.193441
Si Si3 0.178238 0.765948 0.500000
Si Si4 0.085325 0.122495 0.682781
Si Si5 0.893688 0.441065 0.359699
Si Si6 0.179511 0.971120 0.828116
Si Si7 0.180931 0.102114 0.500000
Si Si8 0.368227 0.554276 0.500000
O O1 0.531108 0.829610 0.410074
O O2 0.700923 0.858265 0.500000
O O3 0.615168 0.620352 0.500000
O O4 0.904121 0.424173 0.254143
O O5 0.040292 0.245621 0.256703
O O6 0.865402 0.180165 0.189321
O O7 0.124471 0.704745 0.411595
O O8 0.286020 0.682990 0.500000
O O9 0.176498 0.932336 0.500000
O O10 0.177991 0.054419 0.737099
O O11 0.123315 0.158874 0.586152
O O12 0.000000 0.000000 0.677810
O O13 0.789695 0.527797 0.374699
O O14 0.000000 0.500000 0.393759
O O15 0.106289 0.059569 0.895190
#
# Coordination Sequence:
#
# PCOD9444412 Si02
#       8
#     4   8   4   8   8   8   4   4
#     4  10  22  42  68 100 140 185 234 288 351 423
#     4  10  22  40  62  92 130 178 231 283 346 418
#     4  10  21  39  62  96 140 178 231 294 352 418
#     4  10  21  37  61  92 129 171 224 287 342 405
#     4  11  23  38  60  93 133 181 232 290 355 423
#     4   9  19  38  60  86 120 169 230 284 341 414
#     4  12  23  39  66 101 138 182 233 294 357 418
#     4   8  18  36  61  91 120 169 228 276 337 409
#
# _framework density 25.401077000000001
#
# number of rings (size 3 to 8) (size 9 to 14) (size 15 to 20)
#    0.000    2.000    0.000    3.500    0.000    6.667 
#    0.000    5.417    0.000    0.000    0.000    0.000 
#    0.000    0.000    0.000    0.000    0.000    0.000 
#
# Total GULP energy -267850.165623 kJ/mol
# GULP energy per Si atom -5580.211784 kJ/mol
# Density = 2.534326 g / cm^3
# Si number density = 25.401077 Si / 1000 Ang^3
#
#
#
# Elastic Constant Matrix: (Units=GPa)
#
#
# Indices 1 2 3 4 5 6 
#
# 1 82.2444 10.7635 6.8716 0.0000 0.0000 0.0000
# 2 10.7635 68.7905 14.4622 0.0000 0.0000 0.0000
# 3 6.8716 14.4622 196.1376 0.0000 0.0000 0.0000
# 4 0.0000 0.0000 0.0000 18.7034 0.0000 0.0000
# 5 0.0000 0.0000 0.0000 0.0000 26.4238 0.0000
# 6 0.0000 0.0000 0.0000 0.0000 0.0000 22.2306
#
#
#
# Elastic Compliance Matrix: (Units=1/GPa)
#
#
# Indices 1 2 3 4 5 6 
#
# 1 0.012430 -0.001883 -0.000297 0.000000 0.000000 0.000000
# 2 -0.001883 0.015051 -0.001044 0.000000 0.000000 0.000000
# 3 -0.000297 -0.001044 0.005186 0.000000 0.000000 0.000000
# 4 0.000000 0.000000 0.000000 0.053466 0.000000 0.000000
# 5 0.000000 0.000000 0.000000 0.000000 0.037845 0.000000
# 6 0.000000 0.000000 0.000000 0.000000 0.000000 0.044983
#
#
# Mechanical properties :
#
#
# Convention : Reuss Voigt Hill
#
# Bulk Modulus (GPa) = 38.13780 45.70745 41.92263
# Shear Modulus (GPa) = 27.15223 34.47658 30.81440
#
# Velocity S-wave (km/s) = 3.27301 3.68814 3.48676
# Velocity P-wave (km/s) = 5.41575 6.01414 5.72277
#
# Compressibility (1/GPa) = 0.02622070
#
# Stress axis : x y z
#
# Youngs Moduli (GPa) = 80.45028 66.44124 192.83343
#
# Poissons Ratio (x) = 0.12508 0.05721
# Poissons Ratio (y) = 0.15145 0.20128
# Poissons Ratio (z) = 0.02387 0.06935
#
# Static dielectric constant tensor:
#      x y z
#    x 2.084570 0.000000 0.000000 
#    y 0.000000 2.012030 0.000000 
#    z 0.000000 0.000000 2.026470 
# 
# From -- ./inp_files/15658.got.cif
#   From: 2010.05.17/outbox.cif.g08.bks.cpg/sg58_8_cif.got.tgz:15658.got - 2010.06.03 14:20:14.
