data_PCOD9444061
_publ_section_title
;
Structure prediction by ZEFSAII (Michael W. Deem and Ramdas Pophale) SiO2 
 PCOD9444061
Probable space group: P N N M
;
_chemical_formula_sum "Si O2"
_cell_formula_units_Z 56
_cell_length_a 20.357207
_cell_length_b 16.441951
_cell_length_c 7.518019
_cell_angle_alpha 90.000000
_cell_angle_beta 90.000000
_cell_angle_gamma 90.000000
_cell_volume 2516.372679
_symmetry_space_group_name_H-M "P N N M"
_symmetry_group_IT_number 58
_symmetry_cell_setting 'orthorhombic'
loop_
_space_group_symop_operation_xyz
x,y,z
-x,-y,z
1/2+x,1/2-y,1/2-z
1/2-x,1/2+y,1/2-z
-x,-y,-z
x,y,-z
1/2-x,1/2+y,1/2+z
1/2+x,1/2-y,1/2+z
loop_
_atom_site_type_symbol
_atom_site_label
_atom_site_fract_x
_atom_site_fract_y
_atom_site_fract_z
Si Si1 0.030834 0.080948 0.796673
Si Si2 0.183551 0.531026 0.214046
Si Si3 0.668644 0.483803 0.784469
Si Si4 0.092507 0.682751 0.291544
Si Si5 0.041458 0.255897 0.207200
Si Si6 0.817433 0.170879 0.716525
Si Si7 0.669302 0.153929 0.282410
O O1 0.108909 0.066879 0.792845
O O2 0.018775 0.169257 0.714018
O O3 0.005350 0.083013 0.000000
O O4 0.000000 0.000000 0.711359
O O5 0.258937 0.545299 0.272040
O O6 0.133865 0.601038 0.267703
O O7 0.163695 0.440397 0.273115
O O8 0.185121 0.529204 0.000000
O O9 0.662558 0.579115 0.733033
O O10 0.665051 0.479616 0.000000
O O11 0.084019 0.696544 0.500000
O O12 0.134635 0.758715 0.217889
O O13 0.019485 0.682924 0.214729
O O14 0.108170 0.293284 0.282707
O O15 0.055580 0.238701 0.000000
O O16 0.817760 0.172535 0.500000
O O17 0.741668 0.183965 0.771427
O O18 0.668182 0.154190 0.500000
#
# Coordination Sequence:
#
# PCOD9444061 Si02
#       7
#     8   8   8   8   8   8   8
#     4  10  21  34  51  80 115 145 175 218 272 328
#     4   9  19  36  56  78 103 132 178 228 267 311
#     4   9  18  34  56  79 103 136 177 223 265 312
#     4  11  22  34  54  81 110 140 174 220 273 324
#     4  10  21  36  55  76 104 145 185 219 260 315
#     4   8  16  32  54  78 103 135 179 219 256 311
#     4   8  16  34  57  76  96 136 188 223 249 306
#
# _framework density 22.254256999999999
#
# number of rings (size 3 to 8) (size 9 to 14) (size 15 to 20)
#    0.000    2.714    0.000    3.000    2.000    2.000 
#    0.000    4.286    0.000    2.571    0.000    0.000 
#    0.000    0.000    0.000    0.000    0.000    0.000 
#
# Total GULP energy -312752.592396 kJ/mol
# GULP energy per Si atom -5584.867721 kJ/mol
# Density = 2.220361 g / cm^3
# Si number density = 22.254257 Si / 1000 Ang^3
#
#
#
# Elastic Constant Matrix: (Units=GPa)
#
#
# Indices 1 2 3 4 5 6 
#
# 1 75.2700 24.6526 -1.0627 0.0000 0.0000 0.0000
# 2 24.6526 40.7845 2.1895 0.0000 0.0000 0.0000
# 3 -1.0627 2.1895 60.2331 0.0000 0.0000 0.0000
# 4 0.0000 0.0000 0.0000 6.3594 0.0000 0.0000
# 5 0.0000 0.0000 0.0000 0.0000 18.4352 0.0000
# 6 0.0000 0.0000 0.0000 0.0000 0.0000 39.3171
#
#
#
# Elastic Compliance Matrix: (Units=1/GPa)
#
#
# Indices 1 2 3 4 5 6 
#
# 1 0.016591 -0.010064 0.000659 0.000000 0.000000 0.000000
# 2 -0.010064 0.030672 -0.001292 0.000000 0.000000 0.000000
# 3 0.000659 -0.001292 0.016661 0.000000 0.000000 0.000000
# 4 0.000000 0.000000 0.000000 0.157248 0.000000 0.000000
# 5 0.000000 0.000000 0.000000 0.000000 0.054244 0.000000
# 6 0.000000 0.000000 0.000000 0.000000 0.000000 0.025434
#
#
# Mechanical properties :
#
#
# Convention : Reuss Voigt Hill
#
# Bulk Modulus (GPa) = 23.51408 25.31628 24.41518
# Shear Modulus (GPa) = 14.86232 22.85621 18.85927
#
# Velocity S-wave (km/s) = 2.58707 3.20824 2.91425
# Velocity P-wave (km/s) = 4.41734 5.01242 4.72426
#
# Compressibility (1/GPa) = 0.04252771
#
# Stress axis : x y z
#
# Youngs Moduli (GPa) = 60.27369 32.60330 60.02119
#
# Poissons Ratio (x) = 0.32812 -0.03953
# Poissons Ratio (y) = 0.60659 0.07758
# Poissons Ratio (z) = -0.03969 0.04214
#
# Static dielectric constant tensor:
#      x y z
#    x 1.794400 0.000000 0.000000 
#    y 0.000000 1.815390 0.000000 
#    z 0.000000 0.000000 1.836930 
# 
# From -- ./inp_files/6433.got.cif
#   From: 2010.05.17/outbox.cif.g08.bks.cpg/sg58_4_cif.got.tgz:6433.got - 2010.06.03 14:20:14.
