data_PCOD9444417
_publ_section_title
;
Structure prediction by ZEFSAII (Michael W. Deem and Ramdas Pophale) SiO2 
 PCOD9444417
Probable space group: P N N M
;
_chemical_formula_sum "Si O2"
_cell_formula_units_Z 48
_cell_length_a 10.338103
_cell_length_b 27.965578
_cell_length_c 7.899533
_cell_angle_alpha 90.000000
_cell_angle_beta 90.000000
_cell_angle_gamma 90.000000
_cell_volume 2283.842089
_symmetry_space_group_name_H-M "P N N M"
_symmetry_group_IT_number 58
_symmetry_cell_setting 'orthorhombic'
loop_
_space_group_symop_operation_xyz
x,y,z
-x,-y,z
1/2+x,1/2-y,1/2-z
1/2-x,1/2+y,1/2-z
-x,-y,-z
x,y,-z
1/2-x,1/2+y,1/2+z
1/2+x,1/2-y,1/2+z
loop_
_atom_site_type_symbol
_atom_site_label
_atom_site_fract_x
_atom_site_fract_y
_atom_site_fract_z
Si Si1 0.738959 0.716581 0.197268
Si Si2 0.981542 0.143761 0.704550
Si Si3 0.394448 0.462595 0.296304
Si Si4 0.239848 0.675998 0.196378
Si Si5 0.459048 0.853398 0.802806
Si Si6 0.896592 0.539133 0.707283
O O1 0.620891 0.683795 0.262782
O O2 0.750270 0.766766 0.290569
O O3 0.868859 0.685336 0.212268
O O4 0.714536 0.727549 0.000000
O O5 0.983323 0.146587 0.500000
O O6 0.126675 0.154148 0.766079
O O7 0.933450 0.091462 0.754155
O O8 0.500000 0.500000 0.229953
O O9 0.392014 0.466822 0.500000
O O10 0.248861 0.472384 0.236148
O O11 0.109461 0.658957 0.285448
O O12 0.228102 0.662108 0.000000
O O13 0.431809 0.907020 0.739338
O O14 0.421698 0.851710 0.000000
O O15 0.898574 0.538964 0.500000
O O16 0.000000 0.500000 0.764441
#
# Coordination Sequence:
#
# PCOD9444417 Si02
#       6
#     8   8   8   8   8   8
#     4  11  22  40  64  89 119 159 204 251 304 362
#     4  10  23  41  60  85 123 160 196 245 303 357
#     4  10  21  37  62  91 117 151 199 247 295 355
#     4  11  24  40  60  89 123 160 205 253 297 356
#     4  11  22  38  62  90 123 162 200 245 304 360
#     4   9  19  36  58  87 120 153 193 246 298 351
#
# _framework density 21.017215
#
# number of rings (size 3 to 8) (size 9 to 14) (size 15 to 20)
#    0.000    1.667    1.667    2.500    2.333    3.667 
#    0.000    0.000    0.000    2.500    0.000    0.000 
#    0.000    0.000    0.000    0.000    0.000    0.000 
#
# Total GULP energy -268378.346977 kJ/mol
# GULP energy per Si atom -5591.215562 kJ/mol
# Density = 2.096938 g / cm^3
# Si number density = 21.017215 Si / 1000 Ang^3
#
#
#
# Elastic Constant Matrix: (Units=GPa)
#
#
# Indices 1 2 3 4 5 6 
#
# 1 178.1315 64.2049 -4.6232 0.0000 0.0000 0.0000
# 2 64.2049 94.9871 -8.9671 0.0000 0.0000 0.0000
# 3 -4.6232 -8.9671 25.2267 0.0000 0.0000 0.0000
# 4 0.0000 0.0000 0.0000 16.7384 0.0000 0.0000
# 5 0.0000 0.0000 0.0000 0.0000 -7.6100 0.0000
# 6 0.0000 0.0000 0.0000 0.0000 0.0000 45.0620
#
#
#
# Elastic Compliance Matrix: (Units=1/GPa)
#
#
# Indices 1 2 3 4 5 6 
#
# 1 0.007427 -0.005061 -0.000438 0.000000 0.000000 0.000000
# 2 -0.005061 0.014343 0.004171 0.000000 0.000000 0.000000
# 3 -0.000438 0.004171 0.041043 0.000000 0.000000 0.000000
# 4 0.000000 0.000000 0.000000 0.059743 0.000000 0.000000
# 5 0.000000 0.000000 0.000000 0.000000 -0.131406 0.000000
# 6 0.000000 0.000000 0.000000 0.000000 0.000000 0.022192
#
#
# Mechanical properties :
#
#
# Convention : Reuss Voigt Hill
#
# Bulk Modulus (GPa) = 16.62381 44.39717 30.51049
# Shear Modulus (GPa) = 138.69654 27.35346 83.02500
#
# Velocity S-wave (km/s) = 8.13235 3.61152 6.29199
# Velocity P-wave (km/s) = 9.80342 6.20973 8.20572
#
# Compressibility (1/GPa) = 0.06015467
#
# Stress axis : x y z
#
# Youngs Moduli (GPa) = 134.64841 69.72238 24.36483
#
# Poissons Ratio (x) = 0.35289 0.01067
# Poissons Ratio (y) = 0.68150 -0.10162
# Poissons Ratio (z) = 0.05898 -0.29079
#
# Static dielectric constant tensor:
#      x y z
#    x 1.740820 0.000000 0.000000 
#    y 0.000000 1.701100 0.000000 
#    z 0.000000 0.000000 1.758460 
# 
# From -- ./inp_files/2945.got.cif
#   From: 2010.05.17/outbox.cif.g08.bks.cpg/sg58_2_cif.got.tgz:2945.got - 2010.06.03 14:20:14.
