data_PCOD9444994
_publ_section_title
;
Structure prediction by ZEFSAII (Michael W. Deem and Ramdas Pophale) SiO2 
 PCOD9444994
Probable space group: P N N M
;
_chemical_formula_sum "Si O2"
_cell_formula_units_Z 64
_cell_length_a 9.967826
_cell_length_b 17.279034
_cell_length_c 19.988250
_cell_angle_alpha 90.000000
_cell_angle_beta 90.000000
_cell_angle_gamma 90.000000
_cell_volume 3442.664333
_symmetry_space_group_name_H-M "P N N M"
_symmetry_group_IT_number 58
_symmetry_cell_setting 'orthorhombic'
loop_
_space_group_symop_operation_xyz
x,y,z
-x,-y,z
1/2+x,1/2-y,1/2-z
1/2-x,1/2+y,1/2-z
-x,-y,-z
x,y,-z
1/2-x,1/2+y,1/2+z
1/2+x,1/2-y,1/2+z
loop_
_atom_site_type_symbol
_atom_site_label
_atom_site_fract_x
_atom_site_fract_y
_atom_site_fract_z
Si Si1 0.578241 0.572335 0.261811
Si Si2 0.964477 0.911805 0.389602
Si Si3 0.040114 0.327093 0.926905
Si Si4 0.192792 0.679337 0.705133
Si Si5 0.342711 0.010297 0.729556
Si Si6 0.322540 0.044231 0.424205
Si Si7 0.163845 0.775566 0.574911
Si Si8 0.490241 0.732811 0.296447
O O1 0.500000 0.500000 0.292525
O O2 0.504444 0.585233 0.189384
O O3 0.734079 0.551794 0.254328
O O4 0.555475 0.649164 0.302348
O O5 0.810048 0.902993 0.411596
O O6 0.047364 0.838653 0.415289
O O7 0.000000 0.000000 0.413646
O O8 0.200279 0.327162 0.918856
O O9 0.991931 0.277384 0.865261
O O10 0.960174 0.407155 0.925513
O O11 0.012518 0.292344 0.000000
O O12 0.196816 0.592086 0.734774
O O13 0.172074 0.705003 0.627646
O O14 0.334900 0.719654 0.721816
O O15 0.069018 0.719765 0.741306
O O16 0.325681 0.004050 0.648637
O O17 0.500000 0.000000 0.744123
O O18 0.308385 0.009334 0.500000
O O19 0.158382 0.744350 0.500000
#
# Coordination Sequence:
#
# PCOD9444994 Si02
#       8
#     8   8   8   8   8   8   8   8
#     4  11  21  40  58  84 117 151 189 242 289 344
#     4  11  21  36  54  82 117 155 192 230 281 348
#     4   9  21  38  57  84 115 149 191 241 289 340
#     4  11  23  38  61  88 113 153 199 242 289 345
#     4  12  26  41  58  85 120 153 199 242 297 346
#     4  11  22  36  53  80 118 156 189 229 279 342
#     4  10  22  39  60  85 115 152 195 240 291 343
#     4  11  21  36  64  84 115 152 196 243 288 345
#
# _framework density 18.590253000000001
#
# number of rings (size 3 to 8) (size 9 to 14) (size 15 to 20)
#    0.000    1.250    6.250    0.375    3.500    1.250 
#    0.000    0.000    0.000    1.500    0.000    0.000 
#    0.000    0.000    0.000    0.000    0.000    0.000 
#
# Total GULP energy -356718.927946 kJ/mol
# GULP energy per Si atom -5573.733249 kJ/mol
# Density = 1.854794 g / cm^3
# Si number density = 18.590253 Si / 1000 Ang^3
#
#
#
# Elastic Constant Matrix: (Units=GPa)
#
#
# Indices 1 2 3 4 5 6 
#
# 1 82.4465 0.5550 28.0217 0.0000 0.0000 0.0000
# 2 0.5550 33.9287 31.1821 0.0000 0.0000 0.0000
# 3 28.0217 31.1821 78.7387 0.0000 0.0000 0.0000
# 4 0.0000 0.0000 0.0000 27.2241 0.0000 0.0000
# 5 0.0000 0.0000 0.0000 0.0000 24.4054 0.0000
# 6 0.0000 0.0000 0.0000 0.0000 0.0000 32.0786
#
#
#
# Elastic Compliance Matrix: (Units=1/GPa)
#
#
# Indices 1 2 3 4 5 6 
#
# 1 0.014854 0.007256 -0.008160 0.000000 0.000000 0.000000
# 2 0.007256 0.049884 -0.022337 0.000000 0.000000 0.000000
# 3 -0.008160 -0.022337 0.024450 0.000000 0.000000 0.000000
# 4 0.000000 0.000000 0.000000 0.036732 0.000000 0.000000
# 5 0.000000 0.000000 0.000000 0.000000 0.040975 0.000000
# 6 0.000000 0.000000 0.000000 0.000000 0.000000 0.031173
#
#
# Mechanical properties :
#
#
# Convention : Reuss Voigt Hill
#
# Bulk Modulus (GPa) = 23.41595 34.95905 29.18750
# Shear Modulus (GPa) = 19.32103 25.76529 22.54316
#
# Velocity S-wave (km/s) = 3.22733 3.72688 3.48607
# Velocity P-wave (km/s) = 5.14886 6.11273 5.65138
#
# Compressibility (1/GPa) = 0.04270593
#
# Stress axis : x y z
#
# Youngs Moduli (GPa) = 67.32399 20.04644 40.89938
#
# Poissons Ratio (x) = -0.14546 0.33373
# Poissons Ratio (y) = -0.48852 0.91359
# Poissons Ratio (z) = 0.54935 0.44779
#
# Static dielectric constant tensor:
#      x y z
#    x 1.682620 0.000000 0.000000 
#    y 0.000000 1.680650 0.000000 
#    z 0.000000 0.000000 1.671620 
# 
# From -- ./inp_files/29094.got.cif
#   From: 2010.05.17/outbox.cif.g08.bks.cpg/sg58_15_cif.got.tgz:29094.got - 2010.06.03 14:20:14.
