data_PCOD9444938
_publ_section_title
;
Structure prediction by ZEFSAII (Michael W. Deem and Ramdas Pophale) SiO2 
 PCOD9444938
Probable space group: P N N M
;
_chemical_formula_sum "Si O2"
_cell_formula_units_Z 48
_cell_length_a 8.064037
_cell_length_b 7.624021
_cell_length_c 29.645060
_cell_angle_alpha 90.000000
_cell_angle_beta 90.000000
_cell_angle_gamma 90.000000
_cell_volume 1822.589774
_symmetry_space_group_name_H-M "P N N M"
_symmetry_group_IT_number 58
_symmetry_cell_setting 'orthorhombic'
loop_
_space_group_symop_operation_xyz
x,y,z
-x,-y,z
1/2+x,1/2-y,1/2-z
1/2-x,1/2+y,1/2-z
-x,-y,-z
x,y,-z
1/2-x,1/2+y,1/2+z
1/2+x,1/2-y,1/2+z
loop_
_atom_site_type_symbol
_atom_site_label
_atom_site_fract_x
_atom_site_fract_y
_atom_site_fract_z
Si Si1 0.226818 0.182720 0.398709
Si Si2 0.889724 0.290011 0.808184
Si Si3 0.686011 0.426419 0.405538
Si Si4 0.166712 0.125112 0.500000
Si Si5 0.222465 0.344399 0.232791
Si Si6 0.939459 0.297970 0.340243
Si Si7 0.200821 0.030735 0.000000
O O1 0.373289 0.168208 0.361221
O O2 0.218755 0.390155 0.408131
O O3 0.236958 0.093637 0.448113
O O4 0.064139 0.172139 0.367515
O O5 0.825940 0.462924 0.782857
O O6 0.758243 0.155854 0.786248
O O7 0.068679 0.238769 0.789193
O O8 0.500000 0.500000 0.398012
O O9 0.769658 0.304658 0.369405
O O10 0.721033 0.354627 0.455329
O O11 0.194891 0.345177 0.500000
O O12 0.000000 0.000000 0.500000
O O13 0.387069 0.281790 0.207261
O O14 0.000000 0.500000 0.337370
O O15 0.000000 0.000000 0.000000
#
# Coordination Sequence:
#
# PCOD9444938 Si02
#       7
#     8   8   8   4   8   8   4
#     4  10  22  39  62  94 132 180 222 284 340 416
#     4  11  26  45  68 100 136 177 229 278 356 419
#     4   9  17  33  59  87 122 165 217 273 336 393
#     4  10  22  37  63  94 135 180 239 288 356 430
#     4  11  26  44  70  99 137 176 226 285 347 431
#     4  10  22  37  62  94 134 169 220 277 338 411
#     4   8  16  33  57  91 119 167 227 290 346 414
#
# _framework density 26.336151999999998
#
# number of rings (size 3 to 8) (size 9 to 14) (size 15 to 20)
#    0.000    2.000    0.000    2.000    9.333    2.667 
#    0.000    3.333    0.000    3.000    0.000    0.000 
#    0.000    0.000    0.000    0.000    0.000    0.000 
#
# Total GULP energy -267299.208196 kJ/mol
# GULP energy per Si atom -5568.733504 kJ/mol
# Density = 2.627621 g / cm^3
# Si number density = 26.336152 Si / 1000 Ang^3
#
#
#
# Elastic Constant Matrix: (Units=GPa)
#
#
# Indices 1 2 3 4 5 6 
#
# 1 99.2841 7.6696 37.6453 0.0000 0.0000 0.0000
# 2 7.6696 52.1734 3.8942 0.0000 0.0000 0.0000
# 3 37.6453 3.8942 185.9511 0.0000 0.0000 0.0000
# 4 0.0000 0.0000 0.0000 18.0339 0.0000 0.0000
# 5 0.0000 0.0000 0.0000 0.0000 1.8021 0.0000
# 6 0.0000 0.0000 0.0000 0.0000 0.0000 36.4809
#
#
#
# Elastic Compliance Matrix: (Units=1/GPa)
#
#
# Indices 1 2 3 4 5 6 
#
# 1 0.011019 -0.001456 -0.002200 0.000000 0.000000 0.000000
# 2 -0.001456 0.019389 -0.000111 0.000000 0.000000 0.000000
# 3 -0.002200 -0.000111 0.005826 0.000000 0.000000 0.000000
# 4 0.000000 0.000000 0.000000 0.055451 0.000000 0.000000
# 5 0.000000 0.000000 0.000000 0.000000 0.554922 0.000000
# 6 0.000000 0.000000 0.000000 0.000000 0.000000 0.027412
#
#
# Mechanical properties :
#
#
# Convention : Reuss Voigt Hill
#
# Bulk Modulus (GPa) = 34.84430 48.42519 41.63475
# Shear Modulus (GPa) = 7.23464 30.47666 18.85565
#
# Velocity S-wave (km/s) = 1.65922 3.40548 2.67865
# Velocity P-wave (km/s) = 4.11461 5.82154 5.04085
#
# Compressibility (1/GPa) = 0.02869910
#
# Stress axis : x y z
#
# Youngs Moduli (GPa) = 90.75387 51.57530 171.65834
#
# Poissons Ratio (x) = 0.07507 0.37769
# Poissons Ratio (y) = 0.13210 0.01912
# Poissons Ratio (z) = 0.19968 0.00574
#
# Static dielectric constant tensor:
#      x y z
#    x 2.092010 0.000000 0.000000 
#    y 0.000000 2.119900 0.000000 
#    z 0.000000 0.000000 2.207130 
# 
# From -- ./inp_files/34622.got.cif
#   From: 2010.05.17/outbox.cif.g08.bks.cpg/sg58_18_cif.got.tgz:34622.got - 2010.06.03 14:20:14.
