data_PCOD9444411
_publ_section_title
;
Structure prediction by ZEFSAII (Michael W. Deem and Ramdas Pophale) SiO2 
 PCOD9444411
Probable space group: P N N M
;
_chemical_formula_sum "Si O2"
_cell_formula_units_Z 32
_cell_length_a 11.735148
_cell_length_b 7.212535
_cell_length_c 15.936556
_cell_angle_alpha 90.000000
_cell_angle_beta 90.000000
_cell_angle_gamma 90.000000
_cell_volume 1348.872740
_symmetry_space_group_name_H-M "P N N M"
_symmetry_group_IT_number 58
_symmetry_cell_setting 'orthorhombic'
loop_
_space_group_symop_operation_xyz
x,y,z
-x,-y,z
1/2+x,1/2-y,1/2-z
1/2-x,1/2+y,1/2-z
-x,-y,-z
x,y,-z
1/2-x,1/2+y,1/2+z
1/2+x,1/2-y,1/2+z
loop_
_atom_site_type_symbol
_atom_site_label
_atom_site_fract_x
_atom_site_fract_y
_atom_site_fract_z
Si Si1 0.746503 0.915892 0.333990
Si Si2 0.868098 0.481958 0.000000
Si Si3 0.461579 0.717057 0.092559
Si Si4 0.636110 0.425350 0.500000
Si Si5 0.300985 0.149718 0.144697
O O1 0.671165 0.877695 0.416162
O O2 0.773608 0.131450 0.349145
O O3 0.859753 0.788740 0.340695
O O4 0.695849 0.905447 0.241967
O O5 0.000000 0.500000 0.000000
O O6 0.842474 0.701343 0.000000
O O7 0.500000 0.500000 0.091249
O O8 0.571807 0.842538 0.107549
O O9 0.414276 0.755348 0.000000
O O10 0.500000 0.500000 0.500000
O O11 0.708991 0.459787 0.413398
#
# Coordination Sequence:
#
# PCOD9444411 Si02
#       5
#     8   4   8   4   8
#     4  10  21  37  61  92 124 165 215 261 320 381
#     4  10  22  39  59  85 125 170 205 257 318 382
#     4   9  16  34  64  86 114 163 217 261 310 374
#     4  10  22  39  61  89 127 162 208 259 317 376
#     4  10  21  37  62  94 126 165 212 265 318 381
#
# _framework density 23.723511999999999
#
# number of rings (size 3 to 8) (size 9 to 14) (size 15 to 20)
#    0.000    2.250    2.500    0.000    0.000    9.000 
#    0.000    0.000    0.000    1.500    0.000    0.000 
#    0.000    0.000    0.000    0.000    0.000    0.000 
#
# Total GULP energy -178321.182204 kJ/mol
# GULP energy per Si atom -5572.536944 kJ/mol
# Density = 2.366952 g / cm^3
# Si number density = 23.723512 Si / 1000 Ang^3
#
#
#
# Elastic Constant Matrix: (Units=GPa)
#
#
# Indices 1 2 3 4 5 6 
#
# 1 116.2275 48.7694 77.1936 0.0000 0.0000 0.0000
# 2 48.7694 77.9179 33.7196 0.0000 0.0000 0.0000
# 3 77.1936 33.7196 186.4986 0.0000 0.0000 0.0000
# 4 0.0000 0.0000 0.0000 27.5986 0.0000 0.0000
# 5 0.0000 0.0000 0.0000 0.0000 -5.2929 0.0000
# 6 0.0000 0.0000 0.0000 0.0000 0.0000 48.9488
#
#
#
# Elastic Compliance Matrix: (Units=1/GPa)
#
#
# Indices 1 2 3 4 5 6 
#
# 1 0.014836 -0.007191 -0.004841 0.000000 0.000000 0.000000
# 2 -0.007191 0.017409 -0.000171 0.000000 0.000000 0.000000
# 3 -0.004841 -0.000171 0.007397 0.000000 0.000000 0.000000
# 4 0.000000 0.000000 0.000000 0.036234 0.000000 0.000000
# 5 0.000000 0.000000 0.000000 0.000000 -0.188931 0.000000
# 6 0.000000 0.000000 0.000000 0.000000 0.000000 0.020429
#
#
# Mechanical properties :
#
#
# Convention : Reuss Voigt Hill
#
# Bulk Modulus (GPa) = 65.63481 77.77881 71.70681
# Shear Modulus (GPa) = -79.18741 28.98166 -25.10288
#
# Velocity S-wave (km/s) = -5.78375 3.49899 -3.25644
# Velocity P-wave (km/s) = 4.10801 7.01289 4.01901
#
# Compressibility (1/GPa) = 0.01523582
#
# Stress axis : x y z
#
# Youngs Moduli (GPa) = 67.40235 57.44107 135.19898
#
# Poissons Ratio (x) = 0.41308 0.65445
# Poissons Ratio (y) = 0.48471 0.02313
# Poissons Ratio (z) = 0.32627 0.00983
#
# Static dielectric constant tensor:
#      x y z
#    x 1.871990 0.000000 0.000000 
#    y 0.000000 1.844920 0.000000 
#    z 0.000000 0.000000 1.891760 
# 
# From -- ./inp_files/20682.got.cif
#   From: 2010.05.17/outbox.cif.g08.bks.cpg/sg58_11_cif.got.tgz:20682.got - 2010.06.03 14:20:14.
