data_PCOD9444672
_publ_section_title
;
Structure prediction by ZEFSAII (Michael W. Deem and Ramdas Pophale) SiO2 
 PCOD9444672
Probable space group: P N N M
;
_chemical_formula_sum "Si O2"
_cell_formula_units_Z 58
_cell_length_a 25.531173
_cell_length_b 12.699061
_cell_length_c 9.367883
_cell_angle_alpha 90.000000
_cell_angle_beta 90.000000
_cell_angle_gamma 90.000000
_cell_volume 3037.273044
_symmetry_space_group_name_H-M "P N N M"
_symmetry_group_IT_number 58
_symmetry_cell_setting 'orthorhombic'
loop_
_space_group_symop_operation_xyz
x,y,z
-x,-y,z
1/2+x,1/2-y,1/2-z
1/2-x,1/2+y,1/2-z
-x,-y,-z
x,y,-z
1/2-x,1/2+y,1/2+z
1/2+x,1/2-y,1/2+z
loop_
_atom_site_type_symbol
_atom_site_label
_atom_site_fract_x
_atom_site_fract_y
_atom_site_fract_z
Si Si1 0.892120 0.140303 0.667767
Si Si2 0.686338 0.817803 0.827133
Si Si3 0.955645 0.588124 0.164305
Si Si4 0.991258 0.820757 0.756389
Si Si5 0.150872 0.448364 0.327973
Si Si6 0.117490 0.098718 0.336094
Si Si7 0.000000 0.000000 0.000000
Si Si8 0.195908 0.250421 0.171706
O O1 0.880923 0.132304 0.500000
O O2 0.852812 0.227570 0.729564
O O3 0.951961 0.175861 0.684123
O O4 0.884220 0.021184 0.722037
O O5 0.746213 0.791641 0.792487
O O6 0.669022 0.934616 0.784829
O O7 0.682566 0.816567 0.000000
O O8 0.979427 0.703787 0.187921
O O9 0.907962 0.570156 0.272242
O O10 0.000000 0.500000 0.185395
O O11 0.936637 0.580640 0.000000
O O12 0.941402 0.856199 0.663724
O O13 0.994289 0.908177 0.878112
O O14 0.153730 0.437213 0.500000
O O15 0.185824 0.361208 0.249018
O O16 0.137123 0.101146 0.500000
O O17 0.152906 0.170522 0.234826
O O18 0.190864 0.259383 0.000000
#
# Coordination Sequence:
#
# PCOD9444672 Si02
#       8
#     8   8   8   8   8   8   2   8
#     4  10  21  39  64  92 122 159 203 257 312 368
#     4   9  22  43  64  91 124 162 204 259 318 373
#     4  11  24  40  61  91 129 172 211 253 312 379
#     4  12  22  38  62  87 131 164 207 255 315 372
#     4  11  23  42  66  92 124 161 214 264 309 373
#     4  11  23  38  63  95 125 161 210 259 308 374
#     4  12  24  36  56  92 128 176 206 258 316 386
#     4  11  24  41  66  90 123 165 206 257 320 375
#
# _framework density 19.096077000000001
#
# number of rings (size 3 to 8) (size 9 to 14) (size 15 to 20)
#    0.000    1.241    3.448    2.069    2.897    1.931 
#    0.000    2.069    3.034    0.000    0.000    0.000 
#    0.000    0.000    0.000    0.000    0.000    0.000 
#
# Total GULP energy -323351.689207 kJ/mol
# GULP energy per Si atom -5575.029124 kJ/mol
# Density = 1.905261 g / cm^3
# Si number density = 19.096077 Si / 1000 Ang^3
#
#
#
# Elastic Constant Matrix: (Units=GPa)
#
#
# Indices 1 2 3 4 5 6 
#
# 1 82.5366 75.0281 15.3499 0.0000 0.0000 0.0000
# 2 75.0281 183.9559 49.3501 0.0000 0.0000 0.0000
# 3 15.3499 49.3501 64.8057 0.0000 0.0000 0.0000
# 4 0.0000 0.0000 0.0000 24.5385 0.0000 0.0000
# 5 0.0000 0.0000 0.0000 0.0000 182.1215 0.0000
# 6 0.0000 0.0000 0.0000 0.0000 0.0000 17.5564
#
#
#
# Elastic Compliance Matrix: (Units=1/GPa)
#
#
# Indices 1 2 3 4 5 6 
#
# 1 0.019420 -0.008403 0.001799 0.000000 0.000000 0.000000
# 2 -0.008403 0.010468 -0.005981 0.000000 0.000000 0.000000
# 3 0.001799 -0.005981 0.019559 0.000000 0.000000 0.000000
# 4 0.000000 0.000000 0.000000 0.040752 0.000000 0.000000
# 5 0.000000 0.000000 0.000000 0.000000 0.005491 0.000000
# 6 0.000000 0.000000 0.000000 0.000000 0.000000 0.056959
#
#
# Mechanical properties :
#
#
# Convention : Reuss Voigt Hill
#
# Bulk Modulus (GPa) = 41.19096 67.86161 54.52628
# Shear Modulus (GPa) = 26.89441 57.61461 42.25451
#
# Velocity S-wave (km/s) = 3.75690 5.49876 4.70907
# Velocity P-wave (km/s) = 6.35895 8.71374 7.62776
#
# Compressibility (1/GPa) = 0.02427717
#
# Stress axis : x y z
#
# Youngs Moduli (GPa) = 51.49308 95.52894 51.12691
#
# Poissons Ratio (x) = 0.80277 -0.09200
# Poissons Ratio (y) = 0.43272 0.30579
# Poissons Ratio (z) = -0.09266 0.57137
#
# Static dielectric constant tensor:
#      x y z
#    x 1.653890 0.000000 0.000000 
#    y 0.000000 1.664580 0.000000 
#    z 0.000000 0.000000 1.655500 
# 
# From -- ./inp_files/4465.got.cif
#   From: 2010.05.17/outbox.cif.g08.bks.cpg/sg58_3_cif.got.tgz:4465.got - 2010.06.03 14:20:14.
