data_PCOD9444319
_publ_section_title
;
Structure prediction by ZEFSAII (Michael W. Deem and Ramdas Pophale) SiO2 
 PCOD9444319
Probable space group: P N N M
;
_chemical_formula_sum "Si O2"
_cell_formula_units_Z 64
_cell_length_a 29.451857
_cell_length_b 5.629239
_cell_length_c 17.408972
_cell_angle_alpha 90.000000
_cell_angle_beta 90.000000
_cell_angle_gamma 90.000000
_cell_volume 2886.260313
_symmetry_space_group_name_H-M "P N N M"
_symmetry_group_IT_number 58
_symmetry_cell_setting 'orthorhombic'
loop_
_space_group_symop_operation_xyz
x,y,z
-x,-y,z
1/2+x,1/2-y,1/2-z
1/2-x,1/2+y,1/2-z
-x,-y,-z
x,y,-z
1/2-x,1/2+y,1/2+z
1/2+x,1/2-y,1/2+z
loop_
_atom_site_type_symbol
_atom_site_label
_atom_site_fract_x
_atom_site_fract_y
_atom_site_fract_z
Si Si1 0.542852 0.380572 0.835219
Si Si2 0.398219 0.273317 0.733900
Si Si3 0.546000 0.110992 0.312733
Si Si4 0.664260 0.627065 0.089557
Si Si5 0.945138 0.011324 0.913650
Si Si6 0.295630 0.345814 0.310328
Si Si7 0.738375 0.155030 0.346194
Si Si8 0.623191 0.128914 0.092005
O O1 0.500000 0.500000 0.876226
O O2 0.576683 0.577344 0.799418
O O3 0.523692 0.261595 0.757466
O O4 0.571827 0.201270 0.886577
O O5 0.424106 0.324565 0.652068
O O6 0.346191 0.335174 0.723753
O O7 0.412503 0.000620 0.735912
O O8 0.568548 0.253309 0.382101
O O9 0.500000 0.000000 0.346266
O O10 0.717768 0.660667 0.099643
O O11 0.652203 0.360526 0.119360
O O12 0.641008 0.871652 0.121036
O O13 0.651166 0.618868 0.000000
O O14 0.931031 0.066337 0.000000
O O15 0.000000 0.000000 0.911164
O O16 0.288773 0.597141 0.353461
O O17 0.259707 0.346876 0.240095
O O18 0.287392 0.096774 0.354763
O O19 0.627592 0.117318 0.000000
#
# Coordination Sequence:
#
# PCOD9444319 Si02
#       8
#     8   8   8   8   8   8   8   8
#     4  11  23  36  58  88 124 165 205 253 306 360
#     4  11  22  38  57  86 118 156 199 256 300 365
#     4  11  20  36  58  86 117 152 208 251 300 356
#     4  10  21  41  66  89 117 157 206 252 301 370
#     4  10  21  37  57  83 116 157 202 246 295 352
#     4  10  23  36  61  86 121 150 192 247 309 361
#     4  10  21  40  58  90 115 152 193 246 309 368
#     4  10  23  39  62  94 124 162 209 254 303 365
#
# _framework density 22.174022000000001
#
# number of rings (size 3 to 8) (size 9 to 14) (size 15 to 20)
#    0.000    1.625    2.500    2.250    7.000    2.000 
#    0.000    1.250    0.000    2.625    0.000    0.000 
#    0.000    0.000    0.000    0.000    0.000    0.000 
#
# Total GULP energy -356623.052028 kJ/mol
# GULP energy per Si atom -5572.235188 kJ/mol
# Density = 2.212355 g / cm^3
# Si number density = 22.174022 Si / 1000 Ang^3
#
#
#
# Elastic Constant Matrix: (Units=GPa)
#
#
# Indices 1 2 3 4 5 6 
#
# 1 70.9090 28.0020 -5.9071 0.0000 0.0000 0.0000
# 2 28.0020 72.9245 7.9159 0.0000 0.0000 0.0000
# 3 -5.9071 7.9159 14.4663 0.0000 0.0000 0.0000
# 4 0.0000 0.0000 0.0000 19.6576 0.0000 0.0000
# 5 0.0000 0.0000 0.0000 0.0000 27.1769 0.0000
# 6 0.0000 0.0000 0.0000 0.0000 0.0000 34.2486
#
#
#
# Elastic Compliance Matrix: (Units=1/GPa)
#
#
# Indices 1 2 3 4 5 6 
#
# 1 0.018425 -0.008390 0.012114 0.000000 0.000000 0.000000
# 2 -0.008390 0.018399 -0.013494 0.000000 0.000000 0.000000
# 3 0.012114 -0.013494 0.081457 0.000000 0.000000 0.000000
# 4 0.000000 0.000000 0.000000 0.050871 0.000000 0.000000
# 5 0.000000 0.000000 0.000000 0.000000 0.036796 0.000000
# 6 0.000000 0.000000 0.000000 0.000000 0.000000 0.029198
#
#
# Mechanical properties :
#
#
# Convention : Reuss Voigt Hill
#
# Bulk Modulus (GPa) = 10.12740 24.25795 17.19268
# Shear Modulus (GPa) = 17.38534 24.76922 21.07728
#
# Velocity S-wave (km/s) = 2.80311 3.34584 3.08643
# Velocity P-wave (km/s) = 3.87991 5.08819 4.52457
#
# Compressibility (1/GPa) = 0.09874199
#
# Stress axis : x y z
#
# Youngs Moduli (GPa) = 54.27419 54.35018 12.27648
#
# Poissons Ratio (x) = 0.45600 -0.14872
# Poissons Ratio (y) = 0.45536 0.16566
# Poissons Ratio (z) = -0.65750 0.73339
#
# Static dielectric constant tensor:
#      x y z
#    x 1.856660 0.000000 0.000000 
#    y 0.000000 2.388600 0.000000 
#    z 0.000000 0.000000 1.824480 
# 
# From -- ./inp_files/27780.got.cif
#   From: 2010.05.17/outbox.cif.g08.bks.cpg/sg58_14_cif.got.tgz:27780.got - 2010.06.03 14:20:14.
