data_PCOD9444991
_publ_section_title
;
Structure prediction by ZEFSAII (Michael W. Deem and Ramdas Pophale) SiO2 
 PCOD9444991
Probable space group: P N N M
;
_chemical_formula_sum "Si O2"
_cell_formula_units_Z 40
_cell_length_a 9.576221
_cell_length_b 8.298327
_cell_length_c 22.719521
_cell_angle_alpha 90.000000
_cell_angle_beta 90.000000
_cell_angle_gamma 90.000000
_cell_volume 1805.443389
_symmetry_space_group_name_H-M "P N N M"
_symmetry_group_IT_number 58
_symmetry_cell_setting 'orthorhombic'
loop_
_space_group_symop_operation_xyz
x,y,z
-x,-y,z
1/2+x,1/2-y,1/2-z
1/2-x,1/2+y,1/2-z
-x,-y,-z
x,y,-z
1/2-x,1/2+y,1/2+z
1/2+x,1/2-y,1/2+z
loop_
_atom_site_type_symbol
_atom_site_label
_atom_site_fract_x
_atom_site_fract_y
_atom_site_fract_z
Si Si1 0.859349 0.590797 0.230652
Si Si2 0.663260 0.002838 0.596499
Si Si3 0.654076 0.447571 0.320612
Si Si4 0.925416 0.838801 0.430002
Si Si5 0.814928 0.337717 0.567555
O O1 0.829256 0.512881 0.166970
O O2 0.737020 0.562978 0.276807
O O3 0.865772 0.778507 0.214186
O O4 0.000000 0.500000 0.251998
O O5 0.761313 0.851960 0.580611
O O6 0.500000 0.000000 0.579706
O O7 0.737559 0.161252 0.569125
O O8 0.500000 0.500000 0.335841
O O9 0.737945 0.431925 0.381274
O O10 0.944290 0.844566 0.500000
O O11 0.024808 0.692824 0.412477
O O12 0.000000 0.000000 0.404130
O O13 0.809403 0.398529 0.500000
#
# Coordination Sequence:
#
# PCOD9444991 Si02
#       5
#     8   8   8   8   8
#     4  10  22  39  59  89 126 160 203 257 316 381
#     4   9  17  29  51  86 123 161 208 258 305 360
#     4  11  23  40  64  91 120 160 209 261 320 385
#     4   8  14  26  46  74 112 160 207 246 292 354
#     4   9  19  35  54  82 121 163 205 250 308 376
#
# _framework density 22.155221999999998
#
# number of rings (size 3 to 8) (size 9 to 14) (size 15 to 20)
#    0.000    2.600    0.000    3.000    0.000    7.600 
#    0.000    0.000    0.000    0.600    0.000    1.400 
#    0.000    0.800    0.000    0.000    0.000    0.000 
#
# Total GULP energy -223274.308342 kJ/mol
# GULP energy per Si atom -5581.857709 kJ/mol
# Density = 2.210480 g / cm^3
# Si number density = 22.155222 Si / 1000 Ang^3
#
#
#
# Elastic Constant Matrix: (Units=GPa)
#
#
# Indices 1 2 3 4 5 6 
#
# 1 165.4436 31.1147 44.7994 0.0000 0.0000 0.0000
# 2 31.1147 56.2777 24.8533 0.0000 0.0000 0.0000
# 3 44.7994 24.8533 70.8584 0.0000 0.0000 0.0000
# 4 0.0000 0.0000 0.0000 37.7576 0.0000 0.0000
# 5 0.0000 0.0000 0.0000 0.0000 62.6945 0.0000
# 6 0.0000 0.0000 0.0000 0.0000 0.0000 29.2952
#
#
#
# Elastic Compliance Matrix: (Units=1/GPa)
#
#
# Indices 1 2 3 4 5 6 
#
# 1 0.007568 -0.002451 -0.003925 0.000000 0.000000 0.000000
# 2 -0.002451 0.021820 -0.006104 0.000000 0.000000 0.000000
# 3 -0.003925 -0.006104 0.018735 0.000000 0.000000 0.000000
# 4 0.000000 0.000000 0.000000 0.026485 0.000000 0.000000
# 5 0.000000 0.000000 0.000000 0.000000 0.015950 0.000000
# 6 0.000000 0.000000 0.000000 0.000000 0.000000 0.034135
#
#
# Mechanical properties :
#
#
# Convention : Reuss Voigt Hill
#
# Bulk Modulus (GPa) = 43.17143 54.90160 49.03652
# Shear Modulus (GPa) = 31.77149 38.73695 35.25422
#
# Velocity S-wave (km/s) = 3.79098 4.18596 3.99336
# Velocity P-wave (km/s) = 6.22015 6.94243 6.59119
#
# Compressibility (1/GPa) = 0.02316347
#
# Stress axis : x y z
#
# Youngs Moduli (GPa) = 132.13229 45.83056 53.37548
#
# Poissons Ratio (x) = 0.11232 0.20951
# Poissons Ratio (y) = 0.32383 0.32578
# Poissons Ratio (z) = 0.51866 0.27973
#
# Static dielectric constant tensor:
#      x y z
#    x 1.833400 0.000000 0.000000 
#    y 0.000000 1.970440 0.000000 
#    z 0.000000 0.000000 1.756430 
# 
# From -- ./inp_files/31284.got.cif
#   From: 2010.05.17/outbox.cif.g08.bks.cpg/sg58_16_cif.got.tgz:31284.got - 2010.06.03 14:20:14.
