data_PCOD9444448
_publ_section_title
;
Structure prediction by ZEFSAII (Michael W. Deem and Ramdas Pophale) SiO2 
 PCOD9444448
Probable space group: P N N M
;
_chemical_formula_sum "Si O2"
_cell_formula_units_Z 56
_cell_length_a 23.446239
_cell_length_b 14.186341
_cell_length_c 8.903388
_cell_angle_alpha 90.000000
_cell_angle_beta 90.000000
_cell_angle_gamma 90.000000
_cell_volume 2961.412345
_symmetry_space_group_name_H-M "P N N M"
_symmetry_group_IT_number 58
_symmetry_cell_setting 'orthorhombic'
loop_
_space_group_symop_operation_xyz
x,y,z
-x,-y,z
1/2+x,1/2-y,1/2-z
1/2-x,1/2+y,1/2-z
-x,-y,-z
x,y,-z
1/2-x,1/2+y,1/2+z
1/2+x,1/2-y,1/2+z
loop_
_atom_site_type_symbol
_atom_site_label
_atom_site_fract_x
_atom_site_fract_y
_atom_site_fract_z
Si Si1 0.115749 0.203117 0.319748
Si Si2 0.995404 0.889852 0.180550
Si Si3 0.850560 0.406886 0.323012
Si Si4 0.114368 0.790755 0.818864
Si Si5 0.766477 0.140452 0.829899
Si Si6 0.236065 0.137585 0.329955
Si Si7 0.651550 0.098860 0.322721
O O1 0.116592 0.211645 0.500000
O O2 0.057921 0.157948 0.261107
O O3 0.170478 0.137471 0.279444
O O4 0.125422 0.306643 0.249670
O O5 0.054354 0.837484 0.219318
O O6 0.987686 0.882775 0.000000
O O7 0.000000 0.000000 0.219054
O O8 0.858627 0.409932 0.500000
O O9 0.877355 0.311477 0.255177
O O10 0.783282 0.401631 0.281474
O O11 0.872862 0.502606 0.246967
O O12 0.167999 0.858207 0.777902
O O13 0.118140 0.779447 0.000000
O O14 0.751035 0.251339 0.840473
O O15 0.718804 0.100559 0.720296
O O16 0.761167 0.101335 0.000000
O O17 0.242388 0.098721 0.500000
O O18 0.644018 0.100529 0.500000
#
# Coordination Sequence:
#
# PCOD9444448 Si02
#       7
#     8   8   8   8   8   8   8
#     4  10  21  38  58  82 114 148 186 234 280 323
#     4  10  22  40  61  84 109 143 187 229 275 333
#     4  11  21  33  54  84 115 147 186 229 274 330
#     4   9  19  37  57  79 113 150 184 228 277 325
#     4   8  15  30  51  76 108 144 180 221 268 316
#     4   8  16  32  52  76 109 145 177 216 270 323
#     4  11  21  34  55  83 116 151 185 224 276 337
#
# _framework density 18.909896
#
# number of rings (size 3 to 8) (size 9 to 14) (size 15 to 20)
#    0.000    2.429    0.000    4.714    0.000    7.714 
#    0.000    2.143    0.000    4.286    0.000    0.000 
#    0.000    0.000    0.000    0.000    0.000    0.000 
#
# Total GULP energy -312445.007051 kJ/mol
# GULP energy per Si atom -5579.375126 kJ/mol
# Density = 1.886686 g / cm^3
# Si number density = 18.909896 Si / 1000 Ang^3
#
#
#
# Elastic Constant Matrix: (Units=GPa)
#
#
# Indices 1 2 3 4 5 6 
#
# 1 132.9345 52.3550 42.4227 0.0000 0.0000 0.0000
# 2 52.3550 110.9698 53.1354 0.0000 0.0000 0.0000
# 3 42.4227 53.1354 76.0699 0.0000 0.0000 0.0000
# 4 0.0000 0.0000 0.0000 22.0964 0.0000 0.0000
# 5 0.0000 0.0000 0.0000 0.0000 18.9080 0.0000
# 6 0.0000 0.0000 0.0000 0.0000 0.0000 16.6863
#
#
#
# Elastic Compliance Matrix: (Units=1/GPa)
#
#
# Indices 1 2 3 4 5 6 
#
# 1 0.009777 -0.003008 -0.003351 0.000000 0.000000 0.000000
# 2 -0.003008 0.014466 -0.008427 0.000000 0.000000 0.000000
# 3 -0.003351 -0.008427 0.020901 0.000000 0.000000 0.000000
# 4 0.000000 0.000000 0.000000 0.045256 0.000000 0.000000
# 5 0.000000 0.000000 0.000000 0.000000 0.052888 0.000000
# 6 0.000000 0.000000 0.000000 0.000000 0.000000 0.059929
#
#
# Mechanical properties :
#
#
# Convention : Reuss Voigt Hill
#
# Bulk Modulus (GPa) = 64.22113 68.42226 66.32170
# Shear Modulus (GPa) = 21.01028 23.00888 22.00958
#
# Velocity S-wave (km/s) = 3.33689 3.49200 3.41533
# Velocity P-wave (km/s) = 6.99156 7.24711 7.12048
#
# Compressibility (1/GPa) = 0.01557120
#
# Stress axis : x y z
#
# Youngs Moduli (GPa) = 102.28534 69.12951 47.84483
#
# Poissons Ratio (x) = 0.20794 0.16034
# Poissons Ratio (y) = 0.30767 0.40318
# Poissons Ratio (z) = 0.34277 0.58255
#
# Static dielectric constant tensor:
#      x y z
#    x 1.666420 0.000000 0.000000 
#    y 0.000000 1.671520 0.000000 
#    z 0.000000 0.000000 1.636850 
# 
# From -- ./inp_files/9068.got.cif
#   From: 2010.05.17/outbox.cif.g08.bks.cpg/sg58_5_cif.got.tgz:9068.got - 2010.06.03 14:20:14.
