data_PCOD9444592
_publ_section_title
;
Structure prediction by ZEFSAII (Michael W. Deem and Ramdas Pophale) SiO2 
 PCOD9444592
Probable space group: P N N M
;
_chemical_formula_sum "Si O2"
_cell_formula_units_Z 32
_cell_length_a 4.936250
_cell_length_b 8.240305
_cell_length_c 35.608723
_cell_angle_alpha 90.000000
_cell_angle_beta 90.000000
_cell_angle_gamma 90.000000
_cell_volume 1448.427736
_symmetry_space_group_name_H-M "P N N M"
_symmetry_group_IT_number 58
_symmetry_cell_setting 'orthorhombic'
loop_
_space_group_symop_operation_xyz
x,y,z
-x,-y,z
1/2+x,1/2-y,1/2-z
1/2-x,1/2+y,1/2-z
-x,-y,-z
x,y,-z
1/2-x,1/2+y,1/2+z
1/2+x,1/2-y,1/2+z
loop_
_atom_site_type_symbol
_atom_site_label
_atom_site_fract_x
_atom_site_fract_y
_atom_site_fract_z
Si Si1 0.500000 0.000000 0.244856
Si Si2 0.248425 0.122001 0.000000
Si Si3 0.750029 0.876680 0.081970
Si Si4 0.091062 0.785885 0.199371
Si Si5 0.069156 0.808937 0.346385
O O1 0.250603 0.929168 0.220884
O O2 0.624603 0.862798 0.271733
O O3 0.237257 0.206246 0.040608
O O4 0.500000 0.000000 0.000000
O O5 0.000000 0.000000 0.000000
O O6 0.695900 0.746668 0.114378
O O7 0.500000 0.000000 0.082116
O O8 0.000000 0.000000 0.087929
O O9 0.279872 0.770989 0.162550
O O10 0.784314 0.757151 0.184660
O O11 0.000000 0.000000 0.344026
#
# Coordination Sequence:
#
# PCOD9444592 Si02
#       5
#     4   4   8   8   8
#     4  12  28  50  70 100 128 180 232 286 356 410
#     4   8  16  34  59  94 129 162 212 273 323 383
#     4  10  21  38  66  96 128 171 221 270 327 403
#     4  12  28  46  71  93 134 173 226 287 343 413
#     4  12  25  45  62  97 135 177 214 282 345 402
#
# _framework density 22.092921
#
# number of rings (size 3 to 8) (size 9 to 14) (size 15 to 20)
#    0.000    1.000    2.500    3.000    5.250    4.000 
#    0.000    0.625    0.000    0.000    0.000   14.000 
#    0.000    0.000    0.000    0.000    0.000    0.000 
#
# Total GULP energy -178571.026326 kJ/mol
# GULP energy per Si atom -5580.344573 kJ/mol
# Density = 2.204264 g / cm^3
# Si number density = 22.092921 Si / 1000 Ang^3
#
#
#
# Elastic Constant Matrix: (Units=GPa)
#
#
# Indices 1 2 3 4 5 6 
#
# 1 168.4839 35.8525 20.9966 0.0000 0.0000 0.0000
# 2 35.8525 101.5554 66.0093 0.0000 0.0000 0.0000
# 3 20.9966 66.0093 148.9804 0.0000 0.0000 0.0000
# 4 0.0000 0.0000 0.0000 25.8793 0.0000 0.0000
# 5 0.0000 0.0000 0.0000 0.0000 18.3633 0.0000
# 6 0.0000 0.0000 0.0000 0.0000 0.0000 32.0269
#
#
#
# Elastic Compliance Matrix: (Units=1/GPa)
#
#
# Indices 1 2 3 4 5 6 
#
# 1 0.006419 -0.002357 0.000140 0.000000 0.000000 0.000000
# 2 -0.002357 0.014695 -0.006179 0.000000 0.000000 0.000000
# 3 0.000140 -0.006179 0.009430 0.000000 0.000000 0.000000
# 4 0.000000 0.000000 0.000000 0.038641 0.000000 0.000000
# 5 0.000000 0.000000 0.000000 0.000000 0.054456 0.000000
# 6 0.000000 0.000000 0.000000 0.000000 0.000000 0.031224
#
#
# Mechanical properties :
#
#
# Convention : Reuss Voigt Hill
#
# Bulk Modulus (GPa) = 72.71484 73.85961 73.28722
# Shear Modulus (GPa) = 28.37001 34.99799 31.68400
#
# Velocity S-wave (km/s) = 3.58735 3.98443 3.79109
# Velocity P-wave (km/s) = 7.08120 7.39402 7.23930
#
# Compressibility (1/GPa) = 0.01375235
#
# Stress axis : x y z
#
# Youngs Moduli (GPa) = 155.77657 68.04996 106.04133
#
# Poissons Ratio (x) = 0.16040 -0.01480
# Poissons Ratio (y) = 0.36717 0.65521
# Poissons Ratio (z) = -0.02175 0.42047
#
# Static dielectric constant tensor:
#      x y z
#    x 2.049010 0.000000 0.000000 
#    y 0.000000 1.992460 0.000000 
#    z 0.000000 0.000000 1.886200 
# 
# From -- ./inp_files/33981.got.cif
#   From: 2010.05.17/outbox.cif.g08.bks.cpg/sg58_17_cif.got.tgz:33981.got - 2010.06.03 14:20:14.
