data_PCOD9444799
_publ_section_title
;
Structure prediction by ZEFSAII (Michael W. Deem and Ramdas Pophale) SiO2 
 PCOD9444799
Probable space group: P N N M
;
_chemical_formula_sum "Si O2"
_cell_formula_units_Z 48
_cell_length_a 10.279218
_cell_length_b 8.644267
_cell_length_c 25.683521
_cell_angle_alpha 90.000000
_cell_angle_beta 90.000000
_cell_angle_gamma 90.000000
_cell_volume 2282.142774
_symmetry_space_group_name_H-M "P N N M"
_symmetry_group_IT_number 58
_symmetry_cell_setting 'orthorhombic'
loop_
_space_group_symop_operation_xyz
x,y,z
-x,-y,z
1/2+x,1/2-y,1/2-z
1/2-x,1/2+y,1/2-z
-x,-y,-z
x,y,-z
1/2-x,1/2+y,1/2+z
1/2+x,1/2-y,1/2+z
loop_
_atom_site_type_symbol
_atom_site_label
_atom_site_fract_x
_atom_site_fract_y
_atom_site_fract_z
Si Si1 0.806374 0.195366 0.299459
Si Si2 0.289843 0.151241 0.694331
Si Si3 0.214995 0.376316 0.441511
Si Si4 0.939130 0.342123 0.913422
Si Si5 0.042690 0.325405 0.647419
Si Si6 0.620430 0.397108 0.368369
O O1 0.849916 0.269914 0.245040
O O2 0.691679 0.300820 0.323729
O O3 0.924958 0.212324 0.339376
O O4 0.761530 0.019938 0.293291
O O5 0.387638 0.136424 0.645954
O O6 0.169792 0.261436 0.677185
O O7 0.199506 0.434576 0.500000
O O8 0.316146 0.233044 0.441769
O O9 0.082322 0.328186 0.413163
O O10 0.279902 0.497366 0.400943
O O11 0.000000 0.500000 0.933439
O O12 0.053650 0.217715 0.909466
O O13 0.000000 0.500000 0.662752
O O14 0.500000 0.500000 0.347707
#
# Coordination Sequence:
#
# PCOD9444799 Si02
#       6
#     8   8   8   8   8   8
#     4  12  24  41  62  95 131 181 217 269 321 396
#     4  11  26  39  65  93 134 178 222 263 328 386
#     4  10  23  44  69  95 125 169 220 278 337 393
#     4  10  21  41  64  94 130 166 212 275 326 397
#     4  11  23  43  64  95 131 169 220 270 318 399
#     4  10  22  39  65  91 130 161 217 274 327 390
#
# _framework density 21.032865000000001
#
# number of rings (size 3 to 8) (size 9 to 14) (size 15 to 20)
#    0.000    1.333    3.333    1.500    7.000    4.333 
#    0.000    0.000    0.000    8.000    0.000    0.000 
#    0.000    0.000    0.000    0.000    0.000    0.000 
#
# Total GULP energy -268326.779147 kJ/mol
# GULP energy per Si atom -5590.141232 kJ/mol
# Density = 2.098499 g / cm^3
# Si number density = 21.032865 Si / 1000 Ang^3
#
#
#
# Elastic Constant Matrix: (Units=GPa)
#
#
# Indices 1 2 3 4 5 6 
#
# 1 59.6392 15.9432 15.0454 0.0000 0.0000 0.0000
# 2 15.9432 117.3468 24.1312 0.0000 0.0000 0.0000
# 3 15.0454 24.1312 88.5233 0.0000 0.0000 0.0000
# 4 0.0000 0.0000 0.0000 8.4268 0.0000 0.0000
# 5 0.0000 0.0000 0.0000 0.0000 0.3469 0.0000
# 6 0.0000 0.0000 0.0000 0.0000 0.0000 29.5656
#
#
#
# Elastic Compliance Matrix: (Units=1/GPa)
#
#
# Indices 1 2 3 4 5 6 
#
# 1 0.017916 -0.001915 -0.002523 0.000000 0.000000 0.000000
# 2 -0.001915 0.009233 -0.002191 0.000000 0.000000 0.000000
# 3 -0.002523 -0.002191 0.012323 0.000000 0.000000 0.000000
# 4 0.000000 0.000000 0.000000 0.118669 0.000000 0.000000
# 5 0.000000 0.000000 0.000000 0.000000 2.882955 0.000000
# 6 0.000000 0.000000 0.000000 0.000000 0.000000 0.033823
#
#
# Mechanical properties :
#
#
# Convention : Reuss Voigt Hill
#
# Bulk Modulus (GPa) = 38.15015 41.74987 39.95001
# Shear Modulus (GPa) = 1.61451 21.69384 11.65417
#
# Velocity S-wave (km/s) = 0.87709 3.21507 2.35647
# Velocity P-wave (km/s) = 4.38217 5.80303 5.14191
#
# Compressibility (1/GPa) = 0.02621221
#
# Stress axis : x y z
#
# Youngs Moduli (GPa) = 55.81616 108.31214 81.15190
#
# Poissons Ratio (x) = 0.20745 0.20474
# Poissons Ratio (y) = 0.10691 0.17782
# Poissons Ratio (z) = 0.14082 0.23734
#
# Static dielectric constant tensor:
#      x y z
#    x 1.776010 0.000000 0.000000 
#    y 0.000000 1.786970 0.000000 
#    z 0.000000 0.000000 1.732140 
# 
# From -- ./inp_files/31886.got.cif
#   From: 2010.05.17/outbox.cif.g08.bks.cpg/sg58_16_cif.got.tgz:31886.got - 2010.06.03 14:20:14.
