data_PCOD9444036
_publ_section_title
;
Structure prediction by ZEFSAII (Michael W. Deem and Ramdas Pophale) SiO2 
 PCOD9444036
Probable space group: P N N M
;
_chemical_formula_sum "Si O2"
_cell_formula_units_Z 40
_cell_length_a 8.311259
_cell_length_b 9.274628
_cell_length_c 26.136280
_cell_angle_alpha 90.000000
_cell_angle_beta 90.000000
_cell_angle_gamma 90.000000
_cell_volume 2014.684706
_symmetry_space_group_name_H-M "P N N M"
_symmetry_group_IT_number 58
_symmetry_cell_setting 'orthorhombic'
loop_
_space_group_symop_operation_xyz
x,y,z
-x,-y,z
1/2+x,1/2-y,1/2-z
1/2-x,1/2+y,1/2-z
-x,-y,-z
x,y,-z
1/2-x,1/2+y,1/2+z
1/2+x,1/2-y,1/2+z
loop_
_atom_site_type_symbol
_atom_site_label
_atom_site_fract_x
_atom_site_fract_y
_atom_site_fract_z
Si Si1 0.223062 0.895351 0.837882
Si Si2 0.171763 0.441258 0.227914
Si Si3 0.853473 0.890837 0.356556
Si Si4 0.316282 0.946126 0.558101
Si Si5 0.135906 0.205861 0.141556
O O1 0.216899 0.913240 0.776481
O O2 0.362932 0.781005 0.851277
O O3 0.054201 0.832052 0.858877
O O4 0.233382 0.057335 0.858375
O O5 0.231224 0.562265 0.188256
O O6 0.161602 0.297948 0.193330
O O7 0.000000 0.500000 0.246992
O O8 0.785577 0.934011 0.411865
O O9 0.000000 0.000000 0.347562
O O10 0.263251 0.921399 0.500000
O O11 0.314270 0.806144 0.594289
O O12 0.500000 0.000000 0.557499
#
# Coordination Sequence:
#
# PCOD9444036 Si02
#       5
#     8   8   8   8   8
#     4  11  22  35  58  88 124 159 199 255 303 353
#     4  11  22  37  55  81 123 170 204 231 296 376
#     4  11  23  38  59  88 122 155 204 252 306 373
#     4  10  20  42  67  84 113 160 204 255 314 377
#     4  10  21  38  58  88 122 152 208 257 294 368
#
# _framework density 19.854223000000001
#
# number of rings (size 3 to 8) (size 9 to 14) (size 15 to 20)
#    0.000    1.400    4.000    2.400    5.600    2.000 
#    0.000    3.000    0.000    1.200    0.000    0.000 
#    0.000    0.000    0.000    0.000    0.000    0.000 
#
# Total GULP energy -223326.904988 kJ/mol
# GULP energy per Si atom -5583.172625 kJ/mol
# Density = 1.980903 g / cm^3
# Si number density = 19.854223 Si / 1000 Ang^3
#
#
#
# Elastic Constant Matrix: (Units=GPa)
#
#
# Indices 1 2 3 4 5 6 
#
# 1 23.8790 10.7601 -6.7241 0.0000 0.0000 0.0000
# 2 10.7601 161.3855 45.3588 0.0000 0.0000 0.0000
# 3 -6.7241 45.3588 119.6606 0.0000 0.0000 0.0000
# 4 0.0000 0.0000 0.0000 1.2090 0.0000 0.0000
# 5 0.0000 0.0000 0.0000 0.0000 16.1640 0.0000
# 6 0.0000 0.0000 0.0000 0.0000 0.0000 31.5418
#
#
#
# Elastic Compliance Matrix: (Units=1/GPa)
#
#
# Indices 1 2 3 4 5 6 
#
# 1 0.044898 -0.004144 0.004094 0.000000 0.000000 0.000000
# 2 -0.004144 0.007318 -0.003007 0.000000 0.000000 0.000000
# 3 0.004094 -0.003007 0.009727 0.000000 0.000000 0.000000
# 4 0.000000 0.000000 0.000000 0.827116 0.000000 0.000000
# 5 0.000000 0.000000 0.000000 0.000000 0.061866 0.000000
# 6 0.000000 0.000000 0.000000 0.000000 0.000000 0.031704
#
#
# Mechanical properties :
#
#
# Convention : Reuss Voigt Hill
#
# Bulk Modulus (GPa) = 17.91204 44.85717 31.38460
# Shear Modulus (GPa) = 4.96351 26.81833 15.89092
#
# Velocity S-wave (km/s) = 1.58285 3.67926 2.83217
# Velocity P-wave (km/s) = 3.51879 6.37899 5.15138
#
# Compressibility (1/GPa) = 0.05582838
#
# Stress axis : x y z
#
# Youngs Moduli (GPa) = 22.27275 136.65470 102.80919
#
# Poissons Ratio (x) = 0.56631 -0.42088
# Poissons Ratio (y) = 0.09230 0.30912
# Poissons Ratio (z) = -0.09118 0.41088
#
# Static dielectric constant tensor:
#      x y z
#    x 1.777690 0.000000 0.000000 
#    y 0.000000 1.734230 0.000000 
#    z 0.000000 0.000000 1.655320 
# 
# From -- ./inp_files/31254.got.cif
#   From: 2010.05.17/outbox.cif.g08.bks.cpg/sg58_16_cif.got.tgz:31254.got - 2010.06.03 14:20:14.
