data_PCOD9444818
_publ_section_title
;
Structure prediction by ZEFSAII (Michael W. Deem and Ramdas Pophale) SiO2 
 PCOD9444818
Probable space group: P N N M
;
_chemical_formula_sum "Si O2"
_cell_formula_units_Z 58
_cell_length_a 16.487954
_cell_length_b 19.804596
_cell_length_c 7.800594
_cell_angle_alpha 90.000000
_cell_angle_beta 90.000000
_cell_angle_gamma 90.000000
_cell_volume 2547.184652
_symmetry_space_group_name_H-M "P N N M"
_symmetry_group_IT_number 58
_symmetry_cell_setting 'orthorhombic'
loop_
_space_group_symop_operation_xyz
x,y,z
-x,-y,z
1/2+x,1/2-y,1/2-z
1/2-x,1/2+y,1/2-z
-x,-y,-z
x,y,-z
1/2-x,1/2+y,1/2+z
1/2+x,1/2-y,1/2+z
loop_
_atom_site_type_symbol
_atom_site_label
_atom_site_fract_x
_atom_site_fract_y
_atom_site_fract_z
Si Si1 0.114356 0.371141 0.696929
Si Si2 0.776400 0.749379 0.798241
Si Si3 0.934981 0.383524 0.798520
Si Si4 0.900207 0.235429 0.802463
Si Si5 0.500000 0.500000 0.000000
Si Si6 0.687943 0.996001 0.299972
Si Si7 0.174293 0.102147 0.795997
Si Si8 0.981525 0.097186 0.206457
O O1 0.096259 0.357994 0.500000
O O2 0.150229 0.302610 0.774241
O O3 0.178777 0.431674 0.712825
O O4 0.030544 0.395092 0.781638
O O5 0.695549 0.723010 0.708499
O O6 0.795818 0.824539 0.732831
O O7 0.759326 0.754056 0.000000
O O8 0.916669 0.309160 0.723180
O O9 0.879402 0.443471 0.727053
O O10 0.912916 0.381001 0.000000
O O11 0.947124 0.170035 0.739451
O O12 0.926891 0.240928 0.000000
O O13 0.453099 0.456956 0.154577
O O14 0.671331 0.008380 0.500000
O O15 0.772899 0.957597 0.282256
O O16 0.078608 0.098564 0.767929
O O17 0.187420 0.099531 0.000000
O O18 0.965003 0.084821 0.000000
#
# Coordination Sequence:
#
# PCOD9444818 Si02
#       8
#     8   8   8   8   2   8   8   8
#     4  12  26  41  61  93 132 173 216 265 324 386
#     4  11  23  41  67  97 132 169 219 273 330 398
#     4  10  21  41  67  95 130 169 212 267 329 394
#     4  10  21  42  68  97 131 170 216 274 338 392
#     4  12  26  44  68  98 128 180 230 288 332 418
#     4  11  23  40  66  96 131 173 217 263 324 397
#     4  10  22  43  68  95 129 172 217 274 336 397
#     4  10  24  45  69  98 137 179 226 286 344 402
#
# _framework density 22.770237999999999
#
# number of rings (size 3 to 8) (size 9 to 14) (size 15 to 20)
#    0.000    1.379    1.379    3.517    1.931    7.172 
#    2.483    1.379    0.000    0.000    0.000    0.000 
#    0.000    0.000    0.000    0.000    0.000    0.000 
#
# Total GULP energy -323699.674566 kJ/mol
# GULP energy per Si atom -5581.028872 kJ/mol
# Density = 2.271841 g / cm^3
# Si number density = 22.770238 Si / 1000 Ang^3
#
#
#
# Elastic Constant Matrix: (Units=GPa)
#
#
# Indices 1 2 3 4 5 6 
#
# 1 56.3504 1.5818 12.1157 0.0000 0.0000 0.0000
# 2 1.5818 63.5659 18.8031 0.0000 0.0000 0.0000
# 3 12.1157 18.8031 43.2475 0.0000 0.0000 0.0000
# 4 0.0000 0.0000 0.0000 9.1082 0.0000 0.0000
# 5 0.0000 0.0000 0.0000 0.0000 16.9666 0.0000
# 6 0.0000 0.0000 0.0000 0.0000 0.0000 25.6616
#
#
#
# Elastic Compliance Matrix: (Units=1/GPa)
#
#
# Indices 1 2 3 4 5 6 
#
# 1 0.018971 0.001262 -0.005864 0.000000 0.000000 0.000000
# 2 0.001262 0.018138 -0.008239 0.000000 0.000000 0.000000
# 3 -0.005864 -0.008239 0.028348 0.000000 0.000000 0.000000
# 4 0.000000 0.000000 0.000000 0.109791 0.000000 0.000000
# 5 0.000000 0.000000 0.000000 0.000000 0.058939 0.000000
# 6 0.000000 0.000000 0.000000 0.000000 0.000000 0.038969
#
#
# Mechanical properties :
#
#
# Convention : Reuss Voigt Hill
#
# Bulk Modulus (GPa) = 25.14125 25.35165 25.24645
# Shear Modulus (GPa) = 16.02072 19.05816 17.53944
#
# Velocity S-wave (km/s) = 2.65539 2.89619 2.77840
# Velocity P-wave (km/s) = 4.52401 4.72671 4.62647
#
# Compressibility (1/GPa) = 0.03977526
#
# Stress axis : x y z
#
# Youngs Moduli (GPa) = 52.71093 55.13419 35.27611
#
# Poissons Ratio (x) = -0.06960 0.20685
# Poissons Ratio (y) = -0.06654 0.29066
# Poissons Ratio (z) = 0.30908 0.45428
#
# Static dielectric constant tensor:
#      x y z
#    x 1.849380 0.000000 0.000000 
#    y 0.000000 1.881140 0.000000 
#    z 0.000000 0.000000 1.848240 
# 
# From -- ./inp_files/8027.got.cif
#   From: 2010.05.17/outbox.cif.g08.bks.cpg/sg58_5_cif.got.tgz:8027.got - 2010.06.03 14:20:14.
