data_PCOD9444990
_publ_section_title
;
Structure prediction by ZEFSAII (Michael W. Deem and Ramdas Pophale) SiO2 
 PCOD9444990
Probable space group: P N N M
;
_chemical_formula_sum "Si O2"
_cell_formula_units_Z 40
_cell_length_a 8.239386
_cell_length_b 11.715846
_cell_length_c 17.896829
_cell_angle_alpha 90.000000
_cell_angle_beta 90.000000
_cell_angle_gamma 90.000000
_cell_volume 1727.605556
_symmetry_space_group_name_H-M "P N N M"
_symmetry_group_IT_number 58
_symmetry_cell_setting 'orthorhombic'
loop_
_space_group_symop_operation_xyz
x,y,z
-x,-y,z
1/2+x,1/2-y,1/2-z
1/2-x,1/2+y,1/2-z
-x,-y,-z
x,y,-z
1/2-x,1/2+y,1/2+z
1/2+x,1/2-y,1/2+z
loop_
_atom_site_type_symbol
_atom_site_label
_atom_site_fract_x
_atom_site_fract_y
_atom_site_fract_z
Si Si1 0.237736 0.634283 0.147414
Si Si2 0.394796 0.831352 0.343741
Si Si3 0.832862 0.929936 0.816162
Si Si4 0.880236 0.634560 0.668886
Si Si5 0.567326 0.676976 0.086059
O O1 0.055948 0.617542 0.118815
O O2 0.280594 0.588504 0.229757
O O3 0.237466 0.772539 0.159223
O O4 0.395092 0.613118 0.096508
O O5 0.369461 0.694589 0.349992
O O6 0.420538 0.860617 0.256547
O O7 0.221166 0.876372 0.371662
O O8 0.692123 0.011570 0.850409
O O9 0.000000 0.000000 0.817437
O O10 0.020459 0.700132 0.623284
O O11 0.607807 0.689658 0.000000
#
# Coordination Sequence:
#
# PCOD9444990 Si02
#       5
#     8   8   8   8   8
#     4   9  21  35  57  86 123 155 209 255 305 365
#     4  11  20  37  59  88 119 157 208 254 302 372
#     4  11  18  34  63  92 120 161 207 262 306 356
#     4   9  19  36  57  89 119 153 207 255 299 366
#     4  10  22  39  59  88 130 166 198 256 320 368
#
# _framework density 23.153434000000001
#
# number of rings (size 3 to 8) (size 9 to 14) (size 15 to 20)
#    1.200    0.800    2.000    3.600    0.000    4.000 
#    0.000    2.000    0.000    7.800    0.000    7.000 
#    0.000    0.000    0.000    0.000    0.000    0.000 
#
# Total GULP energy -223039.381736 kJ/mol
# GULP energy per Si atom -5575.984543 kJ/mol
# Density = 2.310074 g / cm^3
# Si number density = 23.153434 Si / 1000 Ang^3
#
#
#
# Elastic Constant Matrix: (Units=GPa)
#
#
# Indices 1 2 3 4 5 6 
#
# 1 193.1652 27.4231 23.0825 0.0000 0.0000 0.0000
# 2 27.4231 83.8121 -16.3960 0.0000 0.0000 0.0000
# 3 23.0825 -16.3960 66.1951 0.0000 0.0000 0.0000
# 4 0.0000 0.0000 0.0000 -17.2312 0.0000 0.0000
# 5 0.0000 0.0000 0.0000 0.0000 -4.9500 0.0000
# 6 0.0000 0.0000 0.0000 0.0000 0.0000 31.4830
#
#
#
# Elastic Compliance Matrix: (Units=1/GPa)
#
#
# Indices 1 2 3 4 5 6 
#
# 1 0.005836 -0.002425 -0.002636 0.000000 0.000000 0.000000
# 2 -0.002425 0.013547 0.004201 0.000000 0.000000 0.000000
# 3 -0.002636 0.004201 0.017067 0.000000 0.000000 0.000000
# 4 0.000000 0.000000 0.000000 -0.058034 0.000000 0.000000
# 5 0.000000 0.000000 0.000000 0.000000 -0.202021 0.000000
# 6 0.000000 0.000000 0.000000 0.000000 0.000000 0.031763
#
#
# Mechanical properties :
#
#
# Convention : Reuss Voigt Hill
#
# Bulk Modulus (GPa) = 28.79373 45.71017 37.25195
# Shear Modulus (GPa) = -28.00391 22.46455 -2.76968
#
# Velocity S-wave (km/s) = -3.48155 3.11826 -1.09491
# Velocity P-wave (km/s) = 1.92316 5.72275 3.81126
#
# Compressibility (1/GPa) = 0.03472978
#
# Stress axis : x y z
#
# Youngs Moduli (GPa) = 171.34472 73.81797 58.59413
#
# Poissons Ratio (x) = 0.17903 0.15444
# Poissons Ratio (y) = 0.41555 -0.24616
# Poissons Ratio (z) = 0.45163 -0.31012
#
# Static dielectric constant tensor:
#      x y z
#    x 1.954420 0.000000 0.000000 
#    y 0.000000 1.949220 0.000000 
#    z 0.000000 0.000000 1.773130 
# 
# From -- ./inp_files/28799.got.cif
#   From: 2010.05.17/outbox.cif.g08.bks.cpg/sg58_15_cif.got.tgz:28799.got - 2010.06.03 14:20:14.
