data_PCOD9444589
_publ_section_title
;
Structure prediction by ZEFSAII (Michael W. Deem and Ramdas Pophale) SiO2 
 PCOD9444589
Probable space group: P N N M
;
_chemical_formula_sum "Si O2"
_cell_formula_units_Z 40
_cell_length_a 23.310439
_cell_length_b 8.884620
_cell_length_c 8.468265
_cell_angle_alpha 90.000000
_cell_angle_beta 90.000000
_cell_angle_gamma 90.000000
_cell_volume 1753.814879
_symmetry_space_group_name_H-M "P N N M"
_symmetry_group_IT_number 58
_symmetry_cell_setting 'orthorhombic'
loop_
_space_group_symop_operation_xyz
x,y,z
-x,-y,z
1/2+x,1/2-y,1/2-z
1/2-x,1/2+y,1/2-z
-x,-y,-z
x,y,-z
1/2-x,1/2+y,1/2+z
1/2+x,1/2-y,1/2+z
loop_
_atom_site_type_symbol
_atom_site_label
_atom_site_fract_x
_atom_site_fract_y
_atom_site_fract_z
Si Si1 0.000000 0.000000 0.734888
Si Si2 0.604072 0.342470 0.500000
Si Si3 0.369859 0.560503 0.828819
Si Si4 0.675796 0.008052 0.823816
Si Si5 0.543463 0.681160 0.500000
Si Si6 0.397052 0.993823 0.500000
Si Si7 0.771133 0.181401 0.323422
O O1 0.062476 0.017072 0.660442
O O2 0.993493 0.147676 0.844412
O O3 0.636474 0.345243 0.668389
O O4 0.581371 0.521929 0.500000
O O5 0.575496 0.174419 0.500000
O O6 0.329248 0.416165 0.808213
O O7 0.355403 0.629279 0.000000
O O8 0.636112 0.004128 0.668658
O O9 0.711330 0.853036 0.814812
O O10 0.724459 0.133720 0.802672
O O11 0.648584 0.013733 0.000000
O O12 0.570163 0.845018 0.500000
O O13 0.748053 0.148062 0.500000
#
# Coordination Sequence:
#
# PCOD9444589 Si02
#       7
#     4   4   8   8   4   4   8
#     4   9  17  38  68  99 125 174 227 265 330 399
#     4  10  23  39  67  94 126 166 219 263 318 396
#     4  10  21  38  65  95 131 170 218 275 329 382
#     4  11  25  40  61  91 127 171 220 264 320 394
#     4   9  20  42  68  98 132 170 219 275 329 385
#     4  12  25  45  67  96 134 177 214 267 340 383
#     4  10  23  41  60  92 127 169 218 262 322 393
#
# _framework density 22.807426
#
# number of rings (size 3 to 8) (size 9 to 14) (size 15 to 20)
#    0.000    1.800    1.000    3.300    5.600    0.800 
#    0.000    9.000    0.000    1.200    0.000    0.000 
#    0.000    0.000    0.000    0.000    0.000    0.000 
#
# Total GULP energy -222757.934807 kJ/mol
# GULP energy per Si atom -5568.948370 kJ/mol
# Density = 2.275552 g / cm^3
# Si number density = 22.807426 Si / 1000 Ang^3
#
#
#
# Elastic Constant Matrix: (Units=GPa)
#
#
# Indices 1 2 3 4 5 6 
#
# 1 77.2753 37.9531 49.8573 0.0000 0.0000 0.0000
# 2 37.9531 149.7173 41.7634 0.0000 0.0000 0.0000
# 3 49.8573 41.7634 182.4019 0.0000 0.0000 0.0000
# 4 0.0000 0.0000 0.0000 22.9711 0.0000 0.0000
# 5 0.0000 0.0000 0.0000 0.0000 20.9688 0.0000
# 6 0.0000 0.0000 0.0000 0.0000 0.0000 39.0924
#
#
#
# Elastic Compliance Matrix: (Units=1/GPa)
#
#
# Indices 1 2 3 4 5 6 
#
# 1 0.017058 -0.003230 -0.003923 0.000000 0.000000 0.000000
# 2 -0.003230 0.007747 -0.000891 0.000000 0.000000 0.000000
# 3 -0.003923 -0.000891 0.006759 0.000000 0.000000 0.000000
# 4 0.000000 0.000000 0.000000 0.043533 0.000000 0.000000
# 5 0.000000 0.000000 0.000000 0.000000 0.047690 0.000000
# 6 0.000000 0.000000 0.000000 0.000000 0.000000 0.025580
#
#
# Mechanical properties :
#
#
# Convention : Reuss Voigt Hill
#
# Bulk Modulus (GPa) = 64.61708 74.28246 69.44977
# Shear Modulus (GPa) = 29.47884 35.26115 32.37000
#
# Velocity S-wave (km/s) = 3.59905 3.93623 3.77141
# Velocity P-wave (km/s) = 6.75751 7.30060 7.03430
#
# Compressibility (1/GPa) = 0.01547578
#
# Stress axis : x y z
#
# Youngs Moduli (GPa) = 58.62268 129.09022 147.95737
#
# Poissons Ratio (x) = 0.41695 0.58046
# Poissons Ratio (y) = 0.18934 0.13180
# Poissons Ratio (z) = 0.22998 0.11500
#
# Static dielectric constant tensor:
#      x y z
#    x 1.941010 0.000000 0.000000 
#    y 0.000000 1.823260 0.000000 
#    z 0.000000 0.000000 1.939850 
# 
# From -- ./inp_files/10309.got.cif
#   From: 2010.05.17/outbox.cif.g08.bks.cpg/sg58_6_cif.got.tgz:10309.got - 2010.06.03 14:20:14.
