data_PCOD9444426
_publ_section_title
;
Structure prediction by ZEFSAII (Michael W. Deem and Ramdas Pophale) SiO2 
 PCOD9444426
Probable space group: P N N M
;
_chemical_formula_sum "Si O2"
_cell_formula_units_Z 40
_cell_length_a 24.690229
_cell_length_b 10.166891
_cell_length_c 8.155686
_cell_angle_alpha 90.000000
_cell_angle_beta 90.000000
_cell_angle_gamma 90.000000
_cell_volume 2047.263682
_symmetry_space_group_name_H-M "P N N M"
_symmetry_group_IT_number 58
_symmetry_cell_setting 'orthorhombic'
loop_
_space_group_symop_operation_xyz
x,y,z
-x,-y,z
1/2+x,1/2-y,1/2-z
1/2-x,1/2+y,1/2-z
-x,-y,-z
x,y,-z
1/2-x,1/2+y,1/2+z
1/2+x,1/2-y,1/2+z
loop_
_atom_site_type_symbol
_atom_site_label
_atom_site_fract_x
_atom_site_fract_y
_atom_site_fract_z
Si Si1 0.000000 0.000000 0.752376
Si Si2 0.896044 0.294211 0.500000
Si Si3 0.223209 0.042722 0.189605
Si Si4 0.625249 0.099852 0.000000
Si Si5 0.480237 0.727719 0.000000
Si Si6 0.384001 0.382646 0.319507
Si Si7 0.696270 0.164188 0.314186
O O1 0.978629 0.874782 0.649886
O O2 0.055562 0.943427 0.827057
O O3 0.875239 0.441980 0.500000
O O4 0.879978 0.215372 0.334893
O O5 0.961261 0.295007 0.500000
O O6 0.226583 0.197747 0.216883
O O7 0.161143 0.995052 0.207456
O O8 0.261553 0.955044 0.300852
O O9 0.238704 0.016060 0.000000
O O10 0.654235 0.146169 0.166990
O O11 0.566356 0.165783 0.000000
O O12 0.372850 0.322212 0.500000
O O13 0.673562 0.170885 0.500000
#
# Coordination Sequence:
#
# PCOD9444426 Si02
#       7
#     4   4   8   4   4   8   8
#     4   9  17  36  64  97 119 158 215 255 314 377
#     4  10  24  39  62  93 123 168 209 256 307 380
#     4  10  23  42  60  92 123 161 208 254 308 372
#     4  12  24  43  64  89 127 167 206 252 326 360
#     4   9  19  38  64  92 125 161 207 257 315 374
#     4  10  21  37  63  91 127 163 208 261 312 361
#     4  11  26  41  63  90 122 161 209 255 308 372
#
# _framework density 19.538273
#
# number of rings (size 3 to 8) (size 9 to 14) (size 15 to 20)
#    0.000    1.800    1.000    2.400    5.600    0.800 
#    0.000    4.000    0.000    6.000    0.000    0.000 
#    0.000    0.000    0.000    0.000    0.000    0.000 
#
# Total GULP energy -223138.085648 kJ/mol
# GULP energy per Si atom -5578.452141 kJ/mol
# Density = 1.949380 g / cm^3
# Si number density = 19.538273 Si / 1000 Ang^3
#
#
#
# Elastic Constant Matrix: (Units=GPa)
#
#
# Indices 1 2 3 4 5 6 
#
# 1 25.5512 5.9368 20.1662 0.0000 0.0000 0.0000
# 2 5.9368 83.1190 47.3469 0.0000 0.0000 0.0000
# 3 20.1662 47.3469 113.2790 0.0000 0.0000 0.0000
# 4 0.0000 0.0000 0.0000 259.2770 0.0000 0.0000
# 5 0.0000 0.0000 0.0000 0.0000 29.4324 0.0000
# 6 0.0000 0.0000 0.0000 0.0000 0.0000 25.3792
#
#
#
# Elastic Compliance Matrix: (Units=1/GPa)
#
#
# Indices 1 2 3 4 5 6 
#
# 1 0.045739 0.001800 -0.008895 0.000000 0.000000 0.000000
# 2 0.001800 0.015861 -0.006950 0.000000 0.000000 0.000000
# 3 -0.008895 -0.006950 0.013316 0.000000 0.000000 0.000000
# 4 0.000000 0.000000 0.000000 0.003857 0.000000 0.000000
# 5 0.000000 0.000000 0.000000 0.000000 0.033976 0.000000
# 6 0.000000 0.000000 0.000000 0.000000 0.000000 0.039402
#
#
# Mechanical properties :
#
#
# Convention : Reuss Voigt Hill
#
# Bulk Modulus (GPa) = 21.35534 40.98321 31.16928
# Shear Modulus (GPa) = 25.52966 72.71767 49.12366
#
# Velocity S-wave (km/s) = 3.61868 6.10728 5.01965
# Velocity P-wave (km/s) = 5.33043 8.41149 7.04155
#
# Compressibility (1/GPa) = 0.04682669
#
# Stress axis : x y z
#
# Youngs Moduli (GPa) = 21.86308 63.04680 75.09724
#
# Poissons Ratio (x) = -0.11347 0.66798
# Poissons Ratio (y) = -0.03935 0.52192
# Poissons Ratio (z) = 0.19447 0.43817
#
# Static dielectric constant tensor:
#      x y z
#    x 1.678220 0.000000 0.000000 
#    y 0.000000 1.648070 0.000000 
#    z 0.000000 0.000000 1.723700 
# 
# From -- ./inp_files/2686.got.cif
#   From: 2010.05.17/outbox.cif.g08.bks.cpg/sg58_2_cif.got.tgz:2686.got - 2010.06.03 14:20:14.
