data_PCOD9444669
_publ_section_title
;
Structure prediction by ZEFSAII (Michael W. Deem and Ramdas Pophale) SiO2 
 PCOD9444669
Probable space group: P N N M
;
_chemical_formula_sum "Si O2"
_cell_formula_units_Z 48
_cell_length_a 27.864889
_cell_length_b 10.255701
_cell_length_c 7.826273
_cell_angle_alpha 90.000000
_cell_angle_beta 90.000000
_cell_angle_gamma 90.000000
_cell_volume 2236.545105
_symmetry_space_group_name_H-M "P N N M"
_symmetry_group_IT_number 58
_symmetry_cell_setting 'orthorhombic'
loop_
_space_group_symop_operation_xyz
x,y,z
-x,-y,z
1/2+x,1/2-y,1/2-z
1/2-x,1/2+y,1/2-z
-x,-y,-z
x,y,-z
1/2-x,1/2+y,1/2+z
1/2+x,1/2-y,1/2+z
loop_
_atom_site_type_symbol
_atom_site_label
_atom_site_fract_x
_atom_site_fract_y
_atom_site_fract_z
Si Si1 0.326699 0.234310 0.697165
Si Si2 0.462111 0.608187 0.293195
Si Si3 0.460418 0.900703 0.796668
Si Si4 0.218976 0.233249 0.801412
Si Si5 0.646475 0.050412 0.801479
Si Si6 0.856744 0.982412 0.790788
O O1 0.341727 0.221889 0.500000
O O2 0.269183 0.245340 0.706681
O O3 0.348111 0.369616 0.766240
O O4 0.342862 0.102526 0.788049
O O5 0.500000 0.500000 0.235617
O O6 0.462027 0.608749 0.500000
O O7 0.475203 0.752169 0.232977
O O8 0.408284 0.572118 0.236239
O O9 0.406442 0.920470 0.728315
O O10 0.500000 0.000000 0.726036
O O11 0.456939 0.925249 0.000000
O O12 0.187153 0.363525 0.787980
O O13 0.185733 0.114649 0.736651
O O14 0.230378 0.207958 0.000000
O O15 0.647594 0.090200 0.000000
O O16 0.856049 0.982393 0.000000
#
# Coordination Sequence:
#
# PCOD9444669 Si02
#       6
#     8   8   8   8   8   8
#     4  11  23  38  60  90 123 159 199 247 301 360
#     4  10  21  39  64  91 117 150 195 245 300 362
#     4  10  23  42  62  87 122 160 199 247 301 357
#     4  11  21  39  64  88 119 159 201 250 304 359
#     4  11  23  40  60  87 123 162 204 249 296 356
#     4   9  20  38  58  85 120 152 190 244 298 348
#
# _framework density 21.461675
#
# number of rings (size 3 to 8) (size 9 to 14) (size 15 to 20)
#    0.000    1.667    1.667    2.500    2.333    2.667 
#    0.000    4.167    0.000    0.000    0.000    0.000 
#    0.000    0.000    0.000    0.000    0.000    0.000 
#
# Total GULP energy -268408.014800 kJ/mol
# GULP energy per Si atom -5591.833642 kJ/mol
# Density = 2.141283 g / cm^3
# Si number density = 21.461675 Si / 1000 Ang^3
#
#
#
# Elastic Constant Matrix: (Units=GPa)
#
#
# Indices 1 2 3 4 5 6 
#
# 1 75.2075 34.4703 -10.4653 0.0000 0.0000 0.0000
# 2 34.4703 135.8031 -20.5981 0.0000 0.0000 0.0000
# 3 -10.4653 -20.5981 28.9215 0.0000 0.0000 0.0000
# 4 0.0000 0.0000 0.0000 12.3677 0.0000 0.0000
# 5 0.0000 0.0000 0.0000 0.0000 0.9082 0.0000
# 6 0.0000 0.0000 0.0000 0.0000 0.0000 42.3283
#
#
#
# Elastic Compliance Matrix: (Units=1/GPa)
#
#
# Indices 1 2 3 4 5 6 
#
# 1 0.015292 -0.003411 0.003104 0.000000 0.000000 0.000000
# 2 -0.003411 0.009016 0.005187 0.000000 0.000000 0.000000
# 3 0.003104 0.005187 0.039394 0.000000 0.000000 0.000000
# 4 0.000000 0.000000 0.000000 0.080856 0.000000 0.000000
# 5 0.000000 0.000000 0.000000 0.000000 1.101112 0.000000
# 6 0.000000 0.000000 0.000000 0.000000 0.000000 0.023625
#
#
# Mechanical properties :
#
#
# Convention : Reuss Voigt Hill
#
# Bulk Modulus (GPa) = 13.61220 27.41621 20.51421
# Shear Modulus (GPa) = 3.89402 26.88916 15.39159
#
# Velocity S-wave (km/s) = 1.34846 3.54346 2.68090
# Velocity P-wave (km/s) = 2.96324 5.43541 4.37747
#
# Compressibility (1/GPa) = 0.07346353
#
# Stress axis : x y z
#
# Youngs Moduli (GPa) = 65.39487 110.91301 25.38458
#
# Poissons Ratio (x) = 0.37828 -0.07880
# Poissons Ratio (y) = 0.22304 -0.13167
# Poissons Ratio (z) = -0.20300 -0.57533
#
# Static dielectric constant tensor:
#      x y z
#    x 1.751500 0.000000 0.000000 
#    y 0.000000 1.736620 0.000000 
#    z 0.000000 0.000000 1.782790 
# 
# From -- ./inp_files/10745.got.cif
#   From: 2010.05.17/outbox.cif.g08.bks.cpg/sg58_6_cif.got.tgz:10745.got - 2010.06.03 14:20:14.
