data_PCOD9444292
_publ_section_title
;
Structure prediction by ZEFSAII (Michael W. Deem and Ramdas Pophale) SiO2 
 PCOD9444292
Probable space group: P N N M
;
_chemical_formula_sum "Si O2"
_cell_formula_units_Z 48
_cell_length_a 21.397803
_cell_length_b 8.966655
_cell_length_c 12.857109
_cell_angle_alpha 90.000000
_cell_angle_beta 90.000000
_cell_angle_gamma 90.000000
_cell_volume 2466.851297
_symmetry_space_group_name_H-M "P N N M"
_symmetry_group_IT_number 58
_symmetry_cell_setting 'orthorhombic'
loop_
_space_group_symop_operation_xyz
x,y,z
-x,-y,z
1/2+x,1/2-y,1/2-z
1/2-x,1/2+y,1/2-z
-x,-y,-z
x,y,-z
1/2-x,1/2+y,1/2+z
1/2+x,1/2-y,1/2+z
loop_
_atom_site_type_symbol
_atom_site_label
_atom_site_fract_x
_atom_site_fract_y
_atom_site_fract_z
Si Si1 0.392130 0.702999 0.880625
Si Si2 0.766650 0.622218 0.618046
Si Si3 0.487289 0.329139 0.237377
Si Si4 0.193287 0.625008 0.230715
Si Si5 0.564714 0.911587 0.376669
Si Si6 0.866643 0.134000 0.380490
O O1 0.338671 0.825404 0.880912
O O2 0.448030 0.739102 0.802566
O O3 0.363461 0.541003 0.851428
O O4 0.415453 0.685871 0.000000
O O5 0.750908 0.572056 0.500000
O O6 0.764789 0.495430 0.707193
O O7 0.727945 0.771787 0.645725
O O8 0.500000 0.500000 0.262713
O O9 0.453590 0.250715 0.333105
O O10 0.438770 0.325194 0.141892
O O11 0.130331 0.552176 0.180918
O O12 0.172150 0.749046 0.314349
O O13 0.574490 0.918118 0.500000
O O14 0.500000 0.000000 0.353017
O O15 0.849647 0.147672 0.500000
#
# Coordination Sequence:
#
# PCOD9444292 Si02
#       6
#     8   8   8   8   8   8
#     4   9  17  31  52  79 110 141 176 222 277 333
#     4  11  23  38  57  81 110 145 187 233 283 343
#     4   9  17  30  52  80 108 138 176 224 276 329
#     4  11  22  38  58  80 112 148 189 238 290 343
#     4  10  21  37  56  78 108 147 189 233 283 341
#     4   9  17  31  53  80 109 142 179 223 278 336
#
# _framework density 19.458003000000001
#
# number of rings (size 3 to 8) (size 9 to 14) (size 15 to 20)
#    0.000    2.167    0.000    3.500    0.000    2.333 
#    0.000    2.500    0.000   16.000    0.000    0.000 
#    0.000    0.000    0.000    0.000    0.000    0.000 
#
# Total GULP energy -267411.087241 kJ/mol
# GULP energy per Si atom -5571.064318 kJ/mol
# Density = 1.941372 g / cm^3
# Si number density = 19.458003 Si / 1000 Ang^3
#
#
#
# Elastic Constant Matrix: (Units=GPa)
#
#
# Indices 1 2 3 4 5 6 
#
# 1 52.1135 14.9572 26.0801 0.0000 0.0000 0.0000
# 2 14.9572 28.4292 24.8588 0.0000 0.0000 0.0000
# 3 26.0801 24.8588 76.7747 0.0000 0.0000 0.0000
# 4 0.0000 0.0000 0.0000 26.9062 0.0000 0.0000
# 5 0.0000 0.0000 0.0000 0.0000 22.5609 0.0000
# 6 0.0000 0.0000 0.0000 0.0000 0.0000 31.7534
#
#
#
# Elastic Compliance Matrix: (Units=1/GPa)
#
#
# Indices 1 2 3 4 5 6 
#
# 1 0.024288 -0.007762 -0.005737 0.000000 0.000000 0.000000
# 2 -0.007762 0.051547 -0.014054 0.000000 0.000000 0.000000
# 3 -0.005737 -0.014054 0.019525 0.000000 0.000000 0.000000
# 4 0.000000 0.000000 0.000000 0.037166 0.000000 0.000000
# 5 0.000000 0.000000 0.000000 0.000000 0.044324 0.000000
# 6 0.000000 0.000000 0.000000 0.000000 0.000000 0.031493
#
#
# Mechanical properties :
#
#
# Convention : Reuss Voigt Hill
#
# Bulk Modulus (GPa) = 24.84213 32.12330 28.48271
# Shear Modulus (GPa) = 18.05921 22.33885 20.19903
#
# Velocity S-wave (km/s) = 3.04980 3.39197 3.22543
# Velocity P-wave (km/s) = 5.01961 5.64673 5.34238
#
# Compressibility (1/GPa) = 0.04025420
#
# Stress axis : x y z
#
# Youngs Moduli (GPa) = 41.17290 19.39960 51.21743
#
# Poissons Ratio (x) = 0.15057 0.29385
# Poissons Ratio (y) = 0.31956 0.71981
# Poissons Ratio (z) = 0.23623 0.27264
#
# Static dielectric constant tensor:
#      x y z
#    x 1.703050 0.000000 0.000000 
#    y 0.000000 1.690110 0.000000 
#    z 0.000000 0.000000 1.667010 
# 
# From -- ./inp_files/13072.got.cif
#   From: 2010.05.17/outbox.cif.g08.bks.cpg/sg58_7_cif.got.tgz:13072.got - 2010.06.03 14:20:14.
