data_PCOD9444060
_publ_section_title
;
Structure prediction by ZEFSAII (Michael W. Deem and Ramdas Pophale) SiO2 
 PCOD9444060
Probable space group: P N N M
;
_chemical_formula_sum "Si O2"
_cell_formula_units_Z 48
_cell_length_a 27.473833
_cell_length_b 4.902079
_cell_length_c 13.285176
_cell_angle_alpha 90.000000
_cell_angle_beta 90.000000
_cell_angle_gamma 90.000000
_cell_volume 1789.232887
_symmetry_space_group_name_H-M "P N N M"
_symmetry_group_IT_number 58
_symmetry_cell_setting 'orthorhombic'
loop_
_space_group_symop_operation_xyz
x,y,z
-x,-y,z
1/2+x,1/2-y,1/2-z
1/2-x,1/2+y,1/2-z
-x,-y,-z
x,y,-z
1/2-x,1/2+y,1/2+z
1/2+x,1/2-y,1/2+z
loop_
_atom_site_type_symbol
_atom_site_label
_atom_site_fract_x
_atom_site_fract_y
_atom_site_fract_z
Si Si1 0.886784 0.485093 0.182628
Si Si2 0.396780 0.212378 0.113343
Si Si3 0.442723 0.549132 0.612277
Si Si4 0.460830 0.710152 0.117557
Si Si5 0.704105 0.318407 0.662767
Si Si6 0.236059 0.177933 0.388581
O O1 0.866693 0.369493 0.288734
O O2 0.929008 0.714439 0.189957
O O3 0.845196 0.667867 0.131375
O O4 0.911559 0.223833 0.131166
O O5 0.411383 0.527192 0.119619
O O6 0.445084 0.024851 0.132598
O O7 0.379299 0.155856 0.000000
O O8 0.500000 0.500000 0.615431
O O9 0.432173 0.654328 0.500000
O O10 0.500000 0.500000 0.166451
O O11 0.474831 0.720046 0.000000
O O12 0.746484 0.133139 0.616677
O O13 0.706646 0.295352 0.784435
O O14 0.716950 0.622506 0.627523
O O15 0.215072 0.231217 0.500000
#
# Coordination Sequence:
#
# PCOD9444060 Si02
#       6
#     8   8   8   8   8   8
#     4  12  24  40  65  93 125 164 210 266 317 371
#     4  10  21  34  50  78 113 148 187 233 291 360
#     4  11  26  46  65  88 121 165 219 275 325 365
#     4   9  17  30  47  68  99 140 186 234 281 337
#     4  10  23  39  61  99 129 159 213 254 302 386
#     4  10  21  41  66  92 131 169 197 249 316 377
#
# _framework density 26.827138000000001
#
# number of rings (size 3 to 8) (size 9 to 14) (size 15 to 20)
#    0.000    1.667    0.000    4.000    0.000   12.000 
#    0.000    0.000    0.000    8.000    0.000    0.000 
#    0.000    0.000    0.000    0.000    0.000    0.000 
#
# Total GULP energy -268202.534217 kJ/mol
# GULP energy per Si atom -5587.552796 kJ/mol
# Density = 2.676608 g / cm^3
# Si number density = 26.827138 Si / 1000 Ang^3
#
#
#
# Elastic Constant Matrix: (Units=GPa)
#
#
# Indices 1 2 3 4 5 6 
#
# 1 33.5198 1.7529 3.4850 0.0000 0.0000 0.0000
# 2 1.7529 142.1393 20.7484 0.0000 0.0000 0.0000
# 3 3.4850 20.7484 166.5349 0.0000 0.0000 0.0000
# 4 0.0000 0.0000 0.0000 31.8268 0.0000 0.0000
# 5 0.0000 0.0000 0.0000 0.0000 30.0389 0.0000
# 6 0.0000 0.0000 0.0000 0.0000 0.0000 39.7559
#
#
#
# Elastic Compliance Matrix: (Units=1/GPa)
#
#
# Indices 1 2 3 4 5 6 
#
# 1 0.029909 -0.000283 -0.000591 0.000000 0.000000 0.000000
# 2 -0.000283 0.007168 -0.000887 0.000000 0.000000 0.000000
# 3 -0.000591 -0.000887 0.006128 0.000000 0.000000 0.000000
# 4 0.000000 0.000000 0.000000 0.031420 0.000000 0.000000
# 5 0.000000 0.000000 0.000000 0.000000 0.033290 0.000000
# 6 0.000000 0.000000 0.000000 0.000000 0.000000 0.025153
#
#
# Mechanical properties :
#
#
# Convention : Reuss Voigt Hill
#
# Bulk Modulus (GPa) = 25.19890 43.79630 34.49760
# Shear Modulus (GPa) = 33.37382 41.40484 37.38933
#
# Velocity S-wave (km/s) = 3.53091 3.93287 3.73730
# Velocity P-wave (km/s) = 5.10260 6.08145 5.61340
#
# Compressibility (1/GPa) = 0.03968426
#
# Stress axis : x y z
#
# Youngs Moduli (GPa) = 33.43445 139.50229 163.19491
#
# Poissons Ratio (x) = 0.03943 0.09640
# Poissons Ratio (y) = 0.00945 0.14478
# Poissons Ratio (z) = 0.01975 0.12376
#
# Static dielectric constant tensor:
#      x y z
#    x 2.189230 0.000000 0.000000 
#    y 0.000000 2.024200 0.000000 
#    z 0.000000 0.000000 2.144380 
# 
# From -- ./inp_files/23736.got.cif
#   From: 2010.05.17/outbox.cif.g08.bks.cpg/sg58_12_cif.got.tgz:23736.got - 2010.06.03 14:20:14.
