data_PCOD9444903
_publ_section_title
;
Structure prediction by ZEFSAII (Michael W. Deem and Ramdas Pophale) SiO2 
 PCOD9444903
Probable space group: P N N M
;
_chemical_formula_sum "Si O2"
_cell_formula_units_Z 64
_cell_length_a 21.779544
_cell_length_b 7.859681
_cell_length_c 18.859446
_cell_angle_alpha 90.000000
_cell_angle_beta 90.000000
_cell_angle_gamma 90.000000
_cell_volume 3228.365024
_symmetry_space_group_name_H-M "P N N M"
_symmetry_group_IT_number 58
_symmetry_cell_setting 'orthorhombic'
loop_
_space_group_symop_operation_xyz
x,y,z
-x,-y,z
1/2+x,1/2-y,1/2-z
1/2-x,1/2+y,1/2-z
-x,-y,-z
x,y,-z
1/2-x,1/2+y,1/2+z
1/2+x,1/2-y,1/2+z
loop_
_atom_site_type_symbol
_atom_site_label
_atom_site_fract_x
_atom_site_fract_y
_atom_site_fract_z
Si Si1 0.500850 0.802382 0.083294
Si Si2 0.888727 0.857569 0.656526
Si Si3 0.628917 0.729311 0.857234
Si Si4 0.854179 0.302436 0.197299
Si Si5 0.723774 0.146765 0.194463
Si Si6 0.070887 0.045680 0.187397
Si Si7 0.743253 0.869702 0.078458
Si Si8 0.160932 0.344819 0.150001
O O1 0.439698 0.699899 0.101286
O O2 0.558569 0.720831 0.121518
O O3 0.500000 0.000000 0.106914
O O4 0.511435 0.800718 0.000000
O O5 0.837264 0.713507 0.656716
O O6 0.923769 0.888463 0.731117
O O7 0.851930 0.033269 0.648662
O O8 0.633676 0.823705 0.781718
O O9 0.672571 0.813467 0.914684
O O10 0.781534 0.271809 0.191618
O O11 0.869223 0.467898 0.150776
O O12 0.890868 0.129900 0.178959
O O13 0.700427 0.144512 0.276007
O O14 0.749231 0.988535 0.148396
O O15 0.108335 0.198620 0.149466
O O16 0.000000 0.000000 0.170454
O O17 0.789615 0.712993 0.091737
O O18 0.754454 0.944284 0.000000
#
# Coordination Sequence:
#
# PCOD9444903 Si02
#       8
#     8   8   8   8   8   8   8   8
#     4  11  24  39  52  76 125 180 220 258 317 388
#     4  10  22  36  57  84 123 168 222 265 316 373
#     4  11  21  37  59  87 119 169 222 272 316 373
#     4  11  21  37  65  94 125 161 221 271 320 381
#     4  11  20  39  62  90 125 172 215 265 324 381
#     4  10  22  39  60  97 129 155 210 278 324 384
#     4  12  24  39  62  99 136 167 217 277 333 395
#     4  11  21  39  66  91 124 175 211 268 331 385
#
# _framework density 19.824278
#
# number of rings (size 3 to 8) (size 9 to 14) (size 15 to 20)
#    0.000    1.125    3.750    3.750    3.500    3.500 
#    0.000    1.875    0.000    0.375    0.000    0.875 
#    0.000    0.000    0.000    0.000    0.000    0.000 
#
# Total GULP energy -356732.182924 kJ/mol
# GULP energy per Si atom -5573.940358 kJ/mol
# Density = 1.977916 g / cm^3
# Si number density = 19.824278 Si / 1000 Ang^3
#
#
#
# Elastic Constant Matrix: (Units=GPa)
#
#
# Indices 1 2 3 4 5 6 
#
# 1 108.6658 26.6849 15.0246 0.0000 0.0000 0.0000
# 2 26.6849 72.3210 0.8738 0.0000 0.0000 0.0000
# 3 15.0246 0.8738 33.3512 0.0000 0.0000 0.0000
# 4 0.0000 0.0000 0.0000 14.9150 0.0000 0.0000
# 5 0.0000 0.0000 0.0000 0.0000 13.4593 0.0000
# 6 0.0000 0.0000 0.0000 0.0000 0.0000 24.4433
#
#
#
# Elastic Compliance Matrix: (Units=1/GPa)
#
#
# Indices 1 2 3 4 5 6 
#
# 1 0.010830 -0.003938 -0.004776 0.000000 0.000000 0.000000
# 2 -0.003938 0.015264 0.001374 0.000000 0.000000 0.000000
# 3 -0.004776 0.001374 0.032099 0.000000 0.000000 0.000000
# 4 0.000000 0.000000 0.000000 0.067047 0.000000 0.000000
# 5 0.000000 0.000000 0.000000 0.000000 0.074298 0.000000
# 6 0.000000 0.000000 0.000000 0.000000 0.000000 0.040911
#
#
# Mechanical properties :
#
#
# Convention : Reuss Voigt Hill
#
# Bulk Modulus (GPa) = 22.98128 33.27829 28.12979
# Shear Modulus (GPa) = 18.54374 22.01383 20.27879
#
# Velocity S-wave (km/s) = 3.06176 3.33595 3.20179
# Velocity P-wave (km/s) = 4.91089 5.62683 5.28100
#
# Compressibility (1/GPa) = 0.04351367
#
# Stress axis : x y z
#
# Youngs Moduli (GPa) = 92.33647 65.51448 31.15329
#
# Poissons Ratio (x) = 0.25802 0.14878
# Poissons Ratio (y) = 0.36365 -0.04281
# Poissons Ratio (z) = 0.44097 -0.09004
#
# Static dielectric constant tensor:
#      x y z
#    x 1.670650 0.000000 0.000000 
#    y 0.000000 1.875330 0.000000 
#    z 0.000000 0.000000 1.684060 
# 
# From -- ./inp_files/27542.got.cif
#   From: 2010.05.17/outbox.cif.g08.bks.cpg/sg58_14_cif.got.tgz:27542.got - 2010.06.03 14:20:14.
