data_PCOD9444585
_publ_section_title
;
Structure prediction by ZEFSAII (Michael W. Deem and Ramdas Pophale) SiO2 
 PCOD9444585
Probable space group: P N N M
;
_chemical_formula_sum "Si O2"
_cell_formula_units_Z 30
_cell_length_a 31.258805
_cell_length_b 8.157680
_cell_length_c 5.248902
_cell_angle_alpha 90.000000
_cell_angle_beta 90.000000
_cell_angle_gamma 90.000000
_cell_volume 1338.466485
_symmetry_space_group_name_H-M "P N N M"
_symmetry_group_IT_number 58
_symmetry_cell_setting 'orthorhombic'
loop_
_space_group_symop_operation_xyz
x,y,z
-x,-y,z
1/2+x,1/2-y,1/2-z
1/2-x,1/2+y,1/2-z
-x,-y,-z
x,y,-z
1/2-x,1/2+y,1/2+z
1/2+x,1/2-y,1/2+z
loop_
_atom_site_type_symbol
_atom_site_label
_atom_site_fract_x
_atom_site_fract_y
_atom_site_fract_z
Si Si1 0.841796 0.463662 0.500000
Si Si2 0.751181 0.325750 0.500000
Si Si3 0.475791 0.295458 0.500000
Si Si4 0.572655 0.249655 0.500000
Si Si5 0.612635 0.893874 0.500000
Si Si6 0.381989 0.667482 0.000000
Si Si7 0.500000 0.500000 0.000000
Si Si8 0.208082 0.038085 0.500000
O O1 0.791024 0.451174 0.500000
O O2 0.859397 0.372181 0.748832
O O3 0.859436 0.651079 0.500000
O O4 0.723630 0.364626 0.250124
O O5 0.770678 0.142411 0.500000
O O6 0.522588 0.208268 0.500000
O O7 0.431764 0.199341 0.500000
O O8 0.477934 0.390324 0.231411
O O9 0.587542 0.342076 0.754301
O O10 0.599083 0.083621 0.500000
O O11 0.343413 0.539662 0.000000
#
# Coordination Sequence:
#
# PCOD9444585 Si02
#       8
#     4   4   4   4   4   4   2   4
#     4  10  21  39  61  96 130 165 207 265 321 376
#     4  12  25  44  69  99 130 173 216 266 327 395
#     4  11  21  42  60  88 121 169 216 252 314 365
#     4  10  21  38  65  91 122 160 211 264 312 364
#     4  10  21  38  65  91 122 160 211 264 312 364
#     4  10  21  39  61  96 130 165 207 265 321 376
#     4  10  24  38  54  82 120 166 208 244 320 366
#     4  12  25  44  69  99 130 173 216 266 327 395
#
# _framework density 22.413709999999998
#
# number of rings (size 3 to 8) (size 9 to 14) (size 15 to 20)
#    0.000    1.333    0.000    6.000    0.000    2.133 
#   14.400    5.333    0.000    0.000    0.000    0.000 
#    0.000    0.000    0.000    0.000    0.000    0.000 
#
# Total GULP energy -167278.762106 kJ/mol
# GULP energy per Si atom -5575.958737 kJ/mol
# Density = 2.236270 g / cm^3
# Si number density = 22.413710 Si / 1000 Ang^3
#
#
#
# Elastic Constant Matrix: (Units=GPa)
#
#
# Indices 1 2 3 4 5 6 
#
# 1 82.1595 -21.4612 23.9203 0.0000 0.0000 0.0000
# 2 -21.4612 32.1800 16.7669 0.0000 0.0000 0.0000
# 3 23.9203 16.7669 223.3940 0.0000 0.0000 0.0000
# 4 0.0000 0.0000 0.0000 -19.3263 0.0000 0.0000
# 5 0.0000 0.0000 0.0000 0.0000 39.7788 0.0000
# 6 0.0000 0.0000 0.0000 0.0000 0.0000 45.6836
#
#
#
# Elastic Compliance Matrix: (Units=1/GPa)
#
#
# Indices 1 2 3 4 5 6 
#
# 1 0.016101 0.012110 -0.002633 0.000000 0.000000 0.000000
# 2 0.012110 0.041448 -0.004408 0.000000 0.000000 0.000000
# 3 -0.002633 -0.004408 0.005089 0.000000 0.000000 0.000000
# 4 0.000000 0.000000 0.000000 -0.051743 0.000000 0.000000
# 5 0.000000 0.000000 0.000000 0.000000 0.025139 0.000000
# 6 0.000000 0.000000 0.000000 0.000000 0.000000 0.021890
#
#
# Mechanical properties :
#
#
# Convention : Reuss Voigt Hill
#
# Bulk Modulus (GPa) = 13.74050 41.79839 27.76945
# Shear Modulus (GPa) = 69.40155 34.46106 51.93130
#
# Velocity S-wave (km/s) = 5.57056 3.92535 4.81869
# Velocity P-wave (km/s) = 6.89337 6.26367 6.58605
#
# Compressibility (1/GPa) = 0.07277757
#
# Stress axis : x y z
#
# Youngs Moduli (GPa) = 62.10652 24.12655 196.49668
#
# Poissons Ratio (x) = -0.29217 0.51738
# Poissons Ratio (y) = -0.75212 0.86608
# Poissons Ratio (z) = 0.16353 0.10634
#
# Static dielectric constant tensor:
#      x y z
#    x 1.791930 0.000000 0.000000 
#    y 0.000000 1.880330 0.000000 
#    z 0.000000 0.000000 1.799330 
# 
# From -- ./inp_files/287.got.cif
#   From: 2010.05.17/outbox.cif.g08.bks.cpg/sg58_1_cif.got.tgz:287.got - 2010.06.03 14:20:14.
