data_PCOD9444049
_publ_section_title
;
Structure prediction by ZEFSAII (Michael W. Deem and Ramdas Pophale) SiO2 
 PCOD9444049
Probable space group: P N N M
;
_chemical_formula_sum "Si O2"
_cell_formula_units_Z 48
_cell_length_a 7.471018
_cell_length_b 12.904353
_cell_length_c 21.053567
_cell_angle_alpha 90.000000
_cell_angle_beta 90.000000
_cell_angle_gamma 90.000000
_cell_volume 2029.746047
_symmetry_space_group_name_H-M "P N N M"
_symmetry_group_IT_number 58
_symmetry_cell_setting 'orthorhombic'
loop_
_space_group_symop_operation_xyz
x,y,z
-x,-y,z
1/2+x,1/2-y,1/2-z
1/2-x,1/2+y,1/2-z
-x,-y,-z
x,y,-z
1/2-x,1/2+y,1/2+z
1/2+x,1/2-y,1/2+z
loop_
_atom_site_type_symbol
_atom_site_label
_atom_site_fract_x
_atom_site_fract_y
_atom_site_fract_z
Si Si1 0.446359 0.692191 0.073199
Si Si2 0.273595 0.399997 0.842531
Si Si3 0.635947 0.139446 0.171069
Si Si4 0.464562 0.123298 0.429340
Si Si5 0.299254 0.544238 0.730186
Si Si6 0.471879 0.272331 0.732283
O O1 0.453119 0.801044 0.112519
O O2 0.244538 0.647369 0.078302
O O3 0.613774 0.666013 0.207865
O O4 0.482899 0.713097 0.000000
O O5 0.245152 0.505803 0.801657
O O6 0.025381 0.336765 0.736135
O O7 0.411062 0.391915 0.901170
O O8 0.094173 0.347204 0.870641
O O9 0.686603 0.018771 0.177567
O O10 0.823980 0.202582 0.179776
O O11 0.516400 0.164481 0.500000
O O12 0.500000 0.000000 0.430912
O O13 0.500000 0.500000 0.720796
O O14 0.342698 0.664471 0.721641
#
# Coordination Sequence:
#
# PCOD9444049 Si02
#       6
#     8   8   8   8   8   8
#     4  10  21  33  49  73 100 140 180 214 258 311
#     4   9  18  33  51  66 104 135 171 214 259 307
#     4   9  18  32  51  73 102 133 171 214 261 316
#     4  10  22  31  43  71 101 139 181 210 249 309
#     4   8  17  32  52  75 100 137 169 210 273 308
#     4   9  19  32  53  79 101 137 170 212 280 309
#
# _framework density 23.64828
#
# number of rings (size 3 to 8) (size 9 to 14) (size 15 to 20)
#    0.000    3.167    0.000    0.500   14.000    0.000 
#    0.000    3.333    0.000    4.500    0.000    0.000 
#    0.000    7.333    0.000    0.000    0.000    0.000 
#
# Total GULP energy -267516.645924 kJ/mol
# GULP energy per Si atom -5573.263457 kJ/mol
# Density = 2.359446 g / cm^3
# Si number density = 23.648280 Si / 1000 Ang^3
#
#
#
# Elastic Constant Matrix: (Units=GPa)
#
#
# Indices 1 2 3 4 5 6 
#
# 1 109.2117 -13.8411 10.5056 0.0000 0.0000 0.0000
# 2 -13.8411 70.3529 23.4710 0.0000 0.0000 0.0000
# 3 10.5056 23.4710 103.3308 0.0000 0.0000 0.0000
# 4 0.0000 0.0000 0.0000 19.1357 0.0000 0.0000
# 5 0.0000 0.0000 0.0000 0.0000 32.6671 0.0000
# 6 0.0000 0.0000 0.0000 0.0000 0.0000 34.4027
#
#
#
# Elastic Compliance Matrix: (Units=1/GPa)
#
#
# Indices 1 2 3 4 5 6 
#
# 1 0.009607 0.002398 -0.001521 0.000000 0.000000 0.000000
# 2 0.002398 0.015978 -0.003873 0.000000 0.000000 0.000000
# 3 -0.001521 -0.003873 0.010712 0.000000 0.000000 0.000000
# 4 0.000000 0.000000 0.000000 0.052258 0.000000 0.000000
# 5 0.000000 0.000000 0.000000 0.000000 0.030612 0.000000
# 6 0.000000 0.000000 0.000000 0.000000 0.000000 0.029067
#
#
# Mechanical properties :
#
#
# Convention : Reuss Voigt Hill
#
# Bulk Modulus (GPa) = 32.99998 35.90739 34.45368
# Shear Modulus (GPa) = 30.42680 34.75844 32.59262
#
# Velocity S-wave (km/s) = 3.59087 3.83797 3.71647
# Velocity P-wave (km/s) = 5.58366 5.90397 5.74605
#
# Compressibility (1/GPa) = 0.03030305
#
# Stress axis : x y z
#
# Youngs Moduli (GPa) = 104.09378 62.58663 93.35269
#
# Poissons Ratio (x) = -0.15005 0.14202
# Poissons Ratio (y) = -0.24957 0.36156
# Poissons Ratio (z) = 0.15836 0.24240
#
# Static dielectric constant tensor:
#      x y z
#    x 2.089230 0.000000 0.000000 
#    y 0.000000 2.049090 0.000000 
#    z 0.000000 0.000000 1.971530 
# 
# From -- ./inp_files/26228.got.cif
#   From: 2010.05.17/outbox.cif.g08.bks.cpg/sg58_14_cif.got.tgz:26228.got - 2010.06.03 14:20:14.
