data_PCOD9444080
_publ_section_title
;
Structure prediction by ZEFSAII (Michael W. Deem and Ramdas Pophale) SiO2 
 PCOD9444080
Probable space group: P N N M
;
_chemical_formula_sum "Si O2"
_cell_formula_units_Z 48
_cell_length_a 22.427490
_cell_length_b 7.241329
_cell_length_c 11.452769
_cell_angle_alpha 90.000000
_cell_angle_beta 90.000000
_cell_angle_gamma 90.000000
_cell_volume 1859.985045
_symmetry_space_group_name_H-M "P N N M"
_symmetry_group_IT_number 58
_symmetry_cell_setting 'orthorhombic'
loop_
_space_group_symop_operation_xyz
x,y,z
-x,-y,z
1/2+x,1/2-y,1/2-z
1/2-x,1/2+y,1/2-z
-x,-y,-z
x,y,-z
1/2-x,1/2+y,1/2+z
1/2+x,1/2-y,1/2+z
loop_
_atom_site_type_symbol
_atom_site_label
_atom_site_fract_x
_atom_site_fract_y
_atom_site_fract_z
Si Si1 0.484934 0.781689 0.376762
Si Si2 0.621600 0.746141 0.374510
Si Si3 0.306254 0.917765 0.372952
Si Si4 0.800205 0.783246 0.373924
Si Si5 0.987913 0.721693 0.372840
Si Si6 0.621769 0.623056 0.125428
O O1 0.455678 0.729761 0.500000
O O2 0.457800 0.734715 0.251429
O O3 0.500000 0.000000 0.378851
O O4 0.551885 0.697000 0.375424
O O5 0.646571 0.679655 0.500000
O O6 0.632108 0.966829 0.374139
O O7 0.647448 0.688933 0.249662
O O8 0.301852 0.818669 0.500000
O O9 0.255254 0.074968 0.374539
O O10 0.300544 0.818024 0.249733
O O11 0.798418 0.679544 0.500000
O O12 0.858005 0.913101 0.377403
O O13 0.961310 0.760940 0.500000
O O14 0.051994 0.825261 0.372243
O O15 0.000000 0.500000 0.370716
O O16 0.643915 0.703682 0.000000
#
# Coordination Sequence:
#
# PCOD9444080 Si02
#       6
#     8   8   8   8   8   8
#     4   8  13  22  38  62  90 116 144 184 231 274
#     4   9  17  29  46  70  97 123 156 197 239 285
#     4  10  21  35  50  70  97 129 164 202 243 288
#     4  10  21  35  50  70  97 129 164 202 243 288
#     4   8  13  22  38  62  90 116 144 184 231 274
#     4   9  17  29  46  70  97 123 156 197 239 285
#
# _framework density 25.806659
#
# number of rings (size 3 to 8) (size 9 to 14) (size 15 to 20)
#    0.000    3.000    0.000    1.000    0.000    2.000 
#    0.000    0.000    0.000    0.000    0.000   18.667 
#    0.000  122.667    0.000    0.000    0.000    0.000 
#
# Total GULP energy -267639.942022 kJ/mol
# GULP energy per Si atom -5575.832125 kJ/mol
# Density = 2.574792 g / cm^3
# Si number density = 25.806659 Si / 1000 Ang^3
#
#
#
# Elastic Constant Matrix: (Units=GPa)
#
#
# Indices 1 2 3 4 5 6 
#
# 1 84.9112 24.1467 23.7717 0.0000 0.0000 0.0000
# 2 24.1467 43.5555 62.1158 0.0000 0.0000 0.0000
# 3 23.7717 62.1158 424.6351 0.0000 0.0000 0.0000
# 4 0.0000 0.0000 0.0000 41.3000 0.0000 0.0000
# 5 0.0000 0.0000 0.0000 0.0000 15.3671 0.0000
# 6 0.0000 0.0000 0.0000 0.0000 0.0000 29.7900
#
#
#
# Elastic Compliance Matrix: (Units=1/GPa)
#
#
# Indices 1 2 3 4 5 6 
#
# 1 0.014048 -0.008424 0.000446 0.000000 0.000000 0.000000
# 2 -0.008424 0.034063 -0.004511 0.000000 0.000000 0.000000
# 3 0.000446 -0.004511 0.002990 0.000000 0.000000 0.000000
# 4 0.000000 0.000000 0.000000 0.024213 0.000000 0.000000
# 5 0.000000 0.000000 0.000000 0.000000 0.065074 0.000000
# 6 0.000000 0.000000 0.000000 0.000000 0.000000 0.033568
#
#
# Mechanical properties :
#
#
# Convention : Reuss Voigt Hill
#
# Bulk Modulus (GPa) = 38.28150 85.90781 62.09465
# Shear Modulus (GPa) = 24.08000 46.82926 35.45463
#
# Velocity S-wave (km/s) = 3.05797 4.26446 3.71058
# Velocity P-wave (km/s) = 5.22823 7.59004 6.51702
#
# Compressibility (1/GPa) = 0.02612228
#
# Stress axis : x y z
#
# Youngs Moduli (GPa) = 71.18606 29.35762 334.45965
#
# Poissons Ratio (x) = 0.24730 -0.14910
# Poissons Ratio (y) = 0.59965 1.50879
# Poissons Ratio (z) = -0.03174 0.13244
#
# Static dielectric constant tensor:
#      x y z
#    x 2.068220 0.000000 0.000000 
#    y 0.000000 2.015180 0.000000 
#    z 0.000000 0.000000 2.100450 
# 
# From -- ./inp_files/17694.got.cif
#   From: 2010.05.17/outbox.cif.g08.bks.cpg/sg58_9_cif.got.tgz:17694.got - 2010.06.03 14:20:14.
