data_PCOD9444096
_publ_section_title
;
Structure prediction by ZEFSAII (Michael W. Deem and Ramdas Pophale) SiO2 
 PCOD9444096
Probable space group: P N N M
;
_chemical_formula_sum "Si O2"
_cell_formula_units_Z 40
_cell_length_a 4.886191
_cell_length_b 12.973008
_cell_length_c 26.535815
_cell_angle_alpha 90.000000
_cell_angle_beta 90.000000
_cell_angle_gamma 90.000000
_cell_volume 1682.068028
_symmetry_space_group_name_H-M "P N N M"
_symmetry_group_IT_number 58
_symmetry_cell_setting 'orthorhombic'
loop_
_space_group_symop_operation_xyz
x,y,z
-x,-y,z
1/2+x,1/2-y,1/2-z
1/2-x,1/2+y,1/2-z
-x,-y,-z
x,y,-z
1/2-x,1/2+y,1/2+z
1/2+x,1/2-y,1/2+z
loop_
_atom_site_type_symbol
_atom_site_label
_atom_site_fract_x
_atom_site_fract_y
_atom_site_fract_z
Si Si1 0.010876 0.254241 0.556852
Si Si2 0.285142 0.299083 0.653591
Si Si3 0.759501 0.928638 0.314505
Si Si4 0.309848 0.101153 0.799574
Si Si5 0.472535 0.887137 0.557365
O O1 0.970741 0.297484 0.500000
O O2 0.143144 0.325729 0.599909
O O3 0.231893 0.163128 0.552526
O O4 0.735435 0.200135 0.576853
O O5 0.321645 0.175552 0.656832
O O6 0.554571 0.365851 0.665230
O O7 0.047384 0.314704 0.695182
O O8 0.500000 0.000000 0.310236
O O9 0.819299 0.903233 0.255875
O O10 0.500000 0.000000 0.810631
O O11 0.000000 0.000000 0.663652
O O12 0.363206 0.904577 0.500000
O O13 0.500000 0.000000 0.580974
#
# Coordination Sequence:
#
# PCOD9444096 Si02
#       5
#     8   8   8   8   8
#     4  10  21  35  53  81 117 158 202 251 304 357
#     4  12  23  39  64  91 122 164 206 250 310 373
#     4  11  23  40  62  94 130 158 192 245 309 382
#     4  11  23  42  65  89 118 157 210 263 312 367
#     4   9  17  31  50  73 107 154 202 243 289 354
#
# _framework density 23.780251
#
# number of rings (size 3 to 8) (size 9 to 14) (size 15 to 20)
#    0.000    1.400    0.000    7.200    0.000    4.800 
#    0.000    0.000    0.000    3.600    0.000    0.000 
#    0.000    0.000    0.000    0.000    0.000    0.000 
#
# Total GULP energy -223360.366160 kJ/mol
# GULP energy per Si atom -5584.009154 kJ/mol
# Density = 2.372613 g / cm^3
# Si number density = 23.780251 Si / 1000 Ang^3
#
#
#
# Elastic Constant Matrix: (Units=GPa)
#
#
# Indices 1 2 3 4 5 6 
#
# 1 126.4338 20.7001 23.6872 0.0000 0.0000 0.0000
# 2 20.7001 53.9414 39.7497 0.0000 0.0000 0.0000
# 3 23.6872 39.7497 119.1402 0.0000 0.0000 0.0000
# 4 0.0000 0.0000 0.0000 21.0112 0.0000 0.0000
# 5 0.0000 0.0000 0.0000 0.0000 31.2410 0.0000
# 6 0.0000 0.0000 0.0000 0.0000 0.0000 43.7566
#
#
#
# Elastic Compliance Matrix: (Units=1/GPa)
#
#
# Indices 1 2 3 4 5 6 
#
# 1 0.008496 -0.002673 -0.000797 0.000000 0.000000 0.000000
# 2 -0.002673 0.025423 -0.007951 0.000000 0.000000 0.000000
# 3 -0.000797 -0.007951 0.011205 0.000000 0.000000 0.000000
# 4 0.000000 0.000000 0.000000 0.047594 0.000000 0.000000
# 5 0.000000 0.000000 0.000000 0.000000 0.032009 0.000000
# 6 0.000000 0.000000 0.000000 0.000000 0.000000 0.022854
#
#
# Mechanical properties :
#
#
# Convention : Reuss Voigt Hill
#
# Bulk Modulus (GPa) = 44.87887 51.97660 48.42774
# Shear Modulus (GPa) = 28.11352 33.56033 30.83692
#
# Velocity S-wave (km/s) = 3.44207 3.76076 3.60494
# Velocity P-wave (km/s) = 5.89156 6.38453 6.14299
#
# Compressibility (1/GPa) = 0.02228220
#
# Stress axis : x y z
#
# Youngs Moduli (GPa) = 117.69857 39.33392 89.24815
#
# Poissons Ratio (x) = 0.10513 0.07117
# Poissons Ratio (y) = 0.31459 0.70959
# Poissons Ratio (z) = 0.09386 0.31274
#
# Static dielectric constant tensor:
#      x y z
#    x 1.854290 0.000000 0.000000 
#    y 0.000000 1.940720 0.000000 
#    z 0.000000 0.000000 2.089290 
# 
# From -- ./inp_files/34094.got.cif
#   From: 2010.05.17/outbox.cif.g08.bks.cpg/sg58_18_cif.got.tgz:34094.got - 2010.06.03 14:20:14.
