data_PCOD9444838
_publ_section_title
;
Structure prediction by ZEFSAII (Michael W. Deem and Ramdas Pophale) SiO2 
 PCOD9444838
Probable space group: P N N M
;
_chemical_formula_sum "Si O2"
_cell_formula_units_Z 28
_cell_length_a 9.886938
_cell_length_b 17.731867
_cell_length_c 7.787471
_cell_angle_alpha 90.000000
_cell_angle_beta 90.000000
_cell_angle_gamma 90.000000
_cell_volume 1365.251676
_symmetry_space_group_name_H-M "P N N M"
_symmetry_group_IT_number 58
_symmetry_cell_setting 'orthorhombic'
loop_
_space_group_symop_operation_xyz
x,y,z
-x,-y,z
1/2+x,1/2-y,1/2-z
1/2-x,1/2+y,1/2-z
-x,-y,-z
x,y,-z
1/2-x,1/2+y,1/2+z
1/2+x,1/2-y,1/2+z
loop_
_atom_site_type_symbol
_atom_site_label
_atom_site_fract_x
_atom_site_fract_y
_atom_site_fract_z
Si Si1 0.864679 0.550120 0.303403
Si Si2 0.790716 0.651437 0.000000
Si Si3 0.484413 0.660329 0.000000
Si Si4 0.253708 0.097566 0.693557
Si Si5 0.849695 0.302544 0.500000
O O1 0.855553 0.575005 0.500000
O O2 0.857697 0.617178 0.168678
O O3 0.750309 0.488048 0.258602
O O4 0.000000 0.500000 0.282642
O O5 0.633016 0.624747 0.000000
O O6 0.772594 0.741263 0.000000
O O7 0.393595 0.633924 0.160396
O O8 0.518293 0.749351 0.000000
O O9 0.314663 0.097951 0.500000
O O10 0.334554 0.146209 0.832367
#
# Coordination Sequence:
#
# PCOD9444838 Si02
#       5
#     8   4   4   8   4
#     4  11  23  40  64  95 123 163 213 255 307 365
#     4  10  22  43  59  94 124 160 204 254 314 360
#     4   8  23  42  58  93 129 151 215 250 304 373
#     4  10  21  42  64  87 127 162 205 258 310 363
#     4  10  22  43  60  94 125 164 204 252 319 362
#
# _framework density 20.509039000000001
#
# number of rings (size 3 to 8) (size 9 to 14) (size 15 to 20)
#    1.714    0.286    2.857    0.429    0.000    5.714 
#    5.143    1.429    0.000    0.000    0.000    0.000 
#    0.000    0.000    0.000    0.000    0.000    0.000 
#
# Total GULP energy -156069.008684 kJ/mol
# GULP energy per Si atom -5573.893167 kJ/mol
# Density = 2.046236 g / cm^3
# Si number density = 20.509039 Si / 1000 Ang^3
#
#
#
# Elastic Constant Matrix: (Units=GPa)
#
#
# Indices 1 2 3 4 5 6 
#
# 1 53.7736 -8.4278 20.6114 0.0000 0.0000 0.0000
# 2 -8.4278 81.3668 38.9572 0.0000 0.0000 0.0000
# 3 20.6114 38.9572 145.8546 0.0000 0.0000 0.0000
# 4 0.0000 0.0000 0.0000 22.8561 0.0000 0.0000
# 5 0.0000 0.0000 0.0000 0.0000 28.8883 0.0000
# 6 0.0000 0.0000 0.0000 0.0000 0.0000 32.9309
#
#
#
# Elastic Compliance Matrix: (Units=1/GPa)
#
#
# Indices 1 2 3 4 5 6 
#
# 1 0.020779 0.004080 -0.004026 0.000000 0.000000 0.000000
# 2 0.004080 0.014893 -0.004554 0.000000 0.000000 0.000000
# 3 -0.004026 -0.004554 0.008642 0.000000 0.000000 0.000000
# 4 0.000000 0.000000 0.000000 0.043752 0.000000 0.000000
# 5 0.000000 0.000000 0.000000 0.000000 0.034616 0.000000
# 6 0.000000 0.000000 0.000000 0.000000 0.000000 0.030367
#
#
# Mechanical properties :
#
#
# Convention : Reuss Voigt Hill
#
# Bulk Modulus (GPa) = 28.31855 42.58628 35.45241
# Shear Modulus (GPa) = 28.76527 32.25869 30.51198
#
# Velocity S-wave (km/s) = 3.74915 3.97028 3.86130
# Velocity P-wave (km/s) = 5.70783 6.46740 6.09945
#
# Compressibility (1/GPa) = 0.03531254
#
# Stress axis : x y z
#
# Youngs Moduli (GPa) = 48.12525 67.14465 115.71974
#
# Poissons Ratio (x) = -0.27394 0.46590
# Poissons Ratio (y) = -0.19635 0.52704
# Poissons Ratio (z) = 0.19376 0.30581
#
# Static dielectric constant tensor:
#      x y z
#    x 1.786930 0.000000 0.000000 
#    y 0.000000 1.717480 0.000000 
#    z 0.000000 0.000000 1.698570 
# 
# From -- ./inp_files/3684.got.cif
#   From: 2010.05.17/outbox.cif.g08.bks.cpg/sg58_2_cif.got.tgz:3684.got - 2010.06.03 14:20:14.
