data_PCOD9444590
_publ_section_title
;
Structure prediction by ZEFSAII (Michael W. Deem and Ramdas Pophale) SiO2 
 PCOD9444590
Probable space group: P N N M
;
_chemical_formula_sum "Si O2"
_cell_formula_units_Z 36
_cell_length_a 8.436899
_cell_length_b 9.784374
_cell_length_c 20.637920
_cell_angle_alpha 90.000000
_cell_angle_beta 90.000000
_cell_angle_gamma 90.000000
_cell_volume 1703.655657
_symmetry_space_group_name_H-M "P N N M"
_symmetry_group_IT_number 58
_symmetry_cell_setting 'orthorhombic'
loop_
_space_group_symop_operation_xyz
x,y,z
-x,-y,z
1/2+x,1/2-y,1/2-z
1/2-x,1/2+y,1/2-z
-x,-y,-z
x,y,-z
1/2-x,1/2+y,1/2+z
1/2+x,1/2-y,1/2+z
loop_
_atom_site_type_symbol
_atom_site_label
_atom_site_fract_x
_atom_site_fract_y
_atom_site_fract_z
Si Si1 0.857472 0.180091 0.117608
Si Si2 0.166015 0.061605 0.645741
Si Si3 0.667084 0.169493 0.575737
Si Si4 0.656425 0.933242 0.075765
Si Si5 0.000000 0.000000 0.771717
O O1 0.713039 0.285268 0.127543
O O2 0.994824 0.262761 0.081460
O O3 0.794167 0.045425 0.081900
O O4 0.932800 0.121003 0.183783
O O5 0.302112 0.962512 0.618950
O O6 0.137085 0.050291 0.722723
O O7 0.000000 0.000000 0.617856
O O8 0.697315 0.137946 0.500000
O O9 0.785406 0.288268 0.601460
O O10 0.500000 0.000000 0.106012
O O11 0.624766 0.908130 0.000000
#
# Coordination Sequence:
#
# PCOD9444590 Si02
#       5
#     8   8   8   8   4
#     4  12  22  43  67  92 133 170 225 277 324 407
#     4  10  26  43  63  95 130 175 219 271 337 392
#     4  11  23  42  68 102 135 172 223 276 341 396
#     4  10  21  38  65  98 132 171 215 269 332 396
#     4  10  26  42  64  94 130 176 234 266 346 388
#
# _framework density 21.131031
#
# number of rings (size 3 to 8) (size 9 to 14) (size 15 to 20)
#    0.667    0.667    2.222    2.667    3.111    4.889 
#    0.000    0.000    0.000    0.000    0.000    0.000 
#    0.000    0.000    0.000    0.000    0.000    0.000 
#
# Total GULP energy -200890.196182 kJ/mol
# GULP energy per Si atom -5580.283227 kJ/mol
# Density = 2.108294 g / cm^3
# Si number density = 21.131031 Si / 1000 Ang^3
#
#
#
# Elastic Constant Matrix: (Units=GPa)
#
#
# Indices 1 2 3 4 5 6 
#
# 1 64.0399 5.6912 -3.3832 0.0000 0.0000 0.0000
# 2 5.6912 104.8551 0.6263 0.0000 0.0000 0.0000
# 3 -3.3832 0.6263 27.0826 0.0000 0.0000 0.0000
# 4 0.0000 0.0000 0.0000 82.6253 0.0000 0.0000
# 5 0.0000 0.0000 0.0000 0.0000 -1.2675 0.0000
# 6 0.0000 0.0000 0.0000 0.0000 0.0000 50.8431
#
#
#
# Elastic Compliance Matrix: (Units=1/GPa)
#
#
# Indices 1 2 3 4 5 6 
#
# 1 0.015798 -0.000869 0.001994 0.000000 0.000000 0.000000
# 2 -0.000869 0.009586 -0.000330 0.000000 0.000000 0.000000
# 3 0.001994 -0.000330 0.037181 0.000000 0.000000 0.000000
# 4 0.000000 0.000000 0.000000 0.012103 0.000000 0.000000
# 5 0.000000 0.000000 0.000000 0.000000 -0.788954 0.000000
# 6 0.000000 0.000000 0.000000 0.000000 0.000000 0.019668
#
#
# Mechanical properties :
#
#
# Convention : Reuss Voigt Hill
#
# Bulk Modulus (GPa) = 15.58782 22.42734 19.00758
# Shear Modulus (GPa) = -7.40937 39.30972 15.95018
#
# Velocity S-wave (km/s) = -1.87457 4.31778 2.75038
# Velocity P-wave (km/s) = 1.64542 5.95770 4.37044
#
# Compressibility (1/GPa) = 0.06415267
#
# Stress axis : x y z
#
# Youngs Moduli (GPa) = 63.29979 104.31737 26.89562
#
# Poissons Ratio (x) = 0.09069 -0.05362
# Poissons Ratio (y) = 0.05503 0.00888
# Poissons Ratio (z) = -0.12620 0.03446
#
# Static dielectric constant tensor:
#      x y z
#    x 1.834100 0.000000 0.000000 
#    y 0.000000 1.745410 0.000000 
#    z 0.000000 0.000000 1.725960 
# 
# From -- ./inp_files/28551.got.cif
#   From: 2010.05.17/outbox.cif.g08.bks.cpg/sg58_15_cif.got.tgz:28551.got - 2010.06.03 14:20:14.
