data_PCOD9444463
_publ_section_title
;
Structure prediction by ZEFSAII (Michael W. Deem and Ramdas Pophale) SiO2 
 PCOD9444463
Probable space group: P N N M
;
_chemical_formula_sum "Si O2"
_cell_formula_units_Z 64
_cell_length_a 9.882977
_cell_length_b 18.462881
_cell_length_c 17.550239
_cell_angle_alpha 90.000000
_cell_angle_beta 90.000000
_cell_angle_gamma 90.000000
_cell_volume 3202.361016
_symmetry_space_group_name_H-M "P N N M"
_symmetry_group_IT_number 58
_symmetry_cell_setting 'orthorhombic'
loop_
_space_group_symop_operation_xyz
x,y,z
-x,-y,z
1/2+x,1/2-y,1/2-z
1/2-x,1/2+y,1/2-z
-x,-y,-z
x,y,-z
1/2-x,1/2+y,1/2+z
1/2+x,1/2-y,1/2+z
loop_
_atom_site_type_symbol
_atom_site_label
_atom_site_fract_x
_atom_site_fract_y
_atom_site_fract_z
Si Si1 0.546114 0.290560 0.083571
Si Si2 0.164731 0.681249 0.140836
Si Si3 0.610499 0.557255 0.088264
Si Si4 0.079544 0.065955 0.088039
Si Si5 0.595200 0.269470 0.408878
Si Si6 0.358923 0.209676 0.185302
Si Si7 0.657062 0.987965 0.678019
Si Si8 0.864893 0.459196 0.351578
O O1 0.706906 0.296938 0.090586
O O2 0.466231 0.366518 0.088420
O O3 0.493107 0.248124 0.156457
O O4 0.512031 0.258239 0.000000
O O5 0.172641 0.714133 0.225876
O O6 0.180391 0.594594 0.150844
O O7 0.023085 0.712011 0.108403
O O8 0.500000 0.500000 0.117075
O O9 0.745015 0.544622 0.136745
O O10 0.642941 0.539788 0.000000
O O11 0.057577 0.147815 0.117229
O O12 0.235929 0.042674 0.093815
O O13 0.037041 0.070405 0.000000
O O14 0.000000 0.000000 0.126656
O O15 0.620247 0.270573 0.500000
O O16 0.735226 0.257560 0.364033
O O17 0.385103 0.125551 0.165965
O O18 0.674208 0.992810 0.769335
O O19 0.500000 0.000000 0.661349
O O20 0.000000 0.500000 0.378617
#
# Coordination Sequence:
#
# PCOD9444463 Si02
#       8
#     8   8   8   8   8   8   8   8
#     4  11  23  40  62  88 120 161 203 246 300 359
#     4  11  22  39  60  86 121 155 198 249 297 355
#     4  10  21  39  60  86 119 154 196 244 292 349
#     4   9  19  37  58  84 114 146 191 240 288 350
#     4  10  21  38  59  83 114 153 194 239 292 350
#     4  10  22  40  59  84 121 156 198 246 297 357
#     4  10  22  39  58  86 119 153 195 244 294 352
#     4   9  20  39  59  85 115 152 195 241 297 354
#
# _framework density 19.985254999999999
#
# number of rings (size 3 to 8) (size 9 to 14) (size 15 to 20)
#    0.000    2.000    1.250    1.500    1.750    3.000 
#    6.750    1.250    0.000    0.000    0.000    0.000 
#    0.000    0.000    0.000    0.000    0.000    0.000 
#
# Total GULP energy -356827.602641 kJ/mol
# GULP energy per Si atom -5575.431291 kJ/mol
# Density = 1.993977 g / cm^3
# Si number density = 19.985255 Si / 1000 Ang^3
#
#
#
# Elastic Constant Matrix: (Units=GPa)
#
#
# Indices 1 2 3 4 5 6 
#
# 1 50.8090 3.7645 13.4219 0.0000 0.0000 0.0000
# 2 3.7645 13.5699 6.1653 0.0000 0.0000 0.0000
# 3 13.4219 6.1653 54.2594 0.0000 0.0000 0.0000
# 4 0.0000 0.0000 0.0000 20.5178 0.0000 0.0000
# 5 0.0000 0.0000 0.0000 0.0000 27.0967 0.0000
# 6 0.0000 0.0000 0.0000 0.0000 0.0000 39.0289
#
#
#
# Elastic Compliance Matrix: (Units=1/GPa)
#
#
# Indices 1 2 3 4 5 6 
#
# 1 0.021232 -0.003695 -0.004832 0.000000 0.000000 0.000000
# 2 -0.003695 0.078347 -0.007988 0.000000 0.000000 0.000000
# 3 -0.004832 -0.007988 0.020533 0.000000 0.000000 0.000000
# 4 0.000000 0.000000 0.000000 0.048738 0.000000 0.000000
# 5 0.000000 0.000000 0.000000 0.000000 0.036905 0.000000
# 6 0.000000 0.000000 0.000000 0.000000 0.000000 0.025622
#
#
# Mechanical properties :
#
#
# Convention : Reuss Voigt Hill
#
# Bulk Modulus (GPa) = 11.48351 18.37131 14.92741
# Shear Modulus (GPa) = 17.03960 23.68111 20.36036
#
# Velocity S-wave (km/s) = 2.92311 3.44601 3.19528
# Velocity P-wave (km/s) = 4.14141 5.00457 4.59331
#
# Compressibility (1/GPa) = 0.08708138
#
# Stress axis : x y z
#
# Youngs Moduli (GPa) = 47.09923 12.76375 48.70212
#
# Poissons Ratio (x) = 0.04716 0.23534
# Poissons Ratio (y) = 0.17401 0.38905
# Poissons Ratio (z) = 0.22759 0.10196
#
# Static dielectric constant tensor:
#      x y z
#    x 1.692890 0.000000 0.000000 
#    y 0.000000 1.740990 0.000000 
#    z 0.000000 0.000000 1.703110 
# 
# From -- ./inp_files/29116.got.cif
#   From: 2010.05.17/outbox.cif.g08.bks.cpg/sg58_15_cif.got.tgz:29116.got - 2010.06.03 14:20:14.
