data_PCOD9444120
_publ_section_title
;
Structure prediction by ZEFSAII (Michael W. Deem and Ramdas Pophale) SiO2 
 PCOD9444120
Probable space group: P N N M
;
_chemical_formula_sum "Si O2"
_cell_formula_units_Z 48
_cell_length_a 12.480711
_cell_length_b 12.232163
_cell_length_c 15.677444
_cell_angle_alpha 90.000000
_cell_angle_beta 90.000000
_cell_angle_gamma 90.000000
_cell_volume 2393.414097
_symmetry_space_group_name_H-M "P N N M"
_symmetry_group_IT_number 58
_symmetry_cell_setting 'orthorhombic'
loop_
_space_group_symop_operation_xyz
x,y,z
-x,-y,z
1/2+x,1/2-y,1/2-z
1/2-x,1/2+y,1/2-z
-x,-y,-z
x,y,-z
1/2-x,1/2+y,1/2+z
1/2+x,1/2-y,1/2+z
loop_
_atom_site_type_symbol
_atom_site_label
_atom_site_fract_x
_atom_site_fract_y
_atom_site_fract_z
Si Si1 0.866354 0.221638 0.242428
Si Si2 0.028825 0.332200 0.665315
Si Si3 0.383928 0.438094 0.902974
Si Si4 0.832256 0.865427 0.313343
Si Si5 0.884177 0.999457 0.148088
Si Si6 0.650730 0.976707 0.905413
O O1 0.973021 0.296226 0.246411
O O2 0.766773 0.300608 0.226767
O O3 0.868133 0.156135 0.332782
O O4 0.864492 0.125320 0.173826
O O5 0.928405 0.374990 0.609597
O O6 0.094570 0.224781 0.639713
O O7 0.110987 0.433116 0.662855
O O8 0.500000 0.500000 0.896227
O O9 0.303899 0.536611 0.877064
O O10 0.371313 0.400718 0.000000
O O11 0.892078 0.926645 0.234696
O O12 0.776625 0.956903 0.103592
O O13 0.000000 0.000000 0.104568
O O14 0.630674 0.021845 0.000000
#
# Coordination Sequence:
#
# PCOD9444120 Si02
#       6
#     8   8   8   8   8   8
#     4  11  20  36  58  86 116 152 192 237 294 349
#     4  11  20  37  59  84 113 151 195 243 295 335
#     4  10  21  35  56  87 117 142 185 243 296 341
#     4  11  20  36  58  86 116 152 192 237 294 349
#     4  11  21  37  59  84 117 150 200 241 283 351
#     4  11  25  37  53  88 123 152 192 242 294 348
#
# _framework density 20.055033000000002
#
# number of rings (size 3 to 8) (size 9 to 14) (size 15 to 20)
#    0.000    1.167    6.667    2.000    0.000    3.000 
#    0.000    0.000    0.000    0.000    0.000    1.167 
#    0.000    0.000    0.000    0.000    0.000    0.000 
#
# Total GULP energy -267428.442698 kJ/mol
# GULP energy per Si atom -5571.425890 kJ/mol
# Density = 2.000939 g / cm^3
# Si number density = 20.055033 Si / 1000 Ang^3
#
#
#
# Elastic Constant Matrix: (Units=GPa)
#
#
# Indices 1 2 3 4 5 6 
#
# 1 114.9372 21.3788 15.4758 0.0000 0.0000 0.0000
# 2 21.3788 92.1566 7.3914 0.0000 0.0000 0.0000
# 3 15.4758 7.3914 47.6214 0.0000 0.0000 0.0000
# 4 0.0000 0.0000 0.0000 14.8402 0.0000 0.0000
# 5 0.0000 0.0000 0.0000 0.0000 12.3605 0.0000
# 6 0.0000 0.0000 0.0000 0.0000 0.0000 42.1998
#
#
#
# Elastic Compliance Matrix: (Units=1/GPa)
#
#
# Indices 1 2 3 4 5 6 
#
# 1 0.009438 -0.001968 -0.002762 0.000000 0.000000 0.000000
# 2 -0.001968 0.011398 -0.001130 0.000000 0.000000 0.000000
# 3 -0.002762 -0.001130 0.022072 0.000000 0.000000 0.000000
# 4 0.000000 0.000000 0.000000 0.067384 0.000000 0.000000
# 5 0.000000 0.000000 0.000000 0.000000 0.080903 0.000000
# 6 0.000000 0.000000 0.000000 0.000000 0.000000 0.023697
#
#
# Mechanical properties :
#
#
# Convention : Reuss Voigt Hill
#
# Bulk Modulus (GPa) = 32.06197 38.13414 35.09805
# Shear Modulus (GPa) = 21.09637 27.91139 24.50388
#
# Velocity S-wave (km/s) = 3.24686 3.73465 3.49926
# Velocity P-wave (km/s) = 5.48432 6.13619 5.81939
#
# Compressibility (1/GPa) = 0.03118960
#
# Stress axis : x y z
#
# Youngs Moduli (GPa) = 105.95097 87.73278 45.30668
#
# Poissons Ratio (x) = 0.17266 0.12513
# Poissons Ratio (y) = 0.20851 0.05118
# Poissons Ratio (z) = 0.29261 0.09910
#
# Static dielectric constant tensor:
#      x y z
#    x 1.778510 0.000000 0.000000 
#    y 0.000000 1.754970 0.000000 
#    z 0.000000 0.000000 1.706200 
# 
# From -- ./inp_files/26131.got.cif
#   From: 2010.05.17/outbox.cif.g08.bks.cpg/sg58_14_cif.got.tgz:26131.got - 2010.06.03 14:20:14.
