data_PCOD9444354
_publ_section_title
;
Structure prediction by ZEFSAII (Michael W. Deem and Ramdas Pophale) SiO2 
 PCOD9444354
Probable space group: P N N M
;
_chemical_formula_sum "Si O2"
_cell_formula_units_Z 40
_cell_length_a 20.891908
_cell_length_b 5.027092
_cell_length_c 18.550208
_cell_angle_alpha 90.000000
_cell_angle_beta 90.000000
_cell_angle_gamma 90.000000
_cell_volume 1948.245679
_symmetry_space_group_name_H-M "P N N M"
_symmetry_group_IT_number 58
_symmetry_cell_setting 'orthorhombic'
loop_
_space_group_symop_operation_xyz
x,y,z
-x,-y,z
1/2+x,1/2-y,1/2-z
1/2-x,1/2+y,1/2-z
-x,-y,-z
x,y,-z
1/2-x,1/2+y,1/2+z
1/2+x,1/2-y,1/2+z
loop_
_atom_site_type_symbol
_atom_site_label
_atom_site_fract_x
_atom_site_fract_y
_atom_site_fract_z
Si Si1 0.627277 0.092137 0.917965
Si Si2 0.703185 0.032592 0.325523
Si Si3 0.456672 0.242409 0.187618
Si Si4 0.221506 0.981753 0.081738
Si Si5 0.846318 0.932345 0.284764
O O1 0.701015 0.994544 0.916978
O O2 0.631603 0.340329 0.864119
O O3 0.578286 0.887638 0.881650
O O4 0.610126 0.155863 0.000000
O O5 0.696692 0.235435 0.392074
O O6 0.775615 0.052812 0.293327
O O7 0.659798 0.169408 0.264121
O O8 0.699964 0.740445 0.360411
O O9 0.500000 0.500000 0.171731
O O10 0.400063 0.358088 0.238022
O O11 0.500000 0.000000 0.217478
O O12 0.203322 0.913128 0.000000
#
# Coordination Sequence:
#
# PCOD9444354 Si02
#       5
#     8   8   8   8   8
#     4  10  22  39  58  81 118 164 211 254 291 337
#     4  11  22  35  64  85 117 155 193 255 300 376
#     4  12  25  41  57  79 119 164 213 263 286 341
#     4  10  21  37  58  90 122 153 192 244 310 365
#     4  11  23  40  60  90 116 157 214 247 314 351
#
# _framework density 20.531293000000002
#
# number of rings (size 3 to 8) (size 9 to 14) (size 15 to 20)
#    0.000    1.200    4.000    3.000    2.800    2.400 
#    0.000    0.000    0.000    0.000    0.000    0.000 
#    0.000   16.000    0.000    0.000    0.000    0.000 
#
# Total GULP energy -223298.021179 kJ/mol
# GULP energy per Si atom -5582.450529 kJ/mol
# Density = 2.048456 g / cm^3
# Si number density = 20.531293 Si / 1000 Ang^3
#
#
#
# Elastic Constant Matrix: (Units=GPa)
#
#
# Indices 1 2 3 4 5 6 
#
# 1 66.8955 43.4206 28.4097 0.0000 0.0000 0.0000
# 2 43.4206 122.9279 31.8134 0.0000 0.0000 0.0000
# 3 28.4097 31.8134 85.4043 0.0000 0.0000 0.0000
# 4 0.0000 0.0000 0.0000 28.0016 0.0000 0.0000
# 5 0.0000 0.0000 0.0000 0.0000 12.2274 0.0000
# 6 0.0000 0.0000 0.0000 0.0000 0.0000 49.0500
#
#
#
# Elastic Compliance Matrix: (Units=1/GPa)
#
#
# Indices 1 2 3 4 5 6 
#
# 1 0.020948 -0.006193 -0.004661 0.000000 0.000000 0.000000
# 2 -0.006193 0.010834 -0.001975 0.000000 0.000000 0.000000
# 3 -0.004661 -0.001975 0.013996 0.000000 0.000000 0.000000
# 4 0.000000 0.000000 0.000000 0.035712 0.000000 0.000000
# 5 0.000000 0.000000 0.000000 0.000000 0.081784 0.000000
# 6 0.000000 0.000000 0.000000 0.000000 0.000000 0.020387
#
#
# Mechanical properties :
#
#
# Convention : Reuss Voigt Hill
#
# Bulk Modulus (GPa) = 49.70814 53.61278 51.66046
# Shear Modulus (GPa) = 23.14539 29.29474 26.22007
#
# Velocity S-wave (km/s) = 3.36121 3.78144 3.57750
# Velocity P-wave (km/s) = 6.27113 6.72571 6.50239
#
# Compressibility (1/GPa) = 0.02011743
#
# Stress axis : x y z
#
# Youngs Moduli (GPa) = 47.73720 92.30592 71.45144
#
# Poissons Ratio (x) = 0.57164 0.33307
# Poissons Ratio (y) = 0.29563 0.14115
# Poissons Ratio (z) = 0.22253 0.18235
#
# Static dielectric constant tensor:
#      x y z
#    x 1.801660 0.000000 0.000000 
#    y 0.000000 1.792420 0.000000 
#    z 0.000000 0.000000 1.745190 
# 
# From -- ./inp_files/27430.got.cif
#   From: 2010.05.17/outbox.cif.g08.bks.cpg/sg58_14_cif.got.tgz:27430.got - 2010.06.03 14:20:14.
