data_PCOD9444722
_publ_section_title
;
Structure prediction by ZEFSAII (Michael W. Deem and Ramdas Pophale) SiO2 
 PCOD9444722
Probable space group: P N N M
;
_chemical_formula_sum "Si O2"
_cell_formula_units_Z 36
_cell_length_a 23.636464
_cell_length_b 8.214565
_cell_length_c 7.900973
_cell_angle_alpha 90.000000
_cell_angle_beta 90.000000
_cell_angle_gamma 90.000000
_cell_volume 1534.078753
_symmetry_space_group_name_H-M "P N N M"
_symmetry_group_IT_number 58
_symmetry_cell_setting 'orthorhombic'
loop_
_space_group_symop_operation_xyz
x,y,z
-x,-y,z
1/2+x,1/2-y,1/2-z
1/2-x,1/2+y,1/2-z
-x,-y,-z
x,y,-z
1/2-x,1/2+y,1/2+z
1/2+x,1/2-y,1/2+z
loop_
_atom_site_type_symbol
_atom_site_label
_atom_site_fract_x
_atom_site_fract_y
_atom_site_fract_z
Si Si1 0.793195 0.226014 0.701366
Si Si2 0.021399 0.708023 0.000000
Si Si3 0.443423 0.787040 0.185053
Si Si4 0.674193 0.083405 0.301546
Si Si5 0.900750 0.041270 0.187061
O O1 0.791199 0.248341 0.500000
O O2 0.730854 0.174457 0.759267
O O3 0.813413 0.392562 0.784232
O O4 0.840105 0.090273 0.742815
O O5 0.061978 0.799185 0.853903
O O6 0.977177 0.656255 0.849761
O O7 0.381148 0.865194 0.200861
O O8 0.433620 0.592406 0.205907
O O9 0.468017 0.821808 0.000000
O O10 0.665529 0.119044 0.500000
O O11 0.893820 0.963651 0.000000
#
# Coordination Sequence:
#
# PCOD9444722 Si02
#       5
#     8   4   8   8   8
#     4  11  24  41  64  98 127 171 225 269 331 402
#     4  10  23  44  65 100 137 178 223 272 333 384
#     4  12  22  39  68  98 132 175 224 272 322 393
#     4  11  24  42  65  92 135 173 213 277 335 393
#     4  10  21  40  63  92 133 174 212 273 325 384
#
# _framework density 23.466850999999998
#
# number of rings (size 3 to 8) (size 9 to 14) (size 15 to 20)
#    0.667    0.444    2.222    4.667    0.000    9.778 
#    0.000    2.222    0.000    2.667    0.000    0.000 
#    0.000    0.000    0.000    0.000    0.000    0.000 
#
# Total GULP energy -200410.415537 kJ/mol
# GULP energy per Si atom -5566.955987 kJ/mol
# Density = 2.341344 g / cm^3
# Si number density = 23.466851 Si / 1000 Ang^3
#
#
#
# Elastic Constant Matrix: (Units=GPa)
#
#
# Indices 1 2 3 4 5 6 
#
# 1 161.1095 12.9019 49.9396 0.0000 0.0000 0.0000
# 2 12.9019 57.4885 -4.3766 0.0000 0.0000 0.0000
# 3 49.9396 -4.3766 148.8801 0.0000 0.0000 0.0000
# 4 0.0000 0.0000 0.0000 49.0771 0.0000 0.0000
# 5 0.0000 0.0000 0.0000 0.0000 37.0643 0.0000
# 6 0.0000 0.0000 0.0000 0.0000 0.0000 41.5885
#
#
#
# Elastic Compliance Matrix: (Units=1/GPa)
#
#
# Indices 1 2 3 4 5 6 
#
# 1 0.007104 -0.001780 -0.002435 0.000000 0.000000 0.000000
# 2 -0.001780 0.017880 0.001123 0.000000 0.000000 0.000000
# 3 -0.002435 0.001123 0.007567 0.000000 0.000000 0.000000
# 4 0.000000 0.000000 0.000000 0.020376 0.000000 0.000000
# 5 0.000000 0.000000 0.000000 0.000000 0.026980 0.000000
# 6 0.000000 0.000000 0.000000 0.000000 0.000000 0.024045
#
#
# Mechanical properties :
#
#
# Convention : Reuss Voigt Hill
#
# Bulk Modulus (GPa) = 37.92815 53.82310 45.87563
# Shear Modulus (GPa) = 42.04300 46.14685 44.09492
#
# Velocity S-wave (km/s) = 4.23731 4.43930 4.33948
# Velocity P-wave (km/s) = 6.33540 7.01870 6.68578
#
# Compressibility (1/GPa) = 0.02636564
#
# Stress axis : x y z
#
# Youngs Moduli (GPa) = 140.75800 55.92942 132.15755
#
# Poissons Ratio (x) = 0.09954 0.32185
# Poissons Ratio (y) = 0.25052 -0.14836
# Poissons Ratio (z) = 0.34280 -0.06279
#
# Static dielectric constant tensor:
#      x y z
#    x 1.864290 0.000000 0.000000 
#    y 0.000000 1.976180 0.000000 
#    z 0.000000 0.000000 1.854830 
# 
# From -- ./inp_files/9604.got.cif
#   From: 2010.05.17/outbox.cif.g08.bks.cpg/sg58_5_cif.got.tgz:9604.got - 2010.06.03 14:20:14.
