data_PCOD9444530
_publ_section_title
;
Structure prediction by ZEFSAII (Michael W. Deem and Ramdas Pophale) SiO2 
 PCOD9444530
Probable space group: P N N M
;
_chemical_formula_sum "Si O2"
_cell_formula_units_Z 56
_cell_length_a 11.362876
_cell_length_b 15.816647
_cell_length_c 15.198836
_cell_angle_alpha 90.000000
_cell_angle_beta 90.000000
_cell_angle_gamma 90.000000
_cell_volume 2731.574302
_symmetry_space_group_name_H-M "P N N M"
_symmetry_group_IT_number 58
_symmetry_cell_setting 'orthorhombic'
loop_
_space_group_symop_operation_xyz
x,y,z
-x,-y,z
1/2+x,1/2-y,1/2-z
1/2-x,1/2+y,1/2-z
-x,-y,-z
x,y,-z
1/2-x,1/2+y,1/2+z
1/2+x,1/2-y,1/2+z
loop_
_atom_site_type_symbol
_atom_site_label
_atom_site_fract_x
_atom_site_fract_y
_atom_site_fract_z
Si Si1 0.622747 0.290095 0.775018
Si Si2 0.776776 0.434457 0.728590
Si Si3 0.535438 0.598818 0.899905
Si Si4 0.714315 0.036507 0.398409
Si Si5 0.168347 0.762239 0.100949
Si Si6 0.498321 0.133268 0.686148
Si Si7 0.622697 0.546330 0.394323
O O1 0.697553 0.352014 0.711938
O O2 0.526300 0.344270 0.827569
O O3 0.717549 0.253830 0.842335
O O4 0.567094 0.210233 0.729192
O O5 0.749996 0.465142 0.828424
O O6 0.914217 0.410512 0.740237
O O7 0.729921 0.505355 0.661469
O O8 0.500000 0.500000 0.889602
O O9 0.677245 0.602110 0.893825
O O10 0.500570 0.622631 0.000000
O O11 0.705009 0.008895 0.500000
O O12 0.592174 0.073890 0.362306
O O13 0.084944 0.682039 0.117437
O O14 0.113109 0.853570 0.125022
O O15 0.200211 0.767556 0.000000
O O16 0.500000 0.500000 0.370472
O O17 0.640281 0.535409 0.500000
#
# Coordination Sequence:
#
# PCOD9444530 Si02
#       7
#     8   8   8   8   8   8   8
#     4  11  23  38  62  88 126 164 205 259 313 376
#     4  11  24  39  66  93 121 170 212 258 311 381
#     4  10  21  38  61  91 122 163 215 261 314 377
#     4  11  24  41  65  95 131 168 211 266 319 384
#     4  10  22  40  62  87 120 162 206 253 312 372
#     4  11  25  39  60  94 130 164 203 259 321 376
#     4  10  22  42  68  93 122 165 219 269 312 376
#
# _framework density 20.500997999999999
#
# number of rings (size 3 to 8) (size 9 to 14) (size 15 to 20)
#    0.000    1.429    1.429    3.000    8.000    3.429 
#    0.000    2.143    0.000    3.429    0.000    0.000 
#    0.000    0.000    0.000    0.000    0.000    0.000 
#
# Total GULP energy -312800.006204 kJ/mol
# GULP energy per Si atom -5585.714396 kJ/mol
# Density = 2.045434 g / cm^3
# Si number density = 20.500998 Si / 1000 Ang^3
#
#
#
# Elastic Constant Matrix: (Units=GPa)
#
#
# Indices 1 2 3 4 5 6 
#
# 1 43.0260 -4.0036 10.5605 0.0000 0.0000 0.0000
# 2 -4.0036 43.2618 6.9169 0.0000 0.0000 0.0000
# 3 10.5605 6.9169 48.7948 0.0000 0.0000 0.0000
# 4 0.0000 0.0000 0.0000 24.8205 0.0000 0.0000
# 5 0.0000 0.0000 0.0000 0.0000 19.6328 0.0000
# 6 0.0000 0.0000 0.0000 0.0000 0.0000 49.8439
#
#
#
# Elastic Compliance Matrix: (Units=1/GPa)
#
#
# Indices 1 2 3 4 5 6 
#
# 1 0.024984 0.003250 -0.005868 0.000000 0.000000 0.000000
# 2 0.003250 0.024074 -0.004116 0.000000 0.000000 0.000000
# 3 -0.005868 -0.004116 0.022347 0.000000 0.000000 0.000000
# 4 0.000000 0.000000 0.000000 0.040289 0.000000 0.000000
# 5 0.000000 0.000000 0.000000 0.000000 0.050935 0.000000
# 6 0.000000 0.000000 0.000000 0.000000 0.000000 0.020063
#
#
# Mechanical properties :
#
#
# Convention : Reuss Voigt Hill
#
# Bulk Modulus (GPa) = 17.25969 18.00334 17.63152
# Shear Modulus (GPa) = 23.20473 26.96671 25.08572
#
# Velocity S-wave (km/s) = 3.36800 3.63076 3.50184
# Velocity P-wave (km/s) = 4.85405 5.13588 4.99695
#
# Compressibility (1/GPa) = 0.05793845
#
# Stress axis : x y z
#
# Youngs Moduli (GPa) = 40.02484 41.53862 44.74786
#
# Poissons Ratio (x) = -0.13502 0.26258
# Poissons Ratio (y) = -0.13010 0.18418
# Poissons Ratio (z) = 0.23487 0.17098
#
# Static dielectric constant tensor:
#      x y z
#    x 1.795130 0.000000 0.000000 
#    y 0.000000 1.759040 0.000000 
#    z 0.000000 0.000000 1.723090 
# 
# From -- ./inp_files/21238.got.cif
#   From: 2010.05.17/outbox.cif.g08.bks.cpg/sg58_11_cif.got.tgz:21238.got - 2010.06.03 14:20:14.
