data_PCOD9444127
_publ_section_title
;
Structure prediction by ZEFSAII (Michael W. Deem and Ramdas Pophale) SiO2 
 PCOD9444127
Probable space group: P N N M
;
_chemical_formula_sum "Si O2"
_cell_formula_units_Z 64
_cell_length_a 9.605474
_cell_length_b 11.102540
_cell_length_c 27.517753
_cell_angle_alpha 90.000000
_cell_angle_beta 90.000000
_cell_angle_gamma 90.000000
_cell_volume 2934.635152
_symmetry_space_group_name_H-M "P N N M"
_symmetry_group_IT_number 58
_symmetry_cell_setting 'orthorhombic'
loop_
_space_group_symop_operation_xyz
x,y,z
-x,-y,z
1/2+x,1/2-y,1/2-z
1/2-x,1/2+y,1/2-z
-x,-y,-z
x,y,-z
1/2-x,1/2+y,1/2+z
1/2+x,1/2-y,1/2+z
loop_
_atom_site_type_symbol
_atom_site_label
_atom_site_fract_x
_atom_site_fract_y
_atom_site_fract_z
Si Si1 0.524401 0.801887 0.204682
Si Si2 0.197298 0.935521 0.310914
Si Si3 0.594632 0.601112 0.082732
Si Si4 0.152524 0.515756 0.056519
Si Si5 0.789534 0.940496 0.207523
Si Si6 0.034523 0.299401 0.812982
Si Si7 0.732661 0.680143 0.650984
Si Si8 0.841610 0.753022 0.441922
O O1 0.613239 0.679344 0.210216
O O2 0.636938 0.900057 0.188200
O O3 0.489791 0.842319 0.258473
O O4 0.380815 0.784853 0.175916
O O5 0.120944 0.946854 0.362601
O O6 0.349779 0.894723 0.329010
O O7 0.202389 0.029971 0.265992
O O8 0.500000 0.500000 0.056641
O O9 0.748440 0.600835 0.060978
O O10 0.499761 0.718332 0.075754
O O11 0.248945 0.628456 0.071494
O O12 0.000000 0.500000 0.078638
O O13 0.130658 0.541558 0.000000
O O14 0.888653 0.829993 0.193437
O O15 0.820069 0.062628 0.179215
O O16 0.889669 0.277843 0.840243
O O17 0.770591 0.658329 0.594605
O O18 0.838511 0.731896 0.500000
#
# Coordination Sequence:
#
# PCOD9444127 Si02
#       8
#     8   8   8   8   8   8   8   8
#     4  11  22  41  59  88 123 165 204 246 294 376
#     4  11  23  38  59  89 128 162 205 242 301 370
#     4  10  21  35  57  85 119 162 200 252 308 374
#     4   9  19  36  57  84 118 154 195 252 320 377
#     4  11  24  41  61  85 126 167 201 247 306 372
#     4  11  24  39  59  90 126 165 204 248 303 373
#     4  12  22  38  64  87 122 162 207 255 314 356
#     4  10  22  40  62  87 117 162 218 267 316 374
#
# _framework density 21.808502000000001
#
# number of rings (size 3 to 8) (size 9 to 14) (size 15 to 20)
#    0.000    1.375    3.750    1.875    3.500    3.500 
#    0.000    0.000    0.000    3.000    0.000    0.000 
#    0.000    0.000    0.000    0.000    0.000    0.000 
#
# Total GULP energy -356698.249799 kJ/mol
# GULP energy per Si atom -5573.410153 kJ/mol
# Density = 2.175886 g / cm^3
# Si number density = 21.808502 Si / 1000 Ang^3
#
#
#
# Elastic Constant Matrix: (Units=GPa)
#
#
# Indices 1 2 3 4 5 6 
#
# 1 157.5430 12.7492 37.3348 0.0000 0.0000 0.0000
# 2 12.7492 19.8949 13.4172 0.0000 0.0000 0.0000
# 3 37.3348 13.4172 111.2904 0.0000 0.0000 0.0000
# 4 0.0000 0.0000 0.0000 7.8235 0.0000 0.0000
# 5 0.0000 0.0000 0.0000 0.0000 24.0034 0.0000
# 6 0.0000 0.0000 0.0000 0.0000 0.0000 26.0045
#
#
#
# Elastic Compliance Matrix: (Units=1/GPa)
#
#
# Indices 1 2 3 4 5 6 
#
# 1 0.007077 -0.003194 -0.001989 0.000000 0.000000 0.000000
# 2 -0.003194 0.056154 -0.005698 0.000000 0.000000 0.000000
# 3 -0.001989 -0.005698 0.010340 0.000000 0.000000 0.000000
# 4 0.000000 0.000000 0.000000 0.127820 0.000000 0.000000
# 5 0.000000 0.000000 0.000000 0.000000 0.041661 0.000000
# 6 0.000000 0.000000 0.000000 0.000000 0.000000 0.038455
#
#
# Mechanical properties :
#
#
# Convention : Reuss Voigt Hill
#
# Bulk Modulus (GPa) = 19.30203 46.19228 32.74715
# Shear Modulus (GPa) = 15.59875 26.58145 21.09010
#
# Velocity S-wave (km/s) = 2.67734 3.49500 3.11313
# Velocity P-wave (km/s) = 4.29272 6.12483 5.28871
#
# Compressibility (1/GPa) = 0.05180803
#
# Stress axis : x y z
#
# Youngs Moduli (GPa) = 141.29610 17.80823 96.71342
#
# Poissons Ratio (x) = 0.05688 0.19238
# Poissons Ratio (y) = 0.45127 0.55112
# Poissons Ratio (z) = 0.28107 0.10148
#
# Static dielectric constant tensor:
#      x y z
#    x 1.911580 0.000000 0.000000 
#    y 0.000000 1.938990 0.000000 
#    z 0.000000 0.000000 1.877480 
# 
# From -- ./inp_files/34770.got.cif
#   From: 2010.05.17/outbox.cif.g08.bks.cpg/sg58_18_cif.got.tgz:34770.got - 2010.06.03 14:20:14.
