data_PCOD9444943
_publ_section_title
;
Structure prediction by ZEFSAII (Michael W. Deem and Ramdas Pophale) SiO2 
 PCOD9444943
Probable space group: P N N M
;
_chemical_formula_sum "Si O2"
_cell_formula_units_Z 64
_cell_length_a 31.367480
_cell_length_b 14.718209
_cell_length_c 8.240158
_cell_angle_alpha 90.000000
_cell_angle_beta 90.000000
_cell_angle_gamma 90.000000
_cell_volume 3804.259506
_symmetry_space_group_name_H-M "P N N M"
_symmetry_group_IT_number 58
_symmetry_cell_setting 'orthorhombic'
loop_
_space_group_symop_operation_xyz
x,y,z
-x,-y,z
1/2+x,1/2-y,1/2-z
1/2-x,1/2+y,1/2-z
-x,-y,-z
x,y,-z
1/2-x,1/2+y,1/2+z
1/2+x,1/2-y,1/2+z
loop_
_atom_site_type_symbol
_atom_site_label
_atom_site_fract_x
_atom_site_fract_y
_atom_site_fract_z
Si Si1 0.220636 0.766427 0.808425
Si Si2 0.545502 0.107938 0.197031
Si Si3 0.694693 0.337390 0.307947
Si Si4 0.825295 0.509396 0.185409
Si Si5 0.362397 0.166051 0.813360
Si Si6 0.769634 0.025246 0.196700
Si Si7 0.632904 0.189061 0.192052
Si Si8 0.049983 0.602413 0.698488
O O1 0.260241 0.713568 0.727354
O O2 0.175392 0.719294 0.774553
O O3 0.218469 0.872029 0.757139
O O4 0.229435 0.764235 0.000000
O O5 0.583904 0.174213 0.244964
O O6 0.497492 0.131238 0.250206
O O7 0.555074 0.003634 0.247993
O O8 0.544305 0.106670 0.000000
O O9 0.687782 0.334290 0.500000
O O10 0.699437 0.442528 0.257320
O O11 0.656180 0.283446 0.225678
O O12 0.849192 0.439766 0.302368
O O13 0.775572 0.503742 0.223207
O O14 0.840311 0.611234 0.218138
O O15 0.834001 0.483186 0.000000
O O16 0.410602 0.164351 0.746141
O O17 0.362694 0.196095 0.000000
O O18 0.764827 0.022590 0.000000
O O19 0.635181 0.170442 0.000000
O O20 0.051448 0.603072 0.500000
#
# Coordination Sequence:
#
# PCOD9444943 Si02
#       8
#     8   8   8   8   8   8   8   8
#     4  11  22  35  51  72  97 130 168 205 243 290
#     4   8  14  26  46  71  97 128 164 197 235 291
#     4  11  22  35  51  72  97 130 168 205 243 290
#     4  12  22  30  47  71 100 134 169 204 238 290
#     4  11  20  32  50  73 101 132 165 205 248 292
#     4  10  22  38  52  65  94 133 170 206 242 283
#     4  11  20  32  50  73 101 132 165 205 248 292
#     4   8  14  26  46  71  97 128 164 197 235 291
#
# _framework density 16.823248
#
# number of rings (size 3 to 8) (size 9 to 14) (size 15 to 20)
#    0.000    1.750    3.750    3.375    0.000    1.000 
#    0.000    0.000    0.000    3.750    0.000    0.875 
#    0.000    7.000    0.000    0.000    0.000    0.000 
#
# Total GULP energy -356955.257946 kJ/mol
# GULP energy per Si atom -5577.425905 kJ/mol
# Density = 1.678496 g / cm^3
# Si number density = 16.823248 Si / 1000 Ang^3
#
#
#
# Elastic Constant Matrix: (Units=GPa)
#
#
# Indices 1 2 3 4 5 6 
#
# 1 83.0145 3.7612 3.0319 0.0000 0.0000 0.0000
# 2 3.7612 45.5428 2.3846 0.0000 0.0000 0.0000
# 3 3.0319 2.3846 15.2201 0.0000 0.0000 0.0000
# 4 0.0000 0.0000 0.0000 18.1017 0.0000 0.0000
# 5 0.0000 0.0000 0.0000 0.0000 8.1217 0.0000
# 6 0.0000 0.0000 0.0000 0.0000 0.0000 23.0786
#
#
#
# Elastic Compliance Matrix: (Units=1/GPa)
#
#
# Indices 1 2 3 4 5 6 
#
# 1 0.012170 -0.000885 -0.002286 0.000000 0.000000 0.000000
# 2 -0.000885 0.022203 -0.003302 0.000000 0.000000 0.000000
# 3 -0.002286 -0.003302 0.066675 0.000000 0.000000 0.000000
# 4 0.000000 0.000000 0.000000 0.055244 0.000000 0.000000
# 5 0.000000 0.000000 0.000000 0.000000 0.123127 0.000000
# 6 0.000000 0.000000 0.000000 0.000000 0.000000 0.043330
#
#
# Mechanical properties :
#
#
# Convention : Reuss Voigt Hill
#
# Bulk Modulus (GPa) = 11.35050 18.01476 14.68263
# Shear Modulus (GPa) = 13.69627 18.83370 16.26499
#
# Velocity S-wave (km/s) = 2.85639 3.34953 3.11274
# Velocity P-wave (km/s) = 4.20002 5.06859 4.65461
#
# Compressibility (1/GPa) = 0.08810184
#
# Stress axis : x y z
#
# Youngs Moduli (GPa) = 82.17143 45.03820 14.99808
#
# Poissons Ratio (x) = 0.03988 0.03428
# Poissons Ratio (y) = 0.07275 0.04953
# Poissons Ratio (z) = 0.18781 0.14873
#
# Static dielectric constant tensor:
#      x y z
#    x 1.590070 0.000000 0.000000 
#    y 0.000000 1.562860 0.000000 
#    z 0.000000 0.000000 1.588230 
# 
# From -- ./inp_files/11150.got.cif
#   From: 2010.05.17/outbox.cif.g08.bks.cpg/sg58_6_cif.got.tgz:11150.got - 2010.06.03 14:20:14.
