data_PCOD9444238
_publ_section_title
;
Structure prediction by ZEFSAII (Michael W. Deem and Ramdas Pophale) SiO2 
 PCOD9444238
Probable space group: P N N M
;
_chemical_formula_sum "Si O2"
_cell_formula_units_Z 48
_cell_length_a 11.013831
_cell_length_b 13.895911
_cell_length_c 15.295725
_cell_angle_alpha 90.000000
_cell_angle_beta 90.000000
_cell_angle_gamma 90.000000
_cell_volume 2340.968118
_symmetry_space_group_name_H-M "P N N M"
_symmetry_group_IT_number 58
_symmetry_cell_setting 'orthorhombic'
loop_
_space_group_symop_operation_xyz
x,y,z
-x,-y,z
1/2+x,1/2-y,1/2-z
1/2-x,1/2+y,1/2-z
-x,-y,-z
x,y,-z
1/2-x,1/2+y,1/2+z
1/2+x,1/2-y,1/2+z
loop_
_atom_site_type_symbol
_atom_site_label
_atom_site_fract_x
_atom_site_fract_y
_atom_site_fract_z
Si Si1 0.277580 0.435658 0.185120
Si Si2 0.379231 0.567601 0.318957
Si Si3 0.723571 0.536386 0.000000
Si Si4 0.502945 0.714086 0.192434
Si Si5 0.530290 0.148830 0.500000
Si Si6 0.803399 0.839558 0.000000
Si Si7 0.990653 0.612948 0.813086
Si Si8 0.553903 0.727344 0.000000
O O1 0.281236 0.502579 0.269095
O O2 0.297295 0.501425 0.097944
O O3 0.383664 0.358378 0.191596
O O4 0.154769 0.375659 0.177436
O O5 0.500000 0.500000 0.326775
O O6 0.408923 0.657350 0.254743
O O7 0.334851 0.602525 0.412469
O O8 0.865390 0.566446 0.000000
O O9 0.631894 0.627946 0.000000
O O10 0.534496 0.814162 0.239829
O O11 0.477591 0.731524 0.089752
O O12 0.606251 0.247498 0.500000
O O13 0.458421 0.137909 0.590582
O O14 0.663337 0.805181 0.000000
O O15 0.000000 0.500000 0.794466
#
# Coordination Sequence:
#
# PCOD9444238 Si02
#       8
#     8   8   4   8   4   4   8   4
#     4   9  20  36  57  89 118 151 199 247 291 351
#     4  10  21  36  59  89 118 152 198 243 292 345
#     4   7  14  32  55  78 110 147 189 232 289 339
#     4  10  21  38  58  84 117 158 199 240 290 355
#     4   9  17  35  54  82 110 147 190 244 284 350
#     4  11  19  35  63  83 117 163 192 234 296 364
#     4  11  22  35  59  86 117 153 198 245 302 348
#     4   9  20  34  57  84 112 158 199 229 291 353
#
# _framework density 20.504338000000001
#
# number of rings (size 3 to 8) (size 9 to 14) (size 15 to 20)
#    0.000    2.333    1.667    1.500    2.333    0.667 
#    0.000    4.583    0.000    2.000    0.000    0.000 
#    0.000    0.000    0.000    0.000    0.000    0.000 
#
# Total GULP energy -267574.170884 kJ/mol
# GULP energy per Si atom -5574.461893 kJ/mol
# Density = 2.045767 g / cm^3
# Si number density = 20.504338 Si / 1000 Ang^3
#
#
#
# Elastic Constant Matrix: (Units=GPa)
#
#
# Indices 1 2 3 4 5 6 
#
# 1 20.2923 -2.7631 21.4065 0.0000 0.0000 0.0000
# 2 -2.7631 80.5400 68.1731 0.0000 0.0000 0.0000
# 3 21.4065 68.1731 210.3248 0.0000 0.0000 0.0000
# 4 0.0000 0.0000 0.0000 6.1523 0.0000 0.0000
# 5 0.0000 0.0000 0.0000 0.0000 13.7113 0.0000
# 6 0.0000 0.0000 0.0000 0.0000 0.0000 14.3760
#
#
#
# Elastic Compliance Matrix: (Units=1/GPa)
#
#
# Indices 1 2 3 4 5 6 
#
# 1 0.060595 0.010059 -0.009428 0.000000 0.000000 0.000000
# 2 0.010059 0.018781 -0.007111 0.000000 0.000000 0.000000
# 3 -0.009428 -0.007111 0.008019 0.000000 0.000000 0.000000
# 4 0.000000 0.000000 0.000000 0.162542 0.000000 0.000000
# 5 0.000000 0.000000 0.000000 0.000000 0.072933 0.000000
# 6 0.000000 0.000000 0.000000 0.000000 0.000000 0.069560
#
#
# Mechanical properties :
#
#
# Convention : Reuss Voigt Hill
#
# Bulk Modulus (GPa) = 13.43467 53.86559 33.65013
# Shear Modulus (GPa) = 11.62249 21.80395 16.71322
#
# Velocity S-wave (km/s) = 2.38340 3.26449 2.85810
# Velocity P-wave (km/s) = 3.76038 6.36683 5.22863
#
# Compressibility (1/GPa) = 0.07443430
#
# Stress axis : x y z
#
# Youngs Moduli (GPa) = 16.50311 53.24671 124.70334
#
# Poissons Ratio (x) = -0.53560 1.17566
# Poissons Ratio (y) = -0.16600 0.88678
# Poissons Ratio (z) = 0.15558 0.37864
#
# Static dielectric constant tensor:
#      x y z
#    x 1.755340 0.000000 0.000000 
#    y 0.000000 1.745410 0.000000 
#    z 0.000000 0.000000 1.791790 
# 
# From -- ./inp_files/21227.got.cif
#   From: 2010.05.17/outbox.cif.g08.bks.cpg/sg58_11_cif.got.tgz:21227.got - 2010.06.03 14:20:14.
