data_PCOD9444718
_publ_section_title
;
Structure prediction by ZEFSAII (Michael W. Deem and Ramdas Pophale) SiO2 
 PCOD9444718
Probable space group: P N N M
;
_chemical_formula_sum "Si O2"
_cell_formula_units_Z 48
_cell_length_a 27.696730
_cell_length_b 10.267037
_cell_length_c 8.875218
_cell_angle_alpha 90.000000
_cell_angle_beta 90.000000
_cell_angle_gamma 90.000000
_cell_volume 2523.786737
_symmetry_space_group_name_H-M "P N N M"
_symmetry_group_IT_number 58
_symmetry_cell_setting 'orthorhombic'
loop_
_space_group_symop_operation_xyz
x,y,z
-x,-y,z
1/2+x,1/2-y,1/2-z
1/2-x,1/2+y,1/2-z
-x,-y,-z
x,y,-z
1/2-x,1/2+y,1/2+z
1/2+x,1/2-y,1/2+z
loop_
_atom_site_type_symbol
_atom_site_label
_atom_site_fract_x
_atom_site_fract_y
_atom_site_fract_z
Si Si1 0.323090 0.242543 0.818742
Si Si2 0.461559 0.612490 0.319995
Si Si3 0.461628 0.887593 0.819837
Si Si4 0.210135 0.241165 0.819068
Si Si5 0.639549 0.023036 0.680180
Si Si6 0.859575 0.971153 0.680637
O O1 0.266376 0.247344 0.778634
O O2 0.347527 0.119250 0.740970
O O3 0.347508 0.379822 0.778295
O O4 0.326580 0.227737 0.000000
O O5 0.500000 0.500000 0.284577
O O6 0.457816 0.625490 0.500000
O O7 0.476862 0.749751 0.249340
O O8 0.409527 0.574759 0.253702
O O9 0.500000 0.000000 0.783181
O O10 0.409695 0.925441 0.753164
O O11 0.458159 0.876363 0.000000
O O12 0.182207 0.374908 0.781556
O O13 0.182707 0.123329 0.738432
O O14 0.206573 0.223460 0.000000
O O15 0.634426 0.020811 0.500000
O O16 0.862866 0.962062 0.500000
#
# Coordination Sequence:
#
# PCOD9444718 Si02
#       6
#     8   8   8   8   8   8
#     4  10  23  40  60  91 128 166 210 257 306 366
#     4  11  25  44  66  94 126 162 206 254 310 372
#     4  11  25  44  67  95 125 161 206 254 309 370
#     4  10  21  40  63  89 125 165 208 259 310 367
#     4  11  23  40  64  93 127 165 208 256 311 369
#     4  11  23  40  64  92 125 165 210 258 312 368
#
# _framework density 19.019038999999999
#
# number of rings (size 3 to 8) (size 9 to 14) (size 15 to 20)
#    0.000    1.333    1.667    3.000    2.333    6.667 
#    0.000    0.000    0.000    0.000    0.000    0.000 
#    0.000    0.000    0.000    0.000    0.000    0.000 
#
# Total GULP energy -268488.561767 kJ/mol
# GULP energy per Si atom -5593.511703 kJ/mol
# Density = 1.897575 g / cm^3
# Si number density = 19.019039 Si / 1000 Ang^3
#
#
#
# Elastic Constant Matrix: (Units=GPa)
#
#
# Indices 1 2 3 4 5 6 
#
# 1 70.5651 51.6177 36.3398 0.0000 0.0000 0.0000
# 2 51.6177 183.9120 63.6493 0.0000 0.0000 0.0000
# 3 36.3398 63.6493 42.7572 0.0000 0.0000 0.0000
# 4 0.0000 0.0000 0.0000 99.3324 0.0000 0.0000
# 5 0.0000 0.0000 0.0000 0.0000 -332.5517 0.0000
# 6 0.0000 0.0000 0.0000 0.0000 0.0000 35.4323
#
#
#
# Elastic Compliance Matrix: (Units=1/GPa)
#
#
# Indices 1 2 3 4 5 6 
#
# 1 0.025246 0.000702 -0.022501 0.000000 0.000000 0.000000
# 2 0.000702 0.011235 -0.017321 0.000000 0.000000 0.000000
# 3 -0.022501 -0.017321 0.068296 0.000000 0.000000 0.000000
# 4 0.000000 0.000000 0.000000 0.010067 0.000000 0.000000
# 5 0.000000 0.000000 0.000000 0.000000 -0.003007 0.000000
# 6 0.000000 0.000000 0.000000 0.000000 0.000000 0.028223
#
#
# Mechanical properties :
#
#
# Convention : Reuss Voigt Hill
#
# Bulk Modulus (GPa) = 37.68466 66.71644 52.20055
# Shear Modulus (GPa) = 22.01225 -29.84889 -3.91832
#
# Velocity S-wave (km/s) = 3.40572 -3.96589 -1.43690
# Velocity P-wave (km/s) = 5.94327 3.76615 4.97525
#
# Compressibility (1/GPa) = 0.02653600
#
# Stress axis : x y z
#
# Youngs Moduli (GPa) = 39.61071 89.00762 14.64208
#
# Poissons Ratio (x) = -0.06246 0.32946
# Poissons Ratio (y) = -0.02780 0.25362
# Poissons Ratio (z) = 0.89129 1.54171
#
# Static dielectric constant tensor:
#      x y z
#    x 1.627510 0.000000 0.000000 
#    y 0.000000 1.636830 0.000000 
#    z 0.000000 0.000000 1.635250 
# 
# From -- ./inp_files/3005.got.cif
#   From: 2010.05.17/outbox.cif.g08.bks.cpg/sg58_2_cif.got.tgz:3005.got - 2010.06.03 14:20:14.
