data_PCOD9444702
_publ_section_title
;
Structure prediction by ZEFSAII (Michael W. Deem and Ramdas Pophale) SiO2 
 PCOD9444702
Probable space group: P N N M
;
_chemical_formula_sum "Si O2"
_cell_formula_units_Z 56
_cell_length_a 9.030640
_cell_length_b 17.780611
_cell_length_c 19.459938
_cell_angle_alpha 90.000000
_cell_angle_beta 90.000000
_cell_angle_gamma 90.000000
_cell_volume 3124.688023
_symmetry_space_group_name_H-M "P N N M"
_symmetry_group_IT_number 58
_symmetry_cell_setting 'orthorhombic'
loop_
_space_group_symop_operation_xyz
x,y,z
-x,-y,z
1/2+x,1/2-y,1/2-z
1/2-x,1/2+y,1/2-z
-x,-y,-z
x,y,-z
1/2-x,1/2+y,1/2+z
1/2+x,1/2-y,1/2+z
loop_
_atom_site_type_symbol
_atom_site_label
_atom_site_fract_x
_atom_site_fract_y
_atom_site_fract_z
Si Si1 0.424072 0.152904 0.721882
Si Si2 0.898731 0.064605 0.800616
Si Si3 0.140731 0.542340 0.348775
Si Si4 0.231281 0.796090 0.277303
Si Si5 0.896435 0.874168 0.922253
Si Si6 0.221630 0.288687 0.074374
Si Si7 0.029154 0.588716 0.923554
O O1 0.406253 0.091294 0.782186
O O2 0.592792 0.185338 0.724083
O O3 0.311213 0.220381 0.737761
O O4 0.395380 0.117907 0.646409
O O5 0.856894 0.134500 0.754284
O O6 0.989197 0.093988 0.866867
O O7 0.751317 0.022678 0.823962
O O8 0.000000 0.000000 0.766527
O O9 0.235704 0.594483 0.399711
O O10 0.000000 0.500000 0.379747
O O11 0.184591 0.786374 0.356747
O O12 0.886709 0.783742 0.920027
O O13 0.931793 0.897349 0.000000
O O14 0.124112 0.364186 0.075288
O O15 0.297159 0.282560 0.000000
O O16 0.000000 0.500000 0.917044
O O17 0.097744 0.601833 0.000000
#
# Coordination Sequence:
#
# PCOD9444702 Si02
#       7
#     8   8   8   8   8   8   8
#     4  11  22  35  58  85 116 152 193 241 285 352
#     4  10  22  35  57  84 116 149 192 239 289 342
#     4  11  21  37  54  85 119 148 189 242 296 342
#     4  11  21  37  59  85 113 151 195 236 290 343
#     4  10  21  40  61  83 113 156 198 237 287 352
#     4   9  18  34  56  81 110 146 192 234 279 344
#     4   9  18  32  54  83 113 144 182 232 286 332
#
# _framework density 17.921787999999999
#
# number of rings (size 3 to 8) (size 9 to 14) (size 15 to 20)
#    0.000    1.857    2.857    2.143    4.000    2.857 
#    0.000    0.000    0.000    3.000    0.000    0.000 
#    0.000    0.000    0.000    0.000    0.000    0.000 
#
# Total GULP energy -312135.093919 kJ/mol
# GULP energy per Si atom -5573.840963 kJ/mol
# Density = 1.788100 g / cm^3
# Si number density = 17.921788 Si / 1000 Ang^3
#
#
#
# Elastic Constant Matrix: (Units=GPa)
#
#
# Indices 1 2 3 4 5 6 
#
# 1 66.2049 28.2806 22.2858 0.0000 0.0000 0.0000
# 2 28.2806 114.7560 49.0947 0.0000 0.0000 0.0000
# 3 22.2858 49.0947 135.3549 0.0000 0.0000 0.0000
# 4 0.0000 0.0000 0.0000 381.5276 0.0000 0.0000
# 5 0.0000 0.0000 0.0000 0.0000 15.6160 0.0000
# 6 0.0000 0.0000 0.0000 0.0000 0.0000 14.9872
#
#
#
# Elastic Compliance Matrix: (Units=1/GPa)
#
#
# Indices 1 2 3 4 5 6 
#
# 1 0.017144 -0.003572 -0.001527 0.000000 0.000000 0.000000
# 2 -0.003572 0.011059 -0.003423 0.000000 0.000000 0.000000
# 3 -0.001527 -0.003423 0.008881 0.000000 0.000000 0.000000
# 4 0.000000 0.000000 0.000000 0.002621 0.000000 0.000000
# 5 0.000000 0.000000 0.000000 0.000000 0.064037 0.000000
# 6 0.000000 0.000000 0.000000 0.000000 0.000000 0.066724
#
#
# Mechanical properties :
#
#
# Convention : Reuss Voigt Hill
#
# Bulk Modulus (GPa) = 49.89979 57.29311 53.59645
# Shear Modulus (GPa) = 25.74797 96.86980 61.30889
#
# Velocity S-wave (km/s) = 3.79448 7.35994 5.85520
# Velocity P-wave (km/s) = 6.86301 10.21092 8.69953
#
# Compressibility (1/GPa) = 0.02004016
#
# Stress axis : x y z
#
# Youngs Moduli (GPa) = 58.32788 90.42567 112.59939
#
# Poissons Ratio (x) = 0.32297 0.17197
# Poissons Ratio (y) = 0.20833 0.38544
# Poissons Ratio (z) = 0.08908 0.30953
#
# Static dielectric constant tensor:
#      x y z
#    x 1.612080 0.000000 0.000000 
#    y 0.000000 1.622550 0.000000 
#    z 0.000000 0.000000 1.647170 
# 
# From -- ./inp_files/29060.got.cif
#   From: 2010.05.17/outbox.cif.g08.bks.cpg/sg58_15_cif.got.tgz:29060.got - 2010.06.03 14:20:14.
