data_PCOD9444250
_publ_section_title
;
Structure prediction by ZEFSAII (Michael W. Deem and Ramdas Pophale) SiO2 
 PCOD9444250
Probable space group: P N N M
;
_chemical_formula_sum "Si O2"
_cell_formula_units_Z 56
_cell_length_a 14.850633
_cell_length_b 21.583410
_cell_length_c 8.875314
_cell_angle_alpha 90.000000
_cell_angle_beta 90.000000
_cell_angle_gamma 90.000000
_cell_volume 2844.780440
_symmetry_space_group_name_H-M "P N N M"
_symmetry_group_IT_number 58
_symmetry_cell_setting 'orthorhombic'
loop_
_space_group_symop_operation_xyz
x,y,z
-x,-y,z
1/2+x,1/2-y,1/2-z
1/2-x,1/2+y,1/2-z
-x,-y,-z
x,y,-z
1/2-x,1/2+y,1/2+z
1/2+x,1/2-y,1/2+z
loop_
_atom_site_type_symbol
_atom_site_label
_atom_site_fract_x
_atom_site_fract_y
_atom_site_fract_z
Si Si1 0.404937 0.089215 0.319166
Si Si2 0.893802 0.758001 0.318645
Si Si3 0.719921 0.015328 0.178910
Si Si4 0.078709 0.824140 0.681429
Si Si5 0.306587 0.216083 0.319472
Si Si6 0.891507 0.621526 0.820325
Si Si7 0.593672 0.532712 0.181818
O O1 0.393589 0.081940 0.500000
O O2 0.363287 0.155717 0.274148
O O3 0.511275 0.090558 0.287972
O O4 0.350584 0.035564 0.237444
O O5 0.897332 0.749596 0.500000
O O6 0.798722 0.790068 0.282063
O O7 0.894938 0.691140 0.240969
O O8 0.980703 0.797748 0.273700
O O9 0.685431 0.081052 0.242989
O O10 0.818690 0.002379 0.245007
O O11 0.722030 0.016696 0.000000
O O12 0.083774 0.822526 0.500000
O O13 0.152620 0.777645 0.746724
O O14 0.090504 0.895155 0.728041
O O15 0.314566 0.221660 0.500000
O O16 0.878204 0.621817 0.000000
O O17 0.500000 0.500000 0.222608
O O18 0.602405 0.529627 0.000000
#
# Coordination Sequence:
#
# PCOD9444250 Si02
#       7
#     8   8   8   8   8   8   8
#     4  10  22  40  63  89 119 158 208 257 304 368
#     4  10  21  36  60  91 124 156 196 248 307 363
#     4  12  26  41  61  90 125 163 202 255 314 364
#     4  10  21  38  61  91 122 156 198 248 300 357
#     4  10  21  38  61  89 121 161 202 249 303 361
#     4  11  22  40  64  91 122 161 207 251 305 370
#     4  10  23  43  68  92 122 166 213 254 298 363
#
# _framework density 19.685174
#
# number of rings (size 3 to 8) (size 9 to 14) (size 15 to 20)
#    0.000    1.571    1.429    3.000    2.000    7.143 
#    0.000    0.000    0.000    0.000    0.000    0.000 
#    0.000    0.000    0.000    0.000    0.000    0.000 
#
# Total GULP energy -313137.067913 kJ/mol
# GULP energy per Si atom -5591.733356 kJ/mol
# Density = 1.964037 g / cm^3
# Si number density = 19.685174 Si / 1000 Ang^3
#
#
#
# Elastic Constant Matrix: (Units=GPa)
#
#
# Indices 1 2 3 4 5 6 
#
# 1 96.3377 1.6917 34.0468 0.0000 0.0000 0.0000
# 2 1.6917 51.2419 13.6434 0.0000 0.0000 0.0000
# 3 34.0468 13.6434 27.7247 0.0000 0.0000 0.0000
# 4 0.0000 0.0000 0.0000 10.6455 0.0000 0.0000
# 5 0.0000 0.0000 0.0000 0.0000 16.8357 0.0000
# 6 0.0000 0.0000 0.0000 0.0000 0.0000 28.3826
#
#
#
# Elastic Compliance Matrix: (Units=1/GPa)
#
#
# Indices 1 2 3 4 5 6 
#
# 1 0.020230 0.006843 -0.028211 0.000000 0.000000 0.000000
# 2 0.006843 0.024773 -0.020595 0.000000 0.000000 0.000000
# 3 -0.028211 -0.020595 0.080847 0.000000 0.000000 0.000000
# 4 0.000000 0.000000 0.000000 0.093936 0.000000 0.000000
# 5 0.000000 0.000000 0.000000 0.000000 0.059398 0.000000
# 6 0.000000 0.000000 0.000000 0.000000 0.000000 0.035233
#
#
# Mechanical properties :
#
#
# Convention : Reuss Voigt Hill
#
# Bulk Modulus (GPa) = 23.85153 30.45202 27.15178
# Shear Modulus (GPa) = 12.12665 19.56761 15.84713
#
# Velocity S-wave (km/s) = 2.48469 3.15624 2.84038
# Velocity P-wave (km/s) = 4.51380 5.36522 4.95782
#
# Compressibility (1/GPa) = 0.04192602
#
# Stress axis : x y z
#
# Youngs Moduli (GPa) = 49.43174 40.36690 12.36904
#
# Poissons Ratio (x) = -0.27624 0.34894
# Poissons Ratio (y) = -0.33828 0.25474
# Poissons Ratio (z) = 1.39450 0.83134
#
# Static dielectric constant tensor:
#      x y z
#    x 1.686580 0.000000 0.000000 
#    y 0.000000 1.666490 0.000000 
#    z 0.000000 0.000000 1.655410 
# 
# From -- ./inp_files/6417.got.cif
#   From: 2010.05.17/outbox.cif.g08.bks.cpg/sg58_4_cif.got.tgz:6417.got - 2010.06.03 14:20:14.
