data_PCOD9444532
_publ_section_title
;
Structure prediction by ZEFSAII (Michael W. Deem and Ramdas Pophale) SiO2 
 PCOD9444532
Probable space group: P N N M
;
_chemical_formula_sum "Si O2"
_cell_formula_units_Z 48
_cell_length_a 8.987676
_cell_length_b 16.016088
_cell_length_c 13.621701
_cell_angle_alpha 90.000000
_cell_angle_beta 90.000000
_cell_angle_gamma 90.000000
_cell_volume 1960.808575
_symmetry_space_group_name_H-M "P N N M"
_symmetry_group_IT_number 58
_symmetry_cell_setting 'orthorhombic'
loop_
_space_group_symop_operation_xyz
x,y,z
-x,-y,z
1/2+x,1/2-y,1/2-z
1/2-x,1/2+y,1/2-z
-x,-y,-z
x,y,-z
1/2-x,1/2+y,1/2+z
1/2+x,1/2-y,1/2+z
loop_
_atom_site_type_symbol
_atom_site_label
_atom_site_fract_x
_atom_site_fract_y
_atom_site_fract_z
Si Si1 0.796692 0.946226 0.196431
Si Si2 0.820725 0.420008 0.888002
Si Si3 0.142171 0.705501 0.396740
Si Si4 0.885701 0.106668 0.114882
Si Si5 0.336276 0.751906 0.173515
Si Si6 0.899880 0.686778 0.885883
O O1 0.750923 0.977791 0.304618
O O2 0.692860 0.866097 0.177543
O O3 0.964210 0.914220 0.175272
O O4 0.781704 0.025212 0.126010
O O5 0.725032 0.335296 0.868073
O O6 0.994569 0.393692 0.872606
O O7 0.803927 0.448683 0.000000
O O8 0.194880 0.669395 0.500000
O O9 0.221975 0.796254 0.389920
O O10 0.969555 0.717747 0.393430
O O11 0.799191 0.184315 0.159863
O O12 0.920866 0.118003 0.000000
O O13 0.411885 0.761738 0.282488
O O14 0.945535 0.711866 0.000000
#
# Coordination Sequence:
#
# PCOD9444532 Si02
#       6
#     8   8   8   8   8   8
#     4  11  22  42  63  90 125 172 218 259 316 389
#     4  11  23  41  65  94 128 169 210 263 322 380
#     4  11  21  35  61  92 126 162 205 261 316 380
#     4  11  25  43  66  92 129 173 213 268 328 383
#     4  12  22  40  60  99 130 159 213 267 324 377
#     4  10  21  38  61  91 126 165 205 252 319 379
#
# _framework density 24.479697000000002
#
# number of rings (size 3 to 8) (size 9 to 14) (size 15 to 20)
#    0.000    1.000    3.333    4.500    2.333    2.000 
#    0.000    4.167    0.000    2.000    0.000    0.000 
#    0.000    0.000    0.000    0.000    0.000    0.000 
#
# Total GULP energy -267255.858168 kJ/mol
# GULP energy per Si atom -5567.830378 kJ/mol
# Density = 2.442398 g / cm^3
# Si number density = 24.479697 Si / 1000 Ang^3
#
#
#
# Elastic Constant Matrix: (Units=GPa)
#
#
# Indices 1 2 3 4 5 6 
#
# 1 103.0057 14.5130 37.1609 0.0000 0.0000 0.0000
# 2 14.5130 30.7837 -4.4204 0.0000 0.0000 0.0000
# 3 37.1609 -4.4204 173.4746 0.0000 0.0000 0.0000
# 4 0.0000 0.0000 0.0000 -31.4493 0.0000 0.0000
# 5 0.0000 0.0000 0.0000 0.0000 19.4872 0.0000
# 6 0.0000 0.0000 0.0000 0.0000 0.0000 13.5170
#
#
#
# Elastic Compliance Matrix: (Units=1/GPa)
#
#
# Indices 1 2 3 4 5 6 
#
# 1 0.011461 -0.005777 -0.002602 0.000000 0.000000 0.000000
# 2 -0.005777 0.035516 0.002143 0.000000 0.000000 0.000000
# 3 -0.002602 0.002143 0.006377 0.000000 0.000000 0.000000
# 4 0.000000 0.000000 0.000000 -0.031797 0.000000 0.000000
# 5 0.000000 0.000000 0.000000 0.000000 0.051316 0.000000
# 6 0.000000 0.000000 0.000000 0.000000 0.000000 0.073981
#
#
# Mechanical properties :
#
#
# Convention : Reuss Voigt Hill
#
# Bulk Modulus (GPa) = 24.46186 44.64119 34.55152
# Shear Modulus (GPa) = 28.90959 17.64503 23.27731
#
# Velocity S-wave (km/s) = 3.44024 2.68769 3.08698
# Velocity P-wave (km/s) = 5.07885 5.28272 5.18179
#
# Compressibility (1/GPa) = 0.04087997
#
# Stress axis : x y z
#
# Youngs Moduli (GPa) = 87.25261 28.15639 156.82373
#
# Poissons Ratio (x) = 0.16266 0.40811
# Poissons Ratio (y) = 0.50405 -0.33600
# Poissons Ratio (z) = 0.22706 -0.06033
#
# Static dielectric constant tensor:
#      x y z
#    x 1.901280 0.000000 0.000000 
#    y 0.000000 2.002780 0.000000 
#    z 0.000000 0.000000 2.067100 
# 
# From -- ./inp_files/19847.got.cif
#   From: 2010.05.17/outbox.cif.g08.bks.cpg/sg58_10_cif.got.tgz:19847.got - 2010.06.03 14:20:14.
