data_PCOD9444974
_publ_section_title
;
Structure prediction by ZEFSAII (Michael W. Deem and Ramdas Pophale) SiO2 
 PCOD9444974
Probable space group: P N N M
;
_chemical_formula_sum "Si O2"
_cell_formula_units_Z 64
_cell_length_a 14.807504
_cell_length_b 8.841659
_cell_length_c 24.105802
_cell_angle_alpha 90.000000
_cell_angle_beta 90.000000
_cell_angle_gamma 90.000000
_cell_volume 3156.001529
_symmetry_space_group_name_H-M "P N N M"
_symmetry_group_IT_number 58
_symmetry_cell_setting 'orthorhombic'
loop_
_space_group_symop_operation_xyz
x,y,z
-x,-y,z
1/2+x,1/2-y,1/2-z
1/2-x,1/2+y,1/2-z
-x,-y,-z
x,y,-z
1/2-x,1/2+y,1/2+z
1/2+x,1/2-y,1/2+z
loop_
_atom_site_type_symbol
_atom_site_label
_atom_site_fract_x
_atom_site_fract_y
_atom_site_fract_z
Si Si1 0.302772 0.979897 0.063819
Si Si2 0.818720 0.386916 0.733382
Si Si3 0.231862 0.247329 0.133566
Si Si4 0.476019 0.322951 0.759134
Si Si5 0.103748 0.338368 0.337804
Si Si6 0.525586 0.178661 0.358536
Si Si7 0.360955 0.245236 0.434750
Si Si8 0.256380 0.566563 0.850885
O O1 0.276593 0.141238 0.088170
O O2 0.381726 0.905919 0.101021
O O3 0.208839 0.885068 0.069889
O O4 0.327667 0.981430 0.000000
O O5 0.737707 0.343021 0.692076
O O6 0.870555 0.522089 0.702160
O O7 0.798840 0.447703 0.794102
O O8 0.872509 0.230176 0.742612
O O9 0.128278 0.291808 0.122786
O O10 0.290721 0.399880 0.136854
O O11 0.500000 0.500000 0.761011
O O12 0.514614 0.236565 0.813168
O O13 0.515645 0.249337 0.702830
O O14 0.174216 0.199422 0.337185
O O15 0.453751 0.257729 0.400251
O O16 0.500000 0.000000 0.357259
O O17 0.376991 0.215691 0.500000
O O18 0.304773 0.116440 0.402579
#
# Coordination Sequence:
#
# PCOD9444974 Si02
#       8
#     8   8   8   8   8   8   8   8
#     4   9  22  43  64  88 119 163 210 256 310 369
#     4  11  21  38  58  87 125 160 200 255 315 379
#     4  11  23  35  61  87 120 161 206 258 308 367
#     4  12  24  36  61  93 126 159 201 257 315 373
#     4  10  22  38  64  87 120 163 202 252 313 376
#     4  12  23  40  56  87 128 170 209 253 305 363
#     4  10  22  39  59  83 119 168 210 248 295 356
#     4  11  19  37  57  86 120 159 208 253 302 363
#
# _framework density 20.278825000000001
#
# number of rings (size 3 to 8) (size 9 to 14) (size 15 to 20)
#    0.000    1.250    2.500    4.125    1.750    2.250 
#    0.000    1.250    0.000    6.375    0.000    0.000 
#    0.000    0.000    0.000    0.000    0.000    0.000 
#
# Total GULP energy -357211.135951 kJ/mol
# GULP energy per Si atom -5581.423999 kJ/mol
# Density = 2.023267 g / cm^3
# Si number density = 20.278825 Si / 1000 Ang^3
#
#
#
# Elastic Constant Matrix: (Units=GPa)
#
#
# Indices 1 2 3 4 5 6 
#
# 1 14.0171 -1.3827 9.4430 0.0000 0.0000 0.0000
# 2 -1.3827 116.9287 55.5228 0.0000 0.0000 0.0000
# 3 9.4430 55.5228 116.7596 0.0000 0.0000 0.0000
# 4 0.0000 0.0000 0.0000 17.8161 0.0000 0.0000
# 5 0.0000 0.0000 0.0000 0.0000 25.4674 0.0000
# 6 0.0000 0.0000 0.0000 0.0000 0.0000 22.8010
#
#
#
# Elastic Compliance Matrix: (Units=1/GPa)
#
#
# Indices 1 2 3 4 5 6 
#
# 1 0.077686 0.005040 -0.008680 0.000000 0.000000 0.000000
# 2 0.005040 0.011374 -0.005816 0.000000 0.000000 0.000000
# 3 -0.008680 -0.005816 0.012032 0.000000 0.000000 0.000000
# 4 0.000000 0.000000 0.000000 0.056129 0.000000 0.000000
# 5 0.000000 0.000000 0.000000 0.000000 0.039266 0.000000
# 6 0.000000 0.000000 0.000000 0.000000 0.000000 0.043858
#
#
# Mechanical properties :
#
#
# Convention : Reuss Voigt Hill
#
# Bulk Modulus (GPa) = 12.16833 41.65240 26.91037
# Shear Modulus (GPa) = 17.44293 25.49172 21.46732
#
# Velocity S-wave (km/s) = 2.93602 3.54935 3.25716
# Velocity P-wave (km/s) = 4.18416 6.11405 5.23874
#
# Compressibility (1/GPa) = 0.08218052
#
# Stress axis : x y z
#
# Youngs Moduli (GPa) = 12.87234 87.92329 83.10957
#
# Poissons Ratio (x) = -0.44314 0.72136
# Poissons Ratio (y) = -0.06488 0.48337
# Poissons Ratio (z) = 0.11173 0.51137
#
# Static dielectric constant tensor:
#      x y z
#    x 1.786220 0.000000 0.000000 
#    y 0.000000 1.734000 0.000000 
#    z 0.000000 0.000000 1.705800 
# 
# From -- ./inp_files/32240.got.cif
#   From: 2010.05.17/outbox.cif.g08.bks.cpg/sg58_17_cif.got.tgz:32240.got - 2010.06.03 14:20:14.
