data_PCOD9444230
_publ_section_title
;
Structure prediction by ZEFSAII (Michael W. Deem and Ramdas Pophale) SiO2 
 PCOD9444230
Probable space group: P N N M
;
_chemical_formula_sum "Si O2"
_cell_formula_units_Z 40
_cell_length_a 8.255702
_cell_length_b 13.935599
_cell_length_c 15.076842
_cell_angle_alpha 90.000000
_cell_angle_beta 90.000000
_cell_angle_gamma 90.000000
_cell_volume 1734.562818
_symmetry_space_group_name_H-M "P N N M"
_symmetry_group_IT_number 58
_symmetry_cell_setting 'orthorhombic'
loop_
_space_group_symop_operation_xyz
x,y,z
-x,-y,z
1/2+x,1/2-y,1/2-z
1/2-x,1/2+y,1/2-z
-x,-y,-z
x,y,-z
1/2-x,1/2+y,1/2+z
1/2+x,1/2-y,1/2+z
loop_
_atom_site_type_symbol
_atom_site_label
_atom_site_fract_x
_atom_site_fract_y
_atom_site_fract_z
Si Si1 0.642554 0.787732 0.203641
Si Si2 0.676344 0.788832 0.405480
Si Si3 0.028064 0.889702 0.601704
Si Si4 0.367789 0.893863 0.098202
Si Si5 0.650478 0.431247 0.394081
O O1 0.615623 0.805232 0.307269
O O2 0.630132 0.678007 0.168148
O O3 0.490772 0.841539 0.160874
O O4 0.805170 0.838871 0.165172
O O5 0.594517 0.814304 0.500000
O O6 0.850800 0.841604 0.405530
O O7 0.711310 0.675138 0.406723
O O8 0.095524 0.889083 0.500000
O O9 0.000000 0.000000 0.629476
O O10 0.305084 0.998522 0.119158
O O11 0.441081 0.891625 0.000000
O O12 0.500000 0.500000 0.369739
O O13 0.639080 0.409064 0.500000
#
# Coordination Sequence:
#
# PCOD9444230 Si02
#       5
#     8   8   8   8   8
#     4  11  20  33  62  92 118 159 209 250 304 385
#     4   9  20  36  54  82 120 160 201 254 310 355
#     4   9  19  38  62  88 122 164 209 255 305 371
#     4   9  19  38  60  83 118 158 195 243 309 379
#     4  10  21  36  58  93 130 157 191 254 327 384
#
# _framework density 23.060565
#
# number of rings (size 3 to 8) (size 9 to 14) (size 15 to 20)
#    0.000    2.400    0.000    3.600    0.000    7.200 
#    0.000    0.000    0.000   12.600    0.000    4.200 
#    0.000   24.000    0.000    0.000    0.000    0.000 
#
# Total GULP energy -223259.227448 kJ/mol
# GULP energy per Si atom -5581.480686 kJ/mol
# Density = 2.300808 g / cm^3
# Si number density = 23.060565 Si / 1000 Ang^3
#
#
#
# Elastic Constant Matrix: (Units=GPa)
#
#
# Indices 1 2 3 4 5 6 
#
# 1 50.3577 26.1950 46.3848 0.0000 0.0000 0.0000
# 2 26.1950 132.8867 64.7517 0.0000 0.0000 0.0000
# 3 46.3848 64.7517 165.1977 0.0000 0.0000 0.0000
# 4 0.0000 0.0000 0.0000 30.1362 0.0000 0.0000
# 5 0.0000 0.0000 0.0000 0.0000 -29.6817 0.0000
# 6 0.0000 0.0000 0.0000 0.0000 0.0000 38.5782
#
#
#
# Elastic Compliance Matrix: (Units=1/GPa)
#
#
# Indices 1 2 3 4 5 6 
#
# 1 0.027221 -0.002029 -0.006848 0.000000 0.000000 0.000000
# 2 -0.002029 0.009453 -0.003136 0.000000 0.000000 0.000000
# 3 -0.006848 -0.003136 0.009205 0.000000 0.000000 0.000000
# 4 0.000000 0.000000 0.000000 0.033183 0.000000 0.000000
# 5 0.000000 0.000000 0.000000 0.000000 -0.033691 0.000000
# 6 0.000000 0.000000 0.000000 0.000000 0.000000 0.025921
#
#
# Mechanical properties :
#
#
# Convention : Reuss Voigt Hill
#
# Bulk Modulus (GPa) = 45.75781 69.23391 57.49586
# Shear Modulus (GPa) = 48.73185 21.88057 35.30621
#
# Velocity S-wave (km/s) = 4.60195 3.08365 3.91707
# Velocity P-wave (km/s) = 6.93706 6.53960 6.74126
#
# Compressibility (1/GPa) = 0.02185419
#
# Stress axis : x y z
#
# Youngs Moduli (GPa) = 36.73627 105.78615 108.63501
#
# Poissons Ratio (x) = 0.21465 0.74392
# Poissons Ratio (y) = 0.07454 0.34063
# Poissons Ratio (z) = 0.25157 0.33169
#
# Static dielectric constant tensor:
#      x y z
#    x 1.942290 0.000000 0.000000 
#    y 0.000000 1.886020 0.000000 
#    z 0.000000 0.000000 1.912380 
# 
# From -- ./inp_files/19501.got.cif
#   From: 2010.05.17/outbox.cif.g08.bks.cpg/sg58_10_cif.got.tgz:19501.got - 2010.06.03 14:20:14.
