data_PCOD9444373
_publ_section_title
;
Structure prediction by ZEFSAII (Michael W. Deem and Ramdas Pophale) SiO2 
 PCOD9444373
Probable space group: P N N M
;
_chemical_formula_sum "Si O2"
_cell_formula_units_Z 56
_cell_length_a 13.721842
_cell_length_b 20.477618
_cell_length_c 10.193366
_cell_angle_alpha 90.000000
_cell_angle_beta 90.000000
_cell_angle_gamma 90.000000
_cell_volume 2864.240423
_symmetry_space_group_name_H-M "P N N M"
_symmetry_group_IT_number 58
_symmetry_cell_setting 'orthorhombic'
loop_
_space_group_symop_operation_xyz
x,y,z
-x,-y,z
1/2+x,1/2-y,1/2-z
1/2-x,1/2+y,1/2-z
-x,-y,-z
x,y,-z
1/2-x,1/2+y,1/2+z
1/2+x,1/2-y,1/2+z
loop_
_atom_site_type_symbol
_atom_site_label
_atom_site_fract_x
_atom_site_fract_y
_atom_site_fract_z
Si Si1 0.751772 0.738688 0.157114
Si Si2 0.659640 0.337449 0.144445
Si Si3 0.957919 0.194770 0.243102
Si Si4 0.426313 0.059864 0.348820
Si Si5 0.219092 0.015335 0.347580
Si Si6 0.086768 0.947008 0.146853
Si Si7 0.551183 0.175609 0.650457
O O1 0.777532 0.803159 0.241720
O O2 0.645399 0.712131 0.192310
O O3 0.839169 0.689013 0.198936
O O4 0.760347 0.749623 0.000000
O O5 0.548027 0.314920 0.157614
O O6 0.662836 0.415552 0.155374
O O7 0.698389 0.319502 0.000000
O O8 0.949707 0.126812 0.165888
O O9 0.993680 0.256222 0.157539
O O10 0.399761 0.078662 0.500000
O O11 0.325390 0.033817 0.292675
O O12 0.482917 0.120643 0.285494
O O13 0.500000 0.000000 0.353045
O O14 0.226018 0.993497 0.500000
O O15 0.164308 0.963561 0.258808
O O16 0.127312 0.954446 0.000000
O O17 0.000000 0.000000 0.159884
O O18 0.564310 0.154197 0.500000
#
# Coordination Sequence:
#
# PCOD9444373 Si02
#       7
#     8   8   8   8   8   8   8
#     4  10  22  36  59  90 119 153 197 246 298 352
#     4  10  21  38  59  86 120 158 198 243 301 359
#     4  11  21  37  59  85 118 157 199 253 298 356
#     4   9  18  33  57  86 116 150 192 242 296 352
#     4  10  21  37  59  87 118 158 201 250 300 356
#     4  11  24  40  59  87 121 162 204 250 307 367
#     4   9  19  36  56  83 116 152 195 239 291 356
#
# _framework density 19.551431999999998
#
# number of rings (size 3 to 8) (size 9 to 14) (size 15 to 20)
#    0.000    2.000    1.429    1.714    2.000    4.857 
#    0.000    0.000    0.000    1.286    0.000    0.000 
#    0.000    0.000    0.000    0.000    0.000    0.000 
#
# Total GULP energy -312250.694499 kJ/mol
# GULP energy per Si atom -5575.905259 kJ/mol
# Density = 1.950693 g / cm^3
# Si number density = 19.551432 Si / 1000 Ang^3
#
#
#
# Elastic Constant Matrix: (Units=GPa)
#
#
# Indices 1 2 3 4 5 6 
#
# 1 109.9009 26.7006 23.4070 0.0000 0.0000 0.0000
# 2 26.7006 72.2011 13.2446 0.0000 0.0000 0.0000
# 3 23.4070 13.2446 69.9102 0.0000 0.0000 0.0000
# 4 0.0000 0.0000 0.0000 17.2426 0.0000 0.0000
# 5 0.0000 0.0000 0.0000 0.0000 6.1456 0.0000
# 6 0.0000 0.0000 0.0000 0.0000 0.0000 28.0636
#
#
#
# Elastic Compliance Matrix: (Units=1/GPa)
#
#
# Indices 1 2 3 4 5 6 
#
# 1 0.010532 -0.003365 -0.002889 0.000000 0.000000 0.000000
# 2 -0.003365 0.015424 -0.001795 0.000000 0.000000 0.000000
# 3 -0.002889 -0.001795 0.015611 0.000000 0.000000 0.000000
# 4 0.000000 0.000000 0.000000 0.057996 0.000000 0.000000
# 5 0.000000 0.000000 0.000000 0.000000 0.162718 0.000000
# 6 0.000000 0.000000 0.000000 0.000000 0.000000 0.035633
#
#
# Mechanical properties :
#
#
# Convention : Reuss Voigt Hill
#
# Bulk Modulus (GPa) = 39.26336 42.07959 40.67148
# Shear Modulus (GPa) = 15.50375 22.86769 19.18572
#
# Velocity S-wave (km/s) = 2.81903 3.42368 3.13596
# Velocity P-wave (km/s) = 5.54271 6.09902 5.82750
#
# Compressibility (1/GPa) = 0.02546904
#
# Stress axis : x y z
#
# Youngs Moduli (GPa) = 94.95001 64.83435 64.05565
#
# Poissons Ratio (x) = 0.21816 0.18504
# Poissons Ratio (y) = 0.31949 0.11501
# Poissons Ratio (z) = 0.27429 0.11641
#
# Static dielectric constant tensor:
#      x y z
#    x 1.708600 0.000000 0.000000 
#    y 0.000000 1.699890 0.000000 
#    z 0.000000 0.000000 1.678650 
# 
# From -- ./inp_files/14566.got.cif
#   From: 2010.05.17/outbox.cif.g08.bks.cpg/sg58_8_cif.got.tgz:14566.got - 2010.06.03 14:20:14.
