data_PCOD9444840
_publ_section_title
;
Structure prediction by ZEFSAII (Michael W. Deem and Ramdas Pophale) SiO2 
 PCOD9444840
Probable space group: P N N M
;
_chemical_formula_sum "Si O2"
_cell_formula_units_Z 64
_cell_length_a 31.458585
_cell_length_b 12.261523
_cell_length_c 8.205318
_cell_angle_alpha 90.000000
_cell_angle_beta 90.000000
_cell_angle_gamma 90.000000
_cell_volume 3165.038654
_symmetry_space_group_name_H-M "P N N M"
_symmetry_group_IT_number 58
_symmetry_cell_setting 'orthorhombic'
loop_
_space_group_symop_operation_xyz
x,y,z
-x,-y,z
1/2+x,1/2-y,1/2-z
1/2-x,1/2+y,1/2-z
-x,-y,-z
x,y,-z
1/2-x,1/2+y,1/2+z
1/2+x,1/2-y,1/2+z
loop_
_atom_site_type_symbol
_atom_site_label
_atom_site_fract_x
_atom_site_fract_y
_atom_site_fract_z
Si Si1 0.050901 0.752243 0.192244
Si Si2 0.300983 0.260070 0.198833
Si Si3 0.161339 0.992647 0.693257
Si Si4 0.567349 0.502854 0.309215
Si Si5 0.626324 0.151398 0.801962
Si Si6 0.205934 0.205613 0.804827
Si Si7 0.126000 0.598101 0.304814
Si Si8 0.040401 0.226993 0.692408
O O1 0.083898 0.667247 0.266760
O O2 0.001809 0.726308 0.225258
O O3 0.058468 0.875667 0.256717
O O4 0.059119 0.755175 0.000000
O O5 0.319642 0.377121 0.247304
O O6 0.252556 0.243138 0.251312
O O7 0.333135 0.165864 0.256094
O O8 0.301053 0.258934 0.000000
O O9 0.151935 0.988028 0.500000
O O10 0.117491 0.015921 0.785104
O O11 0.193605 0.090106 0.727406
O O12 0.556021 0.500432 0.500000
O O13 0.543730 0.402240 0.225951
O O14 0.668837 0.210191 0.741581
O O15 0.584078 0.216857 0.749247
O O16 0.624293 0.026098 0.745416
O O17 0.626971 0.154448 0.000000
O O18 0.206771 0.193828 0.000000
O O19 0.129892 0.592115 0.500000
O O20 0.036918 0.245462 0.500000
#
# Coordination Sequence:
#
# PCOD9444840 Si02
#       8
#     8   8   8   8   8   8   8   8
#     4  11  24  40  60  90 123 154 198 250 306 361
#     4   9  21  39  61  89 120 157 200 245 296 358
#     4  11  21  38  63  90 121 157 201 247 295 356
#     4  11  22  38  60  90 124 155 194 250 305 356
#     4  10  23  41  62  88 118 158 206 251 294 354
#     4  11  23  39  61  91 125 160 199 247 306 357
#     4  10  21  42  65  84 116 160 204 249 297 355
#     4  11  23  39  61  89 121 159 204 246 298 362
#
# _framework density 20.220922000000002
#
# number of rings (size 3 to 8) (size 9 to 14) (size 15 to 20)
#    0.000    1.500    2.500    2.250    1.750    4.500 
#    0.000    5.625    0.000    0.000    0.000    0.000 
#    0.000    0.000    0.000    0.000    0.000    0.000 
#
# Total GULP energy -357757.046402 kJ/mol
# GULP energy per Si atom -5589.953850 kJ/mol
# Density = 2.017490 g / cm^3
# Si number density = 20.220922 Si / 1000 Ang^3
#
#
#
# Elastic Constant Matrix: (Units=GPa)
#
#
# Indices 1 2 3 4 5 6 
#
# 1 102.6296 33.1788 -3.5028 0.0000 0.0000 0.0000
# 2 33.1788 126.7983 6.3725 0.0000 0.0000 0.0000
# 3 -3.5028 6.3725 7.8141 0.0000 0.0000 0.0000
# 4 0.0000 0.0000 0.0000 29.4944 0.0000 0.0000
# 5 0.0000 0.0000 0.0000 0.0000 20.5804 0.0000
# 6 0.0000 0.0000 0.0000 0.0000 0.0000 17.5383
#
#
#
# Elastic Compliance Matrix: (Units=1/GPa)
#
#
# Indices 1 2 3 4 5 6 
#
# 1 0.011064 -0.003279 0.007634 0.000000 0.000000 0.000000
# 2 -0.003279 0.009195 -0.008969 0.000000 0.000000 0.000000
# 3 0.007634 -0.008969 0.138709 0.000000 0.000000 0.000000
# 4 0.000000 0.000000 0.000000 0.033905 0.000000 0.000000
# 5 0.000000 0.000000 0.000000 0.000000 0.048590 0.000000
# 6 0.000000 0.000000 0.000000 0.000000 0.000000 0.057018
#
#
# Mechanical properties :
#
#
# Convention : Reuss Voigt Hill
#
# Bulk Modulus (GPa) = 6.67818 34.37100 20.52459
# Shear Modulus (GPa) = 13.98121 26.93551 20.45836
#
# Velocity S-wave (km/s) = 2.63235 3.65370 3.18424
# Velocity P-wave (km/s) = 3.54242 5.90203 4.86738
#
# Compressibility (1/GPa) = 0.14974135
#
# Stress axis : x y z
#
# Youngs Moduli (GPa) = 90.38061 108.75198 7.20933
#
# Poissons Ratio (x) = 0.35658 -0.05503
# Poissons Ratio (y) = 0.29634 0.06466
# Poissons Ratio (z) = -0.68994 0.97536
#
# Static dielectric constant tensor:
#      x y z
#    x 1.695180 0.000000 0.000000 
#    y 0.000000 1.700160 0.000000 
#    z 0.000000 0.000000 1.710140 
# 
# From -- ./inp_files/4768.got.cif
#   From: 2010.05.17/outbox.cif.g08.bks.cpg/sg58_3_cif.got.tgz:4768.got - 2010.06.03 14:20:14.
