data_PCOD9444270
_publ_section_title
;
Structure prediction by ZEFSAII (Michael W. Deem and Ramdas Pophale) SiO2 
 PCOD9444270
Probable space group: P N N M
;
_chemical_formula_sum "Si O2"
_cell_formula_units_Z 56
_cell_length_a 5.404680
_cell_length_b 31.438701
_cell_length_c 14.981048
_cell_angle_alpha 90.000000
_cell_angle_beta 90.000000
_cell_angle_gamma 90.000000
_cell_volume 2545.521528
_symmetry_space_group_name_H-M "P N N M"
_symmetry_group_IT_number 58
_symmetry_cell_setting 'orthorhombic'
loop_
_space_group_symop_operation_xyz
x,y,z
-x,-y,z
1/2+x,1/2-y,1/2-z
1/2-x,1/2+y,1/2-z
-x,-y,-z
x,y,-z
1/2-x,1/2+y,1/2+z
1/2+x,1/2-y,1/2+z
loop_
_atom_site_type_symbol
_atom_site_label
_atom_site_fract_x
_atom_site_fract_y
_atom_site_fract_z
Si Si1 0.749758 0.476535 0.192688
Si Si2 0.702538 0.151424 0.741525
Si Si3 0.765155 0.457175 0.600307
Si Si4 0.523569 0.764300 0.206569
Si Si5 0.390092 0.108639 0.397054
Si Si6 0.450758 0.690825 0.097067
Si Si7 0.270694 0.402889 0.403988
O O1 0.500000 0.500000 0.165841
O O2 0.764006 0.478088 0.301506
O O3 0.737683 0.429315 0.149518
O O4 0.000000 0.500000 0.160408
O O5 0.507674 0.185118 0.782036
O O6 0.605587 0.115473 0.674329
O O7 0.821674 0.128974 0.824824
O O8 0.886245 0.177303 0.680027
O O9 0.781658 0.477929 0.500000
O O10 0.497948 0.435217 0.597527
O O11 0.004667 0.426032 0.605534
O O12 0.813215 0.754250 0.224613
O O13 0.422125 0.741057 0.116830
O O14 0.451015 0.097876 0.500000
O O15 0.268634 0.156146 0.400644
O O16 0.571077 0.685338 0.000000
O O17 0.268935 0.380972 0.500000
#
# Coordination Sequence:
#
# PCOD9444270 Si02
#       7
#     8   8   8   8   8   8   8
#     4  12  27  44  67  97 130 172 219 280 341 395
#     4  11  21  38  68  93 136 174 222 266 331 383
#     4  10  21  41  65  95 127 164 212 262 320 398
#     4  10  21  38  60  93 127 165 210 267 317 366
#     4  11  24  43  68  94 127 180 228 275 330 399
#     4  10  22  40  65  98 132 177 228 268 322 395
#     4  10  21  36  64  96 129 167 212 259 318 392
#
# _framework density 21.999420000000001
#
# number of rings (size 3 to 8) (size 9 to 14) (size 15 to 20)
#    0.000    1.429    2.857    2.143    2.000    1.714 
#    0.000    0.000    0.000    0.857    0.000    0.000 
#    0.000    0.000    0.000    0.000    0.000    0.000 
#
# Total GULP energy -311853.284704 kJ/mol
# GULP energy per Si atom -5568.808655 kJ/mol
# Density = 2.194935 g / cm^3
# Si number density = 21.999420 Si / 1000 Ang^3
#
#
#
# Elastic Constant Matrix: (Units=GPa)
#
#
# Indices 1 2 3 4 5 6 
#
# 1 62.6418 12.3628 23.2801 0.0000 0.0000 0.0000
# 2 12.3628 49.5948 39.7721 0.0000 0.0000 0.0000
# 3 23.2801 39.7721 127.4383 0.0000 0.0000 0.0000
# 4 0.0000 0.0000 0.0000 26.0402 0.0000 0.0000
# 5 0.0000 0.0000 0.0000 0.0000 47.4743 0.0000
# 6 0.0000 0.0000 0.0000 0.0000 0.0000 27.7963
#
#
#
# Elastic Compliance Matrix: (Units=1/GPa)
#
#
# Indices 1 2 3 4 5 6 
#
# 1 0.017334 -0.002376 -0.002425 0.000000 0.000000 0.000000
# 2 -0.002376 0.027220 -0.008061 0.000000 0.000000 0.000000
# 3 -0.002425 -0.008061 0.010806 0.000000 0.000000 0.000000
# 4 0.000000 0.000000 0.000000 0.038402 0.000000 0.000000
# 5 0.000000 0.000000 0.000000 0.000000 0.021064 0.000000
# 6 0.000000 0.000000 0.000000 0.000000 0.000000 0.035976
#
#
# Mechanical properties :
#
#
# Convention : Reuss Voigt Hill
#
# Bulk Modulus (GPa) = 33.74348 43.38944 38.56646
# Shear Modulus (GPa) = 26.82330 31.21280 29.01805
#
# Velocity S-wave (km/s) = 3.49560 3.77078 3.63580
# Velocity P-wave (km/s) = 5.62707 6.22288 5.93246
#
# Compressibility (1/GPa) = 0.02963535
#
# Stress axis : x y z
#
# Youngs Moduli (GPa) = 57.69023 36.73737 92.54391
#
# Poissons Ratio (x) = 0.08730 0.22441
# Poissons Ratio (y) = 0.13709 0.74600
# Poissons Ratio (z) = 0.13989 0.29614
#
# Static dielectric constant tensor:
#      x y z
#    x 1.846930 0.000000 0.000000 
#    y 0.000000 1.939590 0.000000 
#    z 0.000000 0.000000 1.805620 
# 
# From -- ./inp_files/18725.got.cif
#   From: 2010.05.17/outbox.cif.g08.bks.cpg/sg58_10_cif.got.tgz:18725.got - 2010.06.03 14:20:14.
