data_PCOD9444062
_publ_section_title
;
Structure prediction by ZEFSAII (Michael W. Deem and Ramdas Pophale) SiO2 
 PCOD9444062
Probable space group: P N N M
;
_chemical_formula_sum "Si O2"
_cell_formula_units_Z 64
_cell_length_a 16.088682
_cell_length_b 21.396209
_cell_length_c 10.183733
_cell_angle_alpha 90.000000
_cell_angle_beta 90.000000
_cell_angle_gamma 90.000000
_cell_volume 3505.615687
_symmetry_space_group_name_H-M "P N N M"
_symmetry_group_IT_number 58
_symmetry_cell_setting 'orthorhombic'
loop_
_space_group_symop_operation_xyz
x,y,z
-x,-y,z
1/2+x,1/2-y,1/2-z
1/2-x,1/2+y,1/2-z
-x,-y,-z
x,y,-z
1/2-x,1/2+y,1/2+z
1/2+x,1/2-y,1/2+z
loop_
_atom_site_type_symbol
_atom_site_label
_atom_site_fract_x
_atom_site_fract_y
_atom_site_fract_z
Si Si1 0.307086 0.982743 0.357588
Si Si2 0.855984 0.104912 0.358547
Si Si3 0.905642 0.017683 0.144743
Si Si4 0.060675 0.440573 0.349647
Si Si5 0.501397 0.803631 0.841367
Si Si6 0.173202 0.075978 0.649082
Si Si7 0.163157 0.223943 0.344639
Si Si8 0.180959 0.748793 0.346737
O O1 0.349175 0.978854 0.500000
O O2 0.228156 0.936080 0.360164
O O3 0.364263 0.959662 0.242445
O O4 0.269047 0.052363 0.342438
O O5 0.899450 0.093869 0.500000
O O6 0.902062 0.080412 0.230649
O O7 0.836228 0.177329 0.350224
O O8 0.868029 0.963517 0.235735
O O9 0.865948 0.023144 0.000000
O O10 0.000000 0.000000 0.128579
O O11 0.088290 0.430672 0.500000
O O12 0.018708 0.375453 0.305677
O O13 0.000000 0.500000 0.347599
O O14 0.422398 0.759613 0.804024
O O15 0.594123 0.782772 0.799290
O O16 0.504719 0.799717 0.000000
O O17 0.146652 0.057525 0.500000
O O18 0.155613 0.148850 0.662406
O O19 0.178905 0.239591 0.500000
O O20 0.240744 0.238979 0.249385
O O21 0.197728 0.729146 0.500000
#
# Coordination Sequence:
#
# PCOD9444062 Si02
#       8
#     8   8   8   8   8   8   8   8
#     4   9  18  34  53  78 108 134 177 231 276 333
#     4   9  19  35  56  80 105 143 188 227 276 342
#     4  10  21  34  51  80 115 145 180 229 283 334
#     4  10  21  35  54  79 107 143 185 227 276 336
#     4   9  20  38  57  83 116 150 193 236 280 346
#     4   9  20  36  56  82 110 147 191 232 283 348
#     4  10  21  38  60  84 115 154 195 241 291 344
#     4  10  21  37  60  86 114 151 193 240 289 342
#
# _framework density 18.256423000000002
#
# number of rings (size 3 to 8) (size 9 to 14) (size 15 to 20)
#    0.000    2.500    0.000    1.875    3.500    4.250 
#    0.000    1.250    0.000    0.000    0.000    0.000 
#    0.000    0.000    0.000    0.000    0.000    0.000 
#
# Total GULP energy -356276.853495 kJ/mol
# GULP energy per Si atom -5566.825836 kJ/mol
# Density = 1.821487 g / cm^3
# Si number density = 18.256423 Si / 1000 Ang^3
#
#
#
# Elastic Constant Matrix: (Units=GPa)
#
#
# Indices 1 2 3 4 5 6 
#
# 1 62.3662 6.6167 34.3514 0.0000 0.0000 0.0000
# 2 6.6167 81.2063 19.9087 0.0000 0.0000 0.0000
# 3 34.3514 19.9087 104.7952 0.0000 0.0000 0.0000
# 4 0.0000 0.0000 0.0000 12.2540 0.0000 0.0000
# 5 0.0000 0.0000 0.0000 0.0000 58.9041 0.0000
# 6 0.0000 0.0000 0.0000 0.0000 0.0000 18.2449
#
#
#
# Elastic Compliance Matrix: (Units=1/GPa)
#
#
# Indices 1 2 3 4 5 6 
#
# 1 0.019567 -0.000023 -0.006410 0.000000 0.000000 0.000000
# 2 -0.000023 0.012916 -0.002446 0.000000 0.000000 0.000000
# 3 -0.006410 -0.002446 0.012108 0.000000 0.000000 0.000000
# 4 0.000000 0.000000 0.000000 0.081606 0.000000 0.000000
# 5 0.000000 0.000000 0.000000 0.000000 0.016977 0.000000
# 6 0.000000 0.000000 0.000000 0.000000 0.000000 0.054810
#
#
# Mechanical properties :
#
#
# Convention : Reuss Voigt Hill
#
# Bulk Modulus (GPa) = 37.26662 41.12461 39.19561
# Shear Modulus (GPa) = 22.25328 30.38000 26.31664
#
# Velocity S-wave (km/s) = 3.49510 4.08373 3.80083
# Velocity P-wave (km/s) = 6.06175 6.69409 6.38575
#
# Compressibility (1/GPa) = 0.02683367
#
# Stress axis : x y z
#
# Youngs Moduli (GPa) = 51.10583 77.42393 82.58848
#
# Poissons Ratio (x) = 0.00178 0.52937
# Poissons Ratio (y) = 0.00117 0.20203
# Poissons Ratio (z) = 0.32757 0.18940
#
# Static dielectric constant tensor:
#      x y z
#    x 1.660150 0.000000 0.000000 
#    y 0.000000 1.631760 0.000000 
#    z 0.000000 0.000000 1.698470 
# 
# From -- ./inp_files/8363.got.cif
#   From: 2010.05.17/outbox.cif.g08.bks.cpg/sg58_5_cif.got.tgz:8363.got - 2010.06.03 14:20:14.
