data_PCOD9444636
_publ_section_title
;
Structure prediction by ZEFSAII (Michael W. Deem and Ramdas Pophale) SiO2 
 PCOD9444636
Probable space group: P N N M
;
_chemical_formula_sum "Si O2"
_cell_formula_units_Z 48
_cell_length_a 15.329771
_cell_length_b 19.144465
_cell_length_c 8.643505
_cell_angle_alpha 90.000000
_cell_angle_beta 90.000000
_cell_angle_gamma 90.000000
_cell_volume 2536.698132
_symmetry_space_group_name_H-M "P N N M"
_symmetry_group_IT_number 58
_symmetry_cell_setting 'orthorhombic'
loop_
_space_group_symop_operation_xyz
x,y,z
-x,-y,z
1/2+x,1/2-y,1/2-z
1/2-x,1/2+y,1/2-z
-x,-y,-z
x,y,-z
1/2-x,1/2+y,1/2+z
1/2+x,1/2-y,1/2+z
loop_
_atom_site_type_symbol
_atom_site_label
_atom_site_fract_x
_atom_site_fract_y
_atom_site_fract_z
Si Si1 0.941913 0.434357 0.813024
Si Si2 0.902511 0.021011 0.814637
Si Si3 0.700258 0.257202 0.813189
Si Si4 0.742861 0.416535 0.813104
Si Si5 0.994752 0.713456 0.313333
Si Si6 0.360420 0.326673 0.814663
O O1 0.840507 0.438473 0.764201
O O2 0.981212 0.361660 0.754269
O O3 0.000000 0.500000 0.760568
O O4 0.942882 0.433516 0.000000
O O5 0.879833 0.097930 0.754912
O O6 0.831144 0.966584 0.753264
O O7 0.901082 0.020486 0.000000
O O8 0.000000 0.000000 0.762318
O O9 0.725110 0.336225 0.767067
O O10 0.601715 0.238383 0.767961
O O11 0.768328 0.203627 0.740473
O O12 0.706493 0.253392 0.000000
O O13 0.739039 0.419744 0.000000
O O14 0.997351 0.709172 0.500000
O O15 0.065940 0.770894 0.264497
O O16 0.362208 0.331487 0.000000
#
# Coordination Sequence:
#
# PCOD9444636 Si02
#       6
#     8   8   8   8   8   8
#     4  10  22  39  60  88 122 160 203 247 299 361
#     4  11  25  42  62  90 124 161 203 251 304 360
#     4  10  21  39  62  89 121 159 199 247 305 359
#     4  10  21  40  64  89 125 165 200 248 305 361
#     4  10  22  39  61  89 119 155 201 249 301 360
#     4  11  23  40  63  91 122 158 203 250 301 363
#
# _framework density 18.922235000000001
#
# number of rings (size 3 to 8) (size 9 to 14) (size 15 to 20)
#    0.000    1.667    1.667    2.000    2.333    5.667 
#    0.000    0.000    0.000    0.000    0.000    0.000 
#    0.000    0.000    0.000    0.000    0.000    0.000 
#
# Total GULP energy -268298.966458 kJ/mol
# GULP energy per Si atom -5589.561801 kJ/mol
# Density = 1.887917 g / cm^3
# Si number density = 18.922235 Si / 1000 Ang^3
#
#
#
# Elastic Constant Matrix: (Units=GPa)
#
#
# Indices 1 2 3 4 5 6 
#
# 1 145.5195 50.5636 21.8835 0.0000 0.0000 0.0000
# 2 50.5636 123.7065 18.1922 0.0000 0.0000 0.0000
# 3 21.8835 18.1922 9.9643 0.0000 0.0000 0.0000
# 4 0.0000 0.0000 0.0000 -29.7437 0.0000 0.0000
# 5 0.0000 0.0000 0.0000 0.0000 21.5249 0.0000
# 6 0.0000 0.0000 0.0000 0.0000 0.0000 42.2649
#
#
#
# Elastic Compliance Matrix: (Units=1/GPa)
#
#
# Indices 1 2 3 4 5 6 
#
# 1 0.010393 -0.001219 -0.020601 0.000000 0.000000 0.000000
# 2 -0.001219 0.011194 -0.017760 0.000000 0.000000 0.000000
# 3 -0.020601 -0.017760 0.178028 0.000000 0.000000 0.000000
# 4 0.000000 0.000000 0.000000 -0.033621 0.000000 0.000000
# 5 0.000000 0.000000 0.000000 0.000000 0.046458 0.000000
# 6 0.000000 0.000000 0.000000 0.000000 0.000000 0.023660
#
#
# Mechanical properties :
#
#
# Convention : Reuss Voigt Hill
#
# Bulk Modulus (GPa) = 8.30185 51.16320 29.73253
# Shear Modulus (GPa) = 14.06772 19.37930 16.72351
#
# Velocity S-wave (km/s) = 2.72958 3.20371 2.97611
# Velocity P-wave (km/s) = 3.78564 6.38611 5.24945
#
# Compressibility (1/GPa) = 0.12045505
#
# Stress axis : x y z
#
# Youngs Moduli (GPa) = 96.21518 89.33707 5.61710
#
# Poissons Ratio (x) = 0.10887 0.11572
# Poissons Ratio (y) = 0.11725 0.09976
# Poissons Ratio (z) = 1.98213 1.58665
#
# Static dielectric constant tensor:
#      x y z
#    x 1.635440 0.000000 0.000000 
#    y 0.000000 1.610030 0.000000 
#    z 0.000000 0.000000 1.640010 
# 
# From -- ./inp_files/5747.got.cif
#   From: 2010.05.17/outbox.cif.g08.bks.cpg/sg58_3_cif.got.tgz:5747.got - 2010.06.03 14:20:14.
