data_PCOD9444266
_publ_section_title
;
Structure prediction by ZEFSAII (Michael W. Deem and Ramdas Pophale) SiO2 
 PCOD9444266
Probable space group: P N N M
;
_chemical_formula_sum "Si O2"
_cell_formula_units_Z 58
_cell_length_a 24.607355
_cell_length_b 13.327502
_cell_length_c 7.589883
_cell_angle_alpha 90.000000
_cell_angle_beta 90.000000
_cell_angle_gamma 90.000000
_cell_volume 2489.136838
_symmetry_space_group_name_H-M "P N N M"
_symmetry_group_IT_number 58
_symmetry_cell_setting 'orthorhombic'
loop_
_space_group_symop_operation_xyz
x,y,z
-x,-y,z
1/2+x,1/2-y,1/2-z
1/2-x,1/2+y,1/2-z
-x,-y,-z
x,y,-z
1/2-x,1/2+y,1/2+z
1/2+x,1/2-y,1/2+z
loop_
_atom_site_type_symbol
_atom_site_label
_atom_site_fract_x
_atom_site_fract_y
_atom_site_fract_z
Si Si1 0.500000 0.000000 0.000000
Si Si2 0.618111 0.445728 0.714963
Si Si3 0.490746 0.641619 0.292561
Si Si4 0.613406 0.663703 0.286450
Si Si5 0.695680 0.263362 0.285371
Si Si6 0.641117 0.054798 0.793565
Si Si7 0.973986 0.630798 0.809112
Si Si8 0.310545 0.153476 0.205392
O O1 0.508556 0.915456 0.845624
O O2 0.616724 0.442798 0.500000
O O3 0.555666 0.432062 0.776896
O O4 0.639503 0.556050 0.763280
O O5 0.654164 0.351429 0.770350
O O6 0.497812 0.616774 0.500000
O O7 0.551257 0.655289 0.222708
O O8 0.464454 0.751707 0.282018
O O9 0.613375 0.670850 0.500000
O O10 0.643831 0.761400 0.219837
O O11 0.694598 0.257852 0.500000
O O12 0.678345 0.153630 0.219691
O O13 0.755018 0.298809 0.223154
O O14 0.584883 0.079700 0.698631
O O15 0.669536 0.954007 0.724520
O O16 0.624918 0.039755 0.000000
O O17 0.000264 0.618441 0.000000
O O18 0.299067 0.132806 0.000000
#
# Coordination Sequence:
#
# PCOD9444266 Si02
#       8
#     2   8   8   8   8   8   8   8
#     4  12  26  40  60  94 134 176 222 272 336 386
#     4   9  17  34  63  91 118 154 206 263 317 381
#     4   9  18  35  60  93 123 159 206 261 322 388
#     4  10  21  36  62  93 124 159 207 259 317 389
#     4  10  21  41  65  89 119 165 213 268 328 393
#     4  11  23  42  65  93 127 168 218 274 330 396
#     4  11  23  40  64  94 131 178 224 271 330 405
#     4  10  25  42  60  87 128 168 209 265 332 387
#
# _framework density 23.301251000000001
#
# number of rings (size 3 to 8) (size 9 to 14) (size 15 to 20)
#    0.000    1.931    2.069    1.034    3.862    3.310 
#    0.000    0.690    1.517    0.828    0.000    0.000 
#    0.000    0.000    0.000    0.000    0.000    0.000 
#
# Total GULP energy -323665.396071 kJ/mol
# GULP energy per Si atom -5580.437863 kJ/mol
# Density = 2.324822 g / cm^3
# Si number density = 23.301251 Si / 1000 Ang^3
#
#
#
# Elastic Constant Matrix: (Units=GPa)
#
#
# Indices 1 2 3 4 5 6 
#
# 1 104.4186 64.7844 -9.1251 0.0000 0.0000 0.0000
# 2 64.7844 180.5981 1.5228 0.0000 0.0000 0.0000
# 3 -9.1251 1.5228 85.6237 0.0000 0.0000 0.0000
# 4 0.0000 0.0000 0.0000 26.5289 0.0000 0.0000
# 5 0.0000 0.0000 0.0000 0.0000 11.1921 0.0000
# 6 0.0000 0.0000 0.0000 0.0000 0.0000 36.3832
#
#
#
# Elastic Compliance Matrix: (Units=1/GPa)
#
#
# Indices 1 2 3 4 5 6 
#
# 1 0.012486 -0.004491 0.001411 0.000000 0.000000 0.000000
# 2 -0.004491 0.007153 -0.000606 0.000000 0.000000 0.000000
# 3 0.001411 -0.000606 0.011840 0.000000 0.000000 0.000000
# 4 0.000000 0.000000 0.000000 0.037695 0.000000 0.000000
# 5 0.000000 0.000000 0.000000 0.000000 0.089349 0.000000
# 6 0.000000 0.000000 0.000000 0.000000 0.000000 0.027485
#
#
# Mechanical properties :
#
#
# Convention : Reuss Voigt Hill
#
# Bulk Modulus (GPa) = 41.48128 53.88941 47.68534
# Shear Modulus (GPa) = 24.82415 35.71807 30.27111
#
# Velocity S-wave (km/s) = 3.26752 3.91945 3.60824
# Velocity P-wave (km/s) = 5.66360 6.60759 6.15373
#
# Compressibility (1/GPa) = 0.02410726
#
# Stress axis : x y z
#
# Youngs Moduli (GPa) = 80.08652 139.79543 84.45867
#
# Poissons Ratio (x) = 0.62783 -0.11914
# Poissons Ratio (y) = 0.35967 0.05117
# Poissons Ratio (z) = -0.11297 0.08469
#
# Static dielectric constant tensor:
#      x y z
#    x 1.926690 0.000000 0.000000 
#    y 0.000000 1.898950 0.000000 
#    z 0.000000 0.000000 1.893620 
# 
# From -- ./inp_files/10429.got.cif
#   From: 2010.05.17/outbox.cif.g08.bks.cpg/sg58_6_cif.got.tgz:10429.got - 2010.06.03 14:20:14.
