data_PCOD9444591
_publ_section_title
;
Structure prediction by ZEFSAII (Michael W. Deem and Ramdas Pophale) SiO2 
 PCOD9444591
Probable space group: P N N M
;
_chemical_formula_sum "Si O2"
_cell_formula_units_Z 38
_cell_length_a 19.437187
_cell_length_b 5.314623
_cell_length_c 15.868018
_cell_angle_alpha 90.000000
_cell_angle_beta 90.000000
_cell_angle_gamma 90.000000
_cell_volume 1639.187222
_symmetry_space_group_name_H-M "P N N M"
_symmetry_group_IT_number 58
_symmetry_cell_setting 'orthorhombic'
loop_
_space_group_symop_operation_xyz
x,y,z
-x,-y,z
1/2+x,1/2-y,1/2-z
1/2-x,1/2+y,1/2-z
-x,-y,-z
x,y,-z
1/2-x,1/2+y,1/2+z
1/2+x,1/2-y,1/2+z
loop_
_atom_site_type_symbol
_atom_site_label
_atom_site_fract_x
_atom_site_fract_y
_atom_site_fract_z
Si Si1 0.000000 0.500000 0.712780
Si Si2 0.212502 0.904437 0.397787
Si Si3 0.427723 0.646737 0.096120
Si Si4 0.000000 0.500000 0.000000
Si Si5 0.708669 0.588177 0.397407
Si Si6 0.057750 0.810077 0.861845
O O1 0.940792 0.616824 0.655147
O O2 0.969131 0.285914 0.772853
O O3 0.212932 0.890910 0.500000
O O4 0.243546 0.641466 0.367894
O O5 0.134574 0.972558 0.374145
O O6 0.259081 0.143345 0.373617
O O7 0.500000 0.500000 0.094739
O O8 0.412307 0.729917 0.000000
O O9 0.055908 0.577262 0.073886
O O10 0.704010 0.579376 0.500000
O O11 0.631950 0.566744 0.361660
O O12 0.000000 0.000000 0.898257
#
# Coordination Sequence:
#
# PCOD9444591 Si02
#       6
#     4   8   8   2   8   8
#     4  11  25  41  67  96 142 182 241 295 357 429
#     4   9  21  38  66 104 132 165 221 284 353 413
#     4  10  22  43  74 101 126 175 236 304 363 425
#     4  10  22  36  66 102 130 188 250 276 340 412
#     4  10  21  38  66 100 139 175 223 286 339 409
#     4  11  24  39  65  97 142 188 238 284 346 420
#
# _framework density 23.182217999999999
#
# number of rings (size 3 to 8) (size 9 to 14) (size 15 to 20)
#    0.000    1.895    1.053    1.263    8.842    0.000 
#    0.000    0.000    9.263    0.000    0.000    0.000 
#    0.000    0.000    0.421    0.000    0.000    0.000 
#
# Total GULP energy -212153.268835 kJ/mol
# GULP energy per Si atom -5582.980759 kJ/mol
# Density = 2.312945 g / cm^3
# Si number density = 23.182218 Si / 1000 Ang^3
#
#
#
# Elastic Constant Matrix: (Units=GPa)
#
#
# Indices 1 2 3 4 5 6 
#
# 1 123.6707 16.4891 8.3373 0.0000 0.0000 0.0000
# 2 16.4891 74.7614 15.5422 0.0000 0.0000 0.0000
# 3 8.3373 15.5422 78.5141 0.0000 0.0000 0.0000
# 4 0.0000 0.0000 0.0000 -171.4922 0.0000 0.0000
# 5 0.0000 0.0000 0.0000 0.0000 -19.3052 0.0000
# 6 0.0000 0.0000 0.0000 0.0000 0.0000 45.0656
#
#
#
# Elastic Compliance Matrix: (Units=1/GPa)
#
#
# Indices 1 2 3 4 5 6 
#
# 1 0.008353 -0.001729 -0.000545 0.000000 0.000000 0.000000
# 2 -0.001729 0.014308 -0.002649 0.000000 0.000000 0.000000
# 3 -0.000545 -0.002649 0.013319 0.000000 0.000000 0.000000
# 4 0.000000 0.000000 0.000000 -0.005831 0.000000 0.000000
# 5 0.000000 0.000000 0.000000 0.000000 -0.051800 0.000000
# 6 0.000000 0.000000 0.000000 0.000000 0.000000 0.022190
#
#
# Mechanical properties :
#
#
# Convention : Reuss Voigt Hill
#
# Bulk Modulus (GPa) = 38.26318 39.74260 39.00289
# Shear Modulus (GPa) = 261.83894 -13.37450 124.23222
#
# Velocity S-wave (km/s) = 10.63924 -2.40454 7.32842
# Velocity P-wave (km/s) = 12.94086 3.07761 9.40578
#
# Compressibility (1/GPa) = 0.02613478
#
# Stress axis : x y z
#
# Youngs Moduli (GPa) = 119.71379 69.89151 75.08225
#
# Poissons Ratio (x) = 0.12085 0.04090
# Poissons Ratio (y) = 0.20700 0.19887
# Poissons Ratio (z) = 0.06521 0.18512
#
# Static dielectric constant tensor:
#      x y z
#    x 1.811560 0.000000 0.000000 
#    y 0.000000 2.002150 0.000000 
#    z 0.000000 0.000000 1.871290 
# 
# From -- ./inp_files/27175.got.cif
#   From: 2010.05.17/outbox.cif.g08.bks.cpg/sg58_14_cif.got.tgz:27175.got - 2010.06.03 14:20:14.
