data_PCOD9444997
_publ_section_title
;
Structure prediction by ZEFSAII (Michael W. Deem and Ramdas Pophale) SiO2 
 PCOD9444997
Probable space group: P N N M
;
_chemical_formula_sum "Si O2"
_cell_formula_units_Z 64
_cell_length_a 15.610352
_cell_length_b 24.037549
_cell_length_c 8.915515
_cell_angle_alpha 90.000000
_cell_angle_beta 90.000000
_cell_angle_gamma 90.000000
_cell_volume 3345.409715
_symmetry_space_group_name_H-M "P N N M"
_symmetry_group_IT_number 58
_symmetry_cell_setting 'orthorhombic'
loop_
_space_group_symop_operation_xyz
x,y,z
-x,-y,z
1/2+x,1/2-y,1/2-z
1/2-x,1/2+y,1/2-z
-x,-y,-z
x,y,-z
1/2-x,1/2+y,1/2+z
1/2+x,1/2-y,1/2+z
loop_
_atom_site_type_symbol
_atom_site_label
_atom_site_fract_x
_atom_site_fract_y
_atom_site_fract_z
Si Si1 0.243986 0.801200 0.680176
Si Si2 0.582177 0.895525 0.821912
Si Si3 0.341146 0.999028 0.321406
Si Si4 0.094012 0.873453 0.821074
Si Si5 0.654153 0.500788 0.320963
Si Si6 0.756513 0.829144 0.820981
Si Si7 0.407492 0.874368 0.678969
Si Si8 0.083942 0.107598 0.321618
O O1 0.233855 0.807582 0.500000
O O2 0.164901 0.831257 0.759677
O O3 0.249473 0.736021 0.714413
O O4 0.332090 0.832225 0.722666
O O5 0.666699 0.859400 0.788420
O O6 0.496299 0.866428 0.764224
O O7 0.594526 0.954267 0.738652
O O8 0.577880 0.904445 0.000000
O O9 0.329984 0.004946 0.500000
O O10 0.374609 0.937008 0.290450
O O11 0.250249 0.007225 0.240136
O O12 0.002308 0.865862 0.744129
O O13 0.125080 0.936472 0.786632
O O14 0.085956 0.868438 0.000000
O O15 0.652648 0.492917 0.500000
O O16 0.595000 0.454374 0.245372
O O17 0.833373 0.858265 0.733296
O O18 0.772763 0.834986 0.000000
O O19 0.421519 0.869476 0.500000
O O20 0.080614 0.105271 0.500000
#
# Coordination Sequence:
#
# PCOD9444997 Si02
#       8
#     8   8   8   8   8   8   8   8
#     4  10  22  43  66  89 121 163 209 256 306 360
#     4  11  23  38  60  89 123 162 201 246 302 367
#     4  11  21  36  61  91 122 156 198 249 304 365
#     4  11  24  41  64  93 127 163 201 254 310 368
#     4  11  22  38  62  92 126 161 198 248 311 372
#     4  10  23  43  64  88 123 163 205 258 310 358
#     4  10  22  39  61  89 122 158 199 252 303 358
#     4  12  25  40  64  93 124 164 207 253 304 370
#
# _framework density 19.130692
#
# number of rings (size 3 to 8) (size 9 to 14) (size 15 to 20)
#    0.000    1.250    2.500    3.375    0.000    8.000 
#    0.000    2.500    0.000    0.000    0.000    0.000 
#    0.000    0.000    0.000    0.000    0.000    0.000 
#
# Total GULP energy -358012.888026 kJ/mol
# GULP energy per Si atom -5593.951375 kJ/mol
# Density = 1.908715 g / cm^3
# Si number density = 19.130692 Si / 1000 Ang^3
#
#
#
# Elastic Constant Matrix: (Units=GPa)
#
#
# Indices 1 2 3 4 5 6 
#
# 1 101.1844 27.3730 43.0981 0.0000 0.0000 0.0000
# 2 27.3730 100.7135 48.0579 0.0000 0.0000 0.0000
# 3 43.0981 48.0579 54.6115 0.0000 0.0000 0.0000
# 4 0.0000 0.0000 0.0000 32.4333 0.0000 0.0000
# 5 0.0000 0.0000 0.0000 0.0000 26.6440 0.0000
# 6 0.0000 0.0000 0.0000 0.0000 0.0000 3.8695
#
#
#
# Elastic Compliance Matrix: (Units=1/GPa)
#
#
# Indices 1 2 3 4 5 6 
#
# 1 0.015322 0.002768 -0.014527 0.000000 0.000000 0.000000
# 2 0.002768 0.017617 -0.017687 0.000000 0.000000 0.000000
# 3 -0.014527 -0.017687 0.045340 0.000000 0.000000 0.000000
# 4 0.000000 0.000000 0.000000 0.030832 0.000000 0.000000
# 5 0.000000 0.000000 0.000000 0.000000 0.037532 0.000000
# 6 0.000000 0.000000 0.000000 0.000000 0.000000 0.258434
#
#
# Mechanical properties :
#
#
# Convention : Reuss Voigt Hill
#
# Bulk Modulus (GPa) = 51.58388 54.84082 53.21235
# Shear Modulus (GPa) = 10.62856 21.78806 16.20831
#
# Velocity S-wave (km/s) = 2.35962 3.37843 2.91390
# Velocity P-wave (km/s) = 5.86909 6.62925 6.26072
#
# Compressibility (1/GPa) = 0.01938590
#
# Stress axis : x y z
#
# Youngs Moduli (GPa) = 65.26623 56.76487 22.05570
#
# Poissons Ratio (x) = -0.15711 0.32041
# Poissons Ratio (y) = -0.18063 0.39009
# Poissons Ratio (z) = 0.94813 1.00398
#
# Static dielectric constant tensor:
#      x y z
#    x 1.649080 0.000000 0.000000 
#    y 0.000000 1.645530 0.000000 
#    z 0.000000 0.000000 1.638620 
# 
# From -- ./inp_files/6875.got.cif
#   From: 2010.05.17/outbox.cif.g08.bks.cpg/sg58_4_cif.got.tgz:6875.got - 2010.06.03 14:20:14.
