data_PCOD9444762
_publ_section_title
;
Structure prediction by ZEFSAII (Michael W. Deem and Ramdas Pophale) SiO2 
 PCOD9444762
Probable space group: P N N M
;
_chemical_formula_sum "Si O2"
_cell_formula_units_Z 40
_cell_length_a 18.437331
_cell_length_b 12.599578
_cell_length_c 8.754821
_cell_angle_alpha 90.000000
_cell_angle_beta 90.000000
_cell_angle_gamma 90.000000
_cell_volume 2033.767594
_symmetry_space_group_name_H-M "P N N M"
_symmetry_group_IT_number 58
_symmetry_cell_setting 'orthorhombic'
loop_
_space_group_symop_operation_xyz
x,y,z
-x,-y,z
1/2+x,1/2-y,1/2-z
1/2-x,1/2+y,1/2-z
-x,-y,-z
x,y,-z
1/2-x,1/2+y,1/2+z
1/2+x,1/2-y,1/2+z
loop_
_atom_site_type_symbol
_atom_site_label
_atom_site_fract_x
_atom_site_fract_y
_atom_site_fract_z
Si Si1 0.879070 0.693752 0.318416
Si Si2 0.548508 0.778839 0.181263
Si Si3 0.795857 0.888761 0.818023
Si Si4 0.144757 0.537841 0.180908
Si Si5 0.576251 0.554763 0.683322
O O1 0.867051 0.701820 0.500000
O O2 0.827005 0.775360 0.232239
O O3 0.866761 0.574140 0.263932
O O4 0.962607 0.724202 0.286085
O O5 0.584798 0.877639 0.265712
O O6 0.582417 0.668200 0.236697
O O7 0.558433 0.791865 0.000000
O O8 0.722423 0.916248 0.731054
O O9 0.857626 0.976127 0.781271
O O10 0.783235 0.890842 0.000000
O O11 0.141350 0.522930 0.000000
O O12 0.500000 0.500000 0.728187
O O13 0.574422 0.570626 0.500000
#
# Coordination Sequence:
#
# PCOD9444762 Si02
#       5
#     8   8   8   8   8
#     4  11  24  44  68  96 131 169 215 269 326 388
#     4  11  24  42  68  98 131 169 216 270 324 386
#     4  11  24  43  67  95 131 171 215 269 325 386
#     4  12  27  44  66  94 131 175 219 269 326 387
#     4  10  21  40  66  96 129 167 214 264 318 384
#
# _framework density 19.667930999999999
#
# number of rings (size 3 to 8) (size 9 to 14) (size 15 to 20)
#    0.000    1.000    2.000    4.200    2.800    6.800 
#    0.000    0.000    0.000    0.000    0.000    0.000 
#    0.000    0.000    0.000    0.000    0.000    0.000 
#
# Total GULP energy -223898.217230 kJ/mol
# GULP energy per Si atom -5597.455431 kJ/mol
# Density = 1.962317 g / cm^3
# Si number density = 19.667931 Si / 1000 Ang^3
#
#
#
# Elastic Constant Matrix: (Units=GPa)
#
#
# Indices 1 2 3 4 5 6 
#
# 1 19.1128 -11.0701 6.5039 0.0000 0.0000 0.0000
# 2 -11.0701 94.0935 -3.0309 0.0000 0.0000 0.0000
# 3 6.5039 -3.0309 18.4935 0.0000 0.0000 0.0000
# 4 0.0000 0.0000 0.0000 36.3028 0.0000 0.0000
# 5 0.0000 0.0000 0.0000 0.0000 31.3954 0.0000
# 6 0.0000 0.0000 0.0000 0.0000 0.0000 0.9833
#
#
#
# Elastic Compliance Matrix: (Units=1/GPa)
#
#
# Indices 1 2 3 4 5 6 
#
# 1 0.063467 0.006784 -0.021209 0.000000 0.000000 0.000000
# 2 0.006784 0.011409 -0.000516 0.000000 0.000000 0.000000
# 3 -0.021209 -0.000516 0.061447 0.000000 0.000000 0.000000
# 4 0.000000 0.000000 0.000000 0.027546 0.000000 0.000000
# 5 0.000000 0.000000 0.000000 0.000000 0.031852 0.000000
# 6 0.000000 0.000000 0.000000 0.000000 0.000000 1.017016
#
#
# Mechanical properties :
#
#
# Convention : Reuss Voigt Hill
#
# Bulk Modulus (GPa) = 9.39479 12.94508 11.16994
# Shear Modulus (GPa) = 3.91206 23.02275 13.46740
#
# Velocity S-wave (km/s) = 1.41187 3.42508 2.61959
# Velocity P-wave (km/s) = 2.72854 4.71568 3.85244
#
# Compressibility (1/GPa) = 0.10644195
#
# Stress axis : x y z
#
# Youngs Moduli (GPa) = 15.75616 87.64850 16.27408
#
# Poissons Ratio (x) = -0.59458 0.34515
# Poissons Ratio (y) = -0.10689 0.00840
# Poissons Ratio (z) = 0.33417 0.04522
#
# Static dielectric constant tensor:
#      x y z
#    x 1.672000 0.000000 0.000000 
#    y 0.000000 1.647410 0.000000 
#    z 0.000000 0.000000 1.653740 
# 
# From -- ./inp_files/3794.got.cif
#   From: 2010.05.17/outbox.cif.g08.bks.cpg/sg58_2_cif.got.tgz:3794.got - 2010.06.03 14:20:14.
