data_PCOD9444133
_publ_section_title
;
Structure prediction by ZEFSAII (Michael W. Deem and Ramdas Pophale) SiO2 
 PCOD9444133
Probable space group: P N N M
;
_chemical_formula_sum "Si O2"
_cell_formula_units_Z 32
_cell_length_a 8.773084
_cell_length_b 5.251494
_cell_length_c 32.063401
_cell_angle_alpha 90.000000
_cell_angle_beta 90.000000
_cell_angle_gamma 90.000000
_cell_volume 1477.218534
_symmetry_space_group_name_H-M "P N N M"
_symmetry_group_IT_number 58
_symmetry_cell_setting 'orthorhombic'
loop_
_space_group_symop_operation_xyz
x,y,z
-x,-y,z
1/2+x,1/2-y,1/2-z
1/2-x,1/2+y,1/2-z
-x,-y,-z
x,y,-z
1/2-x,1/2+y,1/2+z
1/2+x,1/2-y,1/2+z
loop_
_atom_site_type_symbol
_atom_site_label
_atom_site_fract_x
_atom_site_fract_y
_atom_site_fract_z
Si Si1 0.814299 0.979562 0.452317
Si Si2 0.102890 0.247562 0.731214
Si Si3 0.816792 0.476539 0.594174
Si Si4 0.674839 0.461776 0.681283
O O1 0.771306 0.924453 0.500000
O O2 0.763068 0.256177 0.437036
O O3 0.762904 0.753228 0.421633
O O4 0.000000 0.000000 0.451217
O O5 0.241885 0.287780 0.699635
O O6 0.167613 0.218589 0.778057
O O7 0.000000 0.500000 0.727647
O O8 0.000000 0.000000 0.723097
O O9 0.766373 0.393381 0.640180
O O10 0.000000 0.500000 0.593857
O O11 0.500000 0.500000 0.669329
#
# Coordination Sequence:
#
# PCOD9444133 Si02
#       4
#     8   8   8   8
#     4   9  18  35  59  86 114 149 196 247 298 356
#     4  11  25  44  65  89 124 170 217 263 311 367
#     4  10  21  35  58  88 118 152 195 249 302 360
#     4  11  24  41  63  91 125 164 209 256 309 367
#
# _framework density 21.662333
#
# number of rings (size 3 to 8) (size 9 to 14) (size 15 to 20)
#    0.000    1.750    0.000    4.500    0.000   14.000 
#    0.000    1.250    0.000    4.500    0.000    0.000 
#    0.000    0.000    0.000    0.000    0.000    0.000 
#
# Total GULP energy -178767.303021 kJ/mol
# GULP energy per Si atom -5586.478219 kJ/mol
# Density = 2.161303 g / cm^3
# Si number density = 21.662333 Si / 1000 Ang^3
#
#
#
# Elastic Constant Matrix: (Units=GPa)
#
#
# Indices 1 2 3 4 5 6 
#
# 1 50.2925 43.1189 6.8748 0.0000 0.0000 0.0000
# 2 43.1189 130.4616 17.0703 0.0000 0.0000 0.0000
# 3 6.8748 17.0703 75.5932 0.0000 0.0000 0.0000
# 4 0.0000 0.0000 0.0000 35.7514 0.0000 0.0000
# 5 0.0000 0.0000 0.0000 0.0000 20.3400 0.0000
# 6 0.0000 0.0000 0.0000 0.0000 0.0000 16.4173
#
#
#
# Elastic Compliance Matrix: (Units=1/GPa)
#
#
# Indices 1 2 3 4 5 6 
#
# 1 0.027762 -0.009115 -0.000467 0.000000 0.000000 0.000000
# 2 -0.009115 0.010891 -0.001630 0.000000 0.000000 0.000000
# 3 -0.000467 -0.001630 0.013639 0.000000 0.000000 0.000000
# 4 0.000000 0.000000 0.000000 0.027971 0.000000 0.000000
# 5 0.000000 0.000000 0.000000 0.000000 0.049164 0.000000
# 6 0.000000 0.000000 0.000000 0.000000 0.000000 0.060911
#
#
# Mechanical properties :
#
#
# Convention : Reuss Voigt Hill
#
# Bulk Modulus (GPa) = 33.47953 43.38616 38.43285
# Shear Modulus (GPa) = 22.44992 27.12063 24.78528
#
# Velocity S-wave (km/s) = 3.22274 3.54216 3.38622
# Velocity P-wave (km/s) = 5.41635 6.06639 5.75056
#
# Compressibility (1/GPa) = 0.02986900
#
# Stress axis : x y z
#
# Youngs Moduli (GPa) = 36.02053 91.81986 73.31741
#
# Poissons Ratio (x) = 0.83690 0.03421
# Poissons Ratio (y) = 0.32831 0.11954
# Poissons Ratio (z) = 0.01681 0.14971
#
# Static dielectric constant tensor:
#      x y z
#    x 1.816860 0.000000 0.000000 
#    y 0.000000 1.801120 0.000000 
#    z 0.000000 0.000000 1.740200 
# 
# From -- ./inp_files/33956.got.cif
#   From: 2010.05.17/outbox.cif.g08.bks.cpg/sg58_17_cif.got.tgz:33956.got - 2010.06.03 14:20:14.
