data_PCOD9444905
_publ_section_title
;
Structure prediction by ZEFSAII (Michael W. Deem and Ramdas Pophale) SiO2 
 PCOD9444905
Probable space group: P N N M
;
_chemical_formula_sum "Si O2"
_cell_formula_units_Z 64
_cell_length_a 23.196739
_cell_length_b 15.140432
_cell_length_c 7.641364
_cell_angle_alpha 90.000000
_cell_angle_beta 90.000000
_cell_angle_gamma 90.000000
_cell_volume 2683.713130
_symmetry_space_group_name_H-M "P N N M"
_symmetry_group_IT_number 58
_symmetry_cell_setting 'orthorhombic'
loop_
_space_group_symop_operation_xyz
x,y,z
-x,-y,z
1/2+x,1/2-y,1/2-z
1/2-x,1/2+y,1/2-z
-x,-y,-z
x,y,-z
1/2-x,1/2+y,1/2+z
1/2+x,1/2-y,1/2+z
loop_
_atom_site_type_symbol
_atom_site_label
_atom_site_fract_x
_atom_site_fract_y
_atom_site_fract_z
Si Si1 0.370702 0.864644 0.699870
Si Si2 0.505202 0.179332 0.712102
Si Si3 0.688437 0.801958 0.207821
Si Si4 0.467687 0.365338 0.712857
Si Si5 0.586478 0.460492 0.712927
Si Si6 0.288368 0.572601 0.285098
Si Si7 0.594839 0.939757 0.792954
Si Si8 0.740580 0.622116 0.298449
O O1 0.364659 0.834079 0.500000
O O2 0.428579 0.819867 0.775002
O O3 0.307754 0.851819 0.780459
O O4 0.386615 0.968815 0.705804
O O5 0.507649 0.180731 0.500000
O O6 0.469862 0.265136 0.775241
O O7 0.470157 0.092832 0.765496
O O8 0.745277 0.852092 0.275680
O O9 0.634461 0.858614 0.275370
O O10 0.697945 0.698795 0.236769
O O11 0.685895 0.812996 0.000000
O O12 0.464482 0.362447 0.500000
O O13 0.529409 0.407534 0.761663
O O14 0.420921 0.437468 0.770488
O O15 0.586903 0.461335 0.500000
O O16 0.645756 0.417724 0.770873
O O17 0.287024 0.574896 0.500000
O O18 0.267460 0.475999 0.222850
O O19 0.604630 0.953380 0.000000
O O20 0.726487 0.611660 0.500000
#
# Coordination Sequence:
#
# PCOD9444905 Si02
#       8
#     8   8   8   8   8   8   8   8
#     4  11  23  40  61  85 117 154 194 246 301 354
#     4  10  22  36  57  88 115 146 195 247 295 353
#     4  10  22  40  59  84 119 157 197 243 295 354
#     4   8  15  28  47  80 114 138 176 229 282 339
#     4   8  14  26  49  77 108 143 177 224 284 336
#     4   9  18  34  56  81 114 150 189 238 293 347
#     4  11  23  41  61  83 116 156 196 245 302 357
#     4  11  23  39  60  90 121 156 201 245 294 358
#
# _framework density 23.847556999999998
#
# number of rings (size 3 to 8) (size 9 to 14) (size 15 to 20)
#    0.000    2.250    1.250    2.250    3.500    3.500 
#    0.000    0.000    0.000    0.000    0.000    1.750 
#    0.000    0.000    0.000    0.000    0.000    0.000 
#
# Total GULP energy -357562.708794 kJ/mol
# GULP energy per Si atom -5586.917325 kJ/mol
# Density = 2.379328 g / cm^3
# Si number density = 23.847557 Si / 1000 Ang^3
#
#
#
# Elastic Constant Matrix: (Units=GPa)
#
#
# Indices 1 2 3 4 5 6 
#
# 1 47.2247 -11.3693 -11.5809 0.0000 0.0000 0.0000
# 2 -11.3693 71.9723 -8.8459 0.0000 0.0000 0.0000
# 3 -11.5809 -8.8459 43.5265 0.0000 0.0000 0.0000
# 4 0.0000 0.0000 0.0000 14.2411 0.0000 0.0000
# 5 0.0000 0.0000 0.0000 0.0000 -54.4614 0.0000
# 6 0.0000 0.0000 0.0000 0.0000 0.0000 152.3479
#
#
#
# Elastic Compliance Matrix: (Units=1/GPa)
#
#
# Indices 1 2 3 4 5 6 
#
# 1 0.024120 0.004717 0.007376 0.000000 0.000000 0.000000
# 2 0.004717 0.015173 0.004338 0.000000 0.000000 0.000000
# 3 0.007376 0.004338 0.025819 0.000000 0.000000 0.000000
# 4 0.000000 0.000000 0.000000 0.070219 0.000000 0.000000
# 5 0.000000 0.000000 0.000000 0.000000 -0.018362 0.000000
# 6 0.000000 0.000000 0.000000 0.000000 0.000000 0.006564
#
#
# Mechanical properties :
#
#
# Convention : Reuss Voigt Hill
#
# Bulk Modulus (GPa) = 10.20687 11.01460 10.61073
# Shear Modulus (GPa) = 40.54235 35.39350 37.96793
#
# Velocity S-wave (km/s) = 4.12766 3.85665 3.99445
# Velocity P-wave (km/s) = 5.19674 4.94575 5.07280
#
# Compressibility (1/GPa) = 0.09797326
#
# Stress axis : x y z
#
# Youngs Moduli (GPa) = 41.45986 65.90853 38.73162
#
# Poissons Ratio (x) = -0.31087 -0.28568
# Poissons Ratio (y) = -0.19555 -0.16804
# Poissons Ratio (z) = -0.30581 -0.28594
#
# Static dielectric constant tensor:
#      x y z
#    x 1.889070 0.000000 0.000000 
#    y 0.000000 1.926280 0.000000 
#    z 0.000000 0.000000 1.913190 
# 
# From -- ./inp_files/9996.got.cif
#   From: 2010.05.17/outbox.cif.g08.bks.cpg/sg58_5_cif.got.tgz:9996.got - 2010.06.03 14:20:14.
