data_PCOD9444151
_publ_section_title
;
Structure prediction by ZEFSAII (Michael W. Deem and Ramdas Pophale) SiO2 
 PCOD9444151
Probable space group: P N N M
;
_chemical_formula_sum "Si O2"
_cell_formula_units_Z 48
_cell_length_a 7.956441
_cell_length_b 28.037150
_cell_length_c 10.280415
_cell_angle_alpha 90.000000
_cell_angle_beta 90.000000
_cell_angle_gamma 90.000000
_cell_volume 2293.313135
_symmetry_space_group_name_H-M "P N N M"
_symmetry_group_IT_number 58
_symmetry_cell_setting 'orthorhombic'
loop_
_space_group_symop_operation_xyz
x,y,z
-x,-y,z
1/2+x,1/2-y,1/2-z
1/2-x,1/2+y,1/2-z
-x,-y,-z
x,y,-z
1/2-x,1/2+y,1/2+z
1/2+x,1/2-y,1/2+z
loop_
_atom_site_type_symbol
_atom_site_label
_atom_site_fract_x
_atom_site_fract_y
_atom_site_fract_z
Si Si1 0.586505 0.909482 0.148926
Si Si2 0.910509 0.241015 0.148692
Si Si3 0.089400 0.925622 0.648578
Si Si4 0.272168 0.020209 0.350593
Si Si5 0.051589 0.142973 0.146932
Si Si6 0.054151 0.311983 0.348600
O O1 0.610146 0.952051 0.250434
O O2 0.452942 0.868264 0.182065
O O3 0.764180 0.880341 0.152301
O O4 0.560586 0.925999 0.000000
O O5 0.048808 0.199467 0.168962
O O6 0.735969 0.212456 0.162091
O O7 0.937590 0.282692 0.250681
O O8 0.921883 0.258794 0.000000
O O9 0.120395 0.909984 0.500000
O O10 0.064139 0.883147 0.748412
O O11 0.908596 0.952755 0.650242
O O12 0.226034 0.965778 0.683939
O O13 0.331249 0.022629 0.500000
O O14 0.985815 0.135304 0.000000
O O15 0.999984 0.307658 0.500000
#
# Coordination Sequence:
#
# PCOD9444151 Si02
#       6
#     8   8   8   8   8   8
#     4   9  17  29  46  69  96 124 156 196 239 283
#     4  10  21  36  53  73  98 128 162 201 245 293
#     4   8  14  25  42  66  95 124 155 193 235 278
#     4   8  14  25  42  66  95 124 155 193 235 278
#     4   9  17  29  46  69  96 124 156 196 239 283
#     4  10  21  36  53  73  98 128 162 201 245 293
#
# _framework density 20.930416000000001
#
# number of rings (size 3 to 8) (size 9 to 14) (size 15 to 20)
#    0.000    3.000    0.000    2.000    0.000    4.000 
#    0.000    6.667    0.000    1.000    0.000    7.000 
#    0.000    0.000    0.000    0.000    0.000    0.000 
#
# Total GULP energy -267945.686270 kJ/mol
# GULP energy per Si atom -5582.201797 kJ/mol
# Density = 2.088278 g / cm^3
# Si number density = 20.930416 Si / 1000 Ang^3
#
#
#
# Elastic Constant Matrix: (Units=GPa)
#
#
# Indices 1 2 3 4 5 6 
#
# 1 69.1929 12.0002 26.2993 0.0000 0.0000 0.0000
# 2 12.0002 43.5449 30.0768 0.0000 0.0000 0.0000
# 3 26.2993 30.0768 37.4731 0.0000 0.0000 0.0000
# 4 0.0000 0.0000 0.0000 31.5811 0.0000 0.0000
# 5 0.0000 0.0000 0.0000 0.0000 46.2416 0.0000
# 6 0.0000 0.0000 0.0000 0.0000 0.0000 23.9282
#
#
#
# Elastic Compliance Matrix: (Units=1/GPa)
#
#
# Indices 1 2 3 4 5 6 
#
# 1 0.021524 0.010103 -0.023214 0.000000 0.000000 0.000000
# 2 0.010103 0.056276 -0.052259 0.000000 0.000000 0.000000
# 3 -0.023214 -0.052259 0.084922 0.000000 0.000000 0.000000
# 4 0.000000 0.000000 0.000000 0.031664 0.000000 0.000000
# 5 0.000000 0.000000 0.000000 0.000000 0.021626 0.000000
# 6 0.000000 0.000000 0.000000 0.000000 0.000000 0.041792
#
#
# Mechanical properties :
#
#
# Convention : Reuss Voigt Hill
#
# Bulk Modulus (GPa) = 31.26843 31.88482 31.57662
# Shear Modulus (GPa) = 12.52486 25.80583 19.16534
#
# Velocity S-wave (km/s) = 2.44889 3.51513 3.02929
# Velocity P-wave (km/s) = 4.79246 5.63397 5.23017
#
# Compressibility (1/GPa) = 0.03198114
#
# Stress axis : x y z
#
# Youngs Moduli (GPa) = 46.46042 17.76943 11.77545
#
# Poissons Ratio (x) = -0.17952 0.27336
# Poissons Ratio (y) = -0.46938 0.61537
# Poissons Ratio (z) = 1.07856 0.92861
#
# Static dielectric constant tensor:
#      x y z
#    x 1.821600 0.000000 0.000000 
#    y 0.000000 1.716900 0.000000 
#    z 0.000000 0.000000 1.716050 
# 
# From -- ./inp_files/2987.got.cif
#   From: 2010.05.17/outbox.cif.g08.bks.cpg/sg58_2_cif.got.tgz:2987.got - 2010.06.03 14:20:14.
