data_PCOD9444399
_publ_section_title
;
Structure prediction by ZEFSAII (Michael W. Deem and Ramdas Pophale) SiO2 
 PCOD9444399
Probable space group: P N N M
;
_chemical_formula_sum "Si O2"
_cell_formula_units_Z 56
_cell_length_a 16.400233
_cell_length_b 11.909398
_cell_length_c 14.715767
_cell_angle_alpha 90.000000
_cell_angle_beta 90.000000
_cell_angle_gamma 90.000000
_cell_volume 2874.238022
_symmetry_space_group_name_H-M "P N N M"
_symmetry_group_IT_number 58
_symmetry_cell_setting 'orthorhombic'
loop_
_space_group_symop_operation_xyz
x,y,z
-x,-y,z
1/2+x,1/2-y,1/2-z
1/2-x,1/2+y,1/2-z
-x,-y,-z
x,y,-z
1/2-x,1/2+y,1/2+z
1/2+x,1/2-y,1/2+z
loop_
_atom_site_type_symbol
_atom_site_label
_atom_site_fract_x
_atom_site_fract_y
_atom_site_fract_z
Si Si1 0.465029 0.178443 0.391883
Si Si2 0.723156 0.655241 0.219213
Si Si3 0.338681 0.138122 0.106503
Si Si4 0.688251 0.123103 0.895415
Si Si5 0.543888 0.611397 0.259976
Si Si6 0.632108 0.042643 0.391318
Si Si7 0.513590 0.236844 0.895170
O O1 0.458709 0.197936 0.500000
O O2 0.454284 0.290489 0.334717
O O3 0.554401 0.124264 0.374726
O O4 0.399437 0.082095 0.367091
O O5 0.707595 0.771367 0.166853
O O6 0.754394 0.677325 0.320758
O O7 0.636380 0.593017 0.226731
O O8 0.791163 0.584460 0.165645
O O9 0.435309 0.157218 0.122165
O O10 0.314012 0.010281 0.122407
O O11 0.323578 0.162617 0.000000
O O12 0.597102 0.169998 0.883957
O O13 0.713161 0.142265 0.000000
O O14 0.500000 0.500000 0.293761
O O15 0.494365 0.661488 0.174493
O O16 0.648449 0.044945 0.500000
O O17 0.508415 0.274469 0.000000
#
# Coordination Sequence:
#
# PCOD9444399 Si02
#       7
#     8   8   8   8   8   8   8
#     4   9  20  41  67  92 122 160 211 266 317 372
#     4  11  23  35  59  90 131 162 204 252 315 371
#     4   9  19  37  60  87 120 158 201 252 307 367
#     4  10  21  37  60  91 124 157 203 257 310 365
#     4  11  25  42  58  88 130 173 210 248 308 385
#     4   9  19  39  68  98 120 155 213 273 319 362
#     4   9  19  38  62  86 115 157 207 255 306 362
#
# _framework density 19.483425
#
# number of rings (size 3 to 8) (size 9 to 14) (size 15 to 20)
#    0.000    2.286    0.000    2.571    4.000    5.714 
#    0.000    1.429    0.000    0.000    0.000    0.000 
#    0.000    0.000    0.000    0.000    0.000    0.000 
#
# Total GULP energy -312910.846360 kJ/mol
# GULP energy per Si atom -5587.693685 kJ/mol
# Density = 1.943908 g / cm^3
# Si number density = 19.483425 Si / 1000 Ang^3
#
#
#
# Elastic Constant Matrix: (Units=GPa)
#
#
# Indices 1 2 3 4 5 6 
#
# 1 98.1993 70.3980 66.7465 0.0000 0.0000 0.0000
# 2 70.3980 79.8987 57.6078 0.0000 0.0000 0.0000
# 3 66.7465 57.6078 79.1876 0.0000 0.0000 0.0000
# 4 0.0000 0.0000 0.0000 30.3431 0.0000 0.0000
# 5 0.0000 0.0000 0.0000 0.0000 33.8547 0.0000
# 6 0.0000 0.0000 0.0000 0.0000 0.0000 16.4768
#
#
#
# Elastic Compliance Matrix: (Units=1/GPa)
#
#
# Indices 1 2 3 4 5 6 
#
# 1 0.034034 -0.019566 -0.014452 0.000000 0.000000 0.000000
# 2 -0.019566 0.037572 -0.010841 0.000000 0.000000 0.000000
# 3 -0.014452 -0.010841 0.032696 0.000000 0.000000 0.000000
# 4 0.000000 0.000000 0.000000 0.032956 0.000000 0.000000
# 5 0.000000 0.000000 0.000000 0.000000 0.029538 0.000000
# 6 0.000000 0.000000 0.000000 0.000000 0.000000 0.060691
#
#
# Mechanical properties :
#
#
# Convention : Reuss Voigt Hill
#
# Bulk Modulus (GPa) = 68.57257 71.86557 70.21907
# Shear Modulus (GPa) = 15.52470 20.30382 17.91426
#
# Velocity S-wave (km/s) = 2.82585 3.23167 3.03555
# Velocity P-wave (km/s) = 6.77636 7.13376 6.95735
#
# Compressibility (1/GPa) = 0.01458309
#
# Stress axis : x y z
#
# Youngs Moduli (GPa) = 29.38262 26.61573 30.58443
#
# Poissons Ratio (x) = 0.52077 0.44202
# Poissons Ratio (y) = 0.57491 0.33155
# Poissons Ratio (z) = 0.42465 0.28853
#
# Static dielectric constant tensor:
#      x y z
#    x 1.671560 0.000000 0.000000 
#    y 0.000000 1.650540 0.000000 
#    z 0.000000 0.000000 1.697060 
# 
# From -- ./inp_files/22184.got.cif
#   From: 2010.05.17/outbox.cif.g08.bks.cpg/sg58_12_cif.got.tgz:22184.got - 2010.06.03 14:20:14.
