data_PCOD9444541
_publ_section_title
;
Structure prediction by ZEFSAII (Michael W. Deem and Ramdas Pophale) SiO2 
 PCOD9444541
Probable space group: P N N M
;
_chemical_formula_sum "Si O2"
_cell_formula_units_Z 48
_cell_length_a 8.033688
_cell_length_b 7.671501
_cell_length_c 33.010060
_cell_angle_alpha 90.000000
_cell_angle_beta 90.000000
_cell_angle_gamma 90.000000
_cell_volume 2034.424705
_symmetry_space_group_name_H-M "P N N M"
_symmetry_group_IT_number 58
_symmetry_cell_setting 'orthorhombic'
loop_
_space_group_symop_operation_xyz
x,y,z
-x,-y,z
1/2+x,1/2-y,1/2-z
1/2-x,1/2+y,1/2-z
-x,-y,-z
x,y,-z
1/2-x,1/2+y,1/2+z
1/2+x,1/2-y,1/2+z
loop_
_atom_site_type_symbol
_atom_site_label
_atom_site_fract_x
_atom_site_fract_y
_atom_site_fract_z
Si Si1 0.306062 0.277821 0.586148
Si Si2 0.333429 0.610244 0.165936
Si Si3 0.520912 0.787887 0.954377
Si Si4 0.023662 0.705954 0.737320
Si Si5 0.168116 0.186267 0.904157
Si Si6 0.352493 0.776636 0.686884
O O1 0.229592 0.233973 0.630221
O O2 0.162241 0.215438 0.555876
O O3 0.497567 0.218695 0.582611
O O4 0.324690 0.486235 0.581678
O O5 0.500000 0.500000 0.153756
O O6 0.391897 0.706769 0.206622
O O7 0.184036 0.476193 0.174438
O O8 0.662844 0.733876 0.922290
O O9 0.500000 0.000000 0.951980
O O10 0.572021 0.744665 0.000000
O O11 0.197564 0.741478 0.716340
O O12 0.000000 0.500000 0.738661
O O13 0.003804 0.769488 0.783498
O O14 0.159911 0.179038 0.855461
#
# Coordination Sequence:
#
# PCOD9444541 Si02
#       6
#     8   8   8   8   8   8
#     4  10  21  38  62  89 124 161 202 247 308 368
#     4  10  22  39  60  86 119 161 210 257 307 364
#     4   9  18  36  63  94 125 154 192 247 307 368
#     4  11  23  39  57  81 116 156 208 259 303 350
#     4  10  22  38  61  92 123 162 202 250 307 366
#     4  11  24  39  58  86 116 161 205 253 306 352
#
# _framework density 23.593892
#
# number of rings (size 3 to 8) (size 9 to 14) (size 15 to 20)
#    0.000    1.833    0.000    4.000    4.667    2.000 
#    6.000    3.333    0.000    4.500    0.000    5.833 
#    0.000    0.000    0.000    0.000    0.000    0.000 
#
# Total GULP energy -268221.322073 kJ/mol
# GULP energy per Si atom -5587.944210 kJ/mol
# Density = 2.354019 g / cm^3
# Si number density = 23.593892 Si / 1000 Ang^3
#
#
#
# Elastic Constant Matrix: (Units=GPa)
#
#
# Indices 1 2 3 4 5 6 
#
# 1 178.2378 -1.4344 57.4590 0.0000 0.0000 0.0000
# 2 -1.4344 35.7710 -11.1887 0.0000 0.0000 0.0000
# 3 57.4590 -11.1887 94.6652 0.0000 0.0000 0.0000
# 4 0.0000 0.0000 0.0000 21.3967 0.0000 0.0000
# 5 0.0000 0.0000 0.0000 0.0000 36.7586 0.0000
# 6 0.0000 0.0000 0.0000 0.0000 0.0000 12.7367
#
#
#
# Elastic Compliance Matrix: (Units=1/GPa)
#
#
# Indices 1 2 3 4 5 6 
#
# 1 0.007016 -0.001091 -0.004388 0.000000 0.000000 0.000000
# 2 -0.001091 0.029198 0.004113 0.000000 0.000000 0.000000
# 3 -0.004388 0.004113 0.013713 0.000000 0.000000 0.000000
# 4 0.000000 0.000000 0.000000 0.046736 0.000000 0.000000
# 5 0.000000 0.000000 0.000000 0.000000 0.027205 0.000000
# 6 0.000000 0.000000 0.000000 0.000000 0.000000 0.078513
#
#
# Mechanical properties :
#
#
# Convention : Reuss Voigt Hill
#
# Bulk Modulus (GPa) = 21.18793 44.26065 32.72429
# Shear Modulus (GPa) = 22.64038 31.76761 27.20400
#
# Velocity S-wave (km/s) = 3.10108 3.67336 3.39928
# Velocity P-wave (km/s) = 4.67140 6.06560 5.41357
#
# Compressibility (1/GPa) = 0.04719668
#
# Stress axis : x y z
#
# Youngs Moduli (GPa) = 142.52899 34.24847 72.92465
#
# Poissons Ratio (x) = 0.03737 0.31996
# Poissons Ratio (y) = 0.15550 -0.29996
# Poissons Ratio (z) = 0.62535 -0.14087
#
# Static dielectric constant tensor:
#      x y z
#    x 1.993870 0.000000 0.000000 
#    y 0.000000 1.905910 0.000000 
#    z 0.000000 0.000000 1.859830 
# 
# From -- ./inp_files/34549.got.cif
#   From: 2010.05.17/outbox.cif.g08.bks.cpg/sg58_18_cif.got.tgz:34549.got - 2010.06.03 14:20:14.
