data_PCOD9444132
_publ_section_title
;
Structure prediction by ZEFSAII (Michael W. Deem and Ramdas Pophale) SiO2 
 PCOD9444132
Probable space group: P N N M
;
_chemical_formula_sum "Si O2"
_cell_formula_units_Z 24
_cell_length_a 7.077367
_cell_length_b 7.126371
_cell_length_c 17.294206
_cell_angle_alpha 90.000000
_cell_angle_beta 90.000000
_cell_angle_gamma 90.000000
_cell_volume 872.249587
_symmetry_space_group_name_H-M "P N N M"
_symmetry_group_IT_number 58
_symmetry_cell_setting 'orthorhombic'
loop_
_space_group_symop_operation_xyz
x,y,z
-x,-y,z
1/2+x,1/2-y,1/2-z
1/2-x,1/2+y,1/2-z
-x,-y,-z
x,y,-z
1/2-x,1/2+y,1/2+z
1/2+x,1/2-y,1/2+z
loop_
_atom_site_type_symbol
_atom_site_label
_atom_site_fract_x
_atom_site_fract_y
_atom_site_fract_z
Si Si1 0.776788 0.084663 0.500000
Si Si2 0.693179 0.614818 0.166605
Si Si3 0.219656 0.473818 0.500000
Si Si4 0.724540 0.532101 0.335059
O O1 0.712525 0.039803 0.412297
O O2 0.714684 0.309040 0.500000
O O3 0.000000 0.000000 0.500000
O O4 0.500000 0.500000 0.171536
O O5 0.787428 0.609175 0.251603
O O6 0.665142 0.836331 0.154397
O O7 0.264559 0.373388 0.419343
O O8 0.000000 0.500000 0.500000
O O9 0.500000 0.500000 0.327594
#
# Coordination Sequence:
#
# PCOD9444132 Si02
#       4
#     4   8   4   8
#     4   8  16  33  54  79 113 153 199 242 294 363
#     4   9  19  36  59  89 123 163 205 253 312 375
#     4  10  21  35  58  87 121 163 208 256 317 377
#     4  10  21  38  60  90 125 164 210 261 309 368
#
# _framework density 27.515059999999998
#
# number of rings (size 3 to 8) (size 9 to 14) (size 15 to 20)
#    0.000    2.667    0.000    0.500    0.000   13.333 
#    0.000    0.000    0.000    0.000    0.000   54.833 
#    0.000    0.000    0.000    0.000    0.000    0.000 
#
# Total GULP energy -133613.841380 kJ/mol
# GULP energy per Si atom -5567.243391 kJ/mol
# Density = 2.745243 g / cm^3
# Si number density = 27.515060 Si / 1000 Ang^3
#
#
#
# Elastic Constant Matrix: (Units=GPa)
#
#
# Indices 1 2 3 4 5 6 
#
# 1 57.9321 -23.4636 25.9558 0.0000 0.0000 0.0000
# 2 -23.4636 141.7138 18.0777 0.0000 0.0000 0.0000
# 3 25.9558 18.0777 430.2950 0.0000 0.0000 0.0000
# 4 0.0000 0.0000 0.0000 48.3473 0.0000 0.0000
# 5 0.0000 0.0000 0.0000 0.0000 47.3461 0.0000
# 6 0.0000 0.0000 0.0000 0.0000 0.0000 22.4749
#
#
#
# Elastic Compliance Matrix: (Units=1/GPa)
#
#
# Indices 1 2 3 4 5 6 
#
# 1 0.019198 0.003344 -0.001299 0.000000 0.000000 0.000000
# 2 0.003344 0.007677 -0.000524 0.000000 0.000000 0.000000
# 3 -0.001299 -0.000524 0.002424 0.000000 0.000000 0.000000
# 4 0.000000 0.000000 0.000000 0.020684 0.000000 0.000000
# 5 0.000000 0.000000 0.000000 0.000000 0.021121 0.000000
# 6 0.000000 0.000000 0.000000 0.000000 0.000000 0.044494
#
#
# Mechanical properties :
#
#
# Convention : Reuss Voigt Hill
#
# Bulk Modulus (GPa) = 30.91941 74.56452 52.74196
# Shear Modulus (GPa) = 40.53970 64.25840 52.39905
#
# Velocity S-wave (km/s) = 3.84261 4.83783 4.36865
# Velocity P-wave (km/s) = 5.56320 7.63967 6.68258
#
# Compressibility (1/GPa) = 0.03234214
#
# Stress axis : x y z
#
# Youngs Moduli (GPa) = 52.08919 130.25819 412.48334
#
# Poissons Ratio (x) = -0.43561 0.53562
# Poissons Ratio (y) = -0.17420 0.21625
# Poissons Ratio (z) = 0.06764 0.06829
#
# Static dielectric constant tensor:
#      x y z
#    x 1.991150 0.000000 0.000000 
#    y 0.000000 2.189330 0.000000 
#    z 0.000000 0.000000 2.239140 
# 
# From -- ./inp_files/24648.got.cif
#   From: 2010.05.17/outbox.cif.g08.bks.cpg/sg58_13_cif.got.tgz:24648.got - 2010.06.03 14:20:14.
