data_PCOD9444128
_publ_section_title
;
Structure prediction by ZEFSAII (Michael W. Deem and Ramdas Pophale) SiO2 
 PCOD9444128
Probable space group: P N N M
;
_chemical_formula_sum "Si O2"
_cell_formula_units_Z 56
_cell_length_a 20.673369
_cell_length_b 15.448898
_cell_length_c 7.606940
_cell_angle_alpha 90.000000
_cell_angle_beta 90.000000
_cell_angle_gamma 90.000000
_cell_volume 2429.510347
_symmetry_space_group_name_H-M "P N N M"
_symmetry_group_IT_number 58
_symmetry_cell_setting 'orthorhombic'
loop_
_space_group_symop_operation_xyz
x,y,z
-x,-y,z
1/2+x,1/2-y,1/2-z
1/2-x,1/2+y,1/2-z
-x,-y,-z
x,y,-z
1/2-x,1/2+y,1/2+z
1/2+x,1/2-y,1/2+z
loop_
_atom_site_type_symbol
_atom_site_label
_atom_site_fract_x
_atom_site_fract_y
_atom_site_fract_z
Si Si1 0.043697 0.080388 0.712774
Si Si2 0.177723 0.500277 0.294528
Si Si3 0.679320 0.490331 0.787306
Si Si4 0.092201 0.654160 0.293387
Si Si5 0.039129 0.271701 0.204446
Si Si6 0.820088 0.190557 0.715730
Si Si7 0.678558 0.196088 0.300051
O O1 0.042456 0.080933 0.500000
O O2 0.117683 0.065010 0.770688
O O3 0.017877 0.172551 0.773720
O O4 0.000000 0.000000 0.771004
O O5 0.164898 0.481796 0.500000
O O6 0.250372 0.537928 0.278911
O O7 0.125338 0.567624 0.222200
O O8 0.178030 0.408458 0.198499
O O9 0.668740 0.590822 0.732467
O O10 0.681124 0.488407 0.000000
O O11 0.107730 0.651905 0.500000
O O12 0.127291 0.740416 0.223255
O O13 0.015782 0.665390 0.276159
O O14 0.110912 0.277280 0.285609
O O15 0.045416 0.293214 0.000000
O O16 0.819644 0.189126 0.500000
O O17 0.748427 0.218831 0.777369
O O18 0.678956 0.229874 0.500000
#
# Coordination Sequence:
#
# PCOD9444128 Si02
#       7
#     8   8   8   8   8   8   8
#     4  10  21  38  60  84 116 157 193 225 277 352
#     4  10  21  35  57  86 112 144 188 242 290 332
#     4   9  18  34  57  82 110 147 187 228 275 337
#     4  10  21  37  58  81 110 150 190 231 284 348
#     4  11  24  38  57  85 115 150 190 242 292 331
#     4   8  15  33  59  79 102 144 190 222 263 334
#     4   9  20  39  59  78 109 152 191 231 286 347
#
# _framework density 23.049913
#
# number of rings (size 3 to 8) (size 9 to 14) (size 15 to 20)
#    0.000    2.429    0.000    2.571    2.000    6.000 
#    0.000    8.571    0.000    0.000    0.000    0.000 
#    0.000    0.000    0.000    0.000    0.000    0.000 
#
# Total GULP energy -312814.212744 kJ/mol
# GULP energy per Si atom -5585.968085 kJ/mol
# Density = 2.299745 g / cm^3
# Si number density = 23.049913 Si / 1000 Ang^3
#
#
#
# Elastic Constant Matrix: (Units=GPa)
#
#
# Indices 1 2 3 4 5 6 
#
# 1 83.7520 9.2597 -6.0679 0.0000 0.0000 0.0000
# 2 9.2597 25.0188 -4.8926 0.0000 0.0000 0.0000
# 3 -6.0679 -4.8926 50.3178 0.0000 0.0000 0.0000
# 4 0.0000 0.0000 0.0000 33.8302 0.0000 0.0000
# 5 0.0000 0.0000 0.0000 0.0000 20.4321 0.0000
# 6 0.0000 0.0000 0.0000 0.0000 0.0000 38.3114
#
#
#
# Elastic Compliance Matrix: (Units=1/GPa)
#
#
# Indices 1 2 3 4 5 6 
#
# 1 0.012507 -0.004418 0.001079 0.000000 0.000000 0.000000
# 2 -0.004418 0.042305 0.003581 0.000000 0.000000 0.000000
# 3 0.001079 0.003581 0.020352 0.000000 0.000000 0.000000
# 4 0.000000 0.000000 0.000000 0.029559 0.000000 0.000000
# 5 0.000000 0.000000 0.000000 0.000000 0.048943 0.000000
# 6 0.000000 0.000000 0.000000 0.000000 0.000000 0.026102
#
#
# Mechanical properties :
#
#
# Convention : Reuss Voigt Hill
#
# Bulk Modulus (GPa) = 13.21933 17.29857 15.25895
# Shear Modulus (GPa) = 24.44985 29.23405 26.84195
#
# Velocity S-wave (km/s) = 3.26043 3.56517 3.41620
# Velocity P-wave (km/s) = 4.46334 4.94656 4.71115
#
# Compressibility (1/GPa) = 0.07564678
#
# Stress axis : x y z
#
# Youngs Moduli (GPa) = 79.95779 23.63772 49.13539
#
# Poissons Ratio (x) = 0.10443 -0.05300
# Poissons Ratio (y) = 0.35324 -0.17594
# Poissons Ratio (z) = -0.08624 -0.08464
#
# Static dielectric constant tensor:
#      x y z
#    x 1.886510 0.000000 0.000000 
#    y 0.000000 1.836960 0.000000 
#    z 0.000000 0.000000 1.875020 
# 
# From -- ./inp_files/6324.got.cif
#   From: 2010.05.17/outbox.cif.g08.bks.cpg/sg58_4_cif.got.tgz:6324.got - 2010.06.03 14:20:14.
