data_PCOD9444018
_publ_section_title
;
Structure prediction by ZEFSAII (Michael W. Deem and Ramdas Pophale) SiO2 
 PCOD9444018
Probable space group: P N N M
;
_chemical_formula_sum "Si O2"
_cell_formula_units_Z 56
_cell_length_a 8.673891
_cell_length_b 14.097060
_cell_length_c 18.443779
_cell_angle_alpha 90.000000
_cell_angle_beta 90.000000
_cell_angle_gamma 90.000000
_cell_volume 2255.238195
_symmetry_space_group_name_H-M "P N N M"
_symmetry_group_IT_number 58
_symmetry_cell_setting 'orthorhombic'
loop_
_space_group_symop_operation_xyz
x,y,z
-x,-y,z
1/2+x,1/2-y,1/2-z
1/2-x,1/2+y,1/2-z
-x,-y,-z
x,y,-z
1/2-x,1/2+y,1/2+z
1/2+x,1/2-y,1/2+z
loop_
_atom_site_type_symbol
_atom_site_label
_atom_site_fract_x
_atom_site_fract_y
_atom_site_fract_z
Si Si1 0.180386 0.240491 0.230344
Si Si2 0.109195 0.787191 0.855860
Si Si3 0.729893 0.036262 0.136577
Si Si4 0.966194 0.140554 0.577502
Si Si5 0.093321 0.648156 0.378152
Si Si6 0.246580 0.448344 0.806172
Si Si7 0.829774 0.399712 0.079651
O O1 0.237567 0.253199 0.311805
O O2 0.323083 0.186525 0.193813
O O3 0.161317 0.347894 0.202169
O O4 0.022858 0.193647 0.204043
O O5 0.148901 0.887017 0.892240
O O6 0.078320 0.698388 0.907040
O O7 0.565929 0.092093 0.133028
O O8 0.769126 0.019935 0.222517
O O9 0.707635 0.936279 0.096636
O O10 0.903456 0.104017 0.500000
O O11 0.931134 0.253272 0.580648
O O12 0.892123 0.085448 0.645172
O O13 0.148020 0.125491 0.577368
O O14 0.161209 0.527030 0.853907
O O15 0.869114 0.437064 0.000000
#
# Coordination Sequence:
#
# PCOD9444018 Si02
#       7
#     8   8   8   8   8   8   8
#     4  10  22  37  61  90 126 163 209 266 320 371
#     4  11  22  38  60  91 124 168 212 259 319 376
#     4  10  21  37  64  92 127 161 208 266 326 370
#     4  10  21  40  64  92 127 170 214 260 312 382
#     4  10  20  41  62  92 129 161 210 270 317 380
#     4  10  21  35  59  90 126 165 204 259 314 374
#     4  11  23  40  61  90 131 172 210 253 311 390
#
# _framework density 24.831078999999999
#
# number of rings (size 3 to 8) (size 9 to 14) (size 15 to 20)
#    0.000    1.714    1.429    3.429    4.000    4.571 
#    5.143    6.429    0.000    0.000    0.000    5.000 
#    0.000    0.000    0.000    0.000    0.000    0.000 
#
# Total GULP energy -312628.589288 kJ/mol
# GULP energy per Si atom -5582.653380 kJ/mol
# Density = 2.477456 g / cm^3
# Si number density = 24.831079 Si / 1000 Ang^3
#
#
#
# Elastic Constant Matrix: (Units=GPa)
#
#
# Indices 1 2 3 4 5 6 
#
# 1 57.2080 3.1682 7.8515 0.0000 0.0000 0.0000
# 2 3.1682 139.7689 13.8592 0.0000 0.0000 0.0000
# 3 7.8515 13.8592 70.4104 0.0000 0.0000 0.0000
# 4 0.0000 0.0000 0.0000 192.6878 0.0000 0.0000
# 5 0.0000 0.0000 0.0000 0.0000 22.8080 0.0000
# 6 0.0000 0.0000 0.0000 0.0000 0.0000 31.6295
#
#
#
# Elastic Compliance Matrix: (Units=1/GPa)
#
#
# Indices 1 2 3 4 5 6 
#
# 1 0.017758 -0.000210 -0.001939 0.000000 0.000000 0.000000
# 2 -0.000210 0.007300 -0.001413 0.000000 0.000000 0.000000
# 3 -0.001939 -0.001413 0.014697 0.000000 0.000000 0.000000
# 4 0.000000 0.000000 0.000000 0.005190 0.000000 0.000000
# 5 0.000000 0.000000 0.000000 0.000000 0.043844 0.000000
# 6 0.000000 0.000000 0.000000 0.000000 0.000000 0.031616
#
#
# Mechanical properties :
#
#
# Convention : Reuss Voigt Hill
#
# Bulk Modulus (GPa) = 30.64724 35.23833 32.94279
# Shear Modulus (GPa) = 36.12571 65.59229 50.85900
#
# Velocity S-wave (km/s) = 3.81840 5.14517 4.53061
# Velocity P-wave (km/s) = 5.63997 7.03698 6.37685
#
# Compressibility (1/GPa) = 0.03262937
#
# Stress axis : x y z
#
# Youngs Moduli (GPa) = 56.31324 136.99419 68.04183
#
# Poissons Ratio (x) = 0.02881 0.13192
# Poissons Ratio (y) = 0.01184 0.09617
# Poissons Ratio (z) = 0.10918 0.19362
#
# Static dielectric constant tensor:
#      x y z
#    x 1.989980 0.000000 0.000000 
#    y 0.000000 2.020430 0.000000 
#    z 0.000000 0.000000 2.000640 
# 
# From -- ./inp_files/28965.got.cif
#   From: 2010.05.17/outbox.cif.g08.bks.cpg/sg58_15_cif.got.tgz:28965.got - 2010.06.03 14:20:14.
