data_PCOD9444170
_publ_section_title
;
Structure prediction by ZEFSAII (Michael W. Deem and Ramdas Pophale) SiO2 
 PCOD9444170
Probable space group: P N N M
;
_chemical_formula_sum "Si O2"
_cell_formula_units_Z 48
_cell_length_a 13.618603
_cell_length_b 11.839936
_cell_length_c 15.482345
_cell_angle_alpha 90.000000
_cell_angle_beta 90.000000
_cell_angle_gamma 90.000000
_cell_volume 2496.425761
_symmetry_space_group_name_H-M "P N N M"
_symmetry_group_IT_number 58
_symmetry_cell_setting 'orthorhombic'
loop_
_space_group_symop_operation_xyz
x,y,z
-x,-y,z
1/2+x,1/2-y,1/2-z
1/2-x,1/2+y,1/2-z
-x,-y,-z
x,y,-z
1/2-x,1/2+y,1/2+z
1/2+x,1/2-y,1/2+z
loop_
_atom_site_type_symbol
_atom_site_label
_atom_site_fract_x
_atom_site_fract_y
_atom_site_fract_z
Si Si1 0.888467 0.490682 0.836072
Si Si2 0.376237 0.756474 0.396258
Si Si3 0.904646 0.248363 0.901199
Si Si4 0.205506 0.604326 0.329094
Si Si5 0.790024 0.638846 0.601331
Si Si6 0.003386 0.637056 0.599965
O O1 0.864938 0.609934 0.878555
O O2 0.893915 0.383741 0.899294
O O3 0.811789 0.453989 0.763154
O O4 0.000000 0.500000 0.798532
O O5 0.367727 0.737170 0.500000
O O6 0.486758 0.723502 0.366477
O O7 0.295417 0.686466 0.344859
O O8 0.807397 0.194784 0.859390
O O9 0.906391 0.207812 0.000000
O O10 0.218116 0.496175 0.391653
O O11 0.102486 0.666603 0.350329
O O12 0.794908 0.669852 0.500000
O O13 0.897377 0.672387 0.637886
O O14 0.011706 0.674139 0.500000
O O15 0.000000 0.500000 0.598079
#
# Coordination Sequence:
#
# PCOD9444170 Si02
#       6
#     8   8   8   8   8   8
#     4  10  21  36  55  79 109 146 186 227 268 321
#     4  10  21  37  57  81 110 147 185 224 271 329
#     4   9  19  36  57  79 106 144 186 222 267 326
#     4  11  20  31  53  81 111 140 178 225 277 322
#     4   9  17  30  53  79 106 138 176 222 267 317
#     4   8  14  27  47  75 103 134 174 215 260 314
#
# _framework density 19.227488000000001
#
# number of rings (size 3 to 8) (size 9 to 14) (size 15 to 20)
#    0.000    2.500    0.000    4.500    2.333    2.667 
#    0.000    2.500    0.000    1.000    0.000    4.667 
#    0.000    0.000    0.000    0.000    0.000    0.000 
#
# Total GULP energy -267435.852930 kJ/mol
# GULP energy per Si atom -5571.580269 kJ/mol
# Density = 1.918372 g / cm^3
# Si number density = 19.227488 Si / 1000 Ang^3
#
#
#
# Elastic Constant Matrix: (Units=GPa)
#
#
# Indices 1 2 3 4 5 6 
#
# 1 186.2881 60.1052 21.1292 0.0000 0.0000 0.0000
# 2 60.1052 47.6276 -3.8708 0.0000 0.0000 0.0000
# 3 21.1292 -3.8708 36.3933 0.0000 0.0000 0.0000
# 4 0.0000 0.0000 0.0000 16.5288 0.0000 0.0000
# 5 0.0000 0.0000 0.0000 0.0000 18.9887 0.0000
# 6 0.0000 0.0000 0.0000 0.0000 0.0000 30.9345
#
#
#
# Elastic Compliance Matrix: (Units=1/GPa)
#
#
# Indices 1 2 3 4 5 6 
#
# 1 0.010908 -0.014404 -0.007865 0.000000 0.000000 0.000000
# 2 -0.014404 0.040201 0.012639 0.000000 0.000000 0.000000
# 3 -0.007865 0.012639 0.033388 0.000000 0.000000 0.000000
# 4 0.000000 0.000000 0.000000 0.060501 0.000000 0.000000
# 5 0.000000 0.000000 0.000000 0.000000 0.052663 0.000000
# 6 0.000000 0.000000 0.000000 0.000000 0.000000 0.032326
#
#
# Mechanical properties :
#
#
# Convention : Reuss Voigt Hill
#
# Bulk Modulus (GPa) = 15.32892 47.22625 31.27758
# Shear Modulus (GPa) = 18.45065 26.15342 22.30203
#
# Velocity S-wave (km/s) = 3.10110 3.69210 3.40943
# Velocity P-wave (km/s) = 4.56203 6.54146 5.63927
#
# Compressibility (1/GPa) = 0.06523617
#
# Stress axis : x y z
#
# Youngs Moduli (GPa) = 91.67920 24.87470 29.95088
#
# Poissons Ratio (x) = 0.35830 0.23556
# Poissons Ratio (y) = 1.32058 -0.37854
# Poissons Ratio (z) = 0.72104 -0.31438
#
# Static dielectric constant tensor:
#      x y z
#    x 1.733840 0.000000 0.000000 
#    y 0.000000 1.639820 0.000000 
#    z 0.000000 0.000000 1.734950 
# 
# From -- ./inp_files/26126.got.cif
#   From: 2010.05.17/outbox.cif.g08.bks.cpg/sg58_14_cif.got.tgz:26126.got - 2010.06.03 14:20:14.
