data_PCOD9444383
_publ_section_title
;
Structure prediction by ZEFSAII (Michael W. Deem and Ramdas Pophale) SiO2 
 PCOD9444383
Probable space group: P N N M
;
_chemical_formula_sum "Si O2"
_cell_formula_units_Z 56
_cell_length_a 19.146843
_cell_length_b 17.729047
_cell_length_c 7.893649
_cell_angle_alpha 90.000000
_cell_angle_beta 90.000000
_cell_angle_gamma 90.000000
_cell_volume 2679.540827
_symmetry_space_group_name_H-M "P N N M"
_symmetry_group_IT_number 58
_symmetry_cell_setting 'orthorhombic'
loop_
_space_group_symop_operation_xyz
x,y,z
-x,-y,z
1/2+x,1/2-y,1/2-z
1/2-x,1/2+y,1/2-z
-x,-y,-z
x,y,-z
1/2-x,1/2+y,1/2+z
1/2+x,1/2-y,1/2+z
loop_
_atom_site_type_symbol
_atom_site_label
_atom_site_fract_x
_atom_site_fract_y
_atom_site_fract_z
Si Si1 0.120659 0.684021 0.292762
Si Si2 0.611269 0.387713 0.299142
Si Si3 0.959341 0.170198 0.294694
Si Si4 0.156920 0.949120 0.697316
Si Si5 0.305176 0.899757 0.196498
Si Si6 0.920577 0.483777 0.707580
Si Si7 0.274191 0.730566 0.298890
O O1 0.121287 0.684167 0.500000
O O2 0.063301 0.745927 0.241877
O O3 0.103571 0.599407 0.237951
O O4 0.196795 0.711736 0.232963
O O5 0.621550 0.398265 0.500000
O O6 0.533937 0.356511 0.269596
O O7 0.623908 0.468565 0.215524
O O8 0.667605 0.327162 0.232736
O O9 0.961481 0.167615 0.500000
O O10 0.898410 0.112679 0.238885
O O11 0.170152 0.932004 0.500000
O O12 0.231419 0.942769 0.786927
O O13 0.295151 0.817028 0.272526
O O14 0.366755 0.952145 0.267821
O O15 0.321144 0.887559 0.000000
O O16 0.918550 0.483985 0.500000
O O17 0.000000 0.500000 0.758232
O O18 0.270790 0.718344 0.500000
#
# Coordination Sequence:
#
# PCOD9444383 Si02
#       7
#     8   8   8   8   8   8   8
#     4   9  17  35  59  79 110 156 198 231 280 356
#     4  11  24  38  59  89 121 152 191 249 304 350
#     4  10  21  37  60  86 115 157 198 234 287 364
#     4  11  22  40  62  85 117 159 201 238 294 368
#     4  11  22  36  60  92 120 150 201 256 297 344
#     4   9  19  34  56  88 120 152 194 245 297 352
#     4  10  21  40  60  82 117 162 200 235 297 363
#
# _framework density 20.899104000000001
#
# number of rings (size 3 to 8) (size 9 to 14) (size 15 to 20)
#    0.000    1.857    1.429    2.571    2.000    6.286 
#    0.000    0.000    0.000    3.429    0.000    0.000 
#    0.000    0.000    0.000    0.000    0.000    0.000 
#
# Total GULP energy -312965.714155 kJ/mol
# GULP energy per Si atom -5588.673467 kJ/mol
# Density = 2.085154 g / cm^3
# Si number density = 20.899104 Si / 1000 Ang^3
#
#
#
# Elastic Constant Matrix: (Units=GPa)
#
#
# Indices 1 2 3 4 5 6 
#
# 1 65.6484 51.3903 -10.9536 0.0000 0.0000 0.0000
# 2 51.3903 148.4332 -6.2955 0.0000 0.0000 0.0000
# 3 -10.9536 -6.2955 18.9112 0.0000 0.0000 0.0000
# 4 0.0000 0.0000 0.0000 7.4044 0.0000 0.0000
# 5 0.0000 0.0000 0.0000 0.0000 18.0915 0.0000
# 6 0.0000 0.0000 0.0000 0.0000 0.0000 -37.2687
#
#
#
# Elastic Compliance Matrix: (Units=1/GPa)
#
#
# Indices 1 2 3 4 5 6 
#
# 1 0.022869 -0.007461 0.010762 0.000000 0.000000 0.000000
# 2 -0.007461 0.009268 -0.001236 0.000000 0.000000 0.000000
# 3 0.010762 -0.001236 0.058701 0.000000 0.000000 0.000000
# 4 0.000000 0.000000 0.000000 0.135054 0.000000 0.000000
# 5 0.000000 0.000000 0.000000 0.000000 0.055275 0.000000
# 6 0.000000 0.000000 0.000000 0.000000 0.000000 -0.026832
#
#
# Mechanical properties :
#
#
# Convention : Reuss Voigt Hill
#
# Bulk Modulus (GPa) = 10.52996 33.47499 22.00247
# Shear Modulus (GPa) = 17.73923 10.90223 14.32073
#
# Velocity S-wave (km/s) = 2.91658 2.28647 2.62053
# Velocity P-wave (km/s) = 4.04862 4.79820 4.43926
#
# Compressibility (1/GPa) = 0.09496717
#
# Stress axis : x y z
#
# Youngs Moduli (GPa) = 43.72705 107.90026 17.03551
#
# Poissons Ratio (x) = 0.80507 -0.18334
# Poissons Ratio (y) = 0.32626 0.02106
# Poissons Ratio (z) = -0.47060 0.13341
#
# Static dielectric constant tensor:
#      x y z
#    x 1.719840 0.000000 0.000000 
#    y 0.000000 1.717820 0.000000 
#    z 0.000000 0.000000 1.876130 
# 
# From -- ./inp_files/8992.got.cif
#   From: 2010.05.17/outbox.cif.g08.bks.cpg/sg58_5_cif.got.tgz:8992.got - 2010.06.03 14:20:14.
