data_PCOD9444758
_publ_section_title
;
Structure prediction by ZEFSAII (Michael W. Deem and Ramdas Pophale) SiO2 
 PCOD9444758
Probable space group: P N N M
;
_chemical_formula_sum "Si O2"
_cell_formula_units_Z 36
_cell_length_a 5.316781
_cell_length_b 10.168242
_cell_length_c 25.827147
_cell_angle_alpha 90.000000
_cell_angle_beta 90.000000
_cell_angle_gamma 90.000000
_cell_volume 1396.275379
_symmetry_space_group_name_H-M "P N N M"
_symmetry_group_IT_number 58
_symmetry_cell_setting 'orthorhombic'
loop_
_space_group_symop_operation_xyz
x,y,z
-x,-y,z
1/2+x,1/2-y,1/2-z
1/2-x,1/2+y,1/2-z
-x,-y,-z
x,y,-z
1/2-x,1/2+y,1/2+z
1/2+x,1/2-y,1/2+z
loop_
_atom_site_type_symbol
_atom_site_label
_atom_site_fract_x
_atom_site_fract_y
_atom_site_fract_z
Si Si1 0.846069 0.640175 0.660087
Si Si2 0.749690 0.089722 0.268482
Si Si3 0.883942 0.309819 0.443817
Si Si4 0.748353 0.087900 0.615421
Si Si5 0.500000 0.500000 0.596138
O O1 0.801654 0.684185 0.719006
O O2 0.571819 0.612121 0.636690
O O3 0.000000 0.500000 0.663390
O O4 0.954993 0.705642 0.608312
O O5 0.774239 0.148733 0.325898
O O6 0.500000 0.000000 0.270642
O O7 0.000000 0.000000 0.259122
O O8 0.005178 0.303894 0.500000
O O9 0.708914 0.184757 0.433135
O O10 0.724862 0.443830 0.437922
O O11 0.500000 0.000000 0.618121
O O12 0.000000 0.000000 0.608214
#
# Coordination Sequence:
#
# PCOD9444758 Si02
#       5
#     8   8   8   8   4
#     4   9  19  37  61  93 129 168 213 272 340 407
#     4   9  17  37  66  93 131 168 215 275 338 408
#     4  11  25  42  64  98 136 183 234 284 343 412
#     4  10  24  46  69  99 134 181 233 286 342 405
#     4  10  21  40  66  94 130 174 219 274 346 408
#
# _framework density 25.782876999999999
#
# number of rings (size 3 to 8) (size 9 to 14) (size 15 to 20)
#    0.000    2.222    1.111    0.333    3.111    5.778 
#    4.000    0.000    0.000    0.000    0.000    0.000 
#    0.000    0.000    0.000    0.000    0.000    0.000 
#
# Total GULP energy -200703.657225 kJ/mol
# GULP energy per Si atom -5575.101590 kJ/mol
# Density = 2.572419 g / cm^3
# Si number density = 25.782877 Si / 1000 Ang^3
#
#
#
# Elastic Constant Matrix: (Units=GPa)
#
#
# Indices 1 2 3 4 5 6 
#
# 1 115.1580 7.8706 29.9813 0.0000 0.0000 0.0000
# 2 7.8706 44.1958 56.3729 0.0000 0.0000 0.0000
# 3 29.9813 56.3729 205.5985 0.0000 0.0000 0.0000
# 4 0.0000 0.0000 0.0000 20.8771 0.0000 0.0000
# 5 0.0000 0.0000 0.0000 0.0000 23.4593 0.0000
# 6 0.0000 0.0000 0.0000 0.0000 0.0000 22.1034
#
#
#
# Elastic Compliance Matrix: (Units=1/GPa)
#
#
# Indices 1 2 3 4 5 6 
#
# 1 0.009027 0.000110 -0.001346 0.000000 0.000000 0.000000
# 2 0.000110 0.034797 -0.009557 0.000000 0.000000 0.000000
# 3 -0.001346 -0.009557 0.007681 0.000000 0.000000 0.000000
# 4 0.000000 0.000000 0.000000 0.047899 0.000000 0.000000
# 5 0.000000 0.000000 0.000000 0.000000 0.042627 0.000000
# 6 0.000000 0.000000 0.000000 0.000000 0.000000 0.045242
#
#
# Mechanical properties :
#
#
# Convention : Reuss Voigt Hill
#
# Bulk Modulus (GPa) = 33.42526 61.48910 47.45718
# Shear Modulus (GPa) = 22.84850 31.33647 27.09248
#
# Velocity S-wave (km/s) = 2.98012 3.49004 3.24511
# Velocity P-wave (km/s) = 4.98335 6.33570 5.69977
#
# Compressibility (1/GPa) = 0.02991750
#
# Stress axis : x y z
#
# Youngs Moduli (GPa) = 110.78174 28.73779 130.19725
#
# Poissons Ratio (x) = -0.00316 0.17531
# Poissons Ratio (y) = -0.01218 1.24431
# Poissons Ratio (z) = 0.14916 0.27465
#
# Static dielectric constant tensor:
#      x y z
#    x 2.189560 0.000000 0.000000 
#    y 0.000000 2.264890 0.000000 
#    z 0.000000 0.000000 1.958730 
# 
# From -- ./inp_files/30831.got.cif
#   From: 2010.05.17/outbox.cif.g08.bks.cpg/sg58_16_cif.got.tgz:30831.got - 2010.06.03 14:20:14.
