data_PCOD9444449
_publ_section_title
;
Structure prediction by ZEFSAII (Michael W. Deem and Ramdas Pophale) SiO2 
 PCOD9444449
Probable space group: P N N M
;
_chemical_formula_sum "Si O2"
_cell_formula_units_Z 64
_cell_length_a 29.179153
_cell_length_b 13.017517
_cell_length_c 7.598076
_cell_angle_alpha 90.000000
_cell_angle_beta 90.000000
_cell_angle_gamma 90.000000
_cell_volume 2886.054101
_symmetry_space_group_name_H-M "P N N M"
_symmetry_group_IT_number 58
_symmetry_cell_setting 'orthorhombic'
loop_
_space_group_symop_operation_xyz
x,y,z
-x,-y,z
1/2+x,1/2-y,1/2-z
1/2-x,1/2+y,1/2-z
-x,-y,-z
x,y,-z
1/2-x,1/2+y,1/2+z
1/2+x,1/2-y,1/2+z
loop_
_atom_site_type_symbol
_atom_site_label
_atom_site_fract_x
_atom_site_fract_y
_atom_site_fract_z
Si Si1 0.958863 0.739396 0.201223
Si Si2 0.368134 0.423273 0.288197
Si Si3 0.800320 0.252580 0.212729
Si Si4 0.371323 0.651332 0.792662
Si Si5 0.028240 0.899826 0.784424
Si Si6 0.347988 0.031354 0.790002
Si Si7 0.948511 0.514940 0.299239
Si Si8 0.299624 0.822666 0.784818
O O1 0.919992 0.826937 0.204161
O O2 0.942053 0.638228 0.298971
O O3 0.003841 0.794911 0.273659
O O4 0.966759 0.707935 0.000000
O O5 0.369067 0.417459 0.500000
O O6 0.335408 0.334110 0.223106
O O7 0.353093 0.537764 0.240589
O O8 0.419857 0.408145 0.224677
O O9 0.820046 0.364141 0.260198
O O10 0.749992 0.217607 0.274091
O O11 0.799138 0.250118 0.000000
O O12 0.336410 0.737618 0.730579
O O13 0.378526 0.664363 0.000000
O O14 0.027137 0.898509 0.000000
O O15 0.000000 0.000000 0.727734
O O16 0.400965 0.030382 0.720971
O O17 0.318260 0.933693 0.725098
O O18 0.352933 0.016982 0.000000
O O19 0.951825 0.475491 0.500000
O O20 0.000000 0.500000 0.221225
O O21 0.298246 0.825338 0.000000
#
# Coordination Sequence:
#
# PCOD9444449 Si02
#       8
#     8   8   8   8   8   8   8   8
#     4  11  21  35  58  85 114 150 196 239 287 346
#     4  10  21  38  58  82 116 153 192 237 288 342
#     4  10  23  40  61  87 116 152 197 246 293 346
#     4  11  21  37  60  84 117 153 193 240 293 349
#     4   9  17  32  52  77 114 149 175 222 286 331
#     4  10  21  41  63  85 120 157 192 239 297 353
#     4  10  22  40  60  83 117 160 198 239 293 352
#     4   9  20  40  61  82 114 154 189 240 302 344
#
# _framework density 22.175605000000001
#
# number of rings (size 3 to 8) (size 9 to 14) (size 15 to 20)
#    0.000    2.000    2.500    0.750    3.500    1.250 
#    0.000    3.125    0.000    0.000    0.000    0.000 
#    0.000    0.000    0.000    0.000    0.000    0.000 
#
# Total GULP energy -357444.722642 kJ/mol
# GULP energy per Si atom -5585.073791 kJ/mol
# Density = 2.212513 g / cm^3
# Si number density = 22.175605 Si / 1000 Ang^3
#
#
#
# Elastic Constant Matrix: (Units=GPa)
#
#
# Indices 1 2 3 4 5 6 
#
# 1 152.0737 77.5326 8.2858 0.0000 0.0000 0.0000
# 2 77.5326 150.6900 -3.0137 0.0000 0.0000 0.0000
# 3 8.2858 -3.0137 51.2808 0.0000 0.0000 0.0000
# 4 0.0000 0.0000 0.0000 26.0977 0.0000 0.0000
# 5 0.0000 0.0000 0.0000 0.0000 3.4188 0.0000
# 6 0.0000 0.0000 0.0000 0.0000 0.0000 34.5621
#
#
#
# Elastic Compliance Matrix: (Units=1/GPa)
#
#
# Indices 1 2 3 4 5 6 
#
# 1 0.009067 -0.004700 -0.001741 0.000000 0.000000 0.000000
# 2 -0.004700 0.009080 0.001293 0.000000 0.000000 0.000000
# 3 -0.001741 0.001293 0.019858 0.000000 0.000000 0.000000
# 4 0.000000 0.000000 0.000000 0.038318 0.000000 0.000000
# 5 0.000000 0.000000 0.000000 0.000000 0.292503 0.000000
# 6 0.000000 0.000000 0.000000 0.000000 0.000000 0.028933
#
#
# Mechanical properties :
#
#
# Convention : Reuss Voigt Hill
#
# Bulk Modulus (GPa) = 36.08977 57.73936 46.91456
# Shear Modulus (GPa) = 11.98204 30.89836 21.44020
#
# Velocity S-wave (km/s) = 2.32701 3.73681 3.11277
# Velocity P-wave (km/s) = 4.85076 6.68672 5.84132
#
# Compressibility (1/GPa) = 0.02770868
#
# Stress axis : x y z
#
# Youngs Moduli (GPa) = 110.29286 110.13039 50.35807
#
# Poissons Ratio (x) = 0.51759 0.08768
# Poissons Ratio (y) = 0.51836 -0.06511
# Poissons Ratio (z) = 0.19204 -0.14240
#
# Static dielectric constant tensor:
#      x y z
#    x 1.825170 0.000000 0.000000 
#    y 0.000000 1.777110 0.000000 
#    z 0.000000 0.000000 1.843030 
# 
# From -- ./inp_files/4694.got.cif
#   From: 2010.05.17/outbox.cif.g08.bks.cpg/sg58_3_cif.got.tgz:4694.got - 2010.06.03 14:20:14.
