data_PCOD9444350
_publ_section_title
;
Structure prediction by ZEFSAII (Michael W. Deem and Ramdas Pophale) SiO2 
 PCOD9444350
Probable space group: P N N M
;
_chemical_formula_sum "Si O2"
_cell_formula_units_Z 48
_cell_length_a 9.628457
_cell_length_b 8.672023
_cell_length_c 25.743729
_cell_angle_alpha 90.000000
_cell_angle_beta 90.000000
_cell_angle_gamma 90.000000
_cell_volume 2149.555047
_symmetry_space_group_name_H-M "P N N M"
_symmetry_group_IT_number 58
_symmetry_cell_setting 'orthorhombic'
loop_
_space_group_symop_operation_xyz
x,y,z
-x,-y,z
1/2+x,1/2-y,1/2-z
1/2-x,1/2+y,1/2-z
-x,-y,-z
x,y,-z
1/2-x,1/2+y,1/2+z
1/2+x,1/2-y,1/2+z
loop_
_atom_site_type_symbol
_atom_site_label
_atom_site_fract_x
_atom_site_fract_y
_atom_site_fract_z
Si Si1 0.577191 0.847013 0.274131
Si Si2 0.606717 0.364557 0.787581
Si Si3 0.183343 0.160980 0.592208
Si Si4 0.440438 0.329130 0.619707
Si Si5 0.433339 0.152138 0.940046
Si Si6 0.322970 0.841542 0.561777
O O1 0.479319 0.787059 0.227921
O O2 0.740189 0.872468 0.261368
O O3 0.572488 0.721533 0.320331
O O4 0.500000 0.000000 0.294148
O O5 0.500000 0.500000 0.773778
O O6 0.638168 0.371844 0.848672
O O7 0.290612 0.303442 0.593840
O O8 0.047734 0.213179 0.561785
O O9 0.261939 0.011088 0.571411
O O10 0.500000 0.500000 0.613957
O O11 0.539843 0.204887 0.592052
O O12 0.293395 0.221834 0.917532
O O13 0.500000 0.000000 0.915099
O O14 0.401155 0.114349 0.000000
O O15 0.344208 0.823258 0.500000
#
# Coordination Sequence:
#
# PCOD9444350 Si02
#       6
#     8   8   8   8   8   8
#     4  11  24  42  65  93 126 169 217 271 337 403
#     4  11  23  41  64  93 127 165 213 267 326 395
#     4  11  23  40  63  92 124 167 216 266 324 389
#     4  11  24  42  63  90 128 168 213 272 333 396
#     4  10  21  37  58  87 123 162 208 263 321 381
#     4  11  23  40  65  95 130 175 223 274 332 395
#
# _framework density 22.330200999999999
#
# number of rings (size 3 to 8) (size 9 to 14) (size 15 to 20)
#    0.000    1.167    0.000    7.000    0.000    7.000 
#    0.000    0.000    0.000    0.000    0.000    0.000 
#    0.000    0.000    0.000    0.000    0.000    0.000 
#
# Total GULP energy -268341.369587 kJ/mol
# GULP energy per Si atom -5590.445200 kJ/mol
# Density = 2.227938 g / cm^3
# Si number density = 22.330201 Si / 1000 Ang^3
#
#
#
# Elastic Constant Matrix: (Units=GPa)
#
#
# Indices 1 2 3 4 5 6 
#
# 1 155.1038 20.8203 16.2916 0.0000 0.0000 0.0000
# 2 20.8203 75.1748 3.3107 0.0000 0.0000 0.0000
# 3 16.2916 3.3107 28.9300 0.0000 0.0000 0.0000
# 4 0.0000 0.0000 0.0000 26.1058 0.0000 0.0000
# 5 0.0000 0.0000 0.0000 0.0000 8.8039 0.0000
# 6 0.0000 0.0000 0.0000 0.0000 0.0000 45.3848
#
#
#
# Elastic Compliance Matrix: (Units=1/GPa)
#
#
# Indices 1 2 3 4 5 6 
#
# 1 0.007086 -0.001796 -0.003785 0.000000 0.000000 0.000000
# 2 -0.001796 0.013825 -0.000571 0.000000 0.000000 0.000000
# 3 -0.003785 -0.000571 0.036763 0.000000 0.000000 0.000000
# 4 0.000000 0.000000 0.000000 0.038306 0.000000 0.000000
# 5 0.000000 0.000000 0.000000 0.000000 0.113586 0.000000
# 6 0.000000 0.000000 0.000000 0.000000 0.000000 0.022034
#
#
# Mechanical properties :
#
#
# Convention : Reuss Voigt Hill
#
# Bulk Modulus (GPa) = 22.04065 37.78375 29.91220
# Shear Modulus (GPa) = 19.30315 30.64465 24.97390
#
# Velocity S-wave (km/s) = 2.94333 3.70853 3.34786
# Velocity P-wave (km/s) = 4.63062 5.94094 5.32623
#
# Compressibility (1/GPa) = 0.04537072
#
# Stress axis : x y z
#
# Youngs Moduli (GPa) = 141.12530 72.33356 27.20138
#
# Poissons Ratio (x) = 0.12990 0.10295
# Poissons Ratio (y) = 0.25344 0.01553
# Poissons Ratio (z) = 0.53414 0.04129
#
# Static dielectric constant tensor:
#      x y z
#    x 1.806850 0.000000 0.000000 
#    y 0.000000 1.863040 0.000000 
#    z 0.000000 0.000000 1.789120 
# 
# From -- ./inp_files/34556.got.cif
#   From: 2010.05.17/outbox.cif.g08.bks.cpg/sg58_18_cif.got.tgz:34556.got - 2010.06.03 14:20:14.
