data_PCOD9444765
_publ_section_title
;
Structure prediction by ZEFSAII (Michael W. Deem and Ramdas Pophale) SiO2 
 PCOD9444765
Probable space group: P N N M
;
_chemical_formula_sum "Si O2"
_cell_formula_units_Z 48
_cell_length_a 9.448321
_cell_length_b 10.272610
_cell_length_c 24.155256
_cell_angle_alpha 90.000000
_cell_angle_beta 90.000000
_cell_angle_gamma 90.000000
_cell_volume 2344.482982
_symmetry_space_group_name_H-M "P N N M"
_symmetry_group_IT_number 58
_symmetry_cell_setting 'orthorhombic'
loop_
_space_group_symop_operation_xyz
x,y,z
-x,-y,z
1/2+x,1/2-y,1/2-z
1/2-x,1/2+y,1/2-z
-x,-y,-z
x,y,-z
1/2-x,1/2+y,1/2+z
1/2+x,1/2-y,1/2+z
loop_
_atom_site_type_symbol
_atom_site_label
_atom_site_fract_x
_atom_site_fract_y
_atom_site_fract_z
Si Si1 0.633702 0.137434 0.564391
Si Si2 0.310091 0.021810 0.331852
Si Si3 0.059092 0.309977 0.775185
Si Si4 0.036100 0.854445 0.133696
Si Si5 0.033399 0.846892 0.562539
Si Si6 0.143788 0.264133 0.654692
O O1 0.596033 0.114722 0.500000
O O2 0.643330 0.011906 0.605384
O O3 0.534873 0.246959 0.592842
O O4 0.798947 0.177518 0.564745
O O5 0.304897 0.884069 0.301023
O O6 0.573874 0.891515 0.299252
O O7 0.176298 0.112649 0.331458
O O8 0.072685 0.317507 0.710033
O O9 0.036656 0.173796 0.806184
O O10 0.204630 0.829061 0.140188
O O11 0.000000 0.000000 0.115788
O O12 0.981698 0.828491 0.500000
O O13 0.957165 0.746307 0.602651
O O14 0.000000 0.000000 0.575149
#
# Coordination Sequence:
#
# PCOD9444765 Si02
#       6
#     8   8   8   8   8   8
#     4  10  21  42  70  93 130 170 209 276 333 379
#     4   9  19  39  57  94 127 158 217 257 313 388
#     4   9  21  37  58  87 129 164 208 260 314 375
#     4  10  24  43  60  95 132 174 222 260 318 398
#     4  10  21  40  66  99 127 155 210 275 332 382
#     4  11  22  38  66  93 126 173 211 269 324 378
#
# _framework density 20.473597999999999
#
# number of rings (size 3 to 8) (size 9 to 14) (size 15 to 20)
#    0.000    2.167    1.667    1.000    2.333    7.000 
#    3.000   14.167    0.000    2.000    0.000    0.000 
#    0.000    0.000    0.000    0.000    0.000    0.000 
#
# Total GULP energy -267446.538652 kJ/mol
# GULP energy per Si atom -5571.802889 kJ/mol
# Density = 2.042700 g / cm^3
# Si number density = 20.473598 Si / 1000 Ang^3
#
#
#
# Elastic Constant Matrix: (Units=GPa)
#
#
# Indices 1 2 3 4 5 6 
#
# 1 78.7069 23.6382 54.4199 0.0000 0.0000 0.0000
# 2 23.6382 72.4143 40.1143 0.0000 0.0000 0.0000
# 3 54.4199 40.1143 163.3889 0.0000 0.0000 0.0000
# 4 0.0000 0.0000 0.0000 22.6654 0.0000 0.0000
# 5 0.0000 0.0000 0.0000 0.0000 9.9631 0.0000
# 6 0.0000 0.0000 0.0000 0.0000 0.0000 16.2299
#
#
#
# Elastic Compliance Matrix: (Units=1/GPa)
#
#
# Indices 1 2 3 4 5 6 
#
# 1 0.016980 -0.002789 -0.004971 0.000000 0.000000 0.000000
# 2 -0.002789 0.016441 -0.003108 0.000000 0.000000 0.000000
# 3 -0.004971 -0.003108 0.008539 0.000000 0.000000 0.000000
# 4 0.000000 0.000000 0.000000 0.044120 0.000000 0.000000
# 5 0.000000 0.000000 0.000000 0.000000 0.100371 0.000000
# 6 0.000000 0.000000 0.000000 0.000000 0.000000 0.061615
#
#
# Mechanical properties :
#
#
# Convention : Reuss Voigt Hill
#
# Bulk Modulus (GPa) = 49.44327 61.20609 55.32468
# Shear Modulus (GPa) = 18.08043 22.86087 20.47065
#
# Velocity S-wave (km/s) = 2.97494 3.34519 3.16548
# Velocity P-wave (km/s) = 6.00021 6.69928 6.35936
#
# Compressibility (1/GPa) = 0.02022520
#
# Stress axis : x y z
#
# Youngs Moduli (GPa) = 58.89310 60.82216 117.11098
#
# Poissons Ratio (x) = 0.16965 0.58212
# Poissons Ratio (y) = 0.16427 0.36393
# Poissons Ratio (z) = 0.29274 0.18901
#
# Static dielectric constant tensor:
#      x y z
#    x 1.807670 0.000000 0.000000 
#    y 0.000000 1.776730 0.000000 
#    z 0.000000 0.000000 1.754370 
# 
# From -- ./inp_files/31464.got.cif
#   From: 2010.05.17/outbox.cif.g08.bks.cpg/sg58_16_cif.got.tgz:31464.got - 2010.06.03 14:20:14.
