data_PCOD9444562
_publ_section_title
;
Structure prediction by ZEFSAII (Michael W. Deem and Ramdas Pophale) SiO2 
 PCOD9444562
Probable space group: P N N M
;
_chemical_formula_sum "Si O2"
_cell_formula_units_Z 44
_cell_length_a 17.448995
_cell_length_b 9.175859
_cell_length_c 14.199139
_cell_angle_alpha 90.000000
_cell_angle_beta 90.000000
_cell_angle_gamma 90.000000
_cell_volume 2273.417299
_symmetry_space_group_name_H-M "P N N M"
_symmetry_group_IT_number 58
_symmetry_cell_setting 'orthorhombic'
loop_
_space_group_symop_operation_xyz
x,y,z
-x,-y,z
1/2+x,1/2-y,1/2-z
1/2-x,1/2+y,1/2-z
-x,-y,-z
x,y,-z
1/2-x,1/2+y,1/2+z
1/2+x,1/2-y,1/2+z
loop_
_atom_site_type_symbol
_atom_site_label
_atom_site_fract_x
_atom_site_fract_y
_atom_site_fract_z
Si Si1 0.493388 0.729894 0.500000
Si Si2 0.212006 0.287827 0.824629
Si Si3 0.544984 0.347053 0.106371
Si Si4 0.542396 0.149934 0.288604
Si Si5 0.162839 0.094321 0.000000
Si Si6 0.176359 0.762137 0.000000
Si Si7 0.276761 0.594631 0.148193
O O1 0.476138 0.802011 0.396873
O O2 0.430661 0.598090 0.500000
O O3 0.584999 0.728111 0.500000
O O4 0.134187 0.363700 0.787668
O O5 0.267661 0.420688 0.847974
O O6 0.236611 0.171477 0.747641
O O7 0.189999 0.189108 0.912527
O O8 0.500000 0.500000 0.110913
O O9 0.522753 0.257345 0.201060
O O10 0.636924 0.370715 0.114301
O O11 0.529832 0.285182 0.000000
O O12 0.500000 0.000000 0.271551
O O13 0.197846 0.933118 0.000000
O O14 0.212562 0.671700 0.085038
#
# Coordination Sequence:
#
# PCOD9444562 Si02
#       7
#     4   8   8   8   4   4   8
#     4  10  22  38  62  95 127 161 200 251 325 387
#     4  10  22  38  60  89 125 157 201 250 304 377
#     4  10  23  43  63  84 122 170 219 259 306 378
#     4  10  21  38  63  94 126 157 202 262 317 374
#     4  10  22  39  58  91 122 158 201 245 300 373
#     4  12  22  37  63  88 124 159 201 252 310 374
#     4  11  22  39  62  89 122 165 205 257 316 367
#
# _framework density 19.354123000000001
#
# number of rings (size 3 to 8) (size 9 to 14) (size 15 to 20)
#    0.000    1.636    0.909    3.273    0.000    9.091 
#    0.000    0.000    0.000    0.000    0.000    0.000 
#    0.000    0.000    0.000    0.000    0.000    0.000 
#
# Total GULP energy -245093.529114 kJ/mol
# GULP energy per Si atom -5570.307480 kJ/mol
# Density = 1.931007 g / cm^3
# Si number density = 19.354123 Si / 1000 Ang^3
#
#
#
# Elastic Constant Matrix: (Units=GPa)
#
#
# Indices 1 2 3 4 5 6 
#
# 1 51.0400 20.3176 36.8872 0.0000 0.0000 0.0000
# 2 20.3176 76.1437 50.9089 0.0000 0.0000 0.0000
# 3 36.8872 50.9089 163.4772 0.0000 0.0000 0.0000
# 4 0.0000 0.0000 0.0000 19.4277 0.0000 0.0000
# 5 0.0000 0.0000 0.0000 0.0000 19.5149 0.0000
# 6 0.0000 0.0000 0.0000 0.0000 0.0000 30.3852
#
#
#
# Elastic Compliance Matrix: (Units=1/GPa)
#
#
# Indices 1 2 3 4 5 6 
#
# 1 0.024141 -0.003536 -0.004346 0.000000 0.000000 0.000000
# 2 -0.003536 0.017104 -0.004529 0.000000 0.000000 0.000000
# 3 -0.004346 -0.004529 0.008508 0.000000 0.000000 0.000000
# 4 0.000000 0.000000 0.000000 0.051473 0.000000 0.000000
# 5 0.000000 0.000000 0.000000 0.000000 0.051243 0.000000
# 6 0.000000 0.000000 0.000000 0.000000 0.000000 0.032911
#
#
# Mechanical properties :
#
#
# Convention : Reuss Voigt Hill
#
# Bulk Modulus (GPa) = 40.10892 56.32092 48.21492
# Shear Modulus (GPa) = 22.88206 26.03538 24.45872
#
# Velocity S-wave (km/s) = 3.44217 3.67169 3.55878
# Velocity P-wave (km/s) = 6.04704 6.86575 6.46936
#
# Compressibility (1/GPa) = 0.02493211
#
# Stress axis : x y z
#
# Youngs Moduli (GPa) = 41.42341 58.46456 117.53624
#
# Poissons Ratio (x) = 0.20672 0.51082
# Poissons Ratio (y) = 0.14647 0.53229
# Poissons Ratio (z) = 0.18003 0.26477
#
# Static dielectric constant tensor:
#      x y z
#    x 1.678110 0.000000 0.000000 
#    y 0.000000 1.658330 0.000000 
#    z 0.000000 0.000000 1.653420 
# 
# From -- ./inp_files/22712.got.cif
#   From: 2010.05.17/outbox.cif.g08.bks.cpg/sg58_12_cif.got.tgz:22712.got - 2010.06.03 14:20:14.
