data_PCOD9444731
_publ_section_title
;
Structure prediction by ZEFSAII (Michael W. Deem and Ramdas Pophale) SiO2 
 PCOD9444731
Probable space group: P N N M
;
_chemical_formula_sum "Si O2"
_cell_formula_units_Z 64
_cell_length_a 19.438086
_cell_length_b 8.480328
_cell_length_c 18.139209
_cell_angle_alpha 90.000000
_cell_angle_beta 90.000000
_cell_angle_gamma 90.000000
_cell_volume 2990.091608
_symmetry_space_group_name_H-M "P N N M"
_symmetry_group_IT_number 58
_symmetry_cell_setting 'orthorhombic'
loop_
_space_group_symop_operation_xyz
x,y,z
-x,-y,z
1/2+x,1/2-y,1/2-z
1/2-x,1/2+y,1/2-z
-x,-y,-z
x,y,-z
1/2-x,1/2+y,1/2+z
1/2+x,1/2-y,1/2+z
loop_
_atom_site_type_symbol
_atom_site_label
_atom_site_fract_x
_atom_site_fract_y
_atom_site_fract_z
Si Si1 0.185008 0.596302 0.303763
Si Si2 0.081171 0.329524 0.917456
Si Si3 0.916348 0.998777 0.138268
Si Si4 0.717079 0.970870 0.581188
Si Si5 0.153709 0.831695 0.584509
Si Si6 0.423531 0.564788 0.190882
Si Si7 0.706476 0.678220 0.325424
Si Si8 0.563536 0.102187 0.251450
O O1 0.146227 0.664680 0.375073
O O2 0.247432 0.479628 0.324108
O O3 0.201220 0.754856 0.257638
O O4 0.132825 0.498560 0.252390
O O5 0.108149 0.150099 0.909326
O O6 0.140411 0.460219 0.914371
O O7 0.045278 0.346991 0.836444
O O8 0.047948 0.341081 0.000000
O O9 0.901863 0.975376 0.225322
O O10 0.865272 0.146976 0.129451
O O11 0.000000 0.000000 0.127475
O O12 0.727585 0.903486 0.500000
O O13 0.737770 0.832806 0.636034
O O14 0.765923 0.122462 0.587224
O O15 0.130924 0.828698 0.500000
O O16 0.118419 0.973011 0.629624
O O17 0.500000 0.500000 0.183575
O O18 0.424883 0.752555 0.196330
O O19 0.500000 0.000000 0.225335
#
# Coordination Sequence:
#
# PCOD9444731 Si02
#       8
#     8   8   8   8   8   8   8   8
#     4  12  25  39  65  97 124 162 216 265 313 376
#     4  10  22  39  61  89 129 172 213 256 308 368
#     4  10  23  39  64  91 125 168 213 263 313 367
#     4  10  22  40  61  90 127 169 208 256 318 376
#     4  11  23  42  66  91 125 165 206 261 330 387
#     4  10  21  40  64  91 125 164 210 259 317 383
#     4  12  24  39  65  93 126 164 214 263 311 377
#     4  11  24  40  66  96 129 171 213 264 312 371
#
# _framework density 21.404026000000002
#
# number of rings (size 3 to 8) (size 9 to 14) (size 15 to 20)
#    0.000    1.250    2.500    3.000    7.000    1.750 
#    0.000    1.875    0.000    1.500    0.000    0.000 
#    0.000    0.000    0.000    0.000    0.000    0.000 
#
# Total GULP energy -356622.557498 kJ/mol
# GULP energy per Si atom -5572.227461 kJ/mol
# Density = 2.135531 g / cm^3
# Si number density = 21.404026 Si / 1000 Ang^3
#
#
#
# Elastic Constant Matrix: (Units=GPa)
#
#
# Indices 1 2 3 4 5 6 
#
# 1 41.3097 21.5555 20.5876 0.0000 0.0000 0.0000
# 2 21.5555 102.9193 43.4939 0.0000 0.0000 0.0000
# 3 20.5876 43.4939 105.0967 0.0000 0.0000 0.0000
# 4 0.0000 0.0000 0.0000 29.1299 0.0000 0.0000
# 5 0.0000 0.0000 0.0000 0.0000 21.5424 0.0000
# 6 0.0000 0.0000 0.0000 0.0000 0.0000 30.4558
#
#
#
# Elastic Compliance Matrix: (Units=1/GPa)
#
#
# Indices 1 2 3 4 5 6 
#
# 1 0.028348 -0.004352 -0.003752 0.000000 0.000000 0.000000
# 2 -0.004352 0.012444 -0.004297 0.000000 0.000000 0.000000
# 3 -0.003752 -0.004297 0.012029 0.000000 0.000000 0.000000
# 4 0.000000 0.000000 0.000000 0.034329 0.000000 0.000000
# 5 0.000000 0.000000 0.000000 0.000000 0.046420 0.000000
# 6 0.000000 0.000000 0.000000 0.000000 0.000000 0.032834
#
#
# Mechanical properties :
#
#
# Convention : Reuss Voigt Hill
#
# Bulk Modulus (GPa) = 35.69132 46.73329 41.21231
# Shear Modulus (GPa) = 24.93197 27.13821 26.03509
#
# Velocity S-wave (km/s) = 3.41666 3.56462 3.49142
# Velocity P-wave (km/s) = 5.68120 6.23084 5.96235
#
# Compressibility (1/GPa) = 0.02801801
#
# Stress axis : x y z
#
# Youngs Moduli (GPa) = 35.27576 80.36111 83.13545
#
# Poissons Ratio (x) = 0.34969 0.31195
# Poissons Ratio (y) = 0.15350 0.35727
# Poissons Ratio (z) = 0.13237 0.34534
#
# Static dielectric constant tensor:
#      x y z
#    x 1.812430 0.000000 0.000000 
#    y 0.000000 1.770660 0.000000 
#    z 0.000000 0.000000 1.856420 
# 
# From -- ./inp_files/27534.got.cif
#   From: 2010.05.17/outbox.cif.g08.bks.cpg/sg58_14_cif.got.tgz:27534.got - 2010.06.03 14:20:14.
