data_PCOD9444844
_publ_section_title
;
Structure prediction by ZEFSAII (Michael W. Deem and Ramdas Pophale) SiO2 
 PCOD9444844
Probable space group: P N N M
;
_chemical_formula_sum "Si O2"
_cell_formula_units_Z 56
_cell_length_a 22.083851
_cell_length_b 14.812144
_cell_length_c 8.871467
_cell_angle_alpha 90.000000
_cell_angle_beta 90.000000
_cell_angle_gamma 90.000000
_cell_volume 2901.938305
_symmetry_space_group_name_H-M "P N N M"
_symmetry_group_IT_number 58
_symmetry_cell_setting 'orthorhombic'
loop_
_space_group_symop_operation_xyz
x,y,z
-x,-y,z
1/2+x,1/2-y,1/2-z
1/2-x,1/2+y,1/2-z
-x,-y,-z
x,y,-z
1/2-x,1/2+y,1/2+z
1/2+x,1/2-y,1/2+z
loop_
_atom_site_type_symbol
_atom_site_label
_atom_site_fract_x
_atom_site_fract_y
_atom_site_fract_z
Si Si1 0.766024 0.668525 0.820905
Si Si2 0.394536 0.078399 0.679974
Si Si3 0.241993 0.639906 0.821173
Si Si4 0.952525 0.077557 0.181433
Si Si5 0.316918 0.484786 0.679790
Si Si6 0.093332 0.371879 0.819615
Si Si7 0.018783 0.728032 0.679065
O O1 0.745145 0.766651 0.767633
O O2 0.727914 0.594402 0.731551
O O3 0.837433 0.656264 0.790766
O O4 0.756734 0.655957 0.000000
O O5 0.404829 0.086895 0.500000
O O6 0.322917 0.092264 0.705835
O O7 0.432046 0.155726 0.762094
O O8 0.413597 0.977156 0.724667
O O9 0.294625 0.574380 0.763410
O O10 0.247195 0.656010 0.000000
O O11 0.967075 0.173499 0.254745
O O12 0.884983 0.044455 0.218988
O O13 0.955894 0.088275 0.000000
O O14 0.000000 0.000000 0.225916
O O15 0.313455 0.498254 0.500000
O O16 0.045666 0.308682 0.737112
O O17 0.083058 0.366139 0.000000
O O18 0.019914 0.731552 0.500000
#
# Coordination Sequence:
#
# PCOD9444844 Si02
#       7
#     8   8   8   8   8   8   8
#     4  11  23  41  64  94 128 168 213 260 316 378
#     4  10  21  42  66  90 123 171 214 247 305 382
#     4  11  23  40  64  95 129 166 208 258 314 377
#     4  10  24  46  68  89 121 170 219 255 302 380
#     4  11  23  41  66  96 126 164 211 263 315 370
#     4  10  22  42  65  88 122 169 214 253 307 384
#     4  12  26  40  61  96 129 161 204 266 323 363
#
# _framework density 19.297447999999999
#
# number of rings (size 3 to 8) (size 9 to 14) (size 15 to 20)
#    0.000    1.286    1.429    3.857    2.000    9.429 
#    0.000    0.000    0.000    0.000    0.000    0.000 
#    0.000    0.000    0.000    0.000    0.000    0.000 
#
# Total GULP energy -313269.256864 kJ/mol
# GULP energy per Si atom -5594.093873 kJ/mol
# Density = 1.925353 g / cm^3
# Si number density = 19.297448 Si / 1000 Ang^3
#
#
#
# Elastic Constant Matrix: (Units=GPa)
#
#
# Indices 1 2 3 4 5 6 
#
# 1 63.7353 -48.9503 17.6173 0.0000 0.0000 0.0000
# 2 -48.9503 -71.6449 -40.9657 0.0000 0.0000 0.0000
# 3 17.6173 -40.9657 16.4230 0.0000 0.0000 0.0000
# 4 0.0000 0.0000 0.0000 46.1345 0.0000 0.0000
# 5 0.0000 0.0000 0.0000 0.0000 57.9182 0.0000
# 6 0.0000 0.0000 0.0000 0.0000 0.0000 28.5933
#
#
#
# Elastic Compliance Matrix: (Units=1/GPa)
#
#
# Indices 1 2 3 4 5 6 
#
# 1 0.022232 -0.000640 -0.025445 0.000000 0.000000 0.000000
# 2 -0.000640 -0.005734 -0.013617 0.000000 0.000000 0.000000
# 3 -0.025445 -0.013617 0.054219 0.000000 0.000000 0.000000
# 4 0.000000 0.000000 0.000000 0.021676 0.000000 0.000000
# 5 0.000000 0.000000 0.000000 0.000000 0.017266 0.000000
# 6 0.000000 0.000000 0.000000 0.000000 0.000000 0.034973
#
#
# Mechanical properties :
#
#
# Convention : Reuss Voigt Hill
#
# Bulk Modulus (GPa) = -115.10209 -15.12045 -65.11127
# Shear Modulus (GPa) = 22.61010 31.91667 27.26339
#
# Velocity S-wave (km/s) = 3.42667 4.07127 3.76280
# Velocity P-wave (km/s) = 6.64226 3.77463 3.86470
#
# Compressibility (1/GPa) = -0.00868794
#
# Stress axis : x y z
#
# Youngs Moduli (GPa) = 44.98098 -174.38901 18.44358
#
# Poissons Ratio (x) = -0.11164 0.46930
# Poissons Ratio (y) = 0.02880 0.25115
# Poissons Ratio (z) = 1.14455 -2.37465
#
# Static dielectric constant tensor:
#      x y z
#    x 1.661370 0.000000 0.000000 
#    y 0.000000 1.645420 0.000000 
#    z 0.000000 0.000000 1.639910 
# 
# From -- ./inp_files/6289.got.cif
#   From: 2010.05.17/outbox.cif.g08.bks.cpg/sg58_4_cif.got.tgz:6289.got - 2010.06.03 14:20:14.
