data_PCOD9444595
_publ_section_title
;
Structure prediction by ZEFSAII (Michael W. Deem and Ramdas Pophale) SiO2 
 PCOD9444595
Probable space group: P N N M
;
_chemical_formula_sum "Si O2"
_cell_formula_units_Z 64
_cell_length_a 8.852187
_cell_length_b 11.872422
_cell_length_c 31.629594
_cell_angle_alpha 90.000000
_cell_angle_beta 90.000000
_cell_angle_gamma 90.000000
_cell_volume 3324.172268
_symmetry_space_group_name_H-M "P N N M"
_symmetry_group_IT_number 58
_symmetry_cell_setting 'orthorhombic'
loop_
_space_group_symop_operation_xyz
x,y,z
-x,-y,z
1/2+x,1/2-y,1/2-z
1/2-x,1/2+y,1/2-z
-x,-y,-z
x,y,-z
1/2-x,1/2+y,1/2+z
1/2+x,1/2-y,1/2+z
loop_
_atom_site_type_symbol
_atom_site_label
_atom_site_fract_x
_atom_site_fract_y
_atom_site_fract_z
Si Si1 0.208425 0.406768 0.238693
Si Si2 0.249506 0.566228 0.685341
Si Si3 0.272257 0.211358 0.366004
Si Si4 0.642683 0.918302 0.046913
Si Si5 0.343735 0.437907 0.395630
Si Si6 0.972056 0.219711 0.785543
Si Si7 0.321102 0.474761 0.851665
Si Si8 0.418064 0.237110 0.872806
O O1 0.188871 0.503616 0.273480
O O2 0.359144 0.339475 0.252913
O O3 0.240727 0.460348 0.193286
O O4 0.072909 0.318030 0.234679
O O5 0.259071 0.473455 0.647894
O O6 0.409561 0.626315 0.696482
O O7 0.146637 0.662899 0.665430
O O8 0.344229 0.303107 0.397763
O O9 0.366982 0.231521 0.323076
O O10 0.094912 0.243934 0.364139
O O11 0.261117 0.078168 0.375061
O O12 0.609112 0.827145 0.083166
O O13 0.500000 0.000000 0.044737
O O14 0.770391 0.001061 0.064634
O O15 0.674025 0.872890 0.000000
O O16 0.500000 0.500000 0.390095
O O17 0.500000 0.500000 0.844807
O O18 0.326128 0.353838 0.873848
#
# Coordination Sequence:
#
# PCOD9444595 Si02
#       8
#     8   8   8   8   8   8   8   8
#     4  12  26  41  55  82 118 165 210 277 313 361
#     4  11  22  41  62  85 115 159 218 263 315 376
#     4  11  23  42  60  89 118 163 213 263 314 384
#     4  10  21  38  67 104 130 156 205 264 325 395
#     4  11  20  38  64  92 128 165 200 257 320 388
#     4  12  26  43  56  81 122 161 216 272 322 370
#     4  10  23  40  62  83 122 159 215 259 311 367
#     4  10  22  43  67  91 122 170 206 261 328 391
#
# _framework density 19.252914000000001
#
# number of rings (size 3 to 8) (size 9 to 14) (size 15 to 20)
#    0.000    1.125    5.000    1.125    5.250    0.750 
#    4.500    0.000    0.000    4.125    0.000    0.875 
#    0.000    0.000    0.000    0.000    0.000    0.000 
#
# Total GULP energy -357536.996328 kJ/mol
# GULP energy per Si atom -5586.515568 kJ/mol
# Density = 1.920909 g / cm^3
# Si number density = 19.252914 Si / 1000 Ang^3
#
#
#
# Elastic Constant Matrix: (Units=GPa)
#
#
# Indices 1 2 3 4 5 6 
#
# 1 43.6452 37.9911 32.0337 0.0000 0.0000 0.0000
# 2 37.9911 149.9538 54.3571 0.0000 0.0000 0.0000
# 3 32.0337 54.3571 96.4276 0.0000 0.0000 0.0000
# 4 0.0000 0.0000 0.0000 15.1970 0.0000 0.0000
# 5 0.0000 0.0000 0.0000 0.0000 9.2295 0.0000
# 6 0.0000 0.0000 0.0000 0.0000 0.0000 24.1918
#
#
#
# Elastic Compliance Matrix: (Units=1/GPa)
#
#
# Indices 1 2 3 4 5 6 
#
# 1 0.033700 -0.005630 -0.008022 0.000000 0.000000 0.000000
# 2 -0.005630 0.009322 -0.003384 0.000000 0.000000 0.000000
# 3 -0.008022 -0.003384 0.014943 0.000000 0.000000 0.000000
# 4 0.000000 0.000000 0.000000 0.065802 0.000000 0.000000
# 5 0.000000 0.000000 0.000000 0.000000 0.108348 0.000000
# 6 0.000000 0.000000 0.000000 0.000000 0.000000 0.041336
#
#
# Mechanical properties :
#
#
# Convention : Reuss Voigt Hill
#
# Bulk Modulus (GPa) = 41.85354 59.86561 50.85958
# Shear Modulus (GPa) = 15.84838 20.76664 18.30751
#
# Velocity S-wave (km/s) = 2.87220 3.28780 3.08700
# Velocity P-wave (km/s) = 5.72585 6.75090 6.25940
#
# Compressibility (1/GPa) = 0.02389284
#
# Stress axis : x y z
#
# Youngs Moduli (GPa) = 29.67318 107.27284 66.92022
#
# Poissons Ratio (x) = 0.60398 0.53681
# Poissons Ratio (y) = 0.16707 0.22649
# Poissons Ratio (z) = 0.23803 0.36306
#
# Static dielectric constant tensor:
#      x y z
#    x 1.682320 0.000000 0.000000 
#    y 0.000000 1.719610 0.000000 
#    z 0.000000 0.000000 1.646330 
# 
# From -- ./inp_files/34767.got.cif
#   From: 2010.05.17/outbox.cif.g08.bks.cpg/sg58_18_cif.got.tgz:34767.got - 2010.06.03 14:20:14.
