data_PCOD9444904
_publ_section_title
;
Structure prediction by ZEFSAII (Michael W. Deem and Ramdas Pophale) SiO2 
 PCOD9444904
Probable space group: P N N M
;
_chemical_formula_sum "Si O2"
_cell_formula_units_Z 58
_cell_length_a 17.413018
_cell_length_b 20.340972
_cell_length_c 7.516148
_cell_angle_alpha 90.000000
_cell_angle_beta 90.000000
_cell_angle_gamma 90.000000
_cell_volume 2662.202421
_symmetry_space_group_name_H-M "P N N M"
_symmetry_group_IT_number 58
_symmetry_cell_setting 'orthorhombic'
loop_
_space_group_symop_operation_xyz
x,y,z
-x,-y,z
1/2+x,1/2-y,1/2-z
1/2-x,1/2+y,1/2-z
-x,-y,-z
x,y,-z
1/2-x,1/2+y,1/2+z
1/2+x,1/2-y,1/2+z
loop_
_atom_site_type_symbol
_atom_site_label
_atom_site_fract_x
_atom_site_fract_y
_atom_site_fract_z
Si Si1 0.481329 0.165086 0.291978
Si Si2 0.396312 0.035215 0.288134
Si Si3 0.000000 0.500000 0.500000
Si Si4 0.214911 0.033900 0.711963
Si Si5 0.808807 0.115134 0.792252
Si Si6 0.040169 0.811729 0.216414
Si Si7 0.134448 0.164467 0.290951
Si Si8 0.156192 0.312701 0.283956
O O1 0.461369 0.164934 0.500000
O O2 0.435220 0.103156 0.218967
O O3 0.456950 0.236151 0.220013
O O4 0.573018 0.161662 0.275128
O O5 0.410626 0.024744 0.500000
O O6 0.305926 0.038553 0.259731
O O7 0.436061 0.984058 0.157918
O O8 0.201719 0.032178 0.500000
O O9 0.173729 0.099118 0.784664
O O10 0.187946 0.963267 0.779672
O O11 0.886150 0.148120 0.719186
O O12 0.728650 0.144568 0.719915
O O13 0.807625 0.133263 0.000000
O O14 0.957454 0.839318 0.272125
O O15 0.039243 0.811291 0.000000
O O16 0.154108 0.165843 0.500000
O O17 0.160390 0.236250 0.222149
O O18 0.154504 0.312783 0.500000
#
# Coordination Sequence:
#
# PCOD9444904 Si02
#       8
#     8   8   2   8   8   8   8   8
#     4   9  19  36  59  83 115 152 195 245 304 364
#     4  10  24  41  62  92 124 167 209 254 304 370
#     4  12  26  40  64  86 128 170 206 246 308 364
#     4  10  23  40  58  83 120 159 201 246 302 365
#     4  10  22  36  57  85 116 151 195 248 303 367
#     4   9  19  37  59  86 114 151 196 250 310 364
#     4   9  19  38  61  83 111 154 201 248 301 364
#     4   9  19  34  58  85 112 147 197 246 298 362
#
# _framework density 21.786473000000001
#
# number of rings (size 3 to 8) (size 9 to 14) (size 15 to 20)
#    0.000    2.483    0.000    0.207    5.793    2.207 
#    0.000    2.759    0.000    0.000    0.000    0.000 
#    0.000    0.000    0.000    0.000    0.000    0.000 
#
# Total GULP energy -323345.517165 kJ/mol
# GULP energy per Si atom -5574.922710 kJ/mol
# Density = 2.173689 g / cm^3
# Si number density = 21.786473 Si / 1000 Ang^3
#
#
#
# Elastic Constant Matrix: (Units=GPa)
#
#
# Indices 1 2 3 4 5 6 
#
# 1 39.6214 45.6538 0.5924 0.0000 0.0000 0.0000
# 2 45.6538 121.7991 0.3271 0.0000 0.0000 0.0000
# 3 0.5924 0.3271 69.4122 0.0000 0.0000 0.0000
# 4 0.0000 0.0000 0.0000 7.9235 0.0000 0.0000
# 5 0.0000 0.0000 0.0000 0.0000 28.7126 0.0000
# 6 0.0000 0.0000 0.0000 0.0000 0.0000 39.6460
#
#
#
# Elastic Compliance Matrix: (Units=1/GPa)
#
#
# Indices 1 2 3 4 5 6 
#
# 1 0.044433 -0.016654 -0.000301 0.000000 0.000000 0.000000
# 2 -0.016654 0.014452 0.000074 0.000000 0.000000 0.000000
# 3 -0.000301 0.000074 0.014409 0.000000 0.000000 0.000000
# 4 0.000000 0.000000 0.000000 0.126207 0.000000 0.000000
# 5 0.000000 0.000000 0.000000 0.000000 0.034828 0.000000
# 6 0.000000 0.000000 0.000000 0.000000 0.000000 0.025223
#
#
# Mechanical properties :
#
#
# Convention : Reuss Voigt Hill
#
# Bulk Modulus (GPa) = 25.29535 35.99769 30.64652
# Shear Modulus (GPa) = 16.31369 27.54038 21.92703
#
# Velocity S-wave (km/s) = 2.73939 3.55928 3.17590
# Velocity P-wave (km/s) = 4.65204 5.78361 5.24841
#
# Compressibility (1/GPa) = 0.03953296
#
# Stress axis : x y z
#
# Youngs Moduli (GPa) = 22.50585 69.19263 69.40148
#
# Poissons Ratio (x) = 1.15233 0.02087
# Poissons Ratio (y) = 0.37481 -0.00514
# Poissons Ratio (z) = 0.00677 -0.00512
#
# Static dielectric constant tensor:
#      x y z
#    x 1.774450 0.000000 0.000000 
#    y 0.000000 1.860400 0.000000 
#    z 0.000000 0.000000 1.847510 
# 
# From -- ./inp_files/8017.got.cif
#   From: 2010.05.17/outbox.cif.g08.bks.cpg/sg58_5_cif.got.tgz:8017.got - 2010.06.03 14:20:14.
