data_PCOD9444272
_publ_section_title
;
Structure prediction by ZEFSAII (Michael W. Deem and Ramdas Pophale) SiO2 
 PCOD9444272
Probable space group: P N N M
;
_chemical_formula_sum "Si O2"
_cell_formula_units_Z 40
_cell_length_a 5.720851
_cell_length_b 17.654017
_cell_length_c 18.092325
_cell_angle_alpha 90.000000
_cell_angle_beta 90.000000
_cell_angle_gamma 90.000000
_cell_volume 1827.252470
_symmetry_space_group_name_H-M "P N N M"
_symmetry_group_IT_number 58
_symmetry_cell_setting 'orthorhombic'
loop_
_space_group_symop_operation_xyz
x,y,z
-x,-y,z
1/2+x,1/2-y,1/2-z
1/2-x,1/2+y,1/2-z
-x,-y,-z
x,y,-z
1/2-x,1/2+y,1/2+z
1/2+x,1/2-y,1/2+z
loop_
_atom_site_type_symbol
_atom_site_label
_atom_site_fract_x
_atom_site_fract_y
_atom_site_fract_z
Si Si1 0.631844 0.885706 0.081484
Si Si2 0.852731 0.715691 0.916726
Si Si3 0.747814 0.958528 0.237567
Si Si4 0.251319 0.803562 0.847835
Si Si5 0.491993 0.332709 0.202916
O O1 0.744059 0.801307 0.082070
O O2 0.717657 0.932442 0.151908
O O3 0.361844 0.864351 0.097544
O O4 0.668131 0.918903 0.000000
O O5 0.700719 0.663543 0.861696
O O6 0.110857 0.738168 0.890129
O O7 0.848661 0.686189 0.000000
O O8 0.786333 0.888007 0.293844
O O9 0.500000 0.000000 0.254768
O O10 0.000000 0.000000 0.246111
O O11 0.439060 0.755593 0.801106
O O12 0.110867 0.844642 0.784239
#
# Coordination Sequence:
#
# PCOD9444272 Si02
#       5
#     8   8   8   8   8
#     4  10  22  39  59  93 135 167 211 269 326 390
#     4  10  21  36  64  98 127 159 201 273 352 396
#     4  12  27  43  63  92 129 185 237 262 302 377
#     4  11  18  35  66  97 125 168 203 275 343 389
#     4  11  21  37  63  91 127 162 218 271 325 386
#
# _framework density 21.890789999999999
#
# number of rings (size 3 to 8) (size 9 to 14) (size 15 to 20)
#    0.000    1.200    4.000    3.000    2.800    1.600 
#    0.000    0.000    0.000    1.200    0.000    0.000 
#    0.000    0.000    0.000    0.000    0.000    0.000 
#
# Total GULP energy -222916.535365 kJ/mol
# GULP energy per Si atom -5572.913384 kJ/mol
# Density = 2.184097 g / cm^3
# Si number density = 21.890790 Si / 1000 Ang^3
#
#
#
# Elastic Constant Matrix: (Units=GPa)
#
#
# Indices 1 2 3 4 5 6 
#
# 1 81.0825 17.2514 24.4762 0.0000 0.0000 0.0000
# 2 17.2514 42.1976 7.3107 0.0000 0.0000 0.0000
# 3 24.4762 7.3107 73.9676 0.0000 0.0000 0.0000
# 4 0.0000 0.0000 0.0000 19.5662 0.0000 0.0000
# 5 0.0000 0.0000 0.0000 0.0000 14.8305 0.0000
# 6 0.0000 0.0000 0.0000 0.0000 0.0000 40.1941
#
#
#
# Elastic Compliance Matrix: (Units=1/GPa)
#
#
# Indices 1 2 3 4 5 6 
#
# 1 0.014776 -0.005284 -0.004367 0.000000 0.000000 0.000000
# 2 -0.005284 0.026001 -0.000821 0.000000 0.000000 0.000000
# 3 -0.004367 -0.000821 0.015046 0.000000 0.000000 0.000000
# 4 0.000000 0.000000 0.000000 0.051108 0.000000 0.000000
# 5 0.000000 0.000000 0.000000 0.000000 0.067429 0.000000
# 6 0.000000 0.000000 0.000000 0.000000 0.000000 0.024879
#
#
# Mechanical properties :
#
#
# Convention : Reuss Voigt Hill
#
# Bulk Modulus (GPa) = 28.67212 32.81382 30.74297
# Shear Modulus (GPa) = 21.56950 24.79879 23.18415
#
# Velocity S-wave (km/s) = 3.14239 3.36942 3.25788
# Velocity P-wave (km/s) = 5.12761 5.49178 5.31282
#
# Compressibility (1/GPa) = 0.03487708
#
# Stress axis : x y z
#
# Youngs Moduli (GPa) = 67.67898 38.46069 66.46422
#
# Poissons Ratio (x) = 0.20323 0.29025
# Poissons Ratio (y) = 0.35762 0.05459
# Poissons Ratio (z) = 0.29556 0.03159
#
# Static dielectric constant tensor:
#      x y z
#    x 2.057770 0.000000 0.000000 
#    y 0.000000 1.850980 0.000000 
#    z 0.000000 0.000000 1.777350 
# 
# From -- ./inp_files/24173.got.cif
#   From: 2010.05.17/outbox.cif.g08.bks.cpg/sg58_13_cif.got.tgz:24173.got - 2010.06.03 14:20:14.
