data_PCOD9444476
_publ_section_title
;
Structure prediction by ZEFSAII (Michael W. Deem and Ramdas Pophale) SiO2 
 PCOD9444476
Probable space group: P N N M
;
_chemical_formula_sum "Si O2"
_cell_formula_units_Z 48
_cell_length_a 12.014077
_cell_length_b 23.379009
_cell_length_c 8.846662
_cell_angle_alpha 90.000000
_cell_angle_beta 90.000000
_cell_angle_gamma 90.000000
_cell_volume 2484.825778
_symmetry_space_group_name_H-M "P N N M"
_symmetry_group_IT_number 58
_symmetry_cell_setting 'orthorhombic'
loop_
_space_group_symop_operation_xyz
x,y,z
-x,-y,z
1/2+x,1/2-y,1/2-z
1/2-x,1/2+y,1/2-z
-x,-y,-z
x,y,-z
1/2-x,1/2+y,1/2+z
1/2+x,1/2-y,1/2+z
loop_
_atom_site_type_symbol
_atom_site_label
_atom_site_fract_x
_atom_site_fract_y
_atom_site_fract_z
Si Si1 0.374603 0.779063 0.817776
Si Si2 0.322925 0.649065 0.820508
Si Si3 0.504323 0.566793 0.318836
Si Si4 0.774802 0.120439 0.676972
Si Si5 0.086671 0.653468 0.674632
Si Si6 0.549469 0.062795 0.330328
O O1 0.356596 0.713545 0.774882
O O2 0.286526 0.823132 0.743854
O O3 0.501081 0.796746 0.777871
O O4 0.364256 0.784598 0.000000
O O5 0.397632 0.601569 0.740093
O O6 0.194444 0.645208 0.775143
O O7 0.337451 0.643463 0.000000
O O8 0.500000 0.500000 0.269749
O O9 0.506352 0.567659 0.500000
O O10 0.613688 0.599434 0.257477
O O11 0.798036 0.130354 0.500000
O O12 0.681310 0.070466 0.689962
O O13 0.118156 0.661188 0.500000
O O14 0.010496 0.598111 0.700402
O O15 0.526320 0.087362 0.500000
O O16 0.500000 0.000000 0.328976
#
# Coordination Sequence:
#
# PCOD9444476 Si02
#       6
#     8   8   8   8   8   8
#     4   9  21  41  63  91 124 160 200 250 309 368
#     4  11  24  41  64  92 122 161 207 254 309 369
#     4  11  26  45  63  89 126 168 213 258 312 373
#     4  10  21  38  63  92 123 161 204 253 305 364
#     4  10  21  38  59  88 123 156 198 249 304 363
#     4   9  19  36  59  88 118 154 199 246 297 354
#
# _framework density 19.317247999999999
#
# number of rings (size 3 to 8) (size 9 to 14) (size 15 to 20)
#    0.000    2.000    0.000    2.000    4.667    4.333 
#    0.000    0.000    0.000    0.000    0.000    0.000 
#    0.000    0.000    0.000    0.000    0.000    0.000 
#
# Total GULP energy -267888.109297 kJ/mol
# GULP energy per Si atom -5581.002277 kJ/mol
# Density = 1.927328 g / cm^3
# Si number density = 19.317248 Si / 1000 Ang^3
#
#
#
# Elastic Constant Matrix: (Units=GPa)
#
#
# Indices 1 2 3 4 5 6 
#
# 1 111.5631 41.4851 31.3107 0.0000 0.0000 0.0000
# 2 41.4851 64.3295 28.6344 0.0000 0.0000 0.0000
# 3 31.3107 28.6344 46.6329 0.0000 0.0000 0.0000
# 4 0.0000 0.0000 0.0000 21.4922 0.0000 0.0000
# 5 0.0000 0.0000 0.0000 0.0000 29.0313 0.0000
# 6 0.0000 0.0000 0.0000 0.0000 0.0000 4.8728
#
#
#
# Elastic Compliance Matrix: (Units=1/GPa)
#
#
# Indices 1 2 3 4 5 6 
#
# 1 0.012509 -0.005956 -0.004742 0.000000 0.000000 0.000000
# 2 -0.005956 0.024228 -0.010878 0.000000 0.000000 0.000000
# 3 -0.004742 -0.010878 0.031307 0.000000 0.000000 0.000000
# 4 0.000000 0.000000 0.000000 0.046528 0.000000 0.000000
# 5 0.000000 0.000000 0.000000 0.000000 0.034446 0.000000
# 6 0.000000 0.000000 0.000000 0.000000 0.000000 0.205221
#
#
# Mechanical properties :
#
#
# Convention : Reuss Voigt Hill
#
# Bulk Modulus (GPa) = 40.17197 47.26511 43.71854
# Shear Modulus (GPa) = 12.32473 19.15229 15.73851
#
# Velocity S-wave (km/s) = 2.52864 3.15216 2.85746
# Velocity P-wave (km/s) = 5.41908 6.14566 5.79377
#
# Compressibility (1/GPa) = 0.02489298
#
# Stress axis : x y z
#
# Youngs Moduli (GPa) = 79.94123 41.27444 31.94172
#
# Poissons Ratio (x) = 0.24585 0.15145
# Poissons Ratio (y) = 0.47616 0.34745
# Poissons Ratio (z) = 0.37905 0.44897
#
# Static dielectric constant tensor:
#      x y z
#    x 1.683170 0.000000 0.000000 
#    y 0.000000 1.683770 0.000000 
#    z 0.000000 0.000000 1.666060 
# 
# From -- ./inp_files/4191.got.cif
#   From: 2010.05.17/outbox.cif.g08.bks.cpg/sg58_3_cif.got.tgz:4191.got - 2010.06.03 14:20:14.
