data_PCOD9444291
_publ_section_title
;
Structure prediction by ZEFSAII (Michael W. Deem and Ramdas Pophale) SiO2 
 PCOD9444291
Probable space group: P N N M
;
_chemical_formula_sum "Si O2"
_cell_formula_units_Z 64
_cell_length_a 19.691584
_cell_length_b 17.669994
_cell_length_c 8.035192
_cell_angle_alpha 90.000000
_cell_angle_beta 90.000000
_cell_angle_gamma 90.000000
_cell_volume 2795.846431
_symmetry_space_group_name_H-M "P N N M"
_symmetry_group_IT_number 58
_symmetry_cell_setting 'orthorhombic'
loop_
_space_group_symop_operation_xyz
x,y,z
-x,-y,z
1/2+x,1/2-y,1/2-z
1/2-x,1/2+y,1/2-z
-x,-y,-z
x,y,-z
1/2-x,1/2+y,1/2+z
1/2+x,1/2-y,1/2+z
loop_
_atom_site_type_symbol
_atom_site_label
_atom_site_fract_x
_atom_site_fract_y
_atom_site_fract_z
Si Si1 0.733979 0.906486 0.692290
Si Si2 0.312751 0.732738 0.691494
Si Si3 0.391432 0.000828 0.303201
Si Si4 0.946832 0.225090 0.305768
Si Si5 0.513216 0.121938 0.304569
Si Si6 0.806536 0.172242 0.295564
Si Si7 0.933575 0.870084 0.806448
Si Si8 0.135419 0.985557 0.686528
O O1 0.717438 0.883114 0.500000
O O2 0.757563 0.835121 0.798545
O O3 0.673347 0.956298 0.766440
O O4 0.798438 0.961188 0.681960
O O5 0.328960 0.752975 0.500000
O O6 0.267962 0.801752 0.764690
O O7 0.379933 0.692581 0.768949
O O8 0.376794 0.987477 0.500000
O O9 0.452610 0.060972 0.294229
O O10 0.420391 0.921447 0.236518
O O11 0.945400 0.208673 0.500000
O O12 0.868535 0.228596 0.249467
O O13 0.987111 0.302303 0.277051
O O14 0.990905 0.158974 0.223332
O O15 0.524402 0.138378 0.500000
O O16 0.800557 0.169653 0.500000
O O17 0.836581 0.091928 0.235643
O O18 0.920289 0.956089 0.753371
O O19 0.917717 0.868704 0.000000
O O20 0.113825 0.965190 0.500000
#
# Coordination Sequence:
#
# PCOD9444291 Si02
#       8
#     8   8   8   8   8   8   8   8
#     4   9  16  28  50  76  99 127 164 205 251 302
#     4   9  18  34  55  77 102 133 169 208 253 306
#     4   8  15  28  48  74 103 135 167 202 248 306
#     4  11  22  35  52  75 104 136 174 217 258 304
#     4   9  17  31  49  71 102 136 171 207 247 301
#     4   9  19  35  55  78 102 134 173 210 252 304
#     4  10  21  37  56  77 104 137 171 210 258 308
#     4   9  18  34  54  74  97 127 169 215 255 300
#
# _framework density 22.891099000000001
#
# number of rings (size 3 to 8) (size 9 to 14) (size 15 to 20)
#    0.000    2.750    0.000    2.250    0.000    2.000 
#    0.000   10.625    0.000    3.000    0.000    0.000 
#    0.000    0.000    0.000    0.000    0.000    0.000 
#
# Total GULP energy -356702.928938 kJ/mol
# GULP energy per Si atom -5573.483265 kJ/mol
# Density = 2.283900 g / cm^3
# Si number density = 22.891099 Si / 1000 Ang^3
#
#
#
# Elastic Constant Matrix: (Units=GPa)
#
#
# Indices 1 2 3 4 5 6 
#
# 1 60.5738 3.0578 -0.5214 0.0000 0.0000 0.0000
# 2 3.0578 65.9190 7.5722 0.0000 0.0000 0.0000
# 3 -0.5214 7.5722 9.5378 0.0000 0.0000 0.0000
# 4 0.0000 0.0000 0.0000 21.0401 0.0000 0.0000
# 5 0.0000 0.0000 0.0000 0.0000 10.8453 0.0000
# 6 0.0000 0.0000 0.0000 0.0000 0.0000 24.3587
#
#
#
# Elastic Compliance Matrix: (Units=1/GPa)
#
#
# Indices 1 2 3 4 5 6 
#
# 1 0.016572 -0.000960 0.001668 0.000000 0.000000 0.000000
# 2 -0.000960 0.016748 -0.013349 0.000000 0.000000 0.000000
# 3 0.001668 -0.013349 0.115535 0.000000 0.000000 0.000000
# 4 0.000000 0.000000 0.000000 0.047528 0.000000 0.000000
# 5 0.000000 0.000000 0.000000 0.000000 0.092206 0.000000
# 6 0.000000 0.000000 0.000000 0.000000 0.000000 0.041053
#
#
# Mechanical properties :
#
#
# Convention : Reuss Voigt Hill
#
# Bulk Modulus (GPa) = 8.09241 17.36087 12.72664
# Shear Modulus (GPa) = 12.62259 19.64362 16.13310
#
# Velocity S-wave (km/s) = 2.35078 2.93257 2.65764
# Velocity P-wave (km/s) = 3.30319 4.36660 3.87158
#
# Compressibility (1/GPa) = 0.12357260
#
# Stress axis : x y z
#
# Youngs Moduli (GPa) = 60.34413 59.70827 8.65538
#
# Poissons Ratio (x) = 0.05734 -0.01444
# Poissons Ratio (y) = 0.05795 0.11554
# Poissons Ratio (z) = -0.10067 0.79705
#
# Static dielectric constant tensor:
#      x y z
#    x 1.882020 0.000000 0.000000 
#    y 0.000000 1.903620 0.000000 
#    z 0.000000 0.000000 1.853440 
# 
# From -- ./inp_files/9242.got.cif
#   From: 2010.05.17/outbox.cif.g08.bks.cpg/sg58_5_cif.got.tgz:9242.got - 2010.06.03 14:20:14.
