data_PCOD9444208
_publ_section_title
;
Structure prediction by ZEFSAII (Michael W. Deem and Ramdas Pophale) SiO2 
 PCOD9444208
Probable space group: P N N M
;
_chemical_formula_sum "Si O2"
_cell_formula_units_Z 48
_cell_length_a 7.931740
_cell_length_b 10.093365
_cell_length_c 30.535855
_cell_angle_alpha 90.000000
_cell_angle_beta 90.000000
_cell_angle_gamma 90.000000
_cell_volume 2444.637858
_symmetry_space_group_name_H-M "P N N M"
_symmetry_group_IT_number 58
_symmetry_cell_setting 'orthorhombic'
loop_
_space_group_symop_operation_xyz
x,y,z
-x,-y,z
1/2+x,1/2-y,1/2-z
1/2-x,1/2+y,1/2-z
-x,-y,-z
x,y,-z
1/2-x,1/2+y,1/2+z
1/2+x,1/2-y,1/2+z
loop_
_atom_site_type_symbol
_atom_site_label
_atom_site_fract_x
_atom_site_fract_y
_atom_site_fract_z
Si Si1 0.746962 0.996541 0.806726
Si Si2 0.500000 0.500000 0.381365
Si Si3 0.481379 0.718134 0.550557
Si Si4 0.620212 0.688689 0.081590
Si Si5 0.500000 0.500000 0.228750
Si Si6 0.218728 0.084031 0.549697
Si Si7 0.995715 0.727407 0.323233
O O1 0.845618 0.021085 0.762084
O O2 0.669847 0.135676 0.823257
O O3 0.860608 0.950055 0.847441
O O4 0.620451 0.875139 0.798917
O O5 0.447288 0.384563 0.414247
O O6 0.499193 0.675669 0.500000
O O7 0.282777 0.738814 0.560854
O O8 0.601568 0.846389 0.555477
O O9 0.442989 0.681077 0.055024
O O10 0.684839 0.536155 0.082689
O O11 0.568646 0.745058 0.128579
O O12 0.475380 0.632137 0.200314
O O13 0.214473 0.028959 0.500000
#
# Coordination Sequence:
#
# PCOD9444208 Si02
#       7
#     8   4   8   8   4   8   8
#     4  10  23  41  63  86 126 162 194 251 327 377
#     4  11  21  40  57  82 118 170 207 254 309 377
#     4  11  22  37  59  88 124 169 220 261 307 368
#     4  11  20  37  61  87 122 160 205 253 322 373
#     4  11  22  40  69  92 118 152 205 256 310 381
#     4  10  21  36  57  88 124 161 207 270 320 356
#     4  11  22  40  63  92 121 158 202 251 310 388
#
# _framework density 19.634810000000002
#
# number of rings (size 3 to 8) (size 9 to 14) (size 15 to 20)
#    0.000    1.333    1.667    5.750    0.000    1.333 
#    0.000    0.000    3.667    4.000    0.000    0.000 
#    0.000    0.000    0.000    0.000    0.000    0.000 
#
# Total GULP energy -267566.451537 kJ/mol
# GULP energy per Si atom -5574.301074 kJ/mol
# Density = 1.959012 g / cm^3
# Si number density = 19.634810 Si / 1000 Ang^3
#
#
#
# Elastic Constant Matrix: (Units=GPa)
#
#
# Indices 1 2 3 4 5 6 
#
# 1 47.6324 1.9087 14.1659 0.0000 0.0000 0.0000
# 2 1.9087 76.6824 20.5584 0.0000 0.0000 0.0000
# 3 14.1659 20.5584 67.8510 0.0000 0.0000 0.0000
# 4 0.0000 0.0000 0.0000 27.8709 0.0000 0.0000
# 5 0.0000 0.0000 0.0000 0.0000 18.9951 0.0000
# 6 0.0000 0.0000 0.0000 0.0000 0.0000 27.7538
#
#
#
# Elastic Compliance Matrix: (Units=1/GPa)
#
#
# Indices 1 2 3 4 5 6 
#
# 1 0.022424 0.000759 -0.004912 0.000000 0.000000 0.000000
# 2 0.000759 0.014219 -0.004467 0.000000 0.000000 0.000000
# 3 -0.004912 -0.004467 0.017117 0.000000 0.000000 0.000000
# 4 0.000000 0.000000 0.000000 0.035880 0.000000 0.000000
# 5 0.000000 0.000000 0.000000 0.000000 0.052645 0.000000
# 6 0.000000 0.000000 0.000000 0.000000 0.000000 0.036031
#
#
# Mechanical properties :
#
#
# Convention : Reuss Voigt Hill
#
# Bulk Modulus (GPa) = 27.38123 29.49243 28.43683
# Shear Modulus (GPa) = 24.06969 25.29283 24.68126
#
# Velocity S-wave (km/s) = 3.50504 3.59299 3.54929
# Velocity P-wave (km/s) = 5.50962 5.68031 5.59561
#
# Compressibility (1/GPa) = 0.03652137
#
# Stress axis : x y z
#
# Youngs Moduli (GPa) = 44.59419 70.32619 58.42138
#
# Poissons Ratio (x) = -0.05335 0.28694
# Poissons Ratio (y) = -0.03383 0.26096
# Poissons Ratio (z) = 0.21903 0.31413
#
# Static dielectric constant tensor:
#      x y z
#    x 1.788320 0.000000 0.000000 
#    y 0.000000 1.710170 0.000000 
#    z 0.000000 0.000000 1.642790 
# 
# From -- ./inp_files/34610.got.cif
#   From: 2010.05.17/outbox.cif.g08.bks.cpg/sg58_18_cif.got.tgz:34610.got - 2010.06.03 14:20:14.
