data_PCOD9444540
_publ_section_title
;
Structure prediction by ZEFSAII (Michael W. Deem and Ramdas Pophale) SiO2 
 PCOD9444540
Probable space group: P N N M
;
_chemical_formula_sum "Si O2"
_cell_formula_units_Z 64
_cell_length_a 11.267554
_cell_length_b 29.628126
_cell_length_c 8.782774
_cell_angle_alpha 90.000000
_cell_angle_beta 90.000000
_cell_angle_gamma 90.000000
_cell_volume 2932.010617
_symmetry_space_group_name_H-M "P N N M"
_symmetry_group_IT_number 58
_symmetry_cell_setting 'orthorhombic'
loop_
_space_group_symop_operation_xyz
x,y,z
-x,-y,z
1/2+x,1/2-y,1/2-z
1/2-x,1/2+y,1/2-z
-x,-y,-z
x,y,-z
1/2-x,1/2+y,1/2+z
1/2+x,1/2-y,1/2+z
loop_
_atom_site_type_symbol
_atom_site_label
_atom_site_fract_x
_atom_site_fract_y
_atom_site_fract_z
Si Si1 0.626458 0.525430 0.676573
Si Si2 0.623414 0.134549 0.317773
Si Si3 0.754339 0.272136 0.680176
Si Si4 0.993165 0.724793 0.184013
Si Si5 0.996098 0.551261 0.679021
Si Si6 0.137648 0.146721 0.321597
Si Si7 0.235124 0.554511 0.175869
Si Si8 0.884076 0.125118 0.683792
O O1 0.500000 0.500000 0.682343
O O2 0.664107 0.527975 0.500000
O O3 0.714896 0.493217 0.768906
O O4 0.616218 0.575114 0.745707
O O5 0.617257 0.132024 0.500000
O O6 0.530338 0.172603 0.269213
O O7 0.595598 0.085468 0.252920
O O8 0.758434 0.147566 0.277195
O O9 0.762456 0.265063 0.500000
O O10 0.630251 0.248861 0.732381
O O11 0.728239 0.323960 0.724903
O O12 0.881161 0.258784 0.750926
O O13 0.998973 0.727217 0.000000
O O14 0.974549 0.549603 0.500000
O O15 0.126318 0.569026 0.719390
O O16 0.000000 0.500000 0.739301
O O17 0.148810 0.159799 0.500000
O O18 0.166933 0.093637 0.312530
O O19 0.001875 0.151631 0.267893
O O20 0.196696 0.552306 0.000000
O O21 0.891178 0.121013 0.500000
#
# Coordination Sequence:
#
# PCOD9444540 Si02
#       8
#     8   8   8   8   8   8   8   8
#     4  11  22  35  53  83 124 164 203 260 321 373
#     4  10  22  41  65  90 122 165 215 262 310 374
#     4  11  25  43  69 101 131 167 212 261 321 387
#     4  10  24  46  69  98 134 169 211 264 320 385
#     4  11  24  40  58  85 123 161 203 257 317 375
#     4  10  22  39  62  91 125 164 207 259 316 373
#     4  11  22  37  60  85 115 158 209 256 303 371
#     4  10  21  38  62  89 120 167 216 260 310 376
#
# _framework density 21.828025
#
# number of rings (size 3 to 8) (size 9 to 14) (size 15 to 20)
#    0.000    1.500    1.250    3.000    1.750   10.000 
#    0.000    0.000    0.000    0.000    0.000    0.000 
#    0.000    0.000    0.000    0.000    0.000    0.000 
#
# Total GULP energy -357692.201132 kJ/mol
# GULP energy per Si atom -5588.940643 kJ/mol
# Density = 2.177834 g / cm^3
# Si number density = 21.828025 Si / 1000 Ang^3
#
#
#
# Elastic Constant Matrix: (Units=GPa)
#
#
# Indices 1 2 3 4 5 6 
#
# 1 148.5983 32.8902 31.1005 0.0000 0.0000 0.0000
# 2 32.8902 63.8109 14.5381 0.0000 0.0000 0.0000
# 3 31.1005 14.5381 10.1796 0.0000 0.0000 0.0000
# 4 0.0000 0.0000 0.0000 15.9146 0.0000 0.0000
# 5 0.0000 0.0000 0.0000 0.0000 43.5578 0.0000
# 6 0.0000 0.0000 0.0000 0.0000 0.0000 34.5738
#
#
#
# Elastic Compliance Matrix: (Units=1/GPa)
#
#
# Indices 1 2 3 4 5 6 
#
# 1 0.019804 0.005303 -0.068079 0.000000 0.000000 0.000000
# 2 0.005303 0.024650 -0.051404 0.000000 0.000000 0.000000
# 3 -0.068079 -0.051404 0.379642 0.000000 0.000000 0.000000
# 4 0.000000 0.000000 0.000000 0.062836 0.000000 0.000000
# 5 0.000000 0.000000 0.000000 0.000000 0.022958 0.000000
# 6 0.000000 0.000000 0.000000 0.000000 0.000000 0.028924
#
#
# Mechanical properties :
#
#
# Convention : Reuss Voigt Hill
#
# Bulk Modulus (GPa) = 5.10894 42.18293 23.64593
# Shear Modulus (GPa) = 6.00660 28.41322 17.20991
#
# Velocity S-wave (km/s) = 1.66065 3.61180 2.81095
# Velocity P-wave (km/s) = 2.45410 6.06305 4.62510
#
# Compressibility (1/GPa) = 0.19573540
#
# Stress axis : x y z
#
# Youngs Moduli (GPa) = 50.49423 40.56864 2.63406
#
# Poissons Ratio (x) = -0.21512 0.17932
# Poissons Ratio (y) = -0.26775 0.13540
# Poissons Ratio (z) = 3.43758 2.08540
#
# Static dielectric constant tensor:
#      x y z
#    x 1.846820 0.000000 0.000000 
#    y 0.000000 1.798260 0.000000 
#    z 0.000000 0.000000 1.741190 
# 
# From -- ./inp_files/4704.got.cif
#   From: 2010.05.17/outbox.cif.g08.bks.cpg/sg58_3_cif.got.tgz:4704.got - 2010.06.03 14:20:14.
