data_PCOD9444257
_publ_section_title
;
Structure prediction by ZEFSAII (Michael W. Deem and Ramdas Pophale) SiO2 
 PCOD9444257
Probable space group: P N N M
;
_chemical_formula_sum "Si O2"
_cell_formula_units_Z 64
_cell_length_a 17.366643
_cell_length_b 9.777957
_cell_length_c 19.363981
_cell_angle_alpha 90.000000
_cell_angle_beta 90.000000
_cell_angle_gamma 90.000000
_cell_volume 3288.203200
_symmetry_space_group_name_H-M "P N N M"
_symmetry_group_IT_number 58
_symmetry_cell_setting 'orthorhombic'
loop_
_space_group_symop_operation_xyz
x,y,z
-x,-y,z
1/2+x,1/2-y,1/2-z
1/2-x,1/2+y,1/2-z
-x,-y,-z
x,y,-z
1/2-x,1/2+y,1/2+z
1/2+x,1/2-y,1/2+z
loop_
_atom_site_type_symbol
_atom_site_label
_atom_site_fract_x
_atom_site_fract_y
_atom_site_fract_z
Si Si1 0.146414 0.277074 0.832499
Si Si2 0.935732 0.617843 0.423835
Si Si3 0.177597 0.223977 0.671358
Si Si4 0.492649 0.150616 0.734500
Si Si5 0.688670 0.588802 0.838030
Si Si6 0.407454 0.518662 0.420198
Si Si7 0.347418 0.299236 0.686144
Si Si8 0.027486 0.843971 0.365310
O O1 0.164266 0.227329 0.754010
O O2 0.223227 0.364421 0.852183
O O3 0.127614 0.155620 0.885643
O O4 0.062568 0.344964 0.820047
O O5 0.902145 0.592304 0.500000
O O6 0.870013 0.655858 0.367379
O O7 0.000000 0.500000 0.411357
O O8 0.983679 0.758661 0.422567
O O9 0.267235 0.244804 0.660075
O O10 0.166921 0.068289 0.647001
O O11 0.409720 0.181906 0.701784
O O12 0.496998 0.268254 0.793311
O O13 0.500000 0.000000 0.765660
O O14 0.671516 0.618937 0.756946
O O15 0.619320 0.671529 0.874038
O O16 0.500000 0.500000 0.418117
O O17 0.383667 0.509483 0.500000
O O18 0.379484 0.398548 0.371191
O O19 0.000000 0.000000 0.361955
#
# Coordination Sequence:
#
# PCOD9444257 Si02
#       8
#     8   8   8   8   8   8   8   8
#     4  11  21  36  64  93 130 159 217 276 329 387
#     4  11  25  43  64  92 130 175 222 267 321 396
#     4  11  21  40  62  92 131 168 211 273 333 387
#     4  11  21  35  61  95 128 163 207 272 333 381
#     4  10  21  36  60  98 125 162 211 273 329 387
#     4  11  23  41  65  92 126 174 226 273 328 396
#     4  10  22  36  63  91 129 164 215 263 328 396
#     4  11  21  38  63  89 126 172 215 262 324 395
#
# _framework density 19.463518000000001
#
# number of rings (size 3 to 8) (size 9 to 14) (size 15 to 20)
#    0.000    1.250    5.000    1.125    1.750    1.750 
#    0.000    2.500    0.000    3.000    0.000    0.000 
#    0.000    0.000    0.000    0.000    0.000    0.000 
#
# Total GULP energy -356418.905345 kJ/mol
# GULP energy per Si atom -5569.045396 kJ/mol
# Density = 1.941922 g / cm^3
# Si number density = 19.463518 Si / 1000 Ang^3
#
#
#
# Elastic Constant Matrix: (Units=GPa)
#
#
# Indices 1 2 3 4 5 6 
#
# 1 122.9351 24.9476 11.4082 0.0000 0.0000 0.0000
# 2 24.9476 105.4881 19.6427 0.0000 0.0000 0.0000
# 3 11.4082 19.6427 64.2110 0.0000 0.0000 0.0000
# 4 0.0000 0.0000 0.0000 -39.2006 0.0000 0.0000
# 5 0.0000 0.0000 0.0000 0.0000 10.1251 0.0000
# 6 0.0000 0.0000 0.0000 0.0000 0.0000 30.1092
#
#
#
# Elastic Compliance Matrix: (Units=1/GPa)
#
#
# Indices 1 2 3 4 5 6 
#
# 1 0.008600 -0.001855 -0.000960 0.000000 0.000000 0.000000
# 2 -0.001855 0.010452 -0.002868 0.000000 0.000000 0.000000
# 3 -0.000960 -0.002868 0.016622 0.000000 0.000000 0.000000
# 4 0.000000 0.000000 0.000000 -0.025510 0.000000 0.000000
# 5 0.000000 0.000000 0.000000 0.000000 0.098764 0.000000
# 6 0.000000 0.000000 0.000000 0.000000 0.000000 0.033212
#
#
# Mechanical properties :
#
#
# Convention : Reuss Voigt Hill
#
# Bulk Modulus (GPa) = 41.14004 44.95904 43.04954
# Shear Modulus (GPa) = 30.93867 15.98244 23.46056
#
# Velocity S-wave (km/s) = 3.99127 2.86868 3.47560
# Velocity P-wave (km/s) = 6.51331 5.84138 6.18647
#
# Compressibility (1/GPa) = 0.02430722
#
# Stress axis : x y z
#
# Youngs Moduli (GPa) = 116.27979 95.67104 60.16260
#
# Poissons Ratio (x) = 0.17747 0.05778
# Poissons Ratio (y) = 0.21570 0.17254
# Poissons Ratio (z) = 0.11168 0.27438
#
# Static dielectric constant tensor:
#      x y z
#    x 1.464530 0.000000 0.000000 
#    y 0.000000 1.724240 0.000000 
#    z 0.000000 0.000000 1.684820 
# 
# From -- ./inp_files/30263.got.cif
#   From: 2010.05.17/outbox.cif.g08.bks.cpg/sg58_16_cif.got.tgz:30263.got - 2010.06.03 14:20:14.
