data_PCOD9444421
_publ_section_title
;
Structure prediction by ZEFSAII (Michael W. Deem and Ramdas Pophale) SiO2 
 PCOD9444421
Probable space group: P N N M
;
_chemical_formula_sum "Si O2"
_cell_formula_units_Z 56
_cell_length_a 11.797202
_cell_length_b 13.321002
_cell_length_c 18.763474
_cell_angle_alpha 90.000000
_cell_angle_beta 90.000000
_cell_angle_gamma 90.000000
_cell_volume 2948.690286
_symmetry_space_group_name_H-M "P N N M"
_symmetry_group_IT_number 58
_symmetry_cell_setting 'orthorhombic'
loop_
_space_group_symop_operation_xyz
x,y,z
-x,-y,z
1/2+x,1/2-y,1/2-z
1/2-x,1/2+y,1/2-z
-x,-y,-z
x,y,-z
1/2-x,1/2+y,1/2+z
1/2+x,1/2-y,1/2+z
loop_
_atom_site_type_symbol
_atom_site_label
_atom_site_fract_x
_atom_site_fract_y
_atom_site_fract_z
Si Si1 0.391244 0.666224 0.344079
Si Si2 0.779084 0.173206 0.313807
Si Si3 0.839913 0.171487 0.848202
Si Si4 0.627140 0.457880 0.799371
Si Si5 0.432489 0.190322 0.084590
Si Si6 0.734021 0.977574 0.082106
Si Si7 0.338988 0.706053 0.081592
O O1 0.341095 0.777638 0.333913
O O2 0.525407 0.661598 0.352970
O O3 0.354129 0.604438 0.273149
O O4 0.327831 0.610185 0.408374
O O5 0.809751 0.201121 0.232528
O O6 0.867893 0.227405 0.367171
O O7 0.792541 0.053309 0.313641
O O8 0.784479 0.251983 0.900578
O O9 0.778074 0.067817 0.869392
O O10 0.500000 0.500000 0.792855
O O11 0.633762 0.383118 0.865156
O O12 0.381605 0.080802 0.102451
O O13 0.566168 0.207409 0.094649
O O14 0.408788 0.205527 0.000000
O O15 0.726149 0.011292 0.000000
O O16 0.349285 0.675058 0.000000
#
# Coordination Sequence:
#
# PCOD9444421 Si02
#       7
#     8   8   8   8   8   8   8
#     4  11  22  39  61  89 123 162 203 253 305 372
#     4  11  22  37  63  89 120 157 201 257 306 355
#     4  12  22  37  60  87 126 164 204 246 306 373
#     4  12  20  38  64  91 116 153 208 258 302 365
#     4   9  20  39  61  91 125 158 203 257 306 353
#     4  10  21  37  62  93 123 161 206 251 304 362
#     4  11  24  39  61  91 126 163 200 252 310 366
#
# _framework density 18.991482999999999
#
# number of rings (size 3 to 8) (size 9 to 14) (size 15 to 20)
#    0.000    1.143    5.714    0.857    0.000    3.143 
#    0.000    2.857    3.143    0.857    0.000    0.000 
#    0.000    0.000    0.000    0.000    0.000    0.000 
#
# Total GULP energy -312574.735178 kJ/mol
# GULP energy per Si atom -5581.691700 kJ/mol
# Density = 1.894826 g / cm^3
# Si number density = 18.991483 Si / 1000 Ang^3
#
#
#
# Elastic Constant Matrix: (Units=GPa)
#
#
# Indices 1 2 3 4 5 6 
#
# 1 59.0937 50.6705 31.2303 0.0000 0.0000 0.0000
# 2 50.6705 74.5390 17.4913 0.0000 0.0000 0.0000
# 3 31.2303 17.4913 60.4961 0.0000 0.0000 0.0000
# 4 0.0000 0.0000 0.0000 11.4899 0.0000 0.0000
# 5 0.0000 0.0000 0.0000 0.0000 20.9828 0.0000
# 6 0.0000 0.0000 0.0000 0.0000 0.0000 26.7328
#
#
#
# Elastic Compliance Matrix: (Units=1/GPa)
#
#
# Indices 1 2 3 4 5 6 
#
# 1 0.055507 -0.033265 -0.019036 0.000000 0.000000 0.000000
# 2 -0.033265 0.034328 0.007247 0.000000 0.000000 0.000000
# 3 -0.019036 0.007247 0.024262 0.000000 0.000000 0.000000
# 4 0.000000 0.000000 0.000000 0.087033 0.000000 0.000000
# 5 0.000000 0.000000 0.000000 0.000000 0.047658 0.000000
# 6 0.000000 0.000000 0.000000 0.000000 0.000000 0.037407
#
#
# Mechanical properties :
#
#
# Convention : Reuss Voigt Hill
#
# Bulk Modulus (GPa) = 41.68765 43.65701 42.67233
# Shear Modulus (GPa) = 13.01068 18.15689 15.58379
#
# Velocity S-wave (km/s) = 2.62024 3.09537 2.86766
# Velocity P-wave (km/s) = 5.58145 5.98437 5.78642
#
# Compressibility (1/GPa) = 0.02398792
#
# Stress axis : x y z
#
# Youngs Moduli (GPa) = 18.01588 29.13034 41.21697
#
# Poissons Ratio (x) = 0.96903 0.78462
# Poissons Ratio (y) = 0.59931 -0.29872
# Poissons Ratio (z) = 0.34296 -0.21112
#
# Static dielectric constant tensor:
#      x y z
#    x 1.663500 0.000000 0.000000 
#    y 0.000000 1.675360 0.000000 
#    z 0.000000 0.000000 1.641040 
# 
# From -- ./inp_files/29622.got.cif
#   From: 2010.05.17/outbox.cif.g08.bks.cpg/sg58_15_cif.got.tgz:29622.got - 2010.06.03 14:20:14.
