data_PCOD9444276
_publ_section_title
;
Structure prediction by ZEFSAII (Michael W. Deem and Ramdas Pophale) SiO2 
 PCOD9444276
Probable space group: P N N M
;
_chemical_formula_sum "Si O2"
_cell_formula_units_Z 40
_cell_length_a 13.248700
_cell_length_b 16.108939
_cell_length_c 7.365017
_cell_angle_alpha 90.000000
_cell_angle_beta 90.000000
_cell_angle_gamma 90.000000
_cell_volume 1571.860342
_symmetry_space_group_name_H-M "P N N M"
_symmetry_group_IT_number 58
_symmetry_cell_setting 'orthorhombic'
loop_
_space_group_symop_operation_xyz
x,y,z
-x,-y,z
1/2+x,1/2-y,1/2-z
1/2-x,1/2+y,1/2-z
-x,-y,-z
x,y,-z
1/2-x,1/2+y,1/2+z
1/2+x,1/2-y,1/2+z
loop_
_atom_site_type_symbol
_atom_site_label
_atom_site_fract_x
_atom_site_fract_y
_atom_site_fract_z
Si Si1 0.021414 0.591997 0.217450
Si Si2 0.515289 0.368090 0.213102
Si Si3 0.666114 0.495839 0.787358
Si Si4 0.139712 0.739152 0.714899
Si Si5 0.191056 0.361517 0.222516
O O1 0.923619 0.642783 0.282191
O O2 0.000000 0.500000 0.285615
O O3 0.122581 0.641853 0.261117
O O4 0.019859 0.587652 0.000000
O O5 0.425915 0.437223 0.220097
O O6 0.616139 0.411690 0.290152
O O7 0.458125 0.288389 0.292225
O O8 0.536423 0.353172 0.000000
O O9 0.759031 0.550769 0.717265
O O10 0.687894 0.479966 0.000000
O O11 0.138861 0.754813 0.500000
O O12 0.239783 0.784801 0.783165
O O13 0.191958 0.363054 0.000000
#
# Coordination Sequence:
#
# PCOD9444276 Si02
#       5
#     8   8   8   8   8
#     4  10  21  37  53  74 108 146 176 210 263 322
#     4   7  10  18  37  68  96 115 149 205 254 284
#     4   7   9  17  37  65  95 122 152 197 246 292
#     4   9  17  32  54  78 101 132 176 222 261 305
#     4   8  15  30  51  72 101 140 175 207 257 318
#
# _framework density 25.447552999999999
#
# number of rings (size 3 to 8) (size 9 to 14) (size 15 to 20)
#    0.000    3.800    0.000    3.600    0.000    0.400 
#    3.600    1.000    0.000    0.000    0.000   11.200 
#    0.000    0.000    0.000    0.000    0.000    0.000 
#
# Total GULP energy -223032.723947 kJ/mol
# GULP energy per Si atom -5575.818099 kJ/mol
# Density = 2.538963 g / cm^3
# Si number density = 25.447553 Si / 1000 Ang^3
#
#
#
# Elastic Constant Matrix: (Units=GPa)
#
#
# Indices 1 2 3 4 5 6 
#
# 1 76.9391 31.7301 0.2331 0.0000 0.0000 0.0000
# 2 31.7301 102.3647 -1.2767 0.0000 0.0000 0.0000
# 3 0.2331 -1.2767 92.3732 0.0000 0.0000 0.0000
# 4 0.0000 0.0000 0.0000 -0.4734 0.0000 0.0000
# 5 0.0000 0.0000 0.0000 0.0000 -6.1890 0.0000
# 6 0.0000 0.0000 0.0000 0.0000 0.0000 27.8992
#
#
#
# Elastic Compliance Matrix: (Units=1/GPa)
#
#
# Indices 1 2 3 4 5 6 
#
# 1 0.014903 -0.004621 -0.000101 0.000000 0.000000 0.000000
# 2 -0.004621 0.011203 0.000167 0.000000 0.000000 0.000000
# 3 -0.000101 0.000167 0.010828 0.000000 0.000000 0.000000
# 4 0.000000 0.000000 0.000000 -2.112495 0.000000 0.000000
# 5 0.000000 0.000000 0.000000 0.000000 -0.161576 0.000000
# 6 0.000000 0.000000 0.000000 0.000000 0.000000 0.035843
#
#
# Mechanical properties :
#
#
# Convention : Reuss Voigt Hill
#
# Bulk Modulus (GPa) = 35.94117 37.00555 36.47336
# Shear Modulus (GPa) = -2.29052 20.31340 9.01144
#
# Velocity S-wave (km/s) = -0.94976 2.82839 1.88384
# Velocity P-wave (km/s) = 3.59883 5.02393 4.36986
#
# Compressibility (1/GPa) = 0.02782324
#
# Stress axis : x y z
#
# Youngs Moduli (GPa) = 67.09938 89.25862 92.35141
#
# Poissons Ratio (x) = 0.41245 0.00937
# Poissons Ratio (y) = 0.31006 -0.01538
# Poissons Ratio (z) = 0.00681 -0.01486
#
# Static dielectric constant tensor:
#      x y z
#    x 2.017430 0.000000 0.000000 
#    y 0.000000 2.078170 0.000000 
#    z 0.000000 0.000000 2.005520 
# 
# From -- ./inp_files/15434.got.cif
#   From: 2010.05.17/outbox.cif.g08.bks.cpg/sg58_8_cif.got.tgz:15434.got - 2010.06.03 14:20:14.
