data_PCOD9444618
_publ_section_title
;
Structure prediction by ZEFSAII (Michael W. Deem and Ramdas Pophale) SiO2 
 PCOD9444618
Probable space group: P N N M
;
_chemical_formula_sum "Si O2"
_cell_formula_units_Z 48
_cell_length_a 12.208972
_cell_length_b 23.302159
_cell_length_c 8.640420
_cell_angle_alpha 90.000000
_cell_angle_beta 90.000000
_cell_angle_gamma 90.000000
_cell_volume 2458.159803
_symmetry_space_group_name_H-M "P N N M"
_symmetry_group_IT_number 58
_symmetry_cell_setting 'orthorhombic'
loop_
_space_group_symop_operation_xyz
x,y,z
-x,-y,z
1/2+x,1/2-y,1/2-z
1/2-x,1/2+y,1/2-z
-x,-y,-z
x,y,-z
1/2-x,1/2+y,1/2+z
1/2+x,1/2-y,1/2+z
loop_
_atom_site_type_symbol
_atom_site_label
_atom_site_fract_x
_atom_site_fract_y
_atom_site_fract_z
Si Si1 0.844106 0.274301 0.685080
Si Si2 0.780386 0.581999 0.315542
Si Si3 0.416636 0.353129 0.186387
Si Si4 0.008320 0.367099 0.183113
Si Si5 0.828679 0.858382 0.314565
Si Si6 0.335353 0.048411 0.184997
O O1 0.831981 0.277336 0.500000
O O2 0.869558 0.209273 0.730506
O O3 0.736856 0.301514 0.763282
O O4 0.945348 0.314817 0.734931
O O5 0.790712 0.586722 0.500000
O O6 0.659355 0.599108 0.262863
O O7 0.867692 0.624277 0.236381
O O8 0.810645 0.516871 0.271013
O O9 0.544181 0.356727 0.228998
O O10 0.409649 0.358105 0.000000
O O11 0.941020 0.423884 0.233978
O O12 0.001245 0.359564 0.000000
O O13 0.819659 0.864305 0.500000
O O14 0.765047 0.910787 0.234219
O O15 0.351497 0.051374 0.000000
#
# Coordination Sequence:
#
# PCOD9444618 Si02
#       6
#     8   8   8   8   8   8
#     4  10  21  39  61  86 117 154 195 241 292 348
#     4  11  24  39  59  87 120 156 197 244 293 347
#     4  10  24  41  58  86 120 155 196 241 292 349
#     4  11  22  37  61  91 119 154 197 242 296 350
#     4  10  21  39  61  86 116 154 196 241 293 348
#     4  10  21  39  61  87 118 155 198 243 293 348
#
# _framework density 19.526800999999999
#
# number of rings (size 3 to 8) (size 9 to 14) (size 15 to 20)
#    0.000    1.667    0.000    6.000    2.333    8.000 
#    0.000    3.333    0.000    0.000    0.000    0.000 
#    0.000    0.000    0.000    0.000    0.000    0.000 
#
# Total GULP energy -268377.814656 kJ/mol
# GULP energy per Si atom -5591.204472 kJ/mol
# Density = 1.948236 g / cm^3
# Si number density = 19.526801 Si / 1000 Ang^3
#
#
#
# Elastic Constant Matrix: (Units=GPa)
#
#
# Indices 1 2 3 4 5 6 
#
# 1 88.4050 -2.1939 0.4958 0.0000 0.0000 0.0000
# 2 -2.1939 37.9441 -2.6814 0.0000 0.0000 0.0000
# 3 0.4958 -2.6814 20.2429 0.0000 0.0000 0.0000
# 4 0.0000 0.0000 0.0000 34.8700 0.0000 0.0000
# 5 0.0000 0.0000 0.0000 0.0000 199.8750 0.0000
# 6 0.0000 0.0000 0.0000 0.0000 0.0000 6.5449
#
#
#
# Elastic Compliance Matrix: (Units=1/GPa)
#
#
# Indices 1 2 3 4 5 6 
#
# 1 0.011329 0.000641 -0.000193 0.000000 0.000000 0.000000
# 2 0.000641 0.026640 0.003513 0.000000 0.000000 0.000000
# 3 -0.000193 0.003513 0.049870 0.000000 0.000000 0.000000
# 4 0.000000 0.000000 0.000000 0.028678 0.000000 0.000000
# 5 0.000000 0.000000 0.000000 0.000000 0.005003 0.000000
# 6 0.000000 0.000000 0.000000 0.000000 0.000000 0.152791
#
#
# Mechanical properties :
#
#
# Convention : Reuss Voigt Hill
#
# Bulk Modulus (GPa) = 10.44252 15.31478 12.87865
# Shear Modulus (GPa) = 16.76123 58.32273 37.54198
#
# Velocity S-wave (km/s) = 2.93297 5.47110 4.38949
# Velocity P-wave (km/s) = 4.10234 6.91162 5.68329
#
# Compressibility (1/GPa) = 0.09576233
#
# Stress axis : x y z
#
# Youngs Moduli (GPa) = 88.27231 37.53763 20.05214
#
# Poissons Ratio (x) = -0.02408 0.00386
# Poissons Ratio (y) = -0.05662 -0.07044
# Poissons Ratio (z) = 0.01699 -0.13187
#
# Static dielectric constant tensor:
#      x y z
#    x 1.670470 0.000000 0.000000 
#    y 0.000000 1.672900 0.000000 
#    z 0.000000 0.000000 1.655600 
# 
# From -- ./inp_files/4240.got.cif
#   From: 2010.05.17/outbox.cif.g08.bks.cpg/sg58_3_cif.got.tgz:4240.got - 2010.06.03 14:20:14.
