data_PCOD9444194
_publ_section_title
;
Structure prediction by ZEFSAII (Michael W. Deem and Ramdas Pophale) SiO2 
 PCOD9444194
Probable space group: P N N M
;
_chemical_formula_sum "Si O2"
_cell_formula_units_Z 58
_cell_length_a 25.854514
_cell_length_b 13.795084
_cell_length_c 9.031263
_cell_angle_alpha 90.000000
_cell_angle_beta 90.000000
_cell_angle_gamma 90.000000
_cell_volume 3221.137156
_symmetry_space_group_name_H-M "P N N M"
_symmetry_group_IT_number 58
_symmetry_cell_setting 'orthorhombic'
loop_
_space_group_symop_operation_xyz
x,y,z
-x,-y,z
1/2+x,1/2-y,1/2-z
1/2-x,1/2+y,1/2-z
-x,-y,-z
x,y,-z
1/2-x,1/2+y,1/2+z
1/2+x,1/2-y,1/2+z
loop_
_atom_site_type_symbol
_atom_site_label
_atom_site_fract_x
_atom_site_fract_y
_atom_site_fract_z
Si Si1 0.205027 0.940024 0.175981
Si Si2 0.839781 0.269465 0.823946
Si Si3 0.184758 0.531297 0.324063
Si Si4 0.947350 0.791351 0.821925
Si Si5 0.395158 0.523177 0.824484
Si Si6 0.000000 0.500000 0.000000
Si Si7 0.597239 0.086086 0.336331
Si Si8 0.058283 0.811226 0.323724
O O1 0.194355 0.826478 0.204458
O O2 0.262813 0.973012 0.211373
O O3 0.162178 0.999343 0.266502
O O4 0.196058 0.955847 0.000000
O O5 0.815341 0.365348 0.756339
O O6 0.895244 0.249330 0.748825
O O7 0.846830 0.280166 0.000000
O O8 0.182644 0.545497 0.500000
O O9 0.134840 0.472662 0.268894
O O10 0.919479 0.886850 0.761446
O O11 0.916014 0.694044 0.782941
O O12 0.004197 0.786630 0.751596
O O13 0.951889 0.793655 0.000000
O O14 0.428113 0.424803 0.798116
O O15 0.395342 0.541968 0.000000
O O16 0.043064 0.467274 0.126791
O O17 0.623076 0.093763 0.500000
O O18 0.056509 0.795602 0.500000
#
# Coordination Sequence:
#
# PCOD9444194 Si02
#       8
#     8   8   8   8   8   2   8   8
#     4   9  21  41  60  83 115 152 194 240 287 343
#     4  10  21  38  61  84 112 154 197 236 289 353
#     4  11  23  39  61  90 119 147 188 244 291 344
#     4  11  22  35  56  87 118 157 196 238 293 350
#     4  10  21  37  57  83 119 155 195 242 292 345
#     4   8  20  44  62  76 118 152 194 244 274 332
#     4   9  22  39  60  81 111 151 190 235 279 339
#     4  10  21  36  56  85 117 153 198 246 291 342
#
# _framework density 18.006063000000001
#
# number of rings (size 3 to 8) (size 9 to 14) (size 15 to 20)
#    0.414    1.655    0.000    2.483    1.931    7.172 
#    0.000    3.103    0.000    0.000    0.000    0.000 
#    0.000    0.000    0.000    0.000    0.000    0.000 
#
# Total GULP energy -323204.775980 kJ/mol
# GULP energy per Si atom -5572.496138 kJ/mol
# Density = 1.796508 g / cm^3
# Si number density = 18.006063 Si / 1000 Ang^3
#
#
#
# Elastic Constant Matrix: (Units=GPa)
#
#
# Indices 1 2 3 4 5 6 
#
# 1 88.3786 58.9509 51.3725 0.0000 0.0000 0.0000
# 2 58.9509 85.7088 55.3396 0.0000 0.0000 0.0000
# 3 51.3725 55.3396 65.2920 0.0000 0.0000 0.0000
# 4 0.0000 0.0000 0.0000 27.8585 0.0000 0.0000
# 5 0.0000 0.0000 0.0000 0.0000 32.0183 0.0000
# 6 0.0000 0.0000 0.0000 0.0000 0.0000 18.1292
#
#
#
# Elastic Compliance Matrix: (Units=1/GPa)
#
#
# Indices 1 2 3 4 5 6 
#
# 1 0.023901 -0.009491 -0.010761 0.000000 0.000000 0.000000
# 2 -0.009491 0.029539 -0.017569 0.000000 0.000000 0.000000
# 3 -0.010761 -0.017569 0.038674 0.000000 0.000000 0.000000
# 4 0.000000 0.000000 0.000000 0.035896 0.000000 0.000000
# 5 0.000000 0.000000 0.000000 0.000000 0.031232 0.000000
# 6 0.000000 0.000000 0.000000 0.000000 0.000000 0.055160
#
#
# Mechanical properties :
#
#
# Convention : Reuss Voigt Hill
#
# Bulk Modulus (GPa) = 60.71060 63.41170 62.06115
# Shear Modulus (GPa) = 16.91853 20.51563 18.71708
#
# Velocity S-wave (km/s) = 3.06862 3.37912 3.22761
# Velocity P-wave (km/s) = 6.80773 7.10760 6.95928
#
# Compressibility (1/GPa) = 0.01647159
#
# Stress axis : x y z
#
# Youngs Moduli (GPa) = 41.83932 33.85357 25.85727
#
# Poissons Ratio (x) = 0.32130 0.27826
# Poissons Ratio (y) = 0.39709 0.45428
# Poissons Ratio (z) = 0.45025 0.59477
#
# Static dielectric constant tensor:
#      x y z
#    x 1.584680 0.000000 0.000000 
#    y 0.000000 1.610920 0.000000 
#    z 0.000000 0.000000 1.602470 
# 
# From -- ./inp_files/9841.got.cif
#   From: 2010.05.17/outbox.cif.g08.bks.cpg/sg58_5_cif.got.tgz:9841.got - 2010.06.03 14:20:14.
