data_PCOD9444461
_publ_section_title
;
Structure prediction by ZEFSAII (Michael W. Deem and Ramdas Pophale) SiO2 
 PCOD9444461
Probable space group: P N N M
;
_chemical_formula_sum "Si O2"
_cell_formula_units_Z 32
_cell_length_a 5.066556
_cell_length_b 40.506208
_cell_length_c 7.418731
_cell_angle_alpha 90.000000
_cell_angle_beta 90.000000
_cell_angle_gamma 90.000000
_cell_volume 1522.523693
_symmetry_space_group_name_H-M "P N N M"
_symmetry_group_IT_number 58
_symmetry_cell_setting 'orthorhombic'
loop_
_space_group_symop_operation_xyz
x,y,z
-x,-y,z
1/2+x,1/2-y,1/2-z
1/2-x,1/2+y,1/2-z
-x,-y,-z
x,y,-z
1/2-x,1/2+y,1/2+z
1/2+x,1/2-y,1/2+z
loop_
_atom_site_type_symbol
_atom_site_label
_atom_site_fract_x
_atom_site_fract_y
_atom_site_fract_z
Si Si1 0.399656 0.271698 0.707765
Si Si2 0.945753 0.631483 0.000000
Si Si3 0.590642 0.535767 0.281619
Si Si4 0.909724 0.423183 0.282992
Si Si5 0.945708 0.825026 0.500000
O O1 0.622966 0.243522 0.727925
O O2 0.375633 0.281165 0.500000
O O3 0.991041 0.197901 0.670931
O O4 0.008822 0.609027 0.173612
O O5 0.147775 0.662101 0.000000
O O6 0.648152 0.644481 0.000000
O O7 0.500000 0.500000 0.214797
O O8 0.584776 0.533982 0.500000
O O9 0.378295 0.563573 0.231283
O O10 0.881247 0.548024 0.234434
O O11 0.919598 0.418153 0.500000
#
# Coordination Sequence:
#
# PCOD9444461 Si02
#       5
#     8   4   8   8   4
#     4  12  23  43  71 100 132 162 201 253 320 377
#     4  12  26  42  59  88 126 166 216 246 300 368
#     4   9  17  33  59  88 114 152 204 261 322 372
#     4  10  21  38  59  81 120 163 202 257 310 366
#     4  12  26  42  66  94 127 166 206 258 300 376
#
# _framework density 21.017738000000001
#
# number of rings (size 3 to 8) (size 9 to 14) (size 15 to 20)
#    0.000    1.250    2.500    3.750    0.000    5.000 
#    0.000    3.750    0.000    0.000    0.000    0.000 
#    0.000    0.000    0.000    0.000    0.000    0.000 
#
# Total GULP energy -179044.142447 kJ/mol
# GULP energy per Si atom -5595.129451 kJ/mol
# Density = 2.096990 g / cm^3
# Si number density = 21.017738 Si / 1000 Ang^3
#
#
#
# Elastic Constant Matrix: (Units=GPa)
#
#
# Indices 1 2 3 4 5 6 
#
# 1 56.7717 -24.7694 -14.0891 0.0000 0.0000 0.0000
# 2 -24.7694 52.2834 16.0357 0.0000 0.0000 0.0000
# 3 -14.0891 16.0357 102.9413 0.0000 0.0000 0.0000
# 4 0.0000 0.0000 0.0000 93.9550 0.0000 0.0000
# 5 0.0000 0.0000 0.0000 0.0000 14.2336 0.0000
# 6 0.0000 0.0000 0.0000 0.0000 0.0000 43.2981
#
#
#
# Elastic Compliance Matrix: (Units=1/GPa)
#
#
# Indices 1 2 3 4 5 6 
#
# 1 0.022418 0.010165 0.001485 0.000000 0.000000 0.000000
# 2 0.010165 0.024695 -0.002456 0.000000 0.000000 0.000000
# 3 0.001485 -0.002456 0.010300 0.000000 0.000000 0.000000
# 4 0.000000 0.000000 0.000000 0.010643 0.000000 0.000000
# 5 0.000000 0.000000 0.000000 0.000000 0.070256 0.000000
# 6 0.000000 0.000000 0.000000 0.000000 0.000000 0.023096
#
#
# Mechanical properties :
#
#
# Convention : Reuss Voigt Hill
#
# Bulk Modulus (GPa) = 13.19228 18.48342 15.83785
# Shear Modulus (GPa) = 29.71106 45.95195 37.83151
#
# Velocity S-wave (km/s) = 3.76389 4.68091 4.24722
# Velocity P-wave (km/s) = 5.01792 6.16667 5.62171
#
# Compressibility (1/GPa) = 0.07580194
#
# Stress axis : x y z
#
# Youngs Moduli (GPa) = 44.60713 40.49325 97.08718
#
# Poissons Ratio (x) = -0.41162 -0.14415
# Poissons Ratio (y) = -0.45344 0.23841
# Poissons Ratio (z) = -0.06623 0.09944
#
# Static dielectric constant tensor:
#      x y z
#    x 1.715910 0.000000 0.000000 
#    y 0.000000 1.721840 0.000000 
#    z 0.000000 0.000000 1.753060 
# 
# From -- ./inp_files/1403.got.cif
#   From: 2010.05.17/outbox.cif.g08.bks.cpg/sg58_1_cif.got.tgz:1403.got - 2010.06.03 14:20:14.
