data_PCOD9444865
_publ_section_title
;
Structure prediction by ZEFSAII (Michael W. Deem and Ramdas Pophale) SiO2 
 PCOD9444865
Probable space group: P N N M
;
_chemical_formula_sum "Si O2"
_cell_formula_units_Z 48
_cell_length_a 8.784781
_cell_length_b 15.511492
_cell_length_c 17.544426
_cell_angle_alpha 90.000000
_cell_angle_beta 90.000000
_cell_angle_gamma 90.000000
_cell_volume 2390.692265
_symmetry_space_group_name_H-M "P N N M"
_symmetry_group_IT_number 58
_symmetry_cell_setting 'orthorhombic'
loop_
_space_group_symop_operation_xyz
x,y,z
-x,-y,z
1/2+x,1/2-y,1/2-z
1/2-x,1/2+y,1/2-z
-x,-y,-z
x,y,-z
1/2-x,1/2+y,1/2+z
1/2+x,1/2-y,1/2+z
loop_
_atom_site_type_symbol
_atom_site_label
_atom_site_fract_x
_atom_site_fract_y
_atom_site_fract_z
Si Si1 0.158186 0.951699 0.087971
Si Si2 0.397981 0.418552 0.161243
Si Si3 0.408243 0.740794 0.214777
Si Si4 0.244114 0.965337 0.500000
Si Si5 0.088957 0.759028 0.860106
Si Si6 0.624222 0.066284 0.779655
Si Si7 0.566417 0.869307 0.500000
O O1 0.128426 0.850298 0.101845
O O2 0.289709 0.974512 0.147745
O O3 0.198879 0.967854 0.000000
O O4 0.000000 0.000000 0.104495
O O5 0.500000 0.500000 0.186630
O O6 0.492909 0.330687 0.170981
O O7 0.345368 0.437692 0.075478
O O8 0.251609 0.414828 0.216083
O O9 0.232349 0.731334 0.192021
O O10 0.446610 0.729449 0.303878
O O11 0.445308 0.841074 0.197507
O O12 0.407932 0.919722 0.500000
O O13 0.289257 0.066308 0.500000
O O14 0.067860 0.689112 0.925028
O O15 0.500000 0.000000 0.749622
#
# Coordination Sequence:
#
# PCOD9444865 Si02
#       7
#     8   8   8   4   8   8   4
#     4  10  21  43  66  95 127 168 225 270 333 404
#     4  12  25  44  69 100 135 181 230 280 340 410
#     4  11  24  42  66  98 134 170 229 277 333 409
#     4  11  27  44  64 104 138 179 233 274 344 415
#     4  11  23  41  68  97 129 179 219 275 343 393
#     4  11  26  42  67  98 133 176 221 279 343 399
#     4  11  24  44  71  96 142 180 222 288 346 409
#
# _framework density 20.077866
#
# number of rings (size 3 to 8) (size 9 to 14) (size 15 to 20)
#    0.000    1.000    4.167    2.750    7.000    1.000 
#    1.500    0.000    0.000    0.000    0.000    0.000 
#    0.000    0.000    0.000    0.000    0.000    0.000 
#
# Total GULP energy -268367.238266 kJ/mol
# GULP energy per Si atom -5590.984131 kJ/mol
# Density = 2.003217 g / cm^3
# Si number density = 20.077866 Si / 1000 Ang^3
#
#
#
# Elastic Constant Matrix: (Units=GPa)
#
#
# Indices 1 2 3 4 5 6 
#
# 1 74.3290 46.3694 25.5677 0.0000 0.0000 0.0000
# 2 46.3694 94.2534 17.2320 0.0000 0.0000 0.0000
# 3 25.5677 17.2320 100.4158 0.0000 0.0000 0.0000
# 4 0.0000 0.0000 0.0000 24.9804 0.0000 0.0000
# 5 0.0000 0.0000 0.0000 0.0000 10.3679 0.0000
# 6 0.0000 0.0000 0.0000 0.0000 0.0000 41.5640
#
#
#
# Elastic Compliance Matrix: (Units=1/GPa)
#
#
# Indices 1 2 3 4 5 6 
#
# 1 0.020613 -0.009479 -0.003622 0.000000 0.000000 0.000000
# 2 -0.009479 0.015312 -0.000214 0.000000 0.000000 0.000000
# 3 -0.003622 -0.000214 0.010918 0.000000 0.000000 0.000000
# 4 0.000000 0.000000 0.000000 0.040031 0.000000 0.000000
# 5 0.000000 0.000000 0.000000 0.000000 0.096452 0.000000
# 6 0.000000 0.000000 0.000000 0.000000 0.000000 0.024059
#
#
# Mechanical properties :
#
#
# Convention : Reuss Voigt Hill
#
# Bulk Modulus (GPa) = 49.47298 49.70403 49.58851
# Shear Modulus (GPa) = 20.76833 27.37108 24.06970
#
# Velocity S-wave (km/s) = 3.21968 3.69622 3.46615
# Velocity P-wave (km/s) = 6.20611 6.55938 6.38519
#
# Compressibility (1/GPa) = 0.02021305
#
# Stress axis : x y z
#
# Youngs Moduli (GPa) = 48.51402 65.30839 91.59585
#
# Poissons Ratio (x) = 0.61903 0.33174
# Poissons Ratio (y) = 0.45984 0.01962
# Poissons Ratio (z) = 0.17571 0.01399
#
# Static dielectric constant tensor:
#      x y z
#    x 1.701560 0.000000 0.000000 
#    y 0.000000 1.711370 0.000000 
#    z 0.000000 0.000000 1.697440 
# 
# From -- ./inp_files/25344.got.cif
#   From: 2010.05.17/outbox.cif.g08.bks.cpg/sg58_13_cif.got.tgz:25344.got - 2010.06.03 14:20:14.
