data_PCOD9444920
_publ_section_title
;
Structure prediction by ZEFSAII (Michael W. Deem and Ramdas Pophale) SiO2 
 PCOD9444920
Probable space group: P N N M
;
_chemical_formula_sum "Si O2"
_cell_formula_units_Z 40
_cell_length_a 10.064845
_cell_length_b 7.299230
_cell_length_c 26.183068
_cell_angle_alpha 90.000000
_cell_angle_beta 90.000000
_cell_angle_gamma 90.000000
_cell_volume 1923.555287
_symmetry_space_group_name_H-M "P N N M"
_symmetry_group_IT_number 58
_symmetry_cell_setting 'orthorhombic'
loop_
_space_group_symop_operation_xyz
x,y,z
-x,-y,z
1/2+x,1/2-y,1/2-z
1/2-x,1/2+y,1/2-z
-x,-y,-z
x,y,-z
1/2-x,1/2+y,1/2+z
1/2+x,1/2-y,1/2+z
loop_
_atom_site_type_symbol
_atom_site_label
_atom_site_fract_x
_atom_site_fract_y
_atom_site_fract_z
Si Si1 0.626141 0.886866 0.712468
Si Si2 0.155394 0.798272 0.109159
Si Si3 0.853618 0.029860 0.583779
Si Si4 0.872468 0.811568 0.940942
Si Si5 0.118389 0.871500 0.699023
O O1 0.648710 0.727874 0.670461
O O2 0.608000 0.812157 0.769225
O O3 0.500000 0.000000 0.694634
O O4 0.746463 0.026723 0.712087
O O5 0.274046 0.661656 0.092110
O O6 0.011171 0.745488 0.084818
O O7 0.172149 0.006443 0.090034
O O8 0.743867 0.162054 0.559602
O O9 0.885863 0.129339 0.638002
O O10 0.000000 0.000000 0.560037
O O11 0.897784 0.858019 0.000000
O O12 0.000000 0.000000 0.717381
#
# Coordination Sequence:
#
# PCOD9444920 Si02
#       5
#     8   8   8   8   8
#     4  11  22  37  62  92 125 168 209 254 315 371
#     4  10  22  40  65  93 129 161 213 274 318 379
#     4  10  23  43  60  91 133 168 209 262 322 388
#     4  11  24  42  69  95 121 167 221 271 328 374
#     4  10  22  37  56  88 126 165 207 248 311 379
#
# _framework density 20.794827999999999
#
# number of rings (size 3 to 8) (size 9 to 14) (size 15 to 20)
#    0.000    1.600    0.000    5.400    5.600    3.600 
#    0.000    1.000    0.000    0.000    0.000    0.000 
#    0.000    0.000    0.000    0.000    0.000    0.000 
#
# Total GULP energy -223239.048024 kJ/mol
# GULP energy per Si atom -5580.976201 kJ/mol
# Density = 2.074750 g / cm^3
# Si number density = 20.794828 Si / 1000 Ang^3
#
#
#
# Elastic Constant Matrix: (Units=GPa)
#
#
# Indices 1 2 3 4 5 6 
#
# 1 146.4260 34.4862 -2.1393 0.0000 0.0000 0.0000
# 2 34.4862 50.5310 21.4902 0.0000 0.0000 0.0000
# 3 -2.1393 21.4902 65.3357 0.0000 0.0000 0.0000
# 4 0.0000 0.0000 0.0000 10.7284 0.0000 0.0000
# 5 0.0000 0.0000 0.0000 0.0000 52.6188 0.0000
# 6 0.0000 0.0000 0.0000 0.0000 0.0000 2.6536
#
#
#
# Elastic Compliance Matrix: (Units=1/GPa)
#
#
# Indices 1 2 3 4 5 6 
#
# 1 0.008484 -0.006869 0.002537 0.000000 0.000000 0.000000
# 2 -0.006869 0.028570 -0.009622 0.000000 0.000000 0.000000
# 3 0.002537 -0.009622 0.018554 0.000000 0.000000 0.000000
# 4 0.000000 0.000000 0.000000 0.093211 0.000000 0.000000
# 5 0.000000 0.000000 0.000000 0.000000 0.019005 0.000000
# 6 0.000000 0.000000 0.000000 0.000000 0.000000 0.376851
#
#
# Mechanical properties :
#
#
# Convention : Reuss Voigt Hill
#
# Bulk Modulus (GPa) = 36.10184 41.10744 38.60464
# Shear Modulus (GPa) = 8.59376 27.09718 17.84547
#
# Velocity S-wave (km/s) = 2.03510 3.61373 2.93263
# Velocity P-wave (km/s) = 4.78757 6.10107 5.48379
#
# Compressibility (1/GPa) = 0.02769942
#
# Stress axis : x y z
#
# Youngs Moduli (GPa) = 117.86398 35.00130 53.89784
#
# Poissons Ratio (x) = 0.24044 -0.13676
# Poissons Ratio (y) = 0.80966 0.51862
# Poissons Ratio (z) = -0.29906 0.33679
#
# Static dielectric constant tensor:
#      x y z
#    x 1.743530 0.000000 0.000000 
#    y 0.000000 1.714570 0.000000 
#    z 0.000000 0.000000 1.771270 
# 
# From -- ./inp_files/33147.got.cif
#   From: 2010.05.17/outbox.cif.g08.bks.cpg/sg58_17_cif.got.tgz:33147.got - 2010.06.03 14:20:14.
