data_PCOD9444819
_publ_section_title
;
Structure prediction by ZEFSAII (Michael W. Deem and Ramdas Pophale) SiO2 
 PCOD9444819
Probable space group: P N N M
;
_chemical_formula_sum "Si O2"
_cell_formula_units_Z 34
_cell_length_a 11.291279
_cell_length_b 11.446553
_cell_length_c 12.880618
_cell_angle_alpha 90.000000
_cell_angle_beta 90.000000
_cell_angle_gamma 90.000000
_cell_volume 1664.771233
_symmetry_space_group_name_H-M "P N N M"
_symmetry_group_IT_number 58
_symmetry_cell_setting 'orthorhombic'
loop_
_space_group_symop_operation_xyz
x,y,z
-x,-y,z
1/2+x,1/2-y,1/2-z
1/2-x,1/2+y,1/2-z
-x,-y,-z
x,y,-z
1/2-x,1/2+y,1/2+z
1/2+x,1/2-y,1/2+z
loop_
_atom_site_type_symbol
_atom_site_label
_atom_site_fract_x
_atom_site_fract_y
_atom_site_fract_z
Si Si1 0.344658 0.959614 0.802846
Si Si2 0.839435 0.293758 0.383790
Si Si3 0.423644 0.382287 0.270967
Si Si4 0.500000 0.000000 0.000000
Si Si5 0.075099 0.308282 0.885334
O O1 0.210279 0.912375 0.804711
O O2 0.407529 0.904420 0.703318
O O3 0.338405 0.100100 0.803549
O O4 0.418656 0.935652 0.906333
O O5 0.877566 0.339379 0.500000
O O6 0.914535 0.187013 0.338721
O O7 0.705078 0.250892 0.392026
O O8 0.500000 0.500000 0.263896
O O9 0.485174 0.292027 0.349289
O O10 0.044651 0.352949 0.000000
#
# Coordination Sequence:
#
# PCOD9444819 Si02
#       5
#     8   8   8   2   8
#     4  11  23  42  70  99 133 180 223 283 341 404
#     4  10  21  41  67  95 135 178 221 282 344 391
#     4  11  23  41  68 100 134 176 233 273 336 411
#     4  12  24  40  68  96 130 166 218 284 330 404
#     4  10  23  41  66  97 136 177 224 286 333 402
#
# _framework density 20.423227000000001
#
# number of rings (size 3 to 8) (size 9 to 14) (size 15 to 20)
#    0.000    1.412    3.529    1.412    1.647    0.941 
#    0.000    5.294    2.588    0.000    0.000    0.000 
#    0.000    0.000    0.000    0.000    0.000    0.000 
#
# Total GULP energy -189474.497935 kJ/mol
# GULP energy per Si atom -5572.779351 kJ/mol
# Density = 2.037674 g / cm^3
# Si number density = 20.423227 Si / 1000 Ang^3
#
#
#
# Elastic Constant Matrix: (Units=GPa)
#
#
# Indices 1 2 3 4 5 6 
#
# 1 119.2114 51.9074 69.2317 0.0000 0.0000 0.0000
# 2 51.9074 129.2783 94.3020 0.0000 0.0000 0.0000
# 3 69.2317 94.3020 183.0660 0.0000 0.0000 0.0000
# 4 0.0000 0.0000 0.0000 36.1141 0.0000 0.0000
# 5 0.0000 0.0000 0.0000 0.0000 5.2487 0.0000
# 6 0.0000 0.0000 0.0000 0.0000 0.0000 24.4421
#
#
#
# Elastic Compliance Matrix: (Units=1/GPa)
#
#
# Indices 1 2 3 4 5 6 
#
# 1 0.011141 -0.002243 -0.003058 0.000000 0.000000 0.000000
# 2 -0.002243 0.012843 -0.005768 0.000000 0.000000 0.000000
# 3 -0.003058 -0.005768 0.009590 0.000000 0.000000 0.000000
# 4 0.000000 0.000000 0.000000 0.027690 0.000000 0.000000
# 5 0.000000 0.000000 0.000000 0.000000 0.190522 0.000000
# 6 0.000000 0.000000 0.000000 0.000000 0.000000 0.040913
#
#
# Mechanical properties :
#
#
# Convention : Reuss Voigt Hill
#
# Bulk Modulus (GPa) = 87.43274 95.82643 91.62959
# Shear Modulus (GPa) = 15.69131 27.56863 21.62997
#
# Velocity S-wave (km/s) = 2.77484 3.67804 3.25789
# Velocity P-wave (km/s) = 7.29176 8.06594 7.68860
#
# Compressibility (1/GPa) = 0.01143736
#
# Stress axis : x y z
#
# Youngs Moduli (GPa) = 89.75962 77.86438 104.27496
#
# Poissons Ratio (x) = 0.17462 0.31888
# Poissons Ratio (y) = 0.20129 0.60142
# Poissons Ratio (z) = 0.27449 0.44909
#
# Static dielectric constant tensor:
#      x y z
#    x 1.677290 0.000000 0.000000 
#    y 0.000000 1.683540 0.000000 
#    z 0.000000 0.000000 1.728720 
# 
# From -- ./inp_files/13868.got.cif
#   From: 2010.05.17/outbox.cif.g08.bks.cpg/sg58_7_cif.got.tgz:13868.got - 2010.06.03 14:20:14.
