data_PCOD9444834
_publ_section_title
;
Structure prediction by ZEFSAII (Michael W. Deem and Ramdas Pophale) SiO2 
 PCOD9444834
Probable space group: P N N M
;
_chemical_formula_sum "Si O2"
_cell_formula_units_Z 40
_cell_length_a 8.035507
_cell_length_b 9.279669
_cell_length_c 22.638110
_cell_angle_alpha 90.000000
_cell_angle_beta 90.000000
_cell_angle_gamma 90.000000
_cell_volume 1688.052444
_symmetry_space_group_name_H-M "P N N M"
_symmetry_group_IT_number 58
_symmetry_cell_setting 'orthorhombic'
loop_
_space_group_symop_operation_xyz
x,y,z
-x,-y,z
1/2+x,1/2-y,1/2-z
1/2-x,1/2+y,1/2-z
-x,-y,-z
x,y,-z
1/2-x,1/2+y,1/2+z
1/2+x,1/2-y,1/2+z
loop_
_atom_site_type_symbol
_atom_site_label
_atom_site_fract_x
_atom_site_fract_y
_atom_site_fract_z
Si Si1 0.985328 0.667438 0.567848
Si Si2 0.659589 0.166749 0.433542
Si Si3 0.175728 0.082082 0.633928
Si Si4 0.061843 0.160527 0.173414
Si Si5 0.872382 0.372996 0.747074
O O1 0.921376 0.676239 0.500000
O O2 0.867656 0.758381 0.611151
O O3 0.000000 0.500000 0.583579
O O4 0.167262 0.741886 0.566600
O O5 0.593966 0.167779 0.500000
O O6 0.545222 0.241355 0.384366
O O7 0.711107 0.008249 0.411571
O O8 0.260307 0.077283 0.697594
O O9 0.000000 0.000000 0.636673
O O10 0.254049 0.160259 0.192761
O O11 0.965875 0.233299 0.228043
O O12 0.000000 0.000000 0.163139
O O13 0.000000 0.500000 0.733573
#
# Coordination Sequence:
#
# PCOD9444834 Si02
#       5
#     8   8   8   8   8
#     4   9  19  35  63 100 138 183 233 287 348 420
#     4  10  22  43  68 100 144 191 239 288 356 437
#     4  10  21  41  71  99 139 186 240 291 346 427
#     4  12  28  45  71 106 141 191 234 304 370 424
#     4  12  26  48  71 104 139 183 241 296 363 438
#
# _framework density 23.695944000000001
#
# number of rings (size 3 to 8) (size 9 to 14) (size 15 to 20)
#    0.000    1.400    2.000    2.400    8.400    3.600 
#    0.000    3.000    0.000    0.000    0.000    0.000 
#    0.000    0.000    0.000    0.000    0.000    0.000 
#
# Total GULP energy -224346.300214 kJ/mol
# GULP energy per Si atom -5608.657505 kJ/mol
# Density = 2.364201 g / cm^3
# Si number density = 23.695944 Si / 1000 Ang^3
#
#
#
# Elastic Constant Matrix: (Units=GPa)
#
#
# Indices 1 2 3 4 5 6 
#
# 1 73.4795 36.3861 35.2188 0.0000 0.0000 0.0000
# 2 36.3861 151.9393 36.6712 0.0000 0.0000 0.0000
# 3 35.2188 36.6712 139.1801 0.0000 0.0000 0.0000
# 4 0.0000 0.0000 0.0000 82.9544 0.0000 0.0000
# 5 0.0000 0.0000 0.0000 0.0000 -3.6124 0.0000
# 6 0.0000 0.0000 0.0000 0.0000 0.0000 42.7096
#
#
#
# Elastic Compliance Matrix: (Units=1/GPa)
#
#
# Indices 1 2 3 4 5 6 
#
# 1 0.016834 -0.003207 -0.003415 0.000000 0.000000 0.000000
# 2 -0.003207 0.007640 -0.001201 0.000000 0.000000 0.000000
# 3 -0.003415 -0.001201 0.008366 0.000000 0.000000 0.000000
# 4 0.000000 0.000000 0.000000 0.012055 0.000000 0.000000
# 5 0.000000 0.000000 0.000000 0.000000 -0.276824 0.000000
# 6 0.000000 0.000000 0.000000 0.000000 0.000000 0.023414
#
#
# Mechanical properties :
#
#
# Convention : Reuss Voigt Hill
#
# Bulk Modulus (GPa) = 58.16433 64.57232 61.36832
# Shear Modulus (GPa) = -26.71814 41.49851 7.39018
#
# Velocity S-wave (km/s) = -3.36153 4.18938 1.76792
# Velocity P-wave (km/s) = 3.08754 7.12115 5.48834
#
# Compressibility (1/GPa) = 0.01719267
#
# Stress axis : x y z
#
# Youngs Moduli (GPa) = 59.40327 130.89731 119.53806
#
# Poissons Ratio (x) = 0.41982 0.40819
# Poissons Ratio (y) = 0.19052 0.14360
# Poissons Ratio (z) = 0.20285 0.15725
#
# Static dielectric constant tensor:
#      x y z
#    x 1.896880 0.000000 0.000000 
#    y 0.000000 1.856250 0.000000 
#    z 0.000000 0.000000 1.853290 
# 
# From -- ./inp_files/31247.got.cif
#   From: 2010.05.17/outbox.cif.g08.bks.cpg/sg58_16_cif.got.tgz:31247.got - 2010.06.03 14:20:14.
