data_PCOD9444119
_publ_section_title
;
Structure prediction by ZEFSAII (Michael W. Deem and Ramdas Pophale) SiO2 
 PCOD9444119
Probable space group: P N N M
;
_chemical_formula_sum "Si O2"
_cell_formula_units_Z 40
_cell_length_a 9.123333
_cell_length_b 9.221493
_cell_length_c 21.731647
_cell_angle_alpha 90.000000
_cell_angle_beta 90.000000
_cell_angle_gamma 90.000000
_cell_volume 1828.299791
_symmetry_space_group_name_H-M "P N N M"
_symmetry_group_IT_number 58
_symmetry_cell_setting 'orthorhombic'
loop_
_space_group_symop_operation_xyz
x,y,z
-x,-y,z
1/2+x,1/2-y,1/2-z
1/2-x,1/2+y,1/2-z
-x,-y,-z
x,y,-z
1/2-x,1/2+y,1/2+z
1/2+x,1/2-y,1/2+z
loop_
_atom_site_type_symbol
_atom_site_label
_atom_site_fract_x
_atom_site_fract_y
_atom_site_fract_z
Si Si1 0.341178 0.509572 0.391405
Si Si2 0.711744 0.792661 0.336533
Si Si3 0.935206 0.349046 0.431106
Si Si4 0.615510 0.260099 0.286652
Si Si5 0.642060 0.571563 0.146610
O O1 0.500000 0.500000 0.420034
O O2 0.286037 0.348266 0.378984
O O3 0.234716 0.606697 0.430928
O O4 0.360239 0.591828 0.325426
O O5 0.549401 0.794707 0.303702
O O6 0.834342 0.773445 0.283570
O O7 0.757937 0.935286 0.374728
O O8 0.996283 0.336293 0.500000
O O9 0.929552 0.193249 0.397950
O O10 0.000000 0.500000 0.401952
O O11 0.741409 0.153642 0.311718
O O12 0.500000 0.500000 0.177912
#
# Coordination Sequence:
#
# PCOD9444119 Si02
#       5
#     8   8   8   8   8
#     4   9  20  37  57  81 112 151 192 235 288 355
#     4  11  20  35  57  87 122 155 197 239 284 345
#     4  10  22  41  62  83 108 144 193 248 305 360
#     4  10  21  35  56  86 123 162 195 232 284 350
#     4  11  22  36  57  85 119 156 195 241 293 347
#
# _framework density 21.878250999999999
#
# number of rings (size 3 to 8) (size 9 to 14) (size 15 to 20)
#    0.000    1.800    0.000    4.200    0.000    4.000 
#    0.000    1.000    0.000   15.600    0.000    0.000 
#    0.000    0.000    0.000    0.000    0.000    0.000 
#
# Total GULP energy -222768.686714 kJ/mol
# GULP energy per Si atom -5569.217168 kJ/mol
# Density = 2.182846 g / cm^3
# Si number density = 21.878251 Si / 1000 Ang^3
#
#
#
# Elastic Constant Matrix: (Units=GPa)
#
#
# Indices 1 2 3 4 5 6 
#
# 1 92.9948 43.4742 7.1221 0.0000 0.0000 0.0000
# 2 43.4742 166.2211 28.8315 0.0000 0.0000 0.0000
# 3 7.1221 28.8315 42.4832 0.0000 0.0000 0.0000
# 4 0.0000 0.0000 0.0000 -19.9378 0.0000 0.0000
# 5 0.0000 0.0000 0.0000 0.0000 0.3070 0.0000
# 6 0.0000 0.0000 0.0000 0.0000 0.0000 57.2715
#
#
#
# Elastic Compliance Matrix: (Units=1/GPa)
#
#
# Indices 1 2 3 4 5 6 
#
# 1 0.012252 -0.003228 0.000137 0.000000 0.000000 0.000000
# 2 -0.003228 0.007669 -0.004664 0.000000 0.000000 0.000000
# 3 0.000137 -0.004664 0.026681 0.000000 0.000000 0.000000
# 4 0.000000 0.000000 0.000000 -0.050156 0.000000 0.000000
# 5 0.000000 0.000000 0.000000 0.000000 3.257017 0.000000
# 6 0.000000 0.000000 0.000000 0.000000 0.000000 0.017461
#
#
# Mechanical properties :
#
#
# Convention : Reuss Voigt Hill
#
# Bulk Modulus (GPa) = 32.16249 51.17273 41.66761
# Shear Modulus (GPa) = 1.51662 22.34625 11.93144
#
# Velocity S-wave (km/s) = 0.83350 3.19939 2.33782
# Velocity P-wave (km/s) = 3.95713 6.09005 5.13554
#
# Compressibility (1/GPa) = 0.03109212
#
# Stress axis : x y z
#
# Youngs Moduli (GPa) = 81.61969 130.38983 37.48015
#
# Poissons Ratio (x) = 0.42092 -0.00513
# Poissons Ratio (y) = 0.26348 0.17479
# Poissons Ratio (z) = -0.01117 0.60809
#
# Static dielectric constant tensor:
#      x y z
#    x 1.874940 0.000000 0.000000 
#    y 0.000000 1.875820 0.000000 
#    z 0.000000 0.000000 1.873360 
# 
# From -- ./inp_files/31259.got.cif
#   From: 2010.05.17/outbox.cif.g08.bks.cpg/sg58_16_cif.got.tgz:31259.got - 2010.06.03 14:20:14.
