data_PCOD9444571
_publ_section_title
;
Structure prediction by ZEFSAII (Michael W. Deem and Ramdas Pophale) SiO2 
 PCOD9444571
Probable space group: P N N M
;
_chemical_formula_sum "Si O2"
_cell_formula_units_Z 44
_cell_length_a 14.347260
_cell_length_b 10.119089
_cell_length_c 14.700263
_cell_angle_alpha 90.000000
_cell_angle_beta 90.000000
_cell_angle_gamma 90.000000
_cell_volume 2134.201835
_symmetry_space_group_name_H-M "P N N M"
_symmetry_group_IT_number 58
_symmetry_cell_setting 'orthorhombic'
loop_
_space_group_symop_operation_xyz
x,y,z
-x,-y,z
1/2+x,1/2-y,1/2-z
1/2-x,1/2+y,1/2-z
-x,-y,-z
x,y,-z
1/2-x,1/2+y,1/2+z
1/2+x,1/2-y,1/2+z
loop_
_atom_site_type_symbol
_atom_site_label
_atom_site_fract_x
_atom_site_fract_y
_atom_site_fract_z
Si Si1 0.000000 0.000000 0.736473
Si Si2 0.253060 0.066189 0.000000
Si Si3 0.099802 0.363889 0.500000
Si Si4 0.823529 0.161134 0.500000
Si Si5 0.467479 0.239818 0.848757
Si Si6 0.323278 0.159690 0.299809
Si Si7 0.299268 0.452938 0.692600
Si Si8 0.238241 0.633061 0.000000
O O1 0.091115 0.961647 0.790701
O O2 0.024745 0.130510 0.680492
O O3 0.245592 0.223885 0.000000
O O4 0.214713 0.002139 0.090793
O O5 0.358970 0.011366 0.000000
O O6 0.183166 0.251720 0.500000
O O7 0.036471 0.343779 0.588889
O O8 0.885887 0.197448 0.587971
O O9 0.789397 0.010583 0.500000
O O10 0.416997 0.170152 0.762578
O O11 0.273091 0.301696 0.289475
O O12 0.260022 0.045772 0.257824
O O13 0.324780 0.142025 0.408827
#
# Coordination Sequence:
#
# PCOD9444571 Si02
#       8
#     4   4   4   4   8   8   8   4
#     4  10  22  38  64  96 130 172 222 264 324 392
#     4  12  24  42  63 101 128 173 217 273 338 382
#     4  11  22  40  67  98 131 166 217 274 337 393
#     4  11  22  40  63  94 134 167 212 273 316 393
#     4  10  21  38  63  99 133 165 213 276 333 386
#     4  11  22  40  64  96 133 173 218 265 329 400
#     4  11  23  42  65  96 131 172 220 269 328 396
#     4  12  22  39  69  94 128 181 225 260 324 401
#
# _framework density 20.616605
#
# number of rings (size 3 to 8) (size 9 to 14) (size 15 to 20)
#    0.000    1.091    3.636    4.364    0.000    3.273 
#    0.000    0.909    0.000    0.000    0.000    6.364 
#    0.000    0.000    0.000    0.000    0.000    0.000 
#
# Total GULP energy -245709.743519 kJ/mol
# GULP energy per Si atom -5584.312353 kJ/mol
# Density = 2.056968 g / cm^3
# Si number density = 20.616605 Si / 1000 Ang^3
#
#
#
# Elastic Constant Matrix: (Units=GPa)
#
#
# Indices 1 2 3 4 5 6 
#
# 1 23.8206 4.9254 23.5704 0.0000 0.0000 0.0000
# 2 4.9254 109.2597 17.2922 0.0000 0.0000 0.0000
# 3 23.5704 17.2922 145.8157 0.0000 0.0000 0.0000
# 4 0.0000 0.0000 0.0000 47.9717 0.0000 0.0000
# 5 0.0000 0.0000 0.0000 0.0000 22.9566 0.0000
# 6 0.0000 0.0000 0.0000 0.0000 0.0000 28.1295
#
#
#
# Elastic Compliance Matrix: (Units=1/GPa)
#
#
# Indices 1 2 3 4 5 6 
#
# 1 0.050080 -0.000995 -0.007977 0.000000 0.000000 0.000000
# 2 -0.000995 0.009347 -0.000948 0.000000 0.000000 0.000000
# 3 -0.007977 -0.000948 0.008260 0.000000 0.000000 0.000000
# 4 0.000000 0.000000 0.000000 0.020846 0.000000 0.000000
# 5 0.000000 0.000000 0.000000 0.000000 0.043561 0.000000
# 6 0.000000 0.000000 0.000000 0.000000 0.000000 0.035550
#
#
# Mechanical properties :
#
#
# Convention : Reuss Voigt Hill
#
# Bulk Modulus (GPa) = 20.89991 41.16358 31.03174
# Shear Modulus (GPa) = 24.57828 35.35207 29.96518
#
# Velocity S-wave (km/s) = 3.45651 4.14543 3.81655
# Velocity P-wave (km/s) = 5.10778 6.55152 5.87417
#
# Compressibility (1/GPa) = 0.04784710
#
# Stress axis : x y z
#
# Youngs Moduli (GPa) = 19.96818 106.98227 121.06798
#
# Poissons Ratio (x) = 0.10646 0.96578
# Poissons Ratio (y) = 0.01987 0.11473
# Poissons Ratio (z) = 0.15929 0.10138
#
# Static dielectric constant tensor:
#      x y z
#    x 1.753930 0.000000 0.000000 
#    y 0.000000 1.807830 0.000000 
#    z 0.000000 0.000000 1.849820 
# 
# From -- ./inp_files/22737.got.cif
#   From: 2010.05.17/outbox.cif.g08.bks.cpg/sg58_12_cif.got.tgz:22737.got - 2010.06.03 14:20:14.
