data_PCOD9444076
_publ_section_title
;
Structure prediction by ZEFSAII (Michael W. Deem and Ramdas Pophale) SiO2 
 PCOD9444076
Probable space group: P N N M
;
_chemical_formula_sum "Si O2"
_cell_formula_units_Z 58
_cell_length_a 15.382834
_cell_length_b 9.359694
_cell_length_c 19.889263
_cell_angle_alpha 90.000000
_cell_angle_beta 90.000000
_cell_angle_gamma 90.000000
_cell_volume 2863.628622
_symmetry_space_group_name_H-M "P N N M"
_symmetry_group_IT_number 58
_symmetry_cell_setting 'orthorhombic'
loop_
_space_group_symop_operation_xyz
x,y,z
-x,-y,z
1/2+x,1/2-y,1/2-z
1/2-x,1/2+y,1/2-z
-x,-y,-z
x,y,-z
1/2-x,1/2+y,1/2+z
1/2+x,1/2-y,1/2+z
loop_
_atom_site_type_symbol
_atom_site_label
_atom_site_fract_x
_atom_site_fract_y
_atom_site_fract_z
Si Si1 0.408269 0.855082 0.280504
Si Si2 0.582755 0.724870 0.733131
Si Si3 0.268553 0.074506 0.306550
Si Si4 0.555911 0.694319 0.886117
Si Si5 0.861576 0.712199 0.371081
Si Si6 0.702659 0.924567 0.075906
Si Si7 0.851150 0.957535 0.816613
Si Si8 0.500000 0.500000 0.000000
O O1 0.513526 0.852711 0.280160
O O2 0.377040 0.859834 0.202672
O O3 0.397009 0.690420 0.301804
O O4 0.341540 0.954166 0.322798
O O5 0.675371 0.802511 0.729731
O O6 0.562268 0.661157 0.806768
O O7 0.588573 0.596945 0.679277
O O8 0.206973 0.157797 0.359901
O O9 0.205362 0.011299 0.250356
O O10 0.456412 0.743841 0.896587
O O11 0.626061 0.819042 0.899123
O O12 0.563358 0.569352 0.940262
O O13 0.828628 0.588028 0.418976
O O14 0.786517 0.926657 0.122912
O O15 0.723581 0.884676 0.000000
#
# Coordination Sequence:
#
# PCOD9444076 Si02
#       8
#     8   8   8   8   8   8   8   2
#     4  10  21  34  61  92 122 154 199 266 331 377
#     4  11  21  38  63  90 125 162 210 264 320 387
#     4  11  19  36  61  92 122 155 202 276 323 372
#     4  11  25  40  59  86 132 174 210 251 313 391
#     4  10  22  38  60  89 121 163 210 253 322 385
#     4  12  23  40  62  85 124 172 214 254 308 394
#     4  11  21  37  58  92 123 161 206 266 319 374
#     4  12  28  40  50  92 132 180 214 246 304 388
#
# _framework density 20.254023
#
# number of rings (size 3 to 8) (size 9 to 14) (size 15 to 20)
#    0.000    1.103    4.828    2.069    6.759    2.759 
#    0.000    0.000    0.000    1.655    0.000    0.966 
#    0.000    0.000    0.000    0.000    0.000    0.000 
#
# Total GULP energy -322885.363747 kJ/mol
# GULP energy per Si atom -5566.989030 kJ/mol
# Density = 2.020792 g / cm^3
# Si number density = 20.254023 Si / 1000 Ang^3
#
#
#
# Elastic Constant Matrix: (Units=GPa)
#
#
# Indices 1 2 3 4 5 6 
#
# 1 76.9421 21.0280 27.2514 0.0000 0.0000 0.0000
# 2 21.0280 73.9998 23.7251 0.0000 0.0000 0.0000
# 3 27.2514 23.7251 54.3668 0.0000 0.0000 0.0000
# 4 0.0000 0.0000 0.0000 2110.3868 0.0000 0.0000
# 5 0.0000 0.0000 0.0000 0.0000 -1.2592 0.0000
# 6 0.0000 0.0000 0.0000 0.0000 0.0000 50.1209
#
#
#
# Elastic Compliance Matrix: (Units=1/GPa)
#
#
# Indices 1 2 3 4 5 6 
#
# 1 0.016137 -0.002316 -0.007078 0.000000 0.000000 0.000000
# 2 -0.002316 0.016044 -0.005841 0.000000 0.000000 0.000000
# 3 -0.007078 -0.005841 0.024490 0.000000 0.000000 0.000000
# 4 0.000000 0.000000 0.000000 0.000474 0.000000 0.000000
# 5 0.000000 0.000000 0.000000 0.000000 -0.794132 0.000000
# 6 0.000000 0.000000 0.000000 0.000000 0.000000 0.019952
#
#
# Mechanical properties :
#
#
# Convention : Reuss Voigt Hill
#
# Bulk Modulus (GPa) = 38.16510 38.81307 38.48908
# Shear Modulus (GPa) = -7.37645 440.73665 216.68010
#
# Velocity S-wave (km/s) = -1.91046 14.76743 10.35440
# Velocity P-wave (km/s) = 3.74401 17.60608 12.72776
#
# Compressibility (1/GPa) = 0.02620195
#
# Stress axis : x y z
#
# Youngs Moduli (GPa) = 61.97101 62.32754 40.83297
#
# Poissons Ratio (x) = 0.14437 0.28900
# Poissons Ratio (y) = 0.14354 0.23849
# Poissons Ratio (z) = 0.43861 0.36403
#
# Static dielectric constant tensor:
#      x y z
#    x 1.818730 0.000000 0.000000 
#    y 0.000000 1.827360 0.000000 
#    z 0.000000 0.000000 1.697590 
# 
# From -- ./inp_files/27288.got.cif
#   From: 2010.05.17/outbox.cif.g08.bks.cpg/sg58_14_cif.got.tgz:27288.got - 2010.06.03 14:20:14.
