data_PCOD9444875
_publ_section_title
;
Structure prediction by ZEFSAII (Michael W. Deem and Ramdas Pophale) SiO2 
 PCOD9444875
Probable space group: P N N M
;
_chemical_formula_sum "Si O2"
_cell_formula_units_Z 36
_cell_length_a 6.517418
_cell_length_b 17.302103
_cell_length_c 13.988986
_cell_angle_alpha 90.000000
_cell_angle_beta 90.000000
_cell_angle_gamma 90.000000
_cell_volume 1577.468531
_symmetry_space_group_name_H-M "P N N M"
_symmetry_group_IT_number 58
_symmetry_cell_setting 'orthorhombic'
loop_
_space_group_symop_operation_xyz
x,y,z
-x,-y,z
1/2+x,1/2-y,1/2-z
1/2-x,1/2+y,1/2-z
-x,-y,-z
x,y,-z
1/2-x,1/2+y,1/2+z
1/2+x,1/2-y,1/2+z
loop_
_atom_site_type_symbol
_atom_site_label
_atom_site_fract_x
_atom_site_fract_y
_atom_site_fract_z
Si Si1 0.085261 0.361130 0.290511
Si Si2 0.761340 0.990113 0.500000
Si Si3 0.865051 0.776376 0.000000
Si Si4 0.000000 0.500000 0.171268
Si Si5 0.769249 0.816429 0.500000
Si Si6 0.027571 0.593148 0.500000
Si Si7 0.596964 0.704673 0.833960
O O1 0.307903 0.355115 0.241198
O O2 0.956831 0.427896 0.238818
O O3 0.979173 0.278949 0.275901
O O4 0.228280 0.266377 0.092660
O O5 0.678612 0.023871 0.401551
O O6 0.676758 0.902213 0.500000
O O7 0.000000 0.000000 0.500000
O O8 0.105105 0.753051 0.000000
O O9 0.753677 0.862266 0.000000
O O10 0.912241 0.816471 0.594393
O O11 0.919684 0.622599 0.596755
O O12 0.000000 0.500000 0.500000
#
# Coordination Sequence:
#
# PCOD9444875 Si02
#       7
#     8   4   4   4   4   4   8
#     4  11  23  44  70 101 144 191 237 301 369 438
#     4  11  24  41  67 104 138 179 232 298 376 436
#     4   9  21  42  69 104 141 186 234 308 375 431
#     4  11  24  43  66  98 144 183 222 297 366 430
#     4  11  22  45  72  97 145 182 242 308 357 458
#     4  10  21  46  75 105 153 200 248 311 379 455
#     4  10  24  40  68 108 134 183 245 294 369 440
#
# _framework density 22.821373999999999
#
# number of rings (size 3 to 8) (size 9 to 14) (size 15 to 20)
#    0.000    1.556    1.111    3.333    6.222    3.556 
#    0.000    0.000    0.000    9.333    0.000    0.000 
#    0.000    0.000    0.000    0.000    0.000    0.000 
#
# Total GULP energy -201024.182755 kJ/mol
# GULP energy per Si atom -5584.005077 kJ/mol
# Density = 2.276943 g / cm^3
# Si number density = 22.821374 Si / 1000 Ang^3
#
#
#
# Elastic Constant Matrix: (Units=GPa)
#
#
# Indices 1 2 3 4 5 6 
#
# 1 113.7658 18.6992 61.5404 0.0000 0.0000 0.0000
# 2 18.6992 90.9720 39.3913 0.0000 0.0000 0.0000
# 3 61.5404 39.3913 159.7715 0.0000 0.0000 0.0000
# 4 0.0000 0.0000 0.0000 20.8636 0.0000 0.0000
# 5 0.0000 0.0000 0.0000 0.0000 26.9647 0.0000
# 6 0.0000 0.0000 0.0000 0.0000 0.0000 18.5624
#
#
#
# Elastic Compliance Matrix: (Units=1/GPa)
#
#
# Indices 1 2 3 4 5 6 
#
# 1 0.011122 -0.000483 -0.004165 0.000000 0.000000 0.000000
# 2 -0.000483 0.012327 -0.002853 0.000000 0.000000 0.000000
# 3 -0.004165 -0.002853 0.008567 0.000000 0.000000 0.000000
# 4 0.000000 0.000000 0.000000 0.047930 0.000000 0.000000
# 5 0.000000 0.000000 0.000000 0.000000 0.037085 0.000000
# 6 0.000000 0.000000 0.000000 0.000000 0.000000 0.053872
#
#
# Mechanical properties :
#
#
# Convention : Reuss Voigt Hill
#
# Bulk Modulus (GPa) = 58.77497 67.08568 62.93032
# Shear Modulus (GPa) = 26.09902 29.60336 27.85119
#
# Velocity S-wave (km/s) = 3.38542 3.60554 3.49721
# Velocity P-wave (km/s) = 6.41028 6.84054 6.62890
#
# Compressibility (1/GPa) = 0.01701405
#
# Stress axis : x y z
#
# Youngs Moduli (GPa) = 89.90878 81.12202 116.73093
#
# Poissons Ratio (x) = 0.03916 0.48619
# Poissons Ratio (y) = 0.04340 0.33307
# Poissons Ratio (z) = 0.37448 0.23147
#
# Static dielectric constant tensor:
#      x y z
#    x 1.928660 0.000000 0.000000 
#    y 0.000000 1.878320 0.000000 
#    z 0.000000 0.000000 1.895280 
# 
# From -- ./inp_files/19445.got.cif
#   From: 2010.05.17/outbox.cif.g08.bks.cpg/sg58_10_cif.got.tgz:19445.got - 2010.06.03 14:20:14.
