data_PCOD9444105
_publ_section_title
;
Structure prediction by ZEFSAII (Michael W. Deem and Ramdas Pophale) SiO2 
 PCOD9444105
Probable space group: P N N M
;
_chemical_formula_sum "Si O2"
_cell_formula_units_Z 56
_cell_length_a 19.727473
_cell_length_b 16.335580
_cell_length_c 9.046745
_cell_angle_alpha 90.000000
_cell_angle_beta 90.000000
_cell_angle_gamma 90.000000
_cell_volume 2915.401451
_symmetry_space_group_name_H-M "P N N M"
_symmetry_group_IT_number 58
_symmetry_cell_setting 'orthorhombic'
loop_
_space_group_symop_operation_xyz
x,y,z
-x,-y,z
1/2+x,1/2-y,1/2-z
1/2-x,1/2+y,1/2-z
-x,-y,-z
x,y,-z
1/2-x,1/2+y,1/2+z
1/2+x,1/2-y,1/2+z
loop_
_atom_site_type_symbol
_atom_site_label
_atom_site_fract_x
_atom_site_fract_y
_atom_site_fract_z
Si Si1 0.454467 0.393153 0.163865
Si Si2 0.654230 0.515799 0.329485
Si Si3 0.382194 0.802495 0.324769
Si Si4 0.110994 0.133252 0.332986
Si Si5 0.004415 0.596625 0.678395
Si Si6 0.118844 0.720908 0.327415
Si Si7 0.237242 0.819858 0.824366
O O1 0.417945 0.443079 0.291176
O O2 0.534563 0.401048 0.163645
O O3 0.433064 0.298108 0.179512
O O4 0.428659 0.419286 0.000000
O O5 0.658722 0.491754 0.500000
O O6 0.660325 0.436981 0.226320
O O7 0.704707 0.590539 0.299500
O O8 0.382810 0.812742 0.500000
O O9 0.392578 0.708629 0.277637
O O10 0.441586 0.856448 0.252147
O O11 0.308722 0.820970 0.256821
O O12 0.128171 0.159657 0.500000
O O13 0.999502 0.606001 0.500000
O O14 0.075100 0.641957 0.722021
O O15 0.000000 0.500000 0.712658
O O16 0.137714 0.709747 0.500000
O O17 0.184940 0.751628 0.238939
O O18 0.244786 0.808067 0.000000
#
# Coordination Sequence:
#
# PCOD9444105 Si02
#       7
#     8   8   8   8   8   8   8
#     4   9  17  31  54  82 115 153 189 229 283 350
#     4  10  21  35  54  85 119 153 194 241 293 353
#     4  12  25  41  63  89 122 161 207 261 313 364
#     4  11  21  36  58  85 118 155 195 238 297 362
#     4  10  21  41  68  95 124 164 208 256 315 376
#     4   9  17  35  61  89 119 155 201 248 300 366
#     4  10  22  41  62  85 120 164 205 252 313 375
#
# _framework density 19.208331999999999
#
# number of rings (size 3 to 8) (size 9 to 14) (size 15 to 20)
#    0.000    1.857    1.429    3.000    0.000    5.429 
#    2.571    0.000    0.000    0.000    0.000    0.000 
#    0.000    0.000    0.000    0.000    0.000    0.000 
#
# Total GULP energy -312540.565135 kJ/mol
# GULP energy per Si atom -5581.081520 kJ/mol
# Density = 1.916461 g / cm^3
# Si number density = 19.208332 Si / 1000 Ang^3
#
#
#
# Elastic Constant Matrix: (Units=GPa)
#
#
# Indices 1 2 3 4 5 6 
#
# 1 80.3049 30.8976 47.9345 0.0000 0.0000 0.0000
# 2 30.8976 90.4821 33.6539 0.0000 0.0000 0.0000
# 3 47.9345 33.6539 58.0807 0.0000 0.0000 0.0000
# 4 0.0000 0.0000 0.0000 20.3571 0.0000 0.0000
# 5 0.0000 0.0000 0.0000 0.0000 28.7785 0.0000
# 6 0.0000 0.0000 0.0000 0.0000 0.0000 -3.8812
#
#
#
# Elastic Compliance Matrix: (Units=1/GPa)
#
#
# Indices 1 2 3 4 5 6 
#
# 1 0.024626 -0.001083 -0.019697 0.000000 0.000000 0.000000
# 2 -0.001083 0.014136 -0.007297 0.000000 0.000000 0.000000
# 3 -0.019697 -0.007297 0.037701 0.000000 0.000000 0.000000
# 4 0.000000 0.000000 0.000000 0.049123 0.000000 0.000000
# 5 0.000000 0.000000 0.000000 0.000000 0.034748 0.000000
# 6 0.000000 0.000000 0.000000 0.000000 0.000000 -0.257655
#
#
# Mechanical properties :
#
#
# Convention : Reuss Voigt Hill
#
# Bulk Modulus (GPa) = 49.23674 50.42663 49.83169
# Shear Modulus (GPa) = -145.36059 16.80967 -64.27546
#
# Velocity S-wave (km/s) = -8.70862 2.96146 -5.79093
# Velocity P-wave (km/s) = 8.68513 6.16467 4.32599
#
# Compressibility (1/GPa) = 0.02031004
#
# Stress axis : x y z
#
# Youngs Moduli (GPa) = 40.60684 70.74251 26.52447
#
# Poissons Ratio (x) = 0.07664 0.52244
# Poissons Ratio (y) = 0.04399 0.19354
# Poissons Ratio (z) = 0.79982 0.51618
#
# Static dielectric constant tensor:
#      x y z
#    x 1.657510 0.000000 0.000000 
#    y 0.000000 1.702230 0.000000 
#    z 0.000000 0.000000 1.662160 
# 
# From -- ./inp_files/9002.got.cif
#   From: 2010.05.17/outbox.cif.g08.bks.cpg/sg58_5_cif.got.tgz:9002.got - 2010.06.03 14:20:14.
