data_PCOD9444628
_publ_section_title
;
Structure prediction by ZEFSAII (Michael W. Deem and Ramdas Pophale) SiO2 
 PCOD9444628
Probable space group: P N N M
;
_chemical_formula_sum "Si O2"
_cell_formula_units_Z 40
_cell_length_a 8.785220
_cell_length_b 11.034054
_cell_length_c 16.829788
_cell_angle_alpha 90.000000
_cell_angle_beta 90.000000
_cell_angle_gamma 90.000000
_cell_volume 1631.422291
_symmetry_space_group_name_H-M "P N N M"
_symmetry_group_IT_number 58
_symmetry_cell_setting 'orthorhombic'
loop_
_space_group_symop_operation_xyz
x,y,z
-x,-y,z
1/2+x,1/2-y,1/2-z
1/2-x,1/2+y,1/2-z
-x,-y,-z
x,y,-z
1/2-x,1/2+y,1/2+z
1/2+x,1/2-y,1/2+z
loop_
_atom_site_type_symbol
_atom_site_label
_atom_site_fract_x
_atom_site_fract_y
_atom_site_fract_z
Si Si1 0.797386 0.583529 0.406492
Si Si2 0.137418 0.596993 0.907545
Si Si3 0.720496 0.811321 0.087007
Si Si4 0.452203 0.671785 0.140899
Si Si5 0.479263 0.323152 0.319514
O O1 0.802204 0.615947 0.500000
O O2 0.851915 0.444859 0.401970
O O3 0.878600 0.691892 0.359385
O O4 0.625806 0.587546 0.371658
O O5 0.319796 0.582310 0.890645
O O6 0.094522 0.693578 0.839958
O O7 0.000000 0.500000 0.902208
O O8 0.129950 0.639979 0.000000
O O9 0.601785 0.702173 0.090048
O O10 0.849340 0.804647 0.151834
O O11 0.794778 0.812268 0.000000
O O12 0.512567 0.642294 0.228122
#
# Coordination Sequence:
#
# PCOD9444628 Si02
#       5
#     8   8   8   8   8
#     4  10  21  39  62  87 122 167 208 254 319 389
#     4  10  22  43  66  84 117 173 220 252 302 381
#     4  11  21  36  62  91 118 152 202 264 320 373
#     4  11  22  37  59  92 126 157 203 264 315 362
#     4  11  22  37  57  88 128 164 200 253 321 384
#
# _framework density 24.518481000000001
#
# number of rings (size 3 to 8) (size 9 to 14) (size 15 to 20)
#    0.000    1.400    0.000    8.400    0.000    6.400 
#    0.000    3.000    0.000    3.600    0.000    0.000 
#    0.000    0.000    0.000    0.000    0.000    0.000 
#
# Total GULP energy -223228.857237 kJ/mol
# GULP energy per Si atom -5580.721431 kJ/mol
# Density = 2.446268 g / cm^3
# Si number density = 24.518481 Si / 1000 Ang^3
#
#
#
# Elastic Constant Matrix: (Units=GPa)
#
#
# Indices 1 2 3 4 5 6 
#
# 1 63.3246 29.2853 10.6705 0.0000 0.0000 0.0000
# 2 29.2853 96.5328 15.5207 0.0000 0.0000 0.0000
# 3 10.6705 15.5207 101.9691 0.0000 0.0000 0.0000
# 4 0.0000 0.0000 0.0000 -3.8346 0.0000 0.0000
# 5 0.0000 0.0000 0.0000 0.0000 56.6767 0.0000
# 6 0.0000 0.0000 0.0000 0.0000 0.0000 49.8867
#
#
#
# Elastic Compliance Matrix: (Units=1/GPa)
#
#
# Indices 1 2 3 4 5 6 
#
# 1 0.018490 -0.005431 -0.001108 0.000000 0.000000 0.000000
# 2 -0.005431 0.012214 -0.001291 0.000000 0.000000 0.000000
# 3 -0.001108 -0.001291 0.010119 0.000000 0.000000 0.000000
# 4 0.000000 0.000000 0.000000 -0.260785 0.000000 0.000000
# 5 0.000000 0.000000 0.000000 0.000000 0.017644 0.000000
# 6 0.000000 0.000000 0.000000 0.000000 0.000000 0.020045
#
#
# Mechanical properties :
#
#
# Convention : Reuss Voigt Hill
#
# Bulk Modulus (GPa) = 39.74023 41.41995 40.58009
# Shear Modulus (GPa) = -31.60081 34.30244 1.35082
#
# Velocity S-wave (km/s) = -3.59396 3.74444 0.74306
# Velocity P-wave (km/s) = 0.98924 5.96862 4.16208
#
# Compressibility (1/GPa) = 0.02516342
#
# Stress axis : x y z
#
# Youngs Moduli (GPa) = 54.08290 81.87069 98.82075
#
# Poissons Ratio (x) = 0.44466 0.10951
# Poissons Ratio (y) = 0.29374 0.12756
# Poissons Ratio (z) = 0.05994 0.10568
#
# Static dielectric constant tensor:
#      x y z
#    x 2.114830 0.000000 0.000000 
#    y 0.000000 2.032290 0.000000 
#    z 0.000000 0.000000 1.764410 
# 
# From -- ./inp_files/24931.got.cif
#   From: 2010.05.17/outbox.cif.g08.bks.cpg/sg58_13_cif.got.tgz:24931.got - 2010.06.03 14:20:14.
