data_PCOD9444064
_publ_section_title
;
Structure prediction by ZEFSAII (Michael W. Deem and Ramdas Pophale) SiO2 
 PCOD9444064
Probable space group: P N N M
;
_chemical_formula_sum "Si O2"
_cell_formula_units_Z 48
_cell_length_a 29.928530
_cell_length_b 8.930813
_cell_length_c 9.536488
_cell_angle_alpha 90.000000
_cell_angle_beta 90.000000
_cell_angle_gamma 90.000000
_cell_volume 2548.970731
_symmetry_space_group_name_H-M "P N N M"
_symmetry_group_IT_number 58
_symmetry_cell_setting 'orthorhombic'
loop_
_space_group_symop_operation_xyz
x,y,z
-x,-y,z
1/2+x,1/2-y,1/2-z
1/2-x,1/2+y,1/2-z
-x,-y,-z
x,y,-z
1/2-x,1/2+y,1/2+z
1/2+x,1/2-y,1/2+z
loop_
_atom_site_type_symbol
_atom_site_label
_atom_site_fract_x
_atom_site_fract_y
_atom_site_fract_z
Si Si1 0.691436 0.882769 0.253540
Si Si2 0.372398 0.869888 0.840973
Si Si3 0.947945 0.470108 0.168843
Si Si4 0.271134 0.424485 0.843831
Si Si5 0.656242 0.414052 0.669032
Si Si6 0.106244 0.804130 0.839907
O O1 0.722312 0.752522 0.185848
O O2 0.652575 0.791232 0.334920
O O3 0.661834 0.989884 0.155545
O O4 0.722594 0.998961 0.337034
O O5 0.350299 0.739530 0.749599
O O6 0.416505 0.919910 0.756753
O O7 0.381765 0.823205 0.000000
O O8 0.931967 0.304441 0.217319
O O9 0.000000 0.500000 0.190082
O O10 0.938767 0.483309 0.000000
O O11 0.298780 0.508140 0.723300
O O12 0.289685 0.453057 0.000000
O O13 0.655871 0.398563 0.500000
O O14 0.618129 0.533166 0.718273
O O15 0.093972 0.831893 0.000000
#
# Coordination Sequence:
#
# PCOD9444064 Si02
#       6
#     8   8   8   8   8   8
#     4  10  21  34  52  77 107 141 178 220 268 313
#     4  11  22  36  55  79 110 145 182 223 269 322
#     4   9  18  35  60  85 107 135 174 221 274 332
#     4  11  22  36  55  78 106 140 181 224 264 309
#     4  10  21  36  55  78 107 143 180 221 266 315
#     4   8  16  33  54  77 104 134 171 214 264 319
#
# _framework density 18.831130999999999
#
# number of rings (size 3 to 8) (size 9 to 14) (size 15 to 20)
#    0.000    2.167    0.000    3.000    0.000    5.667 
#    0.000    1.667    0.000    5.000    0.000    0.000 
#    0.000    0.000    0.000    0.000    0.000    0.000 
#
# Total GULP energy -267224.572297 kJ/mol
# GULP energy per Si atom -5567.178590 kJ/mol
# Density = 1.878827 g / cm^3
# Si number density = 18.831131 Si / 1000 Ang^3
#
#
#
# Elastic Constant Matrix: (Units=GPa)
#
#
# Indices 1 2 3 4 5 6 
#
# 1 63.6500 39.6885 29.4970 0.0000 0.0000 0.0000
# 2 39.6885 110.0715 42.1276 0.0000 0.0000 0.0000
# 3 29.4970 42.1276 97.0524 0.0000 0.0000 0.0000
# 4 0.0000 0.0000 0.0000 16.7742 0.0000 0.0000
# 5 0.0000 0.0000 0.0000 0.0000 2.1094 0.0000
# 6 0.0000 0.0000 0.0000 0.0000 0.0000 23.2748
#
#
#
# Elastic Compliance Matrix: (Units=1/GPa)
#
#
# Indices 1 2 3 4 5 6 
#
# 1 0.021363 -0.006257 -0.003777 0.000000 0.000000 0.000000
# 2 -0.006257 0.012728 -0.003623 0.000000 0.000000 0.000000
# 3 -0.003777 -0.003623 0.013024 0.000000 0.000000 0.000000
# 4 0.000000 0.000000 0.000000 0.059615 0.000000 0.000000
# 5 0.000000 0.000000 0.000000 0.000000 0.474069 0.000000
# 6 0.000000 0.000000 0.000000 0.000000 0.000000 0.042965
#
#
# Mechanical properties :
#
#
# Convention : Reuss Voigt Hill
#
# Bulk Modulus (GPa) = 50.50285 54.82224 52.66254
# Shear Modulus (GPa) = 7.60250 19.06241 13.33245
#
# Velocity S-wave (km/s) = 2.01146 3.18509 2.66371
# Velocity P-wave (km/s) = 5.68081 6.53469 6.12265
#
# Compressibility (1/GPa) = 0.01980086
#
# Stress axis : x y z
#
# Youngs Moduli (GPa) = 46.81026 78.56781 76.78030
#
# Poissons Ratio (x) = 0.49163 0.28997
# Poissons Ratio (y) = 0.29291 0.27818
# Poissons Ratio (z) = 0.17679 0.28465
#
# Static dielectric constant tensor:
#      x y z
#    x 1.654940 0.000000 0.000000 
#    y 0.000000 1.693110 0.000000 
#    z 0.000000 0.000000 1.648150 
# 
# From -- ./inp_files/10729.got.cif
#   From: 2010.05.17/outbox.cif.g08.bks.cpg/sg58_6_cif.got.tgz:10729.got - 2010.06.03 14:20:14.
