data_PCOD9444880
_publ_section_title
;
Structure prediction by ZEFSAII (Michael W. Deem and Ramdas Pophale) SiO2 
 PCOD9444880
Probable space group: P N N M
;
_chemical_formula_sum "Si O2"
_cell_formula_units_Z 64
_cell_length_a 18.868628
_cell_length_b 7.522878
_cell_length_c 19.577834
_cell_angle_alpha 90.000000
_cell_angle_beta 90.000000
_cell_angle_gamma 90.000000
_cell_volume 2779.002791
_symmetry_space_group_name_H-M "P N N M"
_symmetry_group_IT_number 58
_symmetry_cell_setting 'orthorhombic'
loop_
_space_group_symop_operation_xyz
x,y,z
-x,-y,z
1/2+x,1/2-y,1/2-z
1/2-x,1/2+y,1/2-z
-x,-y,-z
x,y,-z
1/2-x,1/2+y,1/2+z
1/2+x,1/2-y,1/2+z
loop_
_atom_site_type_symbol
_atom_site_label
_atom_site_fract_x
_atom_site_fract_y
_atom_site_fract_z
Si Si1 0.391992 0.869761 0.071659
Si Si2 0.527858 0.802034 0.781992
Si Si3 0.042744 0.184751 0.146451
Si Si4 0.828158 0.006093 0.079569
Si Si5 0.782852 0.676772 0.675885
Si Si6 0.947175 0.239020 0.574347
Si Si7 0.661141 0.951619 0.703452
Si Si8 0.082993 0.621662 0.076664
O O1 0.351769 0.777829 0.132461
O O2 0.471459 0.799659 0.067468
O O3 0.398895 0.083214 0.078103
O O4 0.354687 0.829832 0.000000
O O5 0.470106 0.741101 0.725748
O O6 0.548730 0.677731 0.846532
O O7 0.601494 0.835814 0.742498
O O8 0.500000 0.000000 0.804514
O O9 0.118665 0.130170 0.116517
O O10 0.995063 0.316012 0.099917
O O11 0.000000 0.000000 0.142369
O O12 0.759727 0.035640 0.127820
O O13 0.869593 0.196335 0.077755
O O14 0.813324 0.959068 0.000000
O O15 0.729312 0.835449 0.686689
O O16 0.810653 0.602252 0.747002
O O17 0.930060 0.148706 0.500000
O O18 0.620174 0.999157 0.634039
O O19 0.084823 0.552273 0.000000
#
# Coordination Sequence:
#
# PCOD9444880 Si02
#       8
#     8   8   8   8   8   8   8   8
#     4   9  16  29  51  79 102 127 171 226 266 297
#     4  11  19  34  56  79 105 139 180 224 276 320
#     4   9  18  31  51  79 107 136 173 222 269 313
#     4   9  17  29  48  76 103 135 176 217 260 305
#     4  11  20  34  50  76 112 142 172 211 265 328
#     4   9  16  29  53  81 101 123 174 234 269 301
#     4  10  22  34  52  77 105 140 178 214 266 327
#     4   8  15  31  54  74  96 130 178 226 256 296
#
# _framework density 23.029845000000002
#
# number of rings (size 3 to 8) (size 9 to 14) (size 15 to 20)
#    0.000    2.500    2.500    2.250    0.000    4.000 
#    0.000    0.000    0.000   15.000    0.000    0.000 
#    0.000    0.000    0.000    0.000    0.000    0.000 
#
# Total GULP energy -357076.568114 kJ/mol
# GULP energy per Si atom -5579.321377 kJ/mol
# Density = 2.297743 g / cm^3
# Si number density = 23.029845 Si / 1000 Ang^3
#
#
#
# Elastic Constant Matrix: (Units=GPa)
#
#
# Indices 1 2 3 4 5 6 
#
# 1 80.0843 -0.0405 23.0101 0.0000 0.0000 0.0000
# 2 -0.0405 30.8100 5.8451 0.0000 0.0000 0.0000
# 3 23.0101 5.8451 169.9839 0.0000 0.0000 0.0000
# 4 0.0000 0.0000 0.0000 6.8566 0.0000 0.0000
# 5 0.0000 0.0000 0.0000 0.0000 26.1053 0.0000
# 6 0.0000 0.0000 0.0000 0.0000 0.0000 26.9044
#
#
#
# Elastic Compliance Matrix: (Units=1/GPa)
#
#
# Indices 1 2 3 4 5 6 
#
# 1 0.012996 0.000353 -0.001771 0.000000 0.000000 0.000000
# 2 0.000353 0.032680 -0.001172 0.000000 0.000000 0.000000
# 3 -0.001771 -0.001172 0.006163 0.000000 0.000000 0.000000
# 4 0.000000 0.000000 0.000000 0.145844 0.000000 0.000000
# 5 0.000000 0.000000 0.000000 0.000000 0.038306 0.000000
# 6 0.000000 0.000000 0.000000 0.000000 0.000000 0.037169
#
#
# Mechanical properties :
#
#
# Convention : Reuss Voigt Hill
#
# Bulk Modulus (GPa) = 21.43200 37.61195 29.52197
# Shear Modulus (GPa) = 17.01313 28.77747 22.89530
#
# Velocity S-wave (km/s) = 2.72093 3.53877 3.15645
# Velocity P-wave (km/s) = 4.38152 5.75017 5.11185
#
# Compressibility (1/GPa) = 0.04665920
#
# Stress axis : x y z
#
# Youngs Moduli (GPa) = 76.94686 30.59999 162.25916
#
# Poissons Ratio (x) = -0.01081 0.28742
# Poissons Ratio (y) = -0.02717 0.19009
# Poissons Ratio (z) = 0.13630 0.03585
#
# Static dielectric constant tensor:
#      x y z
#    x 1.878350 0.000000 0.000000 
#    y 0.000000 1.902850 0.000000 
#    z 0.000000 0.000000 1.959830 
# 
# From -- ./inp_files/30304.got.cif
#   From: 2010.05.17/outbox.cif.g08.bks.cpg/sg58_16_cif.got.tgz:30304.got - 2010.06.03 14:20:14.
