data_PCOD9444680
_publ_section_title
;
Structure prediction by ZEFSAII (Michael W. Deem and Ramdas Pophale) SiO2 
 PCOD9444680
Probable space group: P N N M
;
_chemical_formula_sum "Si O2"
_cell_formula_units_Z 36
_cell_length_a 12.583395
_cell_length_b 8.098510
_cell_length_c 14.759106
_cell_angle_alpha 90.000000
_cell_angle_beta 90.000000
_cell_angle_gamma 90.000000
_cell_volume 1504.052529
_symmetry_space_group_name_H-M "P N N M"
_symmetry_group_IT_number 58
_symmetry_cell_setting 'orthorhombic'
loop_
_space_group_symop_operation_xyz
x,y,z
-x,-y,z
1/2+x,1/2-y,1/2-z
1/2-x,1/2+y,1/2-z
-x,-y,-z
x,y,-z
1/2-x,1/2+y,1/2+z
1/2+x,1/2-y,1/2+z
loop_
_atom_site_type_symbol
_atom_site_label
_atom_site_fract_x
_atom_site_fract_y
_atom_site_fract_z
Si Si1 0.570119 0.772818 0.000000
Si Si2 0.798548 0.972280 0.000000
Si Si3 0.119792 0.156426 0.818144
Si Si4 0.940358 0.327057 0.704894
Si Si5 0.814863 0.813029 0.500000
Si Si6 0.244276 0.499440 0.819481
O O1 0.680147 0.886514 0.000000
O O2 0.579925 0.733694 0.890705
O O3 0.437099 0.755312 0.000000
O O4 0.869803 0.922432 0.915400
O O5 0.766009 0.161720 0.000000
O O6 0.194067 0.319764 0.826508
O O7 0.161245 0.015695 0.751116
O O8 0.015992 0.228313 0.772110
O O9 0.844175 0.390159 0.767228
O O10 0.000000 0.500000 0.674676
O O11 0.785729 0.921726 0.587609
#
# Coordination Sequence:
#
# PCOD9444680 Si02
#       6
#     4   4   8   8   4   8
#     4  12  21  38  67  96 123 166 213 248 309 388
#     4  12  24  42  67  93 126 167 211 260 311 371
#     4  11  23  41  64  94 128 165 209 258 313 373
#     4  10  21  39  65  91 124 169 209 248 308 387
#     4  12  24  42  67  93 126 167 211 260 311 371
#     4  11  23  41  64  94 128 165 209 258 313 373
#
# _framework density 23.935334000000001
#
# number of rings (size 3 to 8) (size 9 to 14) (size 15 to 20)
#    0.000    0.889    4.444    4.000    0.000    0.889 
#    0.000   13.333    0.000    0.000    0.000    0.000 
#    0.000    0.000    0.000    0.000    0.000    0.000 
#
# Total GULP energy -200705.527752 kJ/mol
# GULP energy per Si atom -5575.153549 kJ/mol
# Density = 2.388086 g / cm^3
# Si number density = 23.935334 Si / 1000 Ang^3
#
#
#
# Elastic Constant Matrix: (Units=GPa)
#
#
# Indices 1 2 3 4 5 6 
#
# 1 89.9166 46.1675 46.0798 0.0000 0.0000 0.0000
# 2 46.1675 84.8665 71.1787 0.0000 0.0000 0.0000
# 3 46.0798 71.1787 258.9341 0.0000 0.0000 0.0000
# 4 0.0000 0.0000 0.0000 27.8715 0.0000 0.0000
# 5 0.0000 0.0000 0.0000 0.0000 18.3435 0.0000
# 6 0.0000 0.0000 0.0000 0.0000 0.0000 37.4337
#
#
#
# Elastic Compliance Matrix: (Units=1/GPa)
#
#
# Indices 1 2 3 4 5 6 
#
# 1 0.015497 -0.007950 -0.000572 0.000000 0.000000 0.000000
# 2 -0.007950 0.019393 -0.003916 0.000000 0.000000 0.000000
# 3 -0.000572 -0.003916 0.005040 0.000000 0.000000 0.000000
# 4 0.000000 0.000000 0.000000 0.035879 0.000000 0.000000
# 5 0.000000 0.000000 0.000000 0.000000 0.054515 0.000000
# 6 0.000000 0.000000 0.000000 0.000000 0.000000 0.026714
#
#
# Mechanical properties :
#
#
# Convention : Reuss Voigt Hill
#
# Bulk Modulus (GPa) = 66.43436 84.50768 75.47102
# Shear Modulus (GPa) = 26.74765 34.74915 30.74840
#
# Velocity S-wave (km/s) = 3.34652 3.81437 3.58808
# Velocity P-wave (km/s) = 6.53822 7.40153 6.98323
#
# Compressibility (1/GPa) = 0.01505245
#
# Stress axis : x y z
#
# Youngs Moduli (GPa) = 64.52965 51.56615 198.39994
#
# Poissons Ratio (x) = 0.40996 0.11355
# Poissons Ratio (y) = 0.51302 0.77694
# Poissons Ratio (z) = 0.03693 0.20193
#
# Static dielectric constant tensor:
#      x y z
#    x 1.548020 0.000000 0.000000 
#    y 0.000000 1.933220 0.000000 
#    z 0.000000 0.000000 1.846100 
# 
# From -- ./inp_files/21856.got.cif
#   From: 2010.05.17/outbox.cif.g08.bks.cpg/sg58_11_cif.got.tgz:21856.got - 2010.06.03 14:20:14.
