data_PCOD9444258
_publ_section_title
;
Structure prediction by ZEFSAII (Michael W. Deem and Ramdas Pophale) SiO2 
 PCOD9444258
Probable space group: P N N M
;
_chemical_formula_sum "Si O2"
_cell_formula_units_Z 44
_cell_length_a 18.088653
_cell_length_b 17.511096
_cell_length_c 7.449815
_cell_angle_alpha 90.000000
_cell_angle_beta 90.000000
_cell_angle_gamma 90.000000
_cell_volume 2359.744838
_symmetry_space_group_name_H-M "P N N M"
_symmetry_group_IT_number 58
_symmetry_cell_setting 'orthorhombic'
loop_
_space_group_symop_operation_xyz
x,y,z
-x,-y,z
1/2+x,1/2-y,1/2-z
1/2-x,1/2+y,1/2-z
-x,-y,-z
x,y,-z
1/2-x,1/2+y,1/2+z
1/2+x,1/2-y,1/2+z
loop_
_atom_site_type_symbol
_atom_site_label
_atom_site_fract_x
_atom_site_fract_y
_atom_site_fract_z
Si Si1 0.458156 0.214972 0.290507
Si Si2 0.328194 0.468906 0.000000
Si Si3 0.864739 0.733065 0.790754
Si Si4 0.691564 0.074640 0.706010
Si Si5 0.947552 0.160518 0.500000
Si Si6 0.123918 0.142895 0.500000
Si Si7 0.925768 0.454703 0.781188
O O1 0.439377 0.224967 0.500000
O O2 0.547789 0.213158 0.277460
O O3 0.432098 0.285559 0.171138
O O4 0.428659 0.133216 0.223454
O O5 0.275876 0.448126 0.170358
O O6 0.398755 0.414904 0.000000
O O7 0.345869 0.557781 0.000000
O O8 0.821631 0.658601 0.718425
O O9 0.851753 0.807549 0.671843
O O10 0.846829 0.747155 0.000000
O O11 0.661091 0.083912 0.500000
O O12 0.643208 0.005656 0.781785
O O13 0.034532 0.140934 0.500000
O O14 0.000000 0.500000 0.730298
O O15 0.924970 0.450227 0.000000
#
# Coordination Sequence:
#
# PCOD9444258 Si02
#       7
#     8   4   8   8   4   4   8
#     4   9  17  30  55  85 106 133 180 223 269 319
#     4  10  21  38  51  75 112 150 182 216 272 315
#     4   9  16  33  56  81 106 136 174 222 274 314
#     4   8  16  30  51  75 106 146 166 206 278 326
#     4  10  21  38  54  77 106 144 188 231 262 293
#     4  10  21  36  61  79  99 143 195 224 251 319
#     4   9  13  24  49  79 108 135 169 211 262 330
#
# _framework density 18.646083000000001
#
# number of rings (size 3 to 8) (size 9 to 14) (size 15 to 20)
#    0.545    2.364    1.818    0.273    0.000    0.000 
#    3.273    2.273    2.000    4.364    0.000    0.000 
#    0.000    0.000    0.000    0.000    0.000    0.000 
#
# Total GULP energy -245086.483016 kJ/mol
# GULP energy per Si atom -5570.147341 kJ/mol
# Density = 1.860364 g / cm^3
# Si number density = 18.646083 Si / 1000 Ang^3
#
#
#
# Elastic Constant Matrix: (Units=GPa)
#
#
# Indices 1 2 3 4 5 6 
#
# 1 39.5706 53.7109 20.4349 0.0000 0.0000 0.0000
# 2 53.7109 189.5567 53.9880 0.0000 0.0000 0.0000
# 3 20.4349 53.9880 76.6794 0.0000 0.0000 0.0000
# 4 0.0000 0.0000 0.0000 23.0904 0.0000 0.0000
# 5 0.0000 0.0000 0.0000 0.0000 1.3093 0.0000
# 6 0.0000 0.0000 0.0000 0.0000 0.0000 25.1103
#
#
#
# Elastic Compliance Matrix: (Units=1/GPa)
#
#
# Indices 1 2 3 4 5 6 
#
# 1 0.041804 -0.010847 -0.003503 0.000000 0.000000 0.000000
# 2 -0.010847 0.009413 -0.003737 0.000000 0.000000 0.000000
# 3 -0.003503 -0.003737 0.016606 0.000000 0.000000 0.000000
# 4 0.000000 0.000000 0.000000 0.043308 0.000000 0.000000
# 5 0.000000 0.000000 0.000000 0.000000 0.763777 0.000000
# 6 0.000000 0.000000 0.000000 0.000000 0.000000 0.039824
#
#
# Mechanical properties :
#
#
# Convention : Reuss Voigt Hill
#
# Bulk Modulus (GPa) = 31.59732 62.45270 47.02501
# Shear Modulus (GPa) = 5.20044 21.74686 13.47365
#
# Velocity S-wave (km/s) = 1.67185 3.41881 2.69104
# Velocity P-wave (km/s) = 4.55076 7.01077 5.91017
#
# Compressibility (1/GPa) = 0.03164825
#
# Stress axis : x y z
#
# Youngs Moduli (GPa) = 23.92104 106.23147 60.21913
#
# Poissons Ratio (x) = 1.15234 0.21097
# Poissons Ratio (y) = 0.25948 0.22503
# Poissons Ratio (z) = 0.08380 0.39698
#
# Static dielectric constant tensor:
#      x y z
#    x 1.628410 0.000000 0.000000 
#    y 0.000000 1.631020 0.000000 
#    z 0.000000 0.000000 1.691460 
# 
# From -- ./inp_files/7696.got.cif
#   From: 2010.05.17/outbox.cif.g08.bks.cpg/sg58_4_cif.got.tgz:7696.got - 2010.06.03 14:20:14.
