data_PCOD9444921
_publ_section_title
;
Structure prediction by ZEFSAII (Michael W. Deem and Ramdas Pophale) SiO2 
 PCOD9444921
Probable space group: P N N M
;
_chemical_formula_sum "Si O2"
_cell_formula_units_Z 48
_cell_length_a 21.398445
_cell_length_b 11.656040
_cell_length_c 10.250562
_cell_angle_alpha 90.000000
_cell_angle_beta 90.000000
_cell_angle_gamma 90.000000
_cell_volume 2556.706766
_symmetry_space_group_name_H-M "P N N M"
_symmetry_group_IT_number 58
_symmetry_cell_setting 'orthorhombic'
loop_
_space_group_symop_operation_xyz
x,y,z
-x,-y,z
1/2+x,1/2-y,1/2-z
1/2-x,1/2+y,1/2-z
-x,-y,-z
x,y,-z
1/2-x,1/2+y,1/2+z
1/2+x,1/2-y,1/2+z
loop_
_atom_site_type_symbol
_atom_site_label
_atom_site_fract_x
_atom_site_fract_y
_atom_site_fract_z
Si Si1 0.454522 0.896552 0.852662
Si Si2 0.425992 0.477350 0.650471
Si Si3 0.634859 0.694845 0.151113
Si Si4 0.895205 0.765696 0.152866
Si Si5 0.724387 0.103692 0.351576
Si Si6 0.667803 0.949800 0.145200
O O1 0.444874 0.796171 0.748257
O O2 0.500000 0.000000 0.811548
O O3 0.387187 0.957149 0.862821
O O4 0.473255 0.858995 0.000000
O O5 0.500000 0.500000 0.658940
O O6 0.411477 0.446125 0.500000
O O7 0.405052 0.380289 0.750303
O O8 0.392883 0.599092 0.680742
O O9 0.706900 0.655134 0.160713
O O10 0.636272 0.829686 0.182297
O O11 0.614869 0.680519 0.000000
O O12 0.828552 0.701699 0.169384
O O13 0.913309 0.753197 0.000000
O O14 0.715625 0.062176 0.500000
O O15 0.714687 0.000729 0.250432
O O16 0.695716 0.934552 0.000000
#
# Coordination Sequence:
#
# PCOD9444921 Si02
#       6
#     8   8   8   8   8   8
#     4   9  18  32  53  80 107 137 177 224 270 322
#     4  10  23  40  57  82 114 151 193 229 274 336
#     4  10  22  37  57  83 110 144 184 228 278 335
#     4   9  19  36  56  77 107 145 180 225 276 325
#     4   9  19  36  56  81 108 138 181 227 276 332
#     4   9  19  35  54  79 109 141 179 223 276 328
#
# _framework density 18.774151
#
# number of rings (size 3 to 8) (size 9 to 14) (size 15 to 20)
#    0.000    2.667    0.000    0.000    4.667    2.667 
#    0.000    0.000    0.000    0.000    0.000    0.000 
#    0.000    0.000    0.000    0.000    0.000    0.000 
#
# Total GULP energy -267695.183502 kJ/mol
# GULP energy per Si atom -5576.982990 kJ/mol
# Density = 1.873142 g / cm^3
# Si number density = 18.774151 Si / 1000 Ang^3
#
#
#
# Elastic Constant Matrix: (Units=GPa)
#
#
# Indices 1 2 3 4 5 6 
#
# 1 25.5844 2.4583 19.7973 0.0000 0.0000 0.0000
# 2 2.4583 99.8383 69.2580 0.0000 0.0000 0.0000
# 3 19.7973 69.2580 75.3889 0.0000 0.0000 0.0000
# 4 0.0000 0.0000 0.0000 -40.3215 0.0000 0.0000
# 5 0.0000 0.0000 0.0000 0.0000 13.1253 0.0000
# 6 0.0000 0.0000 0.0000 0.0000 0.0000 10.2520
#
#
#
# Elastic Compliance Matrix: (Units=1/GPa)
#
#
# Indices 1 2 3 4 5 6 
#
# 1 0.073781 0.032047 -0.048816 0.000000 0.000000 0.000000
# 2 0.032047 0.041534 -0.046572 0.000000 0.000000 0.000000
# 3 -0.048816 -0.046572 0.068868 0.000000 0.000000 0.000000
# 4 0.000000 0.000000 0.000000 -0.024801 0.000000 0.000000
# 5 0.000000 0.000000 0.000000 0.000000 0.076189 0.000000
# 6 0.000000 0.000000 0.000000 0.000000 0.000000 0.097542
#
#
# Mechanical properties :
#
#
# Convention : Reuss Voigt Hill
#
# Bulk Modulus (GPa) = 17.39083 42.64876 30.01980
# Shear Modulus (GPa) = 10.43923 3.89772 7.16848
#
# Velocity S-wave (km/s) = 2.36061 1.44243 1.95616
# Velocity P-wave (km/s) = 4.08819 5.05373 4.59638
#
# Compressibility (1/GPa) = 0.05750157
#
# Stress axis : x y z
#
# Youngs Moduli (GPa) = 13.55363 24.07650 14.52044
#
# Poissons Ratio (x) = -0.77158 0.70883
# Poissons Ratio (y) = -0.43435 0.67625
# Poissons Ratio (z) = 0.66163 1.12129
#
# Static dielectric constant tensor:
#      x y z
#    x 1.669640 0.000000 0.000000 
#    y 0.000000 1.625510 0.000000 
#    z 0.000000 0.000000 1.664270 
# 
# From -- ./inp_files/4223.got.cif
#   From: 2010.05.17/outbox.cif.g08.bks.cpg/sg58_3_cif.got.tgz:4223.got - 2010.06.03 14:20:14.
