data_PCOD9444615
_publ_section_title
;
Structure prediction by ZEFSAII (Michael W. Deem and Ramdas Pophale) SiO2 
 PCOD9444615
Probable space group: P N N M
;
_chemical_formula_sum "Si O2"
_cell_formula_units_Z 64
_cell_length_a 24.808098
_cell_length_b 15.768065
_cell_length_c 7.792367
_cell_angle_alpha 90.000000
_cell_angle_beta 90.000000
_cell_angle_gamma 90.000000
_cell_volume 3048.184630
_symmetry_space_group_name_H-M "P N N M"
_symmetry_group_IT_number 58
_symmetry_cell_setting 'orthorhombic'
loop_
_space_group_symop_operation_xyz
x,y,z
-x,-y,z
1/2+x,1/2-y,1/2-z
1/2-x,1/2+y,1/2-z
-x,-y,-z
x,y,-z
1/2-x,1/2+y,1/2+z
1/2+x,1/2-y,1/2+z
loop_
_atom_site_type_symbol
_atom_site_label
_atom_site_fract_x
_atom_site_fract_y
_atom_site_fract_z
Si Si1 0.241118 0.396554 0.792127
Si Si2 0.369101 0.667305 0.799815
Si Si3 0.978842 0.907761 0.208038
Si Si4 0.121464 0.352702 0.195501
Si Si5 0.255170 0.590575 0.790393
Si Si6 0.557254 0.741528 0.298106
Si Si7 0.992936 0.592949 0.697170
Si Si8 0.179014 0.742384 0.205582
O O1 0.180671 0.373115 0.734639
O O2 0.251448 0.492988 0.734146
O O3 0.283933 0.325084 0.737633
O O4 0.241307 0.395364 0.000000
O O5 0.419189 0.605364 0.779058
O O6 0.383002 0.751582 0.697215
O O7 0.313026 0.627988 0.740274
O O8 0.363170 0.690800 0.000000
O O9 0.018776 0.833135 0.271523
O O10 0.975926 0.902793 0.000000
O O11 0.000000 0.000000 0.255182
O O12 0.070374 0.387206 0.295387
O O13 0.118022 0.384959 0.000000
O O14 0.209505 0.657189 0.730937
O O15 0.253230 0.589193 0.000000
O O16 0.563139 0.722705 0.500000
O O17 0.526283 0.830691 0.280300
O O18 0.618083 0.746549 0.226299
O O19 0.011417 0.589574 0.500000
O O20 0.000000 0.500000 0.776352
O O21 0.175109 0.732317 0.000000
#
# Coordination Sequence:
#
# PCOD9444615 Si02
#       8
#     8   8   8   8   8   8   8   8
#     4  10  22  39  60  87 118 154 197 244 293 349
#     4  11  21  37  62  87 117 155 197 245 300 355
#     4  10  22  39  58  86 122 156 198 248 293 346
#     4  11  22  38  63  89 116 153 201 250 297 349
#     4   9  20  38  58  84 118 154 192 238 290 350
#     4  10  22  39  61  87 118 161 201 239 292 351
#     4  11  25  42  61  88 122 157 195 245 301 352
#     4  10  21  39  61  85 118 156 196 239 291 350
#
# _framework density 20.996103000000002
#
# number of rings (size 3 to 8) (size 9 to 14) (size 15 to 20)
#    0.000    1.750    2.500    1.125    3.500    2.250 
#    0.000    1.250    0.000    0.000    0.000    0.000 
#    0.000    0.000    0.000    0.000    0.000    0.000 
#
# Total GULP energy -357473.129063 kJ/mol
# GULP energy per Si atom -5585.517642 kJ/mol
# Density = 2.094832 g / cm^3
# Si number density = 20.996103 Si / 1000 Ang^3
#
#
#
# Elastic Constant Matrix: (Units=GPa)
#
#
# Indices 1 2 3 4 5 6 
#
# 1 110.8262 12.2131 7.1732 0.0000 0.0000 0.0000
# 2 12.2131 88.2827 1.4618 0.0000 0.0000 0.0000
# 3 7.1732 1.4618 25.4493 0.0000 0.0000 0.0000
# 4 0.0000 0.0000 0.0000 -13.8831 0.0000 0.0000
# 5 0.0000 0.0000 0.0000 0.0000 32.6639 0.0000
# 6 0.0000 0.0000 0.0000 0.0000 0.0000 34.8984
#
#
#
# Elastic Compliance Matrix: (Units=1/GPa)
#
#
# Indices 1 2 3 4 5 6 
#
# 1 0.009326 -0.001248 -0.002557 0.000000 0.000000 0.000000
# 2 -0.001248 0.011505 -0.000309 0.000000 0.000000 0.000000
# 3 -0.002557 -0.000309 0.040032 0.000000 0.000000 0.000000
# 4 0.000000 0.000000 0.000000 -0.072030 0.000000 0.000000
# 5 0.000000 0.000000 0.000000 0.000000 0.030615 0.000000
# 6 0.000000 0.000000 0.000000 0.000000 0.000000 0.028655
#
#
# Mechanical properties :
#
#
# Convention : Reuss Voigt Hill
#
# Bulk Modulus (GPa) = 18.99858 29.58382 24.29120
# Shear Modulus (GPa) = 67.68122 24.31654 45.99888
#
# Velocity S-wave (km/s) = 5.68376 3.40685 4.68571
# Velocity P-wave (km/s) = 7.22092 5.44024 6.39288
#
# Compressibility (1/GPa) = 0.05263552
#
# Stress axis : x y z
#
# Youngs Moduli (GPa) = 107.22536 86.91873 24.97981
#
# Poissons Ratio (x) = 0.10846 0.06387
# Poissons Ratio (y) = 0.13380 0.00772
# Poissons Ratio (z) = 0.27418 0.02687
#
# Static dielectric constant tensor:
#      x y z
#    x 2.097830 0.000000 0.000000 
#    y 0.000000 1.737450 0.000000 
#    z 0.000000 0.000000 1.795180 
# 
# From -- ./inp_files/10054.got.cif
#   From: 2010.05.17/outbox.cif.g08.bks.cpg/sg58_6_cif.got.tgz:10054.got - 2010.06.03 14:20:14.
