data_PCOD9444289
_publ_section_title
;
Structure prediction by ZEFSAII (Michael W. Deem and Ramdas Pophale) SiO2 
 PCOD9444289
Probable space group: P N N M
;
_chemical_formula_sum "Si O2"
_cell_formula_units_Z 48
_cell_length_a 11.602305
_cell_length_b 13.903272
_cell_length_c 14.219319
_cell_angle_alpha 90.000000
_cell_angle_beta 90.000000
_cell_angle_gamma 90.000000
_cell_volume 2293.718380
_symmetry_space_group_name_H-M "P N N M"
_symmetry_group_IT_number 58
_symmetry_cell_setting 'orthorhombic'
loop_
_space_group_symop_operation_xyz
x,y,z
-x,-y,z
1/2+x,1/2-y,1/2-z
1/2-x,1/2+y,1/2-z
-x,-y,-z
x,y,-z
1/2-x,1/2+y,1/2+z
1/2+x,1/2-y,1/2+z
loop_
_atom_site_type_symbol
_atom_site_label
_atom_site_fract_x
_atom_site_fract_y
_atom_site_fract_z
Si Si1 0.636072 0.019538 0.391657
Si Si2 0.502552 0.610119 0.113287
Si Si3 0.253651 0.285047 0.889380
Si Si4 0.329667 0.147335 0.748846
Si Si5 0.977371 0.612019 0.395232
Si Si6 0.210271 0.251052 0.608641
O O1 0.679933 0.000760 0.500000
O O2 0.687446 0.950209 0.311057
O O3 0.500000 0.000000 0.391899
O O4 0.662123 0.130613 0.370979
O O5 0.500000 0.500000 0.149452
O O6 0.623203 0.663567 0.133592
O O7 0.392505 0.676644 0.138151
O O8 0.497777 0.603481 0.000000
O O9 0.242279 0.188965 0.827675
O O10 0.250751 0.262792 0.000000
O O11 0.446253 0.142451 0.807671
O O12 0.320867 0.228969 0.669711
O O13 0.007802 0.653958 0.500000
O O14 0.000000 0.500000 0.401867
O O15 0.846937 0.644814 0.379519
O O16 0.235586 0.235134 0.500000
#
# Coordination Sequence:
#
# PCOD9444289 Si02
#       6
#     8   8   8   8   8   8
#     4  10  23  41  59  85 126 164 198 249 314 372
#     4   9  16  31  54  77 106 142 182 228 288 353
#     4  10  21  37  57  84 116 154 198 251 304 358
#     4  12  22  33  62  87 116 148 209 250 295 364
#     4  10  22  41  62  85 120 160 201 252 306 358
#     4  10  21  37  55  84 120 154 190 244 306 360
#
# _framework density 20.926718000000001
#
# number of rings (size 3 to 8) (size 9 to 14) (size 15 to 20)
#    0.000    1.833    1.667    2.500    4.667    2.667 
#    0.000    0.000    0.000    0.000    0.000    0.000 
#    0.000   13.333    0.000    0.000    0.000    0.000 
#
# Total GULP energy -267624.213936 kJ/mol
# GULP energy per Si atom -5575.504457 kJ/mol
# Density = 2.087909 g / cm^3
# Si number density = 20.926718 Si / 1000 Ang^3
#
#
#
# Elastic Constant Matrix: (Units=GPa)
#
#
# Indices 1 2 3 4 5 6 
#
# 1 42.5440 6.9437 34.1327 0.0000 0.0000 0.0000
# 2 6.9437 86.7158 41.9754 0.0000 0.0000 0.0000
# 3 34.1327 41.9754 134.8269 0.0000 0.0000 0.0000
# 4 0.0000 0.0000 0.0000 32.7101 0.0000 0.0000
# 5 0.0000 0.0000 0.0000 0.0000 21.7044 0.0000
# 6 0.0000 0.0000 0.0000 0.0000 0.0000 20.0942
#
#
#
# Elastic Compliance Matrix: (Units=1/GPa)
#
#
# Indices 1 2 3 4 5 6 
#
# 1 0.029657 0.001483 -0.007970 0.000000 0.000000 0.000000
# 2 0.001483 0.013652 -0.004626 0.000000 0.000000 0.000000
# 3 -0.007970 -0.004626 0.010875 0.000000 0.000000 0.000000
# 4 0.000000 0.000000 0.000000 0.030572 0.000000 0.000000
# 5 0.000000 0.000000 0.000000 0.000000 0.046074 0.000000
# 6 0.000000 0.000000 0.000000 0.000000 0.000000 0.049766
#
#
# Mechanical properties :
#
#
# Convention : Reuss Voigt Hill
#
# Bulk Modulus (GPa) = 31.28995 47.79890 39.54442
# Shear Modulus (GPa) = 23.42221 26.97075 25.19648
#
# Velocity S-wave (km/s) = 3.34915 3.59391 3.47368
# Velocity P-wave (km/s) = 5.47178 6.33342 5.91830
#
# Compressibility (1/GPa) = 0.03195915
#
# Stress axis : x y z
#
# Youngs Moduli (GPa) = 33.71881 73.24757 91.95693
#
# Poissons Ratio (x) = -0.10863 0.73287
# Poissons Ratio (y) = -0.05001 0.42537
# Poissons Ratio (z) = 0.26873 0.33883
#
# Static dielectric constant tensor:
#      x y z
#    x 1.785000 0.000000 0.000000 
#    y 0.000000 1.814620 0.000000 
#    z 0.000000 0.000000 1.794450 
# 
# From -- ./inp_files/22267.got.cif
#   From: 2010.05.17/outbox.cif.g08.bks.cpg/sg58_12_cif.got.tgz:22267.got - 2010.06.03 14:20:14.
