data_PCOD9444188
_publ_section_title
;
Structure prediction by ZEFSAII (Michael W. Deem and Ramdas Pophale) SiO2 
 PCOD9444188
Probable space group: P N N M
;
_chemical_formula_sum "Si O2"
_cell_formula_units_Z 56
_cell_length_a 16.397528
_cell_length_b 20.544250
_cell_length_c 8.647496
_cell_angle_alpha 90.000000
_cell_angle_beta 90.000000
_cell_angle_gamma 90.000000
_cell_volume 2913.124477
_symmetry_space_group_name_H-M "P N N M"
_symmetry_group_IT_number 58
_symmetry_cell_setting 'orthorhombic'
loop_
_space_group_symop_operation_xyz
x,y,z
-x,-y,z
1/2+x,1/2-y,1/2-z
1/2-x,1/2+y,1/2-z
-x,-y,-z
x,y,-z
1/2-x,1/2+y,1/2+z
1/2+x,1/2-y,1/2+z
loop_
_atom_site_type_symbol
_atom_site_label
_atom_site_fract_x
_atom_site_fract_y
_atom_site_fract_z
Si Si1 0.748471 0.465012 0.815231
Si Si2 0.993875 0.324349 0.186955
Si Si3 0.828304 0.097612 0.686810
Si Si4 0.924111 0.455214 0.315212
Si Si5 0.520856 0.675790 0.686087
Si Si6 0.681241 0.190080 0.688007
Si Si7 0.333139 0.662927 0.313448
O O1 0.689489 0.523738 0.763577
O O2 0.839607 0.478488 0.757183
O O3 0.718293 0.395918 0.753320
O O4 0.749044 0.463711 0.000000
O O5 0.942637 0.381763 0.261848
O O6 0.965959 0.251490 0.231156
O O7 0.089432 0.330001 0.233372
O O8 0.989549 0.329397 0.000000
O O9 0.829076 0.098955 0.500000
O O10 0.911506 0.128642 0.746082
O O11 0.752207 0.142165 0.740562
O O12 0.918196 0.457827 0.500000
O O13 0.000000 0.500000 0.264727
O O14 0.524199 0.673543 0.500000
O O15 0.428469 0.657489 0.731595
O O16 0.681166 0.189659 0.500000
O O17 0.695235 0.264931 0.736196
O O18 0.328999 0.660830 0.500000
#
# Coordination Sequence:
#
# PCOD9444188 Si02
#       7
#     8   8   8   8   8   8   8
#     4  11  24  39  57  84 116 152 194 238 288 342
#     4   9  18  36  60  84 112 146 189 235 283 342
#     4  10  21  36  56  82 112 149 193 238 285 338
#     4  11  24  39  57  84 118 153 191 234 286 346
#     4   9  20  37  58  85 114 148 190 237 287 340
#     4   8  16  34  59  82 108 147 189 230 282 338
#     4   9  19  38  60  82 112 149 190 236 287 343
#
# _framework density 19.223347
#
# number of rings (size 3 to 8) (size 9 to 14) (size 15 to 20)
#    0.000    2.429    0.000    3.429    2.000    5.143 
#    0.000    5.714    0.000    0.000    0.000    0.000 
#    0.000    0.000    0.000    0.000    0.000    0.000 
#
# Total GULP energy -312674.647595 kJ/mol
# GULP energy per Si atom -5583.475850 kJ/mol
# Density = 1.917959 g / cm^3
# Si number density = 19.223347 Si / 1000 Ang^3
#
#
#
# Elastic Constant Matrix: (Units=GPa)
#
#
# Indices 1 2 3 4 5 6 
#
# 1 26.9799 9.5932 5.2043 0.0000 0.0000 0.0000
# 2 9.5932 53.0276 9.0859 0.0000 0.0000 0.0000
# 3 5.2043 9.0859 10.0843 0.0000 0.0000 0.0000
# 4 0.0000 0.0000 0.0000 -1.9884 0.0000 0.0000
# 5 0.0000 0.0000 0.0000 0.0000 29.0575 0.0000
# 6 0.0000 0.0000 0.0000 0.0000 0.0000 35.8213
#
#
#
# Elastic Compliance Matrix: (Units=1/GPa)
#
#
# Indices 1 2 3 4 5 6 
#
# 1 0.042092 -0.004603 -0.017575 0.000000 0.000000 0.000000
# 2 -0.004603 0.022804 -0.018171 0.000000 0.000000 0.000000
# 3 -0.017575 -0.018171 0.124606 0.000000 0.000000 0.000000
# 4 0.000000 0.000000 0.000000 -0.502925 0.000000 0.000000
# 5 0.000000 0.000000 0.000000 0.000000 0.034414 0.000000
# 6 0.000000 0.000000 0.000000 0.000000 0.000000 0.027916
#
#
# Mechanical properties :
#
#
# Convention : Reuss Voigt Hill
#
# Bulk Modulus (GPa) = 9.19088 15.31761 12.25424
# Shear Modulus (GPa) = -37.27836 16.99199 -10.14319
#
# Velocity S-wave (km/s) = -4.40844 2.97631 -2.29955
# Velocity P-wave (km/s) = 4.59575 4.44936 0.81369
#
# Compressibility (1/GPa) = 0.10880355
#
# Stress axis : x y z
#
# Youngs Moduli (GPa) = 23.75773 43.85138 8.02529
#
# Poissons Ratio (x) = 0.20187 0.14104
# Poissons Ratio (y) = 0.10937 0.14583
# Poissons Ratio (z) = 0.41754 0.79681
#
# Static dielectric constant tensor:
#      x y z
#    x 1.655250 0.000000 0.000000 
#    y 0.000000 1.662480 0.000000 
#    z 0.000000 0.000000 1.653560 
# 
# From -- ./inp_files/6405.got.cif
#   From: 2010.05.17/outbox.cif.g08.bks.cpg/sg58_4_cif.got.tgz:6405.got - 2010.06.03 14:20:14.
