data_PCOD9444883
_publ_section_title
;
Structure prediction by ZEFSAII (Michael W. Deem and Ramdas Pophale) SiO2 
 PCOD9444883
Probable space group: P N N M
;
_chemical_formula_sum "Si O2"
_cell_formula_units_Z 28
_cell_length_a 27.239726
_cell_length_b 7.150488
_cell_length_c 5.656512
_cell_angle_alpha 90.000000
_cell_angle_beta 90.000000
_cell_angle_gamma 90.000000
_cell_volume 1101.760326
_symmetry_space_group_name_H-M "P N N M"
_symmetry_group_IT_number 58
_symmetry_cell_setting 'orthorhombic'
loop_
_space_group_symop_operation_xyz
x,y,z
-x,-y,z
1/2+x,1/2-y,1/2-z
1/2-x,1/2+y,1/2-z
-x,-y,-z
x,y,-z
1/2-x,1/2+y,1/2+z
1/2+x,1/2-y,1/2+z
loop_
_atom_site_type_symbol
_atom_site_label
_atom_site_fract_x
_atom_site_fract_y
_atom_site_fract_z
Si Si1 0.905179 0.670820 0.751708
Si Si2 0.857622 0.979558 0.500000
Si Si3 0.983619 0.217400 0.752403
Si Si4 0.792897 0.301402 0.500000
Si Si5 0.238270 0.275285 0.500000
O O1 0.890367 0.587688 0.500000
O O2 0.887329 0.887459 0.718219
O O3 0.964176 0.674748 0.756172
O O4 0.885297 0.599299 0.000000
O O5 0.804442 0.879703 0.500000
O O6 0.844910 0.194783 0.500000
O O7 0.959319 0.252481 0.500000
O O8 0.957385 0.257282 0.000000
O O9 0.000000 0.000000 0.753293
O O10 0.787074 0.523079 0.500000
O O11 0.767727 0.242617 0.247852
#
# Coordination Sequence:
#
# PCOD9444883 Si02
#       5
#     8   4   8   4   4
#     4   8  16  26  42  66  94 128 156 200 250 287
#     4  10  22  34  57  70 110 122 178 202 273 292
#     4   8  12  20  34  56  88 122 156 190 232 284
#     4  12  24  40  58  79 101 135 174 219 263 317
#     4  12  24  40  58  79 101 135 174 219 263 317
#
# _framework density 25.413875999999998
#
# number of rings (size 3 to 8) (size 9 to 14) (size 15 to 20)
#    0.857    1.714    2.857    0.000    4.000    0.000 
#    0.000    0.000    0.000    0.000    0.000    0.000 
#    0.000    4.571    0.000   14.286    0.000    0.000 
#
# Total GULP energy -156096.231975 kJ/mol
# GULP energy per Si atom -5574.865428 kJ/mol
# Density = 2.535603 g / cm^3
# Si number density = 25.413876 Si / 1000 Ang^3
#
#
#
# Elastic Constant Matrix: (Units=GPa)
#
#
# Indices 1 2 3 4 5 6 
#
# 1 78.1385 15.7890 31.4028 0.0000 0.0000 0.0000
# 2 15.7890 111.4511 25.7032 0.0000 0.0000 0.0000
# 3 31.4028 25.7032 318.8314 0.0000 0.0000 0.0000
# 4 0.0000 0.0000 0.0000 -1.9098 0.0000 0.0000
# 5 0.0000 0.0000 0.0000 0.0000 26.3672 0.0000
# 6 0.0000 0.0000 0.0000 0.0000 0.0000 44.4093
#
#
#
# Elastic Compliance Matrix: (Units=1/GPa)
#
#
# Indices 1 2 3 4 5 6 
#
# 1 0.013617 -0.001650 -0.001208 0.000000 0.000000 0.000000
# 2 -0.001650 0.009343 -0.000591 0.000000 0.000000 0.000000
# 3 -0.001208 -0.000591 0.003303 0.000000 0.000000 0.000000
# 4 0.000000 0.000000 0.000000 -0.523625 0.000000 0.000000
# 5 0.000000 0.000000 0.000000 0.000000 0.037926 0.000000
# 6 0.000000 0.000000 0.000000 0.000000 0.000000 0.022518
#
#
# Mechanical properties :
#
#
# Convention : Reuss Voigt Hill
#
# Bulk Modulus (GPa) = 51.64196 72.69011 62.16603
# Shear Modulus (GPa) = -11.80453 42.80841 15.50194
#
# Velocity S-wave (km/s) = -2.15755 4.10866 2.47246
# Velocity P-wave (km/s) = 3.76269 7.15351 5.71535
#
# Compressibility (1/GPa) = 0.01936410
#
# Stress axis : x y z
#
# Youngs Moduli (GPa) = 73.43870 107.03698 302.74970
#
# Poissons Ratio (x) = 0.17666 0.36576
# Poissons Ratio (y) = 0.12121 0.17881
# Poissons Ratio (z) = 0.08872 0.06322
#
# Static dielectric constant tensor:
#      x y z
#    x 1.943710 0.000000 0.000000 
#    y 0.000000 2.040870 0.000000 
#    z 0.000000 0.000000 2.108710 
# 
# From -- ./inp_files/271.got.cif
#   From: 2010.05.17/outbox.cif.g08.bks.cpg/sg58_1_cif.got.tgz:271.got - 2010.06.03 14:20:14.
