data_PCOD9444273
_publ_section_title
;
Structure prediction by ZEFSAII (Michael W. Deem and Ramdas Pophale) SiO2 
 PCOD9444273
Probable space group: P N N M
;
_chemical_formula_sum "Si O2"
_cell_formula_units_Z 58
_cell_length_a 6.642893
_cell_length_b 22.749711
_cell_length_c 17.550619
_cell_angle_alpha 90.000000
_cell_angle_beta 90.000000
_cell_angle_gamma 90.000000
_cell_volume 2652.317920
_symmetry_space_group_name_H-M "P N N M"
_symmetry_group_IT_number 58
_symmetry_cell_setting 'orthorhombic'
loop_
_space_group_symop_operation_xyz
x,y,z
-x,-y,z
1/2+x,1/2-y,1/2-z
1/2-x,1/2+y,1/2-z
-x,-y,-z
x,y,-z
1/2-x,1/2+y,1/2+z
1/2+x,1/2-y,1/2+z
loop_
_atom_site_type_symbol
_atom_site_label
_atom_site_fract_x
_atom_site_fract_y
_atom_site_fract_z
Si Si1 0.709122 0.546412 0.414455
Si Si2 0.321632 0.084521 0.914035
Si Si3 0.159165 0.797251 0.414593
Si Si4 0.301071 0.380599 0.271149
Si Si5 0.680271 0.348435 0.166574
Si Si6 0.590971 0.810907 0.196385
Si Si7 0.500000 0.000000 0.500000
Si Si8 0.427237 0.909822 0.631179
O O1 0.638935 0.560046 0.500000
O O2 0.298322 0.523676 0.401917
O O3 0.631030 0.586250 0.346476
O O4 0.946033 0.563631 0.414236
O O5 0.313467 0.133835 0.849411
O O6 0.281117 0.107263 0.000000
O O7 0.196692 0.775875 0.500000
O O8 0.148465 0.745402 0.352971
O O9 0.319818 0.848531 0.394961
O O10 0.933801 0.823924 0.406813
O O11 0.494344 0.363850 0.221800
O O12 0.169022 0.421735 0.214107
O O13 0.145039 0.328387 0.293936
O O14 0.817307 0.306503 0.219124
O O15 0.834884 0.398950 0.142598
O O16 0.399439 0.958103 0.567152
#
# Coordination Sequence:
#
# PCOD9444273 Si02
#       8
#     8   8   8   8   8   8   2   8
#     4   8  14  28  57  87 130 170 206 259 307 390
#     4   8  14  28  51  86 121 167 211 246 312 376
#     4  11  24  42  66  95 131 171 228 291 339 423
#     4   9  20  40  61  98 133 171 226 274 337 425
#     4  10  24  41  66  95 129 176 220 280 349 411
#     4  10  21  36  65  91 129 173 217 269 330 401
#     4  12  24  48  78  96 138 182 240 318 380 442
#     4  10  24  45  67  95 128 177 229 296 367 423
#
# _framework density 21.867664000000001
#
# number of rings (size 3 to 8) (size 9 to 14) (size 15 to 20)
#    0.000    2.483    0.690    1.241    6.759    3.862 
#    0.000   10.345    0.000    2.483    0.000    0.000 
#    0.000    0.000    0.000    0.000    0.000    0.000 
#
# Total GULP energy -323079.504390 kJ/mol
# GULP energy per Si atom -5570.336283 kJ/mol
# Density = 2.181789 g / cm^3
# Si number density = 21.867664 Si / 1000 Ang^3
#
#
#
# Elastic Constant Matrix: (Units=GPa)
#
#
# Indices 1 2 3 4 5 6 
#
# 1 87.8849 24.3470 12.2558 0.0000 0.0000 0.0000
# 2 24.3470 71.1877 44.0686 0.0000 0.0000 0.0000
# 3 12.2558 44.0686 104.4799 0.0000 0.0000 0.0000
# 4 0.0000 0.0000 0.0000 33.1237 0.0000 0.0000
# 5 0.0000 0.0000 0.0000 0.0000 19.1747 0.0000
# 6 0.0000 0.0000 0.0000 0.0000 0.0000 22.2945
#
#
#
# Elastic Compliance Matrix: (Units=1/GPa)
#
#
# Indices 1 2 3 4 5 6 
#
# 1 0.012586 -0.004589 0.000459 0.000000 0.000000 0.000000
# 2 -0.004589 0.020684 -0.008186 0.000000 0.000000 0.000000
# 3 0.000459 -0.008186 0.012970 0.000000 0.000000 0.000000
# 4 0.000000 0.000000 0.000000 0.030190 0.000000 0.000000
# 5 0.000000 0.000000 0.000000 0.000000 0.052152 0.000000
# 6 0.000000 0.000000 0.000000 0.000000 0.000000 0.044854
#
#
# Mechanical properties :
#
#
# Convention : Reuss Voigt Hill
#
# Bulk Modulus (GPa) = 46.27744 47.21059 46.74401
# Shear Modulus (GPa) = 24.35807 27.11067 25.73437
#
# Velocity S-wave (km/s) = 3.34111 3.52484 3.43421
# Velocity P-wave (km/s) = 6.00770 6.18079 6.09486
#
# Compressibility (1/GPa) = 0.02160880
#
# Stress axis : x y z
#
# Youngs Moduli (GPa) = 79.45521 48.34560 77.09969
#
# Poissons Ratio (x) = 0.22184 -0.03540
# Poissons Ratio (y) = 0.36459 0.63115
# Poissons Ratio (z) = -0.03648 0.39577
#
# Static dielectric constant tensor:
#      x y z
#    x 1.878370 0.000000 0.000000 
#    y 0.000000 1.809330 0.000000 
#    z 0.000000 0.000000 1.781460 
# 
# From -- ./inp_files/24485.got.cif
#   From: 2010.05.17/outbox.cif.g08.bks.cpg/sg58_13_cif.got.tgz:24485.got - 2010.06.03 14:20:14.
