data_PCOD9444608
_publ_section_title
;
Structure prediction by ZEFSAII (Michael W. Deem and Ramdas Pophale) SiO2 
 PCOD9444608
Probable space group: P N N M
;
_chemical_formula_sum "Si O2"
_cell_formula_units_Z 58
_cell_length_a 10.826697
_cell_length_b 17.751170
_cell_length_c 15.327175
_cell_angle_alpha 90.000000
_cell_angle_beta 90.000000
_cell_angle_gamma 90.000000
_cell_volume 2945.676716
_symmetry_space_group_name_H-M "P N N M"
_symmetry_group_IT_number 58
_symmetry_cell_setting 'orthorhombic'
loop_
_space_group_symop_operation_xyz
x,y,z
-x,-y,z
1/2+x,1/2-y,1/2-z
1/2-x,1/2+y,1/2-z
-x,-y,-z
x,y,-z
1/2-x,1/2+y,1/2+z
1/2+x,1/2-y,1/2+z
loop_
_atom_site_type_symbol
_atom_site_label
_atom_site_fract_x
_atom_site_fract_y
_atom_site_fract_z
Si Si1 0.986140 0.271059 0.596705
Si Si2 0.133286 0.015319 0.347632
Si Si3 0.395219 0.937455 0.902786
Si Si4 0.000000 0.000000 0.000000
Si Si5 0.057928 0.103503 0.170958
Si Si6 0.216547 0.888824 0.240439
Si Si7 0.273845 0.667663 0.904058
Si Si8 0.243400 0.725841 0.277247
O O1 0.934086 0.259441 0.500000
O O2 0.877668 0.267097 0.664828
O O3 0.045591 0.354332 0.598350
O O4 0.093051 0.208878 0.608439
O O5 0.105078 0.050423 0.250923
O O6 0.206528 0.078572 0.398784
O O7 0.199558 0.937185 0.327679
O O8 0.000000 0.000000 0.388563
O O9 0.291809 0.937380 0.829759
O O10 0.500000 0.000000 0.888904
O O11 0.340897 0.949863 0.000000
O O12 0.952162 0.940744 0.920722
O O13 0.153629 0.173279 0.177261
O O14 0.918911 0.127031 0.199606
O O15 0.285950 0.810975 0.258624
O O16 0.204676 0.692093 0.816904
O O17 0.227471 0.690743 0.000000
#
# Coordination Sequence:
#
# PCOD9444608 Si02
#       8
#     8   8   8   2   8   8   8   8
#     4  10  21  39  59  90 123 161 204 262 321 379
#     4   9  18  36  56  88 115 152 212 252 320 366
#     4  10  23  37  55  89 125 161 210 257 319 388
#     4  12  20  40  60  92 140 152 220 270 336 410
#     4  10  23  36  59  94 121 170 205 268 331 386
#     4  11  21  38  61  86 126 166 209 265 318 387
#     4  10  21  39  61  88 120 157 213 264 314 371
#     4  11  22  38  64  86 128 162 213 261 321 386
#
# _framework density 19.689872000000001
#
# number of rings (size 3 to 8) (size 9 to 14) (size 15 to 20)
#    0.000    1.793    3.448    2.483    5.793    0.276 
#    2.483    0.690    0.000    0.000    0.000    0.966 
#    0.000    0.000    0.000    0.000    0.000    0.000 
#
# Total GULP energy -323087.292146 kJ/mol
# GULP energy per Si atom -5570.470554 kJ/mol
# Density = 1.964506 g / cm^3
# Si number density = 19.689872 Si / 1000 Ang^3
#
#
#
# Elastic Constant Matrix: (Units=GPa)
#
#
# Indices 1 2 3 4 5 6 
#
# 1 19.2911 -6.1686 22.6104 0.0000 0.0000 0.0000
# 2 -6.1686 72.6472 2.8298 0.0000 0.0000 0.0000
# 3 22.6104 2.8298 118.5185 0.0000 0.0000 0.0000
# 4 0.0000 0.0000 0.0000 10.8152 0.0000 0.0000
# 5 0.0000 0.0000 0.0000 0.0000 -4.5765 0.0000
# 6 0.0000 0.0000 0.0000 0.0000 0.0000 29.6852
#
#
#
# Elastic Compliance Matrix: (Units=1/GPa)
#
#
# Indices 1 2 3 4 5 6 
#
# 1 0.069650 0.006438 -0.013441 0.000000 0.000000 0.000000
# 2 0.006438 0.014373 -0.001571 0.000000 0.000000 0.000000
# 3 -0.013441 -0.001571 0.011039 0.000000 0.000000 0.000000
# 4 0.000000 0.000000 0.000000 0.092462 0.000000 0.000000
# 5 0.000000 0.000000 0.000000 0.000000 -0.218509 0.000000
# 6 0.000000 0.000000 0.000000 0.000000 0.000000 0.033687
#
#
# Mechanical properties :
#
#
# Convention : Reuss Voigt Hill
#
# Bulk Modulus (GPa) = 12.83492 27.66666 20.25079
# Shear Modulus (GPa) = 109.11654 19.93047 64.52350
#
# Velocity S-wave (km/s) = 7.45238 3.18499 5.73071
# Velocity P-wave (km/s) = 8.97682 5.25426 7.35495
#
# Compressibility (1/GPa) = 0.07791245
#
# Stress axis : x y z
#
# Youngs Moduli (GPa) = 14.35753 69.57487 90.58576
#
# Poissons Ratio (x) = -0.44790 1.21758
# Poissons Ratio (y) = -0.09243 0.14234
# Poissons Ratio (z) = 0.19298 0.10932
#
# Static dielectric constant tensor:
#      x y z
#    x 1.691420 0.000000 0.000000 
#    y 0.000000 1.746070 0.000000 
#    z 0.000000 0.000000 1.711040 
# 
# From -- ./inp_files/21475.got.cif
#   From: 2010.05.17/outbox.cif.g08.bks.cpg/sg58_11_cif.got.tgz:21475.got - 2010.06.03 14:20:14.
