data_PCOD9444918
_publ_section_title
;
Structure prediction by ZEFSAII (Michael W. Deem and Ramdas Pophale) SiO2 
 PCOD9444918
Probable space group: P N N M
;
_chemical_formula_sum "Si O2"
_cell_formula_units_Z 56
_cell_length_a 14.380343
_cell_length_b 8.864972
_cell_length_c 22.556929
_cell_angle_alpha 90.000000
_cell_angle_beta 90.000000
_cell_angle_gamma 90.000000
_cell_volume 2875.587491
_symmetry_space_group_name_H-M "P N N M"
_symmetry_group_IT_number 58
_symmetry_cell_setting 'orthorhombic'
loop_
_space_group_symop_operation_xyz
x,y,z
-x,-y,z
1/2+x,1/2-y,1/2-z
1/2-x,1/2+y,1/2-z
-x,-y,-z
x,y,-z
1/2-x,1/2+y,1/2+z
1/2+x,1/2-y,1/2+z
loop_
_atom_site_type_symbol
_atom_site_label
_atom_site_fract_x
_atom_site_fract_y
_atom_site_fract_z
Si Si1 0.821593 0.755973 0.659935
Si Si2 0.405496 0.434518 0.852575
Si Si3 0.600209 0.418005 0.657279
Si Si4 0.750053 0.009222 0.932514
Si Si5 0.837388 0.174886 0.758446
Si Si6 0.535839 0.167411 0.262058
Si Si7 0.055345 0.650418 0.567595
O O1 0.784930 0.645257 0.609160
O O2 0.736592 0.774090 0.706605
O O3 0.902117 0.684862 0.702454
O O4 0.855994 0.909706 0.629543
O O5 0.500000 0.500000 0.821180
O O6 0.327680 0.358087 0.810745
O O7 0.444539 0.307286 0.896732
O O8 0.500000 0.500000 0.649249
O O9 0.661193 0.433661 0.598527
O O10 0.654384 0.516466 0.707055
O O11 0.587790 0.251693 0.684098
O O12 0.662872 0.896757 0.933626
O O13 0.769300 0.056690 0.000000
O O14 0.939212 0.244822 0.757772
O O15 0.500000 0.000000 0.272392
O O16 0.021142 0.674133 0.500000
O O17 0.000000 0.500000 0.590304
#
# Coordination Sequence:
#
# PCOD9444918 Si02
#       7
#     8   8   8   8   8   8   8
#     4  11  24  37  60  91 122 166 203 256 319 370
#     4  12  22  37  61  86 120 164 207 257 315 374
#     4   9  19  41  60  86 123 155 200 255 313 374
#     4  10  23  42  63  87 120 163 214 259 306 377
#     4  10  22  37  55  86 126 155 201 245 308 383
#     4  11  23  35  58  91 126 157 199 253 312 384
#     4  10  24  41  58  84 120 165 215 261 306 365
#
# _framework density 19.474281999999999
#
# number of rings (size 3 to 8) (size 9 to 14) (size 15 to 20)
#    0.000    1.571    2.857    1.286    6.000    1.143 
#    0.000    0.000    0.000    0.429    0.000    0.000 
#    0.000    0.000    0.000    0.000    0.000    0.000 
#
# Total GULP energy -312079.386739 kJ/mol
# GULP energy per Si atom -5572.846192 kJ/mol
# Density = 1.942996 g / cm^3
# Si number density = 19.474282 Si / 1000 Ang^3
#
#
#
# Elastic Constant Matrix: (Units=GPa)
#
#
# Indices 1 2 3 4 5 6 
#
# 1 77.6679 38.1562 50.5996 0.0000 0.0000 0.0000
# 2 38.1562 130.0674 68.8110 0.0000 0.0000 0.0000
# 3 50.5996 68.8110 117.7696 0.0000 0.0000 0.0000
# 4 0.0000 0.0000 0.0000 22.3772 0.0000 0.0000
# 5 0.0000 0.0000 0.0000 0.0000 27.9425 0.0000
# 6 0.0000 0.0000 0.0000 0.0000 0.0000 27.0779
#
#
#
# Elastic Compliance Matrix: (Units=1/GPa)
#
#
# Indices 1 2 3 4 5 6 
#
# 1 0.018147 -0.001735 -0.006783 0.000000 0.000000 0.000000
# 2 -0.001735 0.011294 -0.005853 0.000000 0.000000 0.000000
# 3 -0.006783 -0.005853 0.014826 0.000000 0.000000 0.000000
# 4 0.000000 0.000000 0.000000 0.044688 0.000000 0.000000
# 5 0.000000 0.000000 0.000000 0.000000 0.035788 0.000000
# 6 0.000000 0.000000 0.000000 0.000000 0.000000 0.036931
#
#
# Mechanical properties :
#
#
# Convention : Reuss Voigt Hill
#
# Bulk Modulus (GPa) = 64.41902 71.18205 67.80054
# Shear Modulus (GPa) = 25.56362 26.67538 26.11950
#
# Velocity S-wave (km/s) = 3.62703 3.70506 3.66625
# Velocity P-wave (km/s) = 7.11978 7.41178 7.26725
#
# Compressibility (1/GPa) = 0.01552336
#
# Stress axis : x y z
#
# Youngs Moduli (GPa) = 55.10643 88.54227 67.45108
#
# Poissons Ratio (x) = 0.15362 0.45752
# Poissons Ratio (y) = 0.09561 0.39482
# Poissons Ratio (z) = 0.37379 0.51828
#
# Static dielectric constant tensor:
#      x y z
#    x 1.717280 0.000000 0.000000 
#    y 0.000000 1.758250 0.000000 
#    z 0.000000 0.000000 1.727850 
# 
# From -- ./inp_files/30009.got.cif
#   From: 2010.05.17/outbox.cif.g08.bks.cpg/sg58_16_cif.got.tgz:30009.got - 2010.06.03 14:20:14.
