data_PCOD9444631
_publ_section_title
;
Structure prediction by ZEFSAII (Michael W. Deem and Ramdas Pophale) SiO2 
 PCOD9444631
Probable space group: P N N M
;
_chemical_formula_sum "Si O2"
_cell_formula_units_Z 48
_cell_length_a 15.079569
_cell_length_b 18.041112
_cell_length_c 8.915830
_cell_angle_alpha 90.000000
_cell_angle_beta 90.000000
_cell_angle_gamma 90.000000
_cell_volume 2425.571106
_symmetry_space_group_name_H-M "P N N M"
_symmetry_group_IT_number 58
_symmetry_cell_setting 'orthorhombic'
loop_
_space_group_symop_operation_xyz
x,y,z
-x,-y,z
1/2+x,1/2-y,1/2-z
1/2-x,1/2+y,1/2-z
-x,-y,-z
x,y,-z
1/2-x,1/2+y,1/2+z
1/2+x,1/2-y,1/2+z
loop_
_atom_site_type_symbol
_atom_site_label
_atom_site_fract_x
_atom_site_fract_y
_atom_site_fract_z
Si Si1 0.723974 0.569924 0.678998
Si Si2 0.109632 0.197239 0.173463
Si Si3 0.731324 0.420712 0.176985
Si Si4 0.408876 0.134202 0.178308
Si Si5 0.404601 0.294030 0.322757
Si Si6 0.598140 0.126070 0.677492
O O1 0.725210 0.561475 0.500000
O O2 0.689167 0.495174 0.755212
O O3 0.663656 0.641240 0.715313
O O4 0.822136 0.584588 0.741651
O O5 0.171898 0.149885 0.279713
O O6 0.115826 0.285585 0.196328
O O7 0.005862 0.178948 0.195200
O O8 0.133759 0.181336 0.000000
O O9 0.826708 0.410184 0.254109
O O10 0.741609 0.426746 0.000000
O O11 0.393423 0.220017 0.226117
O O12 0.502343 0.110744 0.251015
O O13 0.412406 0.127203 0.000000
O O14 0.394058 0.274161 0.500000
O O15 0.596716 0.110251 0.500000
#
# Coordination Sequence:
#
# PCOD9444631 Si02
#       6
#     8   8   8   8   8   8
#     4  11  23  39  59  85 117 153 193 235 285 342
#     4   9  19  38  62  87 115 149 189 233 282 336
#     4  12  25  39  56  82 118 156 193 235 285 339
#     4  11  22  38  62  88 114 148 192 238 283 337
#     4   9  20  39  63  88 115 149 189 236 286 336
#     4  10  21  39  62  88 117 149 188 235 287 340
#
# _framework density 19.789152999999999
#
# number of rings (size 3 to 8) (size 9 to 14) (size 15 to 20)
#    0.000    1.667    0.000    6.000    0.000    8.667 
#    0.000    6.667    0.000    0.000    0.000    0.000 
#    0.000    0.000    0.000    0.000    0.000    0.000 
#
# Total GULP energy -268452.171650 kJ/mol
# GULP energy per Si atom -5592.753576 kJ/mol
# Density = 1.974411 g / cm^3
# Si number density = 19.789153 Si / 1000 Ang^3
#
#
#
# Elastic Constant Matrix: (Units=GPa)
#
#
# Indices 1 2 3 4 5 6 
#
# 1 45.8366 18.3566 23.7982 0.0000 0.0000 0.0000
# 2 18.3566 20.0654 22.1519 0.0000 0.0000 0.0000
# 3 23.7982 22.1519 87.7473 0.0000 0.0000 0.0000
# 4 0.0000 0.0000 0.0000 -2.8573 0.0000 0.0000
# 5 0.0000 0.0000 0.0000 0.0000 24.5249 0.0000
# 6 0.0000 0.0000 0.0000 0.0000 0.0000 -22.5734
#
#
#
# Elastic Compliance Matrix: (Units=1/GPa)
#
#
# Indices 1 2 3 4 5 6 
#
# 1 0.034667 -0.029578 -0.001935 0.000000 0.000000 0.000000
# 2 -0.029578 0.094330 -0.015792 0.000000 0.000000 0.000000
# 3 -0.001935 -0.015792 0.015908 0.000000 0.000000 0.000000
# 4 0.000000 0.000000 0.000000 -0.349977 0.000000 0.000000
# 5 0.000000 0.000000 0.000000 0.000000 0.040775 0.000000
# 6 0.000000 0.000000 0.000000 0.000000 0.000000 -0.044300
#
#
# Mechanical properties :
#
#
# Convention : Reuss Voigt Hill
#
# Bulk Modulus (GPa) = 19.88278 31.36252 25.62265
# Shear Modulus (GPa) = -51.42866 5.77501 -22.82682
#
# Velocity S-wave (km/s) = -5.10340 1.71015 -3.40001
# Velocity P-wave (km/s) = 4.96560 4.44772 1.56124
#
# Compressibility (1/GPa) = 0.05029477
#
# Stress axis : x y z
#
# Youngs Moduli (GPa) = 28.84601 10.60103 62.86230
#
# Poissons Ratio (x) = 0.31356 0.12164
# Poissons Ratio (y) = 0.85322 0.99270
# Poissons Ratio (z) = 0.05582 0.16741
#
# Static dielectric constant tensor:
#      x y z
#    x 1.679160 0.000000 0.000000 
#    y 0.000000 1.708850 0.000000 
#    z 0.000000 0.000000 1.655720 
# 
# From -- ./inp_files/5894.got.cif
#   From: 2010.05.17/outbox.cif.g08.bks.cpg/sg58_3_cif.got.tgz:5894.got - 2010.06.03 14:20:14.
