data_PCOD9444660
_publ_section_title
;
Structure prediction by ZEFSAII (Michael W. Deem and Ramdas Pophale) SiO2 
 PCOD9444660
Probable space group: P N N M
;
_chemical_formula_sum "Si O2"
_cell_formula_units_Z 40
_cell_length_a 5.200191
_cell_length_b 11.498963
_cell_length_c 32.401209
_cell_angle_alpha 90.000000
_cell_angle_beta 90.000000
_cell_angle_gamma 90.000000
_cell_volume 1937.488741
_symmetry_space_group_name_H-M "P N N M"
_symmetry_group_IT_number 58
_symmetry_cell_setting 'orthorhombic'
loop_
_space_group_symop_operation_xyz
x,y,z
-x,-y,z
1/2+x,1/2-y,1/2-z
1/2-x,1/2+y,1/2-z
-x,-y,-z
x,y,-z
1/2-x,1/2+y,1/2+z
1/2+x,1/2-y,1/2+z
loop_
_atom_site_type_symbol
_atom_site_label
_atom_site_fract_x
_atom_site_fract_y
_atom_site_fract_z
Si Si1 0.885103 0.621828 0.799212
Si Si2 0.423397 0.870607 0.851955
Si Si3 0.918478 0.732637 0.120124
Si Si4 0.755314 0.078257 0.452853
Si Si5 0.892485 0.126003 0.774719
O O1 0.932778 0.625566 0.847867
O O2 0.616855 0.621335 0.774896
O O3 0.000000 0.500000 0.783333
O O4 0.988427 0.748388 0.784995
O O5 0.675747 0.799452 0.861617
O O6 0.363779 0.869923 0.803034
O O7 0.175342 0.811318 0.874607
O O8 0.500000 0.000000 0.865323
O O9 0.828898 0.684927 0.076031
O O10 0.817842 0.114198 0.500000
O O11 0.500000 0.000000 0.453849
O O12 0.000000 0.000000 0.438011
O O13 0.000000 0.000000 0.788752
#
# Coordination Sequence:
#
# PCOD9444660 Si02
#       5
#     8   8   8   8   8
#     4  11  22  35  55  86 119 155 202 258 305 350
#     4  11  22  40  61  85 118 162 209 250 299 365
#     4  11  23  38  62  90 120 155 200 257 309 364
#     4  10  21  39  63  91 124 159 194 239 307 387
#     4  11  22  38  57  83 120 167 211 249 306 371
#
# _framework density 20.645278999999999
#
# number of rings (size 3 to 8) (size 9 to 14) (size 15 to 20)
#    0.000    1.200    0.000    7.800    0.000    4.000 
#    0.000    0.000    0.000    3.600    0.000    0.000 
#    0.000    0.000    0.000    0.000    0.000    0.000 
#
# Total GULP energy -222673.282787 kJ/mol
# GULP energy per Si atom -5566.832070 kJ/mol
# Density = 2.059829 g / cm^3
# Si number density = 20.645279 Si / 1000 Ang^3
#
#
#
# Elastic Constant Matrix: (Units=GPa)
#
#
# Indices 1 2 3 4 5 6 
#
# 1 123.3202 58.5745 12.7711 0.0000 0.0000 0.0000
# 2 58.5745 158.0791 41.0676 0.0000 0.0000 0.0000
# 3 12.7711 41.0676 65.4397 0.0000 0.0000 0.0000
# 4 0.0000 0.0000 0.0000 -21.1631 0.0000 0.0000
# 5 0.0000 0.0000 0.0000 0.0000 -23.4623 0.0000
# 6 0.0000 0.0000 0.0000 0.0000 0.0000 39.1501
#
#
#
# Elastic Compliance Matrix: (Units=1/GPa)
#
#
# Indices 1 2 3 4 5 6 
#
# 1 0.009852 -0.003765 0.000440 0.000000 0.000000 0.000000
# 2 -0.003765 0.008997 -0.004911 0.000000 0.000000 0.000000
# 3 0.000440 -0.004911 0.018278 0.000000 0.000000 0.000000
# 4 0.000000 0.000000 0.000000 -0.047252 0.000000 0.000000
# 5 0.000000 0.000000 0.000000 0.000000 -0.042622 0.000000
# 6 0.000000 0.000000 0.000000 0.000000 0.000000 0.025543
#
#
# Mechanical properties :
#
#
# Convention : Reuss Voigt Hill
#
# Bulk Modulus (GPa) = 48.41725 63.51837 55.96781
# Shear Modulus (GPa) = -1299.38494 14.53331 -642.42581
#
# Velocity S-wave (km/s) = -25.11478 2.65609 -17.65924
# Velocity P-wave (km/s) = 28.59196 6.34348 19.71371
#
# Compressibility (1/GPa) = 0.02065380
#
# Stress axis : x y z
#
# Youngs Moduli (GPa) = 101.50681 111.15005 54.71177
#
# Poissons Ratio (x) = 0.41845 -0.02407
# Poissons Ratio (y) = 0.38214 0.26871
# Poissons Ratio (z) = -0.04466 0.54590
#
# Static dielectric constant tensor:
#      x y z
#    x 3.017380 0.000000 0.000000 
#    y 0.000000 2.995550 0.000000 
#    z 0.000000 0.000000 1.810540 
# 
# From -- ./inp_files/34092.got.cif
#   From: 2010.05.17/outbox.cif.g08.bks.cpg/sg58_18_cif.got.tgz:34092.got - 2010.06.03 14:20:14.
