data_PCOD9444313
_publ_section_title
;
Structure prediction by ZEFSAII (Michael W. Deem and Ramdas Pophale) SiO2 
 PCOD9444313
Probable space group: P N N M
;
_chemical_formula_sum "Si O2"
_cell_formula_units_Z 48
_cell_length_a 24.197781
_cell_length_b 11.546479
_cell_length_c 9.028163
_cell_angle_alpha 90.000000
_cell_angle_beta 90.000000
_cell_angle_gamma 90.000000
_cell_volume 2522.461250
_symmetry_space_group_name_H-M "P N N M"
_symmetry_group_IT_number 58
_symmetry_cell_setting 'orthorhombic'
loop_
_space_group_symop_operation_xyz
x,y,z
-x,-y,z
1/2+x,1/2-y,1/2-z
1/2-x,1/2+y,1/2-z
-x,-y,-z
x,y,-z
1/2-x,1/2+y,1/2+z
1/2+x,1/2-y,1/2+z
loop_
_atom_site_type_symbol
_atom_site_label
_atom_site_fract_x
_atom_site_fract_y
_atom_site_fract_z
Si Si1 0.183054 0.850900 0.322472
Si Si2 0.079192 0.705825 0.677738
Si Si3 0.300897 0.817208 0.175644
Si Si4 0.087573 0.438661 0.322957
Si Si5 0.971380 0.779951 0.176305
Si Si6 0.626709 0.407403 0.821639
O O1 0.188382 0.852027 0.500000
O O2 0.140332 0.749202 0.282232
O O3 0.243313 0.836777 0.255019
O O4 0.153664 0.971139 0.278878
O O5 0.072710 0.718714 0.500000
O O6 0.072446 0.570099 0.713028
O O7 0.032878 0.781190 0.758377
O O8 0.347569 0.914261 0.205320
O O9 0.330620 0.696152 0.216008
O O10 0.291175 0.815322 0.000000
O O11 0.078100 0.419803 0.500000
O O12 0.054051 0.342280 0.233872
O O13 0.930900 0.876932 0.243753
O O14 0.971454 0.785002 0.000000
O O15 0.618516 0.405147 0.000000
#
# Coordination Sequence:
#
# PCOD9444313 Si02
#       6
#     8   8   8   8   8   8
#     4  10  22  37  57  84 110 146 192 229 267 327
#     4  10  21  37  57  82 113 150 188 226 273 334
#     4   9  19  35  56  80 111 148 182 226 280 325
#     4   9  19  37  59  82 112 152 187 222 278 338
#     4  11  22  36  57  85 112 143 186 237 282 324
#     4   9  20  40  59  78 110 151 187 221 274 338
#
# _framework density 19.029032999999998
#
# number of rings (size 3 to 8) (size 9 to 14) (size 15 to 20)
#    0.000    2.333    0.000    3.000    2.333    7.333 
#    0.000    3.333    0.000    0.000    0.000    0.000 
#    0.000    0.000    0.000    0.000    0.000    0.000 
#
# Total GULP energy -268035.015159 kJ/mol
# GULP energy per Si atom -5584.062816 kJ/mol
# Density = 1.898572 g / cm^3
# Si number density = 19.029033 Si / 1000 Ang^3
#
#
#
# Elastic Constant Matrix: (Units=GPa)
#
#
# Indices 1 2 3 4 5 6 
#
# 1 81.9269 -18.0922 19.8521 0.0000 0.0000 0.0000
# 2 -18.0922 16.5561 1.0890 0.0000 0.0000 0.0000
# 3 19.8521 1.0890 21.6032 0.0000 0.0000 0.0000
# 4 0.0000 0.0000 0.0000 12.8976 0.0000 0.0000
# 5 0.0000 0.0000 0.0000 0.0000 38.2213 0.0000
# 6 0.0000 0.0000 0.0000 0.0000 0.0000 12.5218
#
#
#
# Elastic Compliance Matrix: (Units=1/GPa)
#
#
# Indices 1 2 3 4 5 6 
#
# 1 0.024043 0.027819 -0.023496 0.000000 0.000000 0.000000
# 2 0.027819 0.092790 -0.030242 0.000000 0.000000 0.000000
# 3 -0.023496 -0.030242 0.069406 0.000000 0.000000 0.000000
# 4 0.000000 0.000000 0.000000 0.077534 0.000000 0.000000
# 5 0.000000 0.000000 0.000000 0.000000 0.026163 0.000000
# 6 0.000000 0.000000 0.000000 0.000000 0.000000 0.079861
#
#
# Mechanical properties :
#
#
# Convention : Reuss Voigt Hill
#
# Bulk Modulus (GPa) = 7.44042 13.97599 10.70821
# Shear Modulus (GPa) = 10.71961 20.54396 15.63178
#
# Velocity S-wave (km/s) = 2.37603 3.28931 2.86924
# Velocity P-wave (km/s) = 3.38318 4.66761 4.07630
#
# Compressibility (1/GPa) = 0.13440093
#
# Stress axis : x y z
#
# Youngs Moduli (GPa) = 41.59228 10.77700 14.40805
#
# Poissons Ratio (x) = -0.29981 0.33854
# Poissons Ratio (y) = -1.15706 0.43572
# Poissons Ratio (z) = 0.97727 0.32592
#
# Static dielectric constant tensor:
#      x y z
#    x 1.648890 0.000000 0.000000 
#    y 0.000000 1.664430 0.000000 
#    z 0.000000 0.000000 1.635350 
# 
# From -- ./inp_files/4202.got.cif
#   From: 2010.05.17/outbox.cif.g08.bks.cpg/sg58_3_cif.got.tgz:4202.got - 2010.06.03 14:20:14.
