data_PCOD9444629
_publ_section_title
;
Structure prediction by ZEFSAII (Michael W. Deem and Ramdas Pophale) SiO2 
 PCOD9444629
Probable space group: P N N M
;
_chemical_formula_sum "Si O2"
_cell_formula_units_Z 56
_cell_length_a 11.629504
_cell_length_b 16.554943
_cell_length_c 13.475493
_cell_angle_alpha 90.000000
_cell_angle_beta 90.000000
_cell_angle_gamma 90.000000
_cell_volume 2594.379745
_symmetry_space_group_name_H-M "P N N M"
_symmetry_group_IT_number 58
_symmetry_cell_setting 'orthorhombic'
loop_
_space_group_symop_operation_xyz
x,y,z
-x,-y,z
1/2+x,1/2-y,1/2-z
1/2-x,1/2+y,1/2-z
-x,-y,-z
x,y,-z
1/2-x,1/2+y,1/2+z
1/2+x,1/2-y,1/2+z
loop_
_atom_site_type_symbol
_atom_site_label
_atom_site_fract_x
_atom_site_fract_y
_atom_site_fract_z
Si Si1 0.822469 0.281821 0.118156
Si Si2 0.078482 0.067970 0.263406
Si Si3 0.305121 0.038877 0.618067
Si Si4 0.043569 0.202657 0.885280
Si Si5 0.100675 0.832507 0.616707
Si Si6 0.581854 0.197443 0.115242
Si Si7 0.353811 0.869326 0.685098
O O1 0.851926 0.372929 0.150399
O O2 0.689455 0.259163 0.133688
O O3 0.911524 0.213111 0.151206
O O4 0.838856 0.282228 0.000000
O O5 0.189595 0.032822 0.316747
O O6 0.104797 0.138150 0.184600
O O7 0.996529 0.105461 0.347839
O O8 0.000000 0.000000 0.212245
O O9 0.280547 0.043170 0.500000
O O10 0.374232 0.957011 0.638138
O O11 0.090228 0.293129 0.870829
O O12 0.050838 0.179230 0.000000
O O13 0.125330 0.843111 0.500000
O O14 0.218585 0.848450 0.673705
O O15 0.037677 0.745564 0.628358
O O16 0.602301 0.133010 0.201499
O O17 0.590009 0.171153 0.000000
#
# Coordination Sequence:
#
# PCOD9444629 Si02
#       7
#     8   8   8   8   8   8   8
#     4   9  19  37  61  84 117 163 205 247 305 374
#     4  12  23  37  61  91 124 163 205 263 315 371
#     4  11  22  37  60  94 127 157 202 263 322 373
#     4  11  24  42  61  90 128 168 209 257 313 383
#     4  11  21  37  63  93 124 160 206 266 316 364
#     4  10  21  39  62  87 122 169 216 251 304 382
#     4  12  23  37  63  97 127 161 209 263 321 373
#
# _framework density 21.585121000000001
#
# number of rings (size 3 to 8) (size 9 to 14) (size 15 to 20)
#    0.000    1.143    4.286    2.571    0.000    1.429 
#    0.000    2.857    0.000    0.000    0.000    4.000 
#    0.000    0.000    0.000    0.000    0.000    0.000 
#
# Total GULP energy -312751.113231 kJ/mol
# GULP energy per Si atom -5584.841308 kJ/mol
# Density = 2.153599 g / cm^3
# Si number density = 21.585121 Si / 1000 Ang^3
#
#
#
# Elastic Constant Matrix: (Units=GPa)
#
#
# Indices 1 2 3 4 5 6 
#
# 1 51.4159 5.4684 9.9693 0.0000 0.0000 0.0000
# 2 5.4684 67.8301 25.4585 0.0000 0.0000 0.0000
# 3 9.9693 25.4585 123.4610 0.0000 0.0000 0.0000
# 4 0.0000 0.0000 0.0000 25.8212 0.0000 0.0000
# 5 0.0000 0.0000 0.0000 0.0000 17.0189 0.0000
# 6 0.0000 0.0000 0.0000 0.0000 0.0000 31.9226
#
#
#
# Elastic Compliance Matrix: (Units=1/GPa)
#
#
# Indices 1 2 3 4 5 6 
#
# 1 0.019831 -0.001081 -0.001378 0.000000 0.000000 0.000000
# 2 -0.001081 0.016038 -0.003220 0.000000 0.000000 0.000000
# 3 -0.001378 -0.003220 0.008875 0.000000 0.000000 0.000000
# 4 0.000000 0.000000 0.000000 0.038728 0.000000 0.000000
# 5 0.000000 0.000000 0.000000 0.000000 0.058758 0.000000
# 6 0.000000 0.000000 0.000000 0.000000 0.000000 0.031326
#
#
# Mechanical properties :
#
#
# Convention : Reuss Voigt Hill
#
# Bulk Modulus (GPa) = 29.95315 36.05548 33.00432
# Shear Modulus (GPa) = 25.50437 28.40659 26.95548
#
# Velocity S-wave (km/s) = 3.44113 3.63164 3.53767
# Velocity P-wave (km/s) = 5.44935 5.85877 5.65777
#
# Compressibility (1/GPa) = 0.03338547
#
# Stress axis : x y z
#
# Youngs Moduli (GPa) = 50.42483 62.35023 112.67624
#
# Poissons Ratio (x) = 0.06743 0.15531
# Poissons Ratio (y) = 0.05453 0.36281
# Poissons Ratio (z) = 0.06950 0.20076
#
# Static dielectric constant tensor:
#      x y z
#    x 1.835140 0.000000 0.000000 
#    y 0.000000 1.827270 0.000000 
#    z 0.000000 0.000000 1.772850 
# 
# From -- ./inp_files/21241.got.cif
#   From: 2010.05.17/outbox.cif.g08.bks.cpg/sg58_11_cif.got.tgz:21241.got - 2010.06.03 14:20:14.
