data_PCOD9444146
_publ_section_title
;
Structure prediction by ZEFSAII (Michael W. Deem and Ramdas Pophale) SiO2 
 PCOD9444146
Probable space group: P N N M
;
_chemical_formula_sum "Si O2"
_cell_formula_units_Z 64
_cell_length_a 19.343878
_cell_length_b 23.771806
_cell_length_c 8.921237
_cell_angle_alpha 90.000000
_cell_angle_beta 90.000000
_cell_angle_gamma 90.000000
_cell_volume 4102.331943
_symmetry_space_group_name_H-M "P N N M"
_symmetry_group_IT_number 58
_symmetry_cell_setting 'orthorhombic'
loop_
_space_group_symop_operation_xyz
x,y,z
-x,-y,z
1/2+x,1/2-y,1/2-z
1/2-x,1/2+y,1/2-z
-x,-y,-z
x,y,-z
1/2-x,1/2+y,1/2+z
1/2+x,1/2-y,1/2+z
loop_
_atom_site_type_symbol
_atom_site_label
_atom_site_fract_x
_atom_site_fract_y
_atom_site_fract_z
Si Si1 0.850336 0.557279 0.179755
Si Si2 0.631413 0.723206 0.678031
Si Si3 0.288206 0.173126 0.821716
Si Si4 0.650654 0.266583 0.677539
Si Si5 0.872222 0.437472 0.678304
Si Si6 0.505084 0.120002 0.320728
Si Si7 0.492521 0.755713 0.178105
Si Si8 0.253289 0.841900 0.320889
O O1 0.849782 0.497904 0.261613
O O2 0.788275 0.599331 0.221927
O O3 0.922473 0.589228 0.211946
O O4 0.847717 0.548781 0.000000
O O5 0.625780 0.722248 0.500000
O O6 0.666078 0.781971 0.731756
O O7 0.556414 0.721445 0.753099
O O8 0.683906 0.675539 0.736277
O O9 0.208059 0.186002 0.789189
O O10 0.315126 0.110751 0.791966
O O11 0.297992 0.185015 0.000000
O O12 0.634109 0.267842 0.500000
O O13 0.581009 0.268966 0.771081
O O14 0.690413 0.207582 0.706810
O O15 0.884150 0.439416 0.500000
O O16 0.942119 0.417194 0.759469
O O17 0.499424 0.126899 0.500000
O O18 0.503395 0.181059 0.244588
O O19 0.498495 0.758162 0.000000
O O20 0.240642 0.841606 0.500000
#
# Coordination Sequence:
#
# PCOD9444146 Si02
#       8
#     8   8   8   8   8   8   8   8
#     4  10  21  36  52  70  99 140 176 208 250 297
#     4  11  21  32  51  75  99 130 167 207 251 303
#     4   9  19  35  51  70 100 134 165 206 255 298
#     4   9  17  33  53  71  96 131 166 202 249 305
#     4  11  22  34  50  74 102 136 174 213 250 290
#     4  11  21  35  50  69  98 138 179 209 244 295
#     4  12  22  32  49  75 104 133 165 207 255 300
#     4   9  18  35  53  71  99 133 167 207 255 298
#
# _framework density 15.600883
#
# number of rings (size 3 to 8) (size 9 to 14) (size 15 to 20)
#    0.000    1.750    2.500    4.125    0.000    5.500 
#    0.000    0.000    0.000    0.000    0.000    0.875 
#    0.000    7.000    0.000    0.000    0.000    0.000 
#
# Total GULP energy -357340.787313 kJ/mol
# GULP energy per Si atom -5583.449802 kJ/mol
# Density = 1.556537 g / cm^3
# Si number density = 15.600883 Si / 1000 Ang^3
#
#
#
# Elastic Constant Matrix: (Units=GPa)
#
#
# Indices 1 2 3 4 5 6 
#
# 1 85.0817 31.0466 51.0061 0.0000 0.0000 0.0000
# 2 31.0466 54.8476 32.8361 0.0000 0.0000 0.0000
# 3 51.0061 32.8361 69.5088 0.0000 0.0000 0.0000
# 4 0.0000 0.0000 0.0000 45.0879 0.0000 0.0000
# 5 0.0000 0.0000 0.0000 0.0000 21.7404 0.0000
# 6 0.0000 0.0000 0.0000 0.0000 0.0000 16.7446
#
#
#
# Elastic Compliance Matrix: (Units=1/GPa)
#
#
# Indices 1 2 3 4 5 6 
#
# 1 0.021540 -0.003806 -0.014008 0.000000 0.000000 0.000000
# 2 -0.003806 0.026095 -0.009534 0.000000 0.000000 0.000000
# 3 -0.014008 -0.009534 0.029170 0.000000 0.000000 0.000000
# 4 0.000000 0.000000 0.000000 0.022179 0.000000 0.000000
# 5 0.000000 0.000000 0.000000 0.000000 0.045997 0.000000
# 6 0.000000 0.000000 0.000000 0.000000 0.000000 0.059721
#
#
# Mechanical properties :
#
#
# Convention : Reuss Voigt Hill
#
# Bulk Modulus (GPa) = 45.23345 48.80175 47.01760
# Shear Modulus (GPa) = 18.74281 23.01786 20.88034
#
# Velocity S-wave (km/s) = 3.46987 3.84529 3.66239
# Velocity P-wave (km/s) = 6.71643 7.14593 6.93451
#
# Compressibility (1/GPa) = 0.02210753
#
# Stress axis : x y z
#
# Youngs Moduli (GPa) = 46.42457 38.32181 34.28187
#
# Poissons Ratio (x) = 0.14587 0.48023
# Poissons Ratio (y) = 0.17672 0.32684
# Poissons Ratio (z) = 0.65033 0.36536
#
# Static dielectric constant tensor:
#      x y z
#    x 1.519650 0.000000 0.000000 
#    y 0.000000 1.501180 0.000000 
#    z 0.000000 0.000000 1.519610 
# 
# From -- ./inp_files/8478.got.cif
#   From: 2010.05.17/outbox.cif.g08.bks.cpg/sg58_5_cif.got.tgz:8478.got - 2010.06.03 14:20:14.
