data_PCOD9444950
_publ_section_title
;
Structure prediction by ZEFSAII (Michael W. Deem and Ramdas Pophale) SiO2 
 PCOD9444950
Probable space group: P N N M
;
_chemical_formula_sum "Si O2"
_cell_formula_units_Z 40
_cell_length_a 8.236578
_cell_length_b 28.255499
_cell_length_c 7.772004
_cell_angle_alpha 90.000000
_cell_angle_beta 90.000000
_cell_angle_gamma 90.000000
_cell_volume 1808.767777
_symmetry_space_group_name_H-M "P N N M"
_symmetry_group_IT_number 58
_symmetry_cell_setting 'orthorhombic'
loop_
_space_group_symop_operation_xyz
x,y,z
-x,-y,z
1/2+x,1/2-y,1/2-z
1/2-x,1/2+y,1/2-z
-x,-y,-z
x,y,-z
1/2-x,1/2+y,1/2+z
1/2+x,1/2-y,1/2+z
loop_
_atom_site_type_symbol
_atom_site_label
_atom_site_fract_x
_atom_site_fract_y
_atom_site_fract_z
Si Si1 0.244543 0.374320 0.691565
Si Si2 0.739374 0.815996 0.794093
Si Si3 0.261994 0.525667 0.000000
Si Si4 0.108352 0.086323 0.798050
Si Si5 0.881088 0.719537 0.794042
Si Si6 0.907382 0.572464 0.000000
O O1 0.183527 0.384459 0.500000
O O2 0.421982 0.396771 0.710750
O O3 0.247108 0.317837 0.717662
O O4 0.127409 0.396122 0.833461
O O5 0.788908 0.868022 0.733787
O O6 0.850590 0.772675 0.729678
O O7 0.556914 0.800421 0.753951
O O8 0.759852 0.818434 0.000000
O O9 0.353868 0.543502 0.170338
O O10 0.222315 0.470365 0.000000
O O11 0.085556 0.550754 0.000000
O O12 0.144961 0.075918 0.000000
O O13 0.864268 0.719381 0.000000
#
# Coordination Sequence:
#
# PCOD9444950 Si02
#       6
#     8   8   4   8   8   4
#     4  11  23  42  66  92 130 168 210 266 319 382
#     4  10  22  38  57  87 127 168 214 260 311 376
#     4  11  25  43  69  93 129 165 211 275 316 389
#     4  10  23  42  64  93 127 168 212 260 323 381
#     4  11  22  37  59  90 127 168 217 261 311 376
#     4  11  25  45  65  99 125 165 219 259 332 385
#
# _framework density 22.114502000000002
#
# number of rings (size 3 to 8) (size 9 to 14) (size 15 to 20)
#    0.000    1.400    1.000    3.600    1.400    8.000 
#    0.000    4.000    0.000    0.000    0.000    0.000 
#    0.000    0.000    0.000    0.000    0.000    0.000 
#
# Total GULP energy -223871.460434 kJ/mol
# GULP energy per Si atom -5596.786511 kJ/mol
# Density = 2.206417 g / cm^3
# Si number density = 22.114502 Si / 1000 Ang^3
#
#
#
# Elastic Constant Matrix: (Units=GPa)
#
#
# Indices 1 2 3 4 5 6 
#
# 1 45.7725 4.9829 7.9450 0.0000 0.0000 0.0000
# 2 4.9829 79.3889 28.1370 0.0000 0.0000 0.0000
# 3 7.9450 28.1370 84.3790 0.0000 0.0000 0.0000
# 4 0.0000 0.0000 0.0000 4.6723 0.0000 0.0000
# 5 0.0000 0.0000 0.0000 0.0000 58.0898 0.0000
# 6 0.0000 0.0000 0.0000 0.0000 0.0000 39.2693
#
#
#
# Elastic Compliance Matrix: (Units=1/GPa)
#
#
# Indices 1 2 3 4 5 6 
#
# 1 0.022249 -0.000742 -0.001848 0.000000 0.000000 0.000000
# 2 -0.000742 0.014309 -0.004702 0.000000 0.000000 0.000000
# 3 -0.001848 -0.004702 0.013593 0.000000 0.000000 0.000000
# 4 0.000000 0.000000 0.000000 0.214027 0.000000 0.000000
# 5 0.000000 0.000000 0.000000 0.000000 0.017215 0.000000
# 6 0.000000 0.000000 0.000000 0.000000 0.000000 0.025465
#
#
# Mechanical properties :
#
#
# Convention : Reuss Voigt Hill
#
# Bulk Modulus (GPa) = 28.11437 32.40781 30.26109
# Shear Modulus (GPa) = 15.00167 31.63799 23.31983
#
# Velocity S-wave (km/s) = 2.60737 3.78649 3.25084
# Velocity P-wave (km/s) = 4.66960 5.81404 5.27296
#
# Compressibility (1/GPa) = 0.03556900
#
# Stress axis : x y z
#
# Youngs Moduli (GPa) = 44.94666 69.88534 73.56683
#
# Poissons Ratio (x) = 0.05183 0.13592
# Poissons Ratio (y) = 0.03333 0.34589
# Poissons Ratio (z) = 0.08304 0.32858
#
# Static dielectric constant tensor:
#      x y z
#    x 1.804610 0.000000 0.000000 
#    y 0.000000 2.258940 0.000000 
#    z 0.000000 0.000000 1.786950 
# 
# From -- ./inp_files/2673.got.cif
#   From: 2010.05.17/outbox.cif.g08.bks.cpg/sg58_2_cif.got.tgz:2673.got - 2010.06.03 14:20:14.
