data_PCOD9444234
_publ_section_title
;
Structure prediction by ZEFSAII (Michael W. Deem and Ramdas Pophale) SiO2 
 PCOD9444234
Probable space group: P N N M
;
_chemical_formula_sum "Si O2"
_cell_formula_units_Z 56
_cell_length_a 16.933878
_cell_length_b 13.672453
_cell_length_c 13.377173
_cell_angle_alpha 90.000000
_cell_angle_beta 90.000000
_cell_angle_gamma 90.000000
_cell_volume 3097.185443
_symmetry_space_group_name_H-M "P N N M"
_symmetry_group_IT_number 58
_symmetry_cell_setting 'orthorhombic'
loop_
_space_group_symop_operation_xyz
x,y,z
-x,-y,z
1/2+x,1/2-y,1/2-z
1/2-x,1/2+y,1/2-z
-x,-y,-z
x,y,-z
1/2-x,1/2+y,1/2+z
1/2+x,1/2-y,1/2+z
loop_
_atom_site_type_symbol
_atom_site_label
_atom_site_fract_x
_atom_site_fract_y
_atom_site_fract_z
Si Si1 0.788715 0.213733 0.690254
Si Si2 0.788967 0.995875 0.382043
Si Si3 0.618690 0.271579 0.383196
Si Si4 0.000513 0.615731 0.810831
Si Si5 0.054004 0.094447 0.290294
Si Si6 0.539898 0.773098 0.115198
Si Si7 0.330492 0.178137 0.614732
O O1 0.782941 0.097719 0.675651
O O2 0.710425 0.262002 0.645111
O O3 0.867678 0.252329 0.635759
O O4 0.798444 0.244254 0.805627
O O5 0.793908 0.018252 0.500000
O O6 0.867256 0.939534 0.346956
O O7 0.715351 0.923634 0.365861
O O8 0.609027 0.291837 0.500000
O O9 0.575897 0.169308 0.355469
O O10 0.578291 0.352226 0.312378
O O11 0.000000 0.500000 0.823768
O O12 0.010242 0.646503 0.694678
O O13 0.077163 0.660930 0.865404
O O14 0.006223 0.173672 0.355581
O O15 0.000000 0.000000 0.272981
O O16 0.526724 0.798272 0.000000
O O17 0.316295 0.206068 0.500000
#
# Coordination Sequence:
#
# PCOD9444234 Si02
#       7
#     8   8   8   8   8   8   8
#     4  11  21  37  60  88 118 147 199 243 286 345
#     4  11  21  36  63  89 115 155 193 238 290 343
#     4  11  23  39  60  86 119 157 196 242 294 346
#     4  10  22  39  59  86 118 152 198 242 282 349
#     4  11  22  38  58  89 121 151 194 246 289 353
#     4  10  21  36  59  86 118 156 191 241 297 342
#     4  10  22  40  61  84 118 153 189 239 292 343
#
# _framework density 18.080932000000001
#
# number of rings (size 3 to 8) (size 9 to 14) (size 15 to 20)
#    0.000    1.429    2.857    3.000    0.000    3.429 
#    0.000    0.714    0.000    1.714    0.000    0.000 
#    0.000    0.000    0.000    0.000    0.000    0.000 
#
# Total GULP energy -312912.472524 kJ/mol
# GULP energy per Si atom -5587.722724 kJ/mol
# Density = 1.803978 g / cm^3
# Si number density = 18.080932 Si / 1000 Ang^3
#
#
#
# Elastic Constant Matrix: (Units=GPa)
#
#
# Indices 1 2 3 4 5 6 
#
# 1 56.3899 -14.9845 9.9546 0.0000 0.0000 0.0000
# 2 -14.9845 52.8275 24.5608 0.0000 0.0000 0.0000
# 3 9.9546 24.5608 121.4031 0.0000 0.0000 0.0000
# 4 0.0000 0.0000 0.0000 4.4596 0.0000 0.0000
# 5 0.0000 0.0000 0.0000 0.0000 12.1756 0.0000
# 6 0.0000 0.0000 0.0000 0.0000 0.0000 23.1731
#
#
#
# Elastic Compliance Matrix: (Units=1/GPa)
#
#
# Indices 1 2 3 4 5 6 
#
# 1 0.020187 0.007170 -0.003106 0.000000 0.000000 0.000000
# 2 0.007170 0.023442 -0.005330 0.000000 0.000000 0.000000
# 3 -0.003106 -0.005330 0.009570 0.000000 0.000000 0.000000
# 4 0.000000 0.000000 0.000000 0.224235 0.000000 0.000000
# 5 0.000000 0.000000 0.000000 0.000000 0.082131 0.000000
# 6 0.000000 0.000000 0.000000 0.000000 0.000000 0.043154
#
#
# Mechanical properties :
#
#
# Convention : Reuss Voigt Hill
#
# Bulk Modulus (GPa) = 19.73684 29.96470 24.85077
# Shear Modulus (GPa) = 11.84442 22.03431 16.93936
#
# Velocity S-wave (km/s) = 2.56223 3.49470 3.06414
# Velocity P-wave (km/s) = 4.43766 5.73519 5.12764
#
# Compressibility (1/GPa) = 0.05066668
#
# Stress axis : x y z
#
# Youngs Moduli (GPa) = 49.53618 42.65934 104.49262
#
# Poissons Ratio (x) = -0.30587 0.32454
# Poissons Ratio (y) = -0.35518 0.55698
# Poissons Ratio (z) = 0.15385 0.22739
#
# Static dielectric constant tensor:
#      x y z
#    x 1.617010 0.000000 0.000000 
#    y 0.000000 1.591860 0.000000 
#    z 0.000000 0.000000 1.601710 
# 
# From -- ./inp_files/15696.got.cif
#   From: 2010.05.17/outbox.cif.g08.bks.cpg/sg58_8_cif.got.tgz:15696.got - 2010.06.03 14:20:14.
