data_PCOD9444835
_publ_section_title
;
Structure prediction by ZEFSAII (Michael W. Deem and Ramdas Pophale) SiO2 
 PCOD9444835
Probable space group: P N N M
;
_chemical_formula_sum "Si O2"
_cell_formula_units_Z 44
_cell_length_a 9.864113
_cell_length_b 7.315910
_cell_length_c 27.777029
_cell_angle_alpha 90.000000
_cell_angle_beta 90.000000
_cell_angle_gamma 90.000000
_cell_volume 2004.528268
_symmetry_space_group_name_H-M "P N N M"
_symmetry_group_IT_number 58
_symmetry_cell_setting 'orthorhombic'
loop_
_space_group_symop_operation_xyz
x,y,z
-x,-y,z
1/2+x,1/2-y,1/2-z
1/2-x,1/2+y,1/2-z
-x,-y,-z
x,y,-z
1/2-x,1/2+y,1/2+z
1/2+x,1/2-y,1/2+z
loop_
_atom_site_type_symbol
_atom_site_label
_atom_site_fract_x
_atom_site_fract_y
_atom_site_fract_z
Si Si1 0.693881 0.745903 0.809143
Si Si2 0.628858 0.364196 0.393861
Si Si3 0.684230 0.859884 0.704901
Si Si4 0.431893 0.796181 0.849156
Si Si5 0.500000 0.000000 0.374272
Si Si6 0.850769 0.590425 0.552852
O O1 0.792916 0.869202 0.841941
O O2 0.636403 0.814870 0.758333
O O3 0.777655 0.570893 0.794583
O O4 0.568505 0.682831 0.841809
O O5 0.500000 0.500000 0.394872
O O6 0.738154 0.442124 0.431776
O O7 0.590677 0.149639 0.402275
O O8 0.818494 0.748672 0.690024
O O9 0.579051 0.858945 0.661154
O O10 0.363266 0.776717 0.901252
O O11 0.500000 0.000000 0.844626
O O12 0.819904 0.667187 0.500000
O O13 0.000000 0.500000 0.550671
#
# Coordination Sequence:
#
# PCOD9444835 Si02
#       6
#     8   8   8   8   4   8
#     4  11  24  38  60  95 132 183 226 275 332 406
#     4  11  23  42  67  95 136 175 226 284 351 410
#     4  11  25  39  60  92 138 180 229 269 333 413
#     4  11  21  40  65  94 130 172 226 278 336 401
#     4  10  26  40  61  96 134 180 221 280 346 412
#     4  10  21  41  72  99 126 174 233 288 349 412
#
# _framework density 21.950303000000002
#
# number of rings (size 3 to 8) (size 9 to 14) (size 15 to 20)
#    0.000    1.273    3.636    2.727    8.909    0.364 
#    0.000    0.455    0.000    8.727    0.000    0.000 
#    0.000    0.000    0.000    0.000    0.000    0.000 
#
# Total GULP energy -245339.796883 kJ/mol
# GULP energy per Si atom -5575.904475 kJ/mol
# Density = 2.190034 g / cm^3
# Si number density = 21.950303 Si / 1000 Ang^3
#
#
#
# Elastic Constant Matrix: (Units=GPa)
#
#
# Indices 1 2 3 4 5 6 
#
# 1 123.0331 26.2316 33.0936 0.0000 0.0000 0.0000
# 2 26.2316 27.1377 12.4940 0.0000 0.0000 0.0000
# 3 33.0936 12.4940 122.5450 0.0000 0.0000 0.0000
# 4 0.0000 0.0000 0.0000 17.0319 0.0000 0.0000
# 5 0.0000 0.0000 0.0000 0.0000 0.6421 0.0000
# 6 0.0000 0.0000 0.0000 0.0000 0.0000 40.1967
#
#
#
# Elastic Compliance Matrix: (Units=1/GPa)
#
#
# Indices 1 2 3 4 5 6 
#
# 1 0.010650 -0.009412 -0.001916 0.000000 0.000000 0.000000
# 2 -0.009412 0.046982 -0.002248 0.000000 0.000000 0.000000
# 3 -0.001916 -0.002248 0.008907 0.000000 0.000000 0.000000
# 4 0.000000 0.000000 0.000000 0.058713 0.000000 0.000000
# 5 0.000000 0.000000 0.000000 0.000000 1.557506 0.000000
# 6 0.000000 0.000000 0.000000 0.000000 0.000000 0.024878
#
#
# Mechanical properties :
#
#
# Convention : Reuss Voigt Hill
#
# Bulk Modulus (GPa) = 25.39012 46.26156 35.82584
# Shear Modulus (GPa) = 2.86055 24.96725 13.91390
#
# Velocity S-wave (km/s) = 1.14281 3.37626 2.52043
# Velocity P-wave (km/s) = 3.65152 6.02662 4.98266
#
# Compressibility (1/GPa) = 0.03938540
#
# Stress axis : x y z
#
# Youngs Moduli (GPa) = 93.89553 21.28474 112.27078
#
# Poissons Ratio (x) = 0.20034 0.21516
# Poissons Ratio (y) = 0.88376 0.25241
# Poissons Ratio (z) = 0.17995 0.04785
#
# Static dielectric constant tensor:
#      x y z
#    x 1.931970 0.000000 0.000000 
#    y 0.000000 1.883140 0.000000 
#    z 0.000000 0.000000 1.832810 
# 
# From -- ./inp_files/34460.got.cif
#   From: 2010.05.17/outbox.cif.g08.bks.cpg/sg58_18_cif.got.tgz:34460.got - 2010.06.03 14:20:14.
