data_PCOD9444627
_publ_section_title
;
Structure prediction by ZEFSAII (Michael W. Deem and Ramdas Pophale) SiO2 
 PCOD9444627
Probable space group: P N N M
;
_chemical_formula_sum "Si O2"
_cell_formula_units_Z 40
_cell_length_a 16.293534
_cell_length_b 10.369241
_cell_length_c 11.599981
_cell_angle_alpha 90.000000
_cell_angle_beta 90.000000
_cell_angle_gamma 90.000000
_cell_volume 1959.835127
_symmetry_space_group_name_H-M "P N N M"
_symmetry_group_IT_number 58
_symmetry_cell_setting 'orthorhombic'
loop_
_space_group_symop_operation_xyz
x,y,z
-x,-y,z
1/2+x,1/2-y,1/2-z
1/2-x,1/2+y,1/2-z
-x,-y,-z
x,y,-z
1/2-x,1/2+y,1/2+z
1/2+x,1/2-y,1/2+z
loop_
_atom_site_type_symbol
_atom_site_label
_atom_site_fract_x
_atom_site_fract_y
_atom_site_fract_z
Si Si1 0.865844 0.954835 0.500000
Si Si2 0.950103 0.875487 0.136749
Si Si3 0.721667 0.373151 0.766111
Si Si4 0.483745 0.855656 0.212088
Si Si5 0.036313 0.788122 0.500000
Si Si6 0.797309 0.608161 0.637703
O O1 0.812176 0.926331 0.612344
O O2 0.896645 0.100894 0.500000
O O3 0.948222 0.864988 0.500000
O O4 0.989394 0.745831 0.185602
O O5 0.857700 0.873098 0.183031
O O6 0.950936 0.879342 0.000000
O O7 0.000000 0.000000 0.182174
O O8 0.781216 0.474284 0.703901
O O9 0.749482 0.227184 0.797883
O O10 0.392606 0.856414 0.156560
O O11 0.500000 0.000000 0.249197
O O12 0.540953 0.802920 0.110655
O O13 0.779268 0.602526 0.500000
#
# Coordination Sequence:
#
# PCOD9444627 Si02
#       6
#     4   8   8   8   4   8
#     4  11  20  38  68  96 115 158 205 266 297 363
#     4  10  21  39  62  87 119 160 209 246 297 375
#     4  11  22  41  62  90 123 161 205 252 307 368
#     4  11  22  39  62  91 126 154 200 262 313 363
#     4  11  19  36  70  92 120 148 206 260 312 357
#     4  11  23  43  61  87 128 165 203 256 309 363
#
# _framework density 20.409879
#
# number of rings (size 3 to 8) (size 9 to 14) (size 15 to 20)
#    0.000    1.200    6.000    2.100    0.000    3.600 
#    9.000    0.000    0.000    0.000    0.000    0.000 
#    0.000    0.000    0.000    0.000    0.000    0.000 
#
# Total GULP energy -223425.295032 kJ/mol
# GULP energy per Si atom -5585.632376 kJ/mol
# Density = 2.036343 g / cm^3
# Si number density = 20.409879 Si / 1000 Ang^3
#
#
#
# Elastic Constant Matrix: (Units=GPa)
#
#
# Indices 1 2 3 4 5 6 
#
# 1 6.8767 10.2032 7.3627 0.0000 0.0000 0.0000
# 2 10.2032 144.1087 41.0831 0.0000 0.0000 0.0000
# 3 7.3627 41.0831 104.8802 0.0000 0.0000 0.0000
# 4 0.0000 0.0000 0.0000 94.7834 0.0000 0.0000
# 5 0.0000 0.0000 0.0000 0.0000 -33.1918 0.0000
# 6 0.0000 0.0000 0.0000 0.0000 0.0000 35.1866
#
#
#
# Elastic Compliance Matrix: (Units=1/GPa)
#
#
# Indices 1 2 3 4 5 6 
#
# 1 0.168311 -0.009623 -0.008046 0.000000 0.000000 0.000000
# 2 -0.009623 0.008362 -0.002600 0.000000 0.000000 0.000000
# 3 -0.008046 -0.002600 0.011118 0.000000 0.000000 0.000000
# 4 0.000000 0.000000 0.000000 0.010550 0.000000 0.000000
# 5 0.000000 0.000000 0.000000 0.000000 -0.030128 0.000000
# 6 0.000000 0.000000 0.000000 0.000000 0.000000 0.028420
#
#
# Mechanical properties :
#
#
# Convention : Reuss Voigt Hill
#
# Bulk Modulus (GPa) = 6.79104 41.46263 24.12684
# Shear Modulus (GPa) = 17.46691 32.50341 24.98516
#
# Velocity S-wave (km/s) = 2.92859 3.99498 3.50261
# Velocity P-wave (km/s) = 3.84319 6.45283 5.31079
#
# Compressibility (1/GPa) = 0.14725287
#
# Stress axis : x y z
#
# Youngs Moduli (GPa) = 5.94137 119.59284 89.94462
#
# Poissons Ratio (x) = 1.15083 0.72372
# Poissons Ratio (y) = 0.05717 0.23384
# Poissons Ratio (z) = 0.04781 0.31092
#
# Static dielectric constant tensor:
#      x y z
#    x 1.755300 0.000000 0.000000 
#    y 0.000000 1.768220 0.000000 
#    z 0.000000 0.000000 1.689580 
# 
# From -- ./inp_files/16898.got.cif
#   From: 2010.05.17/outbox.cif.g08.bks.cpg/sg58_9_cif.got.tgz:16898.got - 2010.06.03 14:20:14.
