data_PCOD9444442
_publ_section_title
;
Structure prediction by ZEFSAII (Michael W. Deem and Ramdas Pophale) SiO2 
 PCOD9444442
Probable space group: P N N M
;
_chemical_formula_sum "Si O2"
_cell_formula_units_Z 64
_cell_length_a 14.018886
_cell_length_b 12.660154
_cell_length_c 18.214129
_cell_angle_alpha 90.000000
_cell_angle_beta 90.000000
_cell_angle_gamma 90.000000
_cell_volume 3232.666486
_symmetry_space_group_name_H-M "P N N M"
_symmetry_group_IT_number 58
_symmetry_cell_setting 'orthorhombic'
loop_
_space_group_symop_operation_xyz
x,y,z
-x,-y,z
1/2+x,1/2-y,1/2-z
1/2-x,1/2+y,1/2-z
-x,-y,-z
x,y,-z
1/2-x,1/2+y,1/2+z
1/2+x,1/2-y,1/2+z
loop_
_atom_site_type_symbol
_atom_site_label
_atom_site_fract_x
_atom_site_fract_y
_atom_site_fract_z
Si Si1 0.416630 0.369648 0.583910
Si Si2 0.101678 0.441822 0.919861
Si Si3 0.706001 0.928228 0.704012
Si Si4 0.727035 0.459127 0.646466
Si Si5 0.588347 0.271714 0.657960
Si Si6 0.602941 0.084325 0.915680
Si Si7 0.487793 0.121780 0.771603
Si Si8 0.756832 0.783007 0.581885
O O1 0.449399 0.382806 0.500000
O O2 0.349712 0.467187 0.606224
O O3 0.503328 0.351946 0.638582
O O4 0.350027 0.265020 0.586252
O O5 0.162553 0.492856 0.855545
O O6 0.088925 0.318591 0.903951
O O7 0.000000 0.500000 0.919943
O O8 0.145066 0.457974 0.000000
O O9 0.758281 0.990638 0.768558
O O10 0.621770 0.861613 0.745787
O O11 0.770465 0.853967 0.653299
O O12 0.684934 0.340482 0.653398
O O13 0.828792 0.486101 0.608583
O O14 0.556732 0.204771 0.730100
O O15 0.521325 0.112202 0.856273
O O16 0.673861 0.183696 0.913859
O O17 0.572316 0.073620 0.000000
O O18 0.500000 0.000000 0.745456
O O19 0.768386 0.830536 0.500000
#
# Coordination Sequence:
#
# PCOD9444442 Si02
#       8
#     8   8   8   8   8   8   8   8
#     4  10  21  38  57  82 117 150 182 226 283 342
#     4  11  21  35  57  84 112 142 181 226 279 338
#     4  12  20  37  56  85 117 146 187 232 280 333
#     4  11  24  35  56  81 112 152 187 231 278 331
#     4  12  21  37  58  85 114 145 186 234 284 339
#     4  10  22  40  58  82 113 151 195 231 275 334
#     4  12  21  39  58  82 114 148 188 232 280 336
#     4   9  18  35  60  85 112 146 184 230 282 336
#
# _framework density 19.797896000000001
#
# number of rings (size 3 to 8) (size 9 to 14) (size 15 to 20)
#    0.000    1.125    5.000    3.000    0.000    5.750 
#    0.000    0.000    0.000    0.000    0.000    0.000 
#    0.000    5.000    0.000    0.000    0.000    0.000 
#
# Total GULP energy -356817.744527 kJ/mol
# GULP energy per Si atom -5575.277258 kJ/mol
# Density = 1.975284 g / cm^3
# Si number density = 19.797896 Si / 1000 Ang^3
#
#
#
# Elastic Constant Matrix: (Units=GPa)
#
#
# Indices 1 2 3 4 5 6 
#
# 1 60.9649 21.2132 28.0570 0.0000 0.0000 0.0000
# 2 21.2132 58.0951 27.0685 0.0000 0.0000 0.0000
# 3 28.0570 27.0685 146.0477 0.0000 0.0000 0.0000
# 4 0.0000 0.0000 0.0000 9.5631 0.0000 0.0000
# 5 0.0000 0.0000 0.0000 0.0000 62.8938 0.0000
# 6 0.0000 0.0000 0.0000 0.0000 0.0000 27.1732
#
#
#
# Elastic Compliance Matrix: (Units=1/GPa)
#
#
# Indices 1 2 3 4 5 6 
#
# 1 0.019707 -0.005945 -0.002684 0.000000 0.000000 0.000000
# 2 -0.005945 0.020634 -0.002682 0.000000 0.000000 0.000000
# 3 -0.002684 -0.002682 0.007860 0.000000 0.000000 0.000000
# 4 0.000000 0.000000 0.000000 0.104568 0.000000 0.000000
# 5 0.000000 0.000000 0.000000 0.000000 0.015900 0.000000
# 6 0.000000 0.000000 0.000000 0.000000 0.000000 0.036801
#
#
# Mechanical properties :
#
#
# Convention : Reuss Voigt Hill
#
# Bulk Modulus (GPa) = 39.09674 46.42058 42.75866
# Shear Modulus (GPa) = 21.13113 32.51063 26.82088
#
# Velocity S-wave (km/s) = 3.27056 4.05671 3.68466
# Velocity P-wave (km/s) = 5.83549 6.74097 6.30451
#
# Compressibility (1/GPa) = 0.02557758
#
# Stress axis : x y z
#
# Youngs Moduli (GPa) = 50.74397 48.46427 127.22990
#
# Poissons Ratio (x) = 0.28814 0.34148
# Poissons Ratio (y) = 0.30169 0.34125
# Poissons Ratio (z) = 0.13619 0.12999
#
# Static dielectric constant tensor:
#      x y z
#    x 1.763230 0.000000 0.000000 
#    y 0.000000 1.761990 0.000000 
#    z 0.000000 0.000000 1.720760 
# 
# From -- ./inp_files/27026.got.cif
#   From: 2010.05.17/outbox.cif.g08.bks.cpg/sg58_14_cif.got.tgz:27026.got - 2010.06.03 14:20:14.
