data_PCOD9444598
_publ_section_title
;
Structure prediction by ZEFSAII (Michael W. Deem and Ramdas Pophale) SiO2 
 PCOD9444598
Probable space group: P N N M
;
_chemical_formula_sum "Si O2"
_cell_formula_units_Z 56
_cell_length_a 11.545619
_cell_length_b 16.789615
_cell_length_c 13.767563
_cell_angle_alpha 90.000000
_cell_angle_beta 90.000000
_cell_angle_gamma 90.000000
_cell_volume 2668.793873
_symmetry_space_group_name_H-M "P N N M"
_symmetry_group_IT_number 58
_symmetry_cell_setting 'orthorhombic'
loop_
_space_group_symop_operation_xyz
x,y,z
-x,-y,z
1/2+x,1/2-y,1/2-z
1/2-x,1/2+y,1/2-z
-x,-y,-z
x,y,-z
1/2-x,1/2+y,1/2+z
1/2+x,1/2-y,1/2+z
loop_
_atom_site_type_symbol
_atom_site_label
_atom_site_fract_x
_atom_site_fract_y
_atom_site_fract_z
Si Si1 0.206353 0.042003 0.387746
Si Si2 0.859330 0.691937 0.785207
Si Si3 0.623517 0.612076 0.213117
Si Si4 0.533248 0.408374 0.393784
Si Si5 0.057132 0.203252 0.608007
Si Si6 0.727906 0.836346 0.887512
Si Si7 0.064683 0.581801 0.769021
O O1 0.216149 0.015839 0.500000
O O2 0.137837 0.125028 0.385543
O O3 0.331698 0.056073 0.340586
O O4 0.132867 0.976728 0.328623
O O5 0.753436 0.634352 0.760296
O O6 0.900123 0.736735 0.688845
O O7 0.800872 0.758032 0.854853
O O8 0.968541 0.639219 0.818811
O O9 0.539738 0.625412 0.304733
O O10 0.570731 0.670698 0.132025
O O11 0.500000 0.500000 0.397612
O O12 0.507819 0.371364 0.500000
O O13 0.670101 0.402019 0.378193
O O14 0.063989 0.236272 0.500000
O O15 0.626146 0.866162 0.816484
O O16 0.692307 0.830606 0.000000
O O17 0.000000 0.500000 0.736299
#
# Coordination Sequence:
#
# PCOD9444598 Si02
#       7
#     8   8   8   8   8   8   8
#     4  11  24  44  72 102 134 175 226 284 341 407
#     4  12  26  41  66  97 137 182 220 280 340 399
#     4  12  22  41  67  96 135 175 225 281 338 404
#     4  10  21  38  67  98 127 170 219 276 337 403
#     4  11  24  43  69 100 134 174 228 284 344 407
#     4  11  25  46  69  98 134 177 229 279 341 408
#     4  12  25  47  68 100 141 184 226 280 340 407
#
# _framework density 20.983260999999999
#
# number of rings (size 3 to 8) (size 9 to 14) (size 15 to 20)
#    0.000    0.714    4.286    3.429    0.000    5.714 
#    0.000    2.857    0.000    0.000    0.000    0.000 
#    0.000    0.000    0.000    0.000    0.000    0.000 
#
# Total GULP energy -312953.257653 kJ/mol
# GULP energy per Si atom -5588.451030 kJ/mol
# Density = 2.093550 g / cm^3
# Si number density = 20.983261 Si / 1000 Ang^3
#
#
#
# Elastic Constant Matrix: (Units=GPa)
#
#
# Indices 1 2 3 4 5 6 
#
# 1 136.9747 32.1361 39.8630 0.0000 0.0000 0.0000
# 2 32.1361 69.4905 17.9615 0.0000 0.0000 0.0000
# 3 39.8630 17.9615 99.2038 0.0000 0.0000 0.0000
# 4 0.0000 0.0000 0.0000 -0.0986 0.0000 0.0000
# 5 0.0000 0.0000 0.0000 0.0000 -10.4182 0.0000
# 6 0.0000 0.0000 0.0000 0.0000 0.0000 50.4088
#
#
#
# Elastic Compliance Matrix: (Units=1/GPa)
#
#
# Indices 1 2 3 4 5 6 
#
# 1 0.008962 -0.003371 -0.002991 0.000000 0.000000 0.000000
# 2 -0.003371 0.016365 -0.001608 0.000000 0.000000 0.000000
# 3 -0.002991 -0.001608 0.011573 0.000000 0.000000 0.000000
# 4 0.000000 0.000000 0.000000-10.139254 0.000000 0.000000
# 5 0.000000 0.000000 0.000000 0.000000 -0.095986 0.000000
# 6 0.000000 0.000000 0.000000 0.000000 0.000000 0.019838
#
#
# Mechanical properties :
#
#
# Convention : Reuss Voigt Hill
#
# Bulk Modulus (GPa) = 47.71111 53.95446 50.83279
# Shear Modulus (GPa) = -0.49234 22.35897 10.93332
#
# Velocity S-wave (km/s) = -0.48492 3.26784 2.28513
# Velocity P-wave (km/s) = 4.74063 6.32513 5.58931
#
# Compressibility (1/GPa) = 0.02095948
#
# Stress axis : x y z
#
# Youngs Moduli (GPa) = 111.58226 61.10489 86.40631
#
# Poissons Ratio (x) = 0.20601 0.25842
# Poissons Ratio (y) = 0.37620 0.13897
# Poissons Ratio (z) = 0.33372 0.09827
#
# Static dielectric constant tensor:
#      x y z
#    x 1.753470 0.000000 0.000000 
#    y 0.000000 1.821750 0.000000 
#    z 0.000000 0.000000 1.771170 
# 
# From -- ./inp_files/21260.got.cif
#   From: 2010.05.17/outbox.cif.g08.bks.cpg/sg58_11_cif.got.tgz:21260.got - 2010.06.03 14:20:14.
