data_PCOD9444976
_publ_section_title
;
Structure prediction by ZEFSAII (Michael W. Deem and Ramdas Pophale) SiO2 
 PCOD9444976
Probable space group: P N N M
;
_chemical_formula_sum "Si O2"
_cell_formula_units_Z 64
_cell_length_a 10.396748
_cell_length_b 19.054374
_cell_length_c 13.683915
_cell_angle_alpha 90.000000
_cell_angle_beta 90.000000
_cell_angle_gamma 90.000000
_cell_volume 2710.831794
_symmetry_space_group_name_H-M "P N N M"
_symmetry_group_IT_number 58
_symmetry_cell_setting 'orthorhombic'
loop_
_space_group_symop_operation_xyz
x,y,z
-x,-y,z
1/2+x,1/2-y,1/2-z
1/2-x,1/2+y,1/2-z
-x,-y,-z
x,y,-z
1/2-x,1/2+y,1/2+z
1/2+x,1/2-y,1/2+z
loop_
_atom_site_type_symbol
_atom_site_label
_atom_site_fract_x
_atom_site_fract_y
_atom_site_fract_z
Si Si1 0.848842 0.982794 0.886424
Si Si2 0.677523 0.353448 0.760181
Si Si3 0.065739 0.892984 0.610752
Si Si4 0.186323 0.449516 0.883267
Si Si5 0.314693 0.270518 0.799866
Si Si6 0.513682 0.850634 0.890151
Si Si7 0.565381 0.908712 0.698056
Si Si8 0.714094 0.641710 0.389583
O O1 0.819265 0.915679 0.819754
O O2 0.785359 0.058596 0.864811
O O3 0.821033 0.966383 0.000000
O O4 0.000000 0.000000 0.877430
O O5 0.556048 0.370045 0.827144
O O6 0.686345 0.276261 0.712216
O O7 0.814670 0.355845 0.817754
O O8 0.025723 0.905468 0.500000
O O9 0.173068 0.831294 0.619441
O O10 0.156490 0.812019 0.801741
O O11 0.124176 0.521488 0.846796
O O12 0.337939 0.453585 0.852912
O O13 0.077225 0.395123 0.843995
O O14 0.186868 0.446607 0.000000
O O15 0.418792 0.215361 0.839709
O O16 0.842284 0.149131 0.000000
O O17 0.541941 0.912796 0.814500
O O18 0.362630 0.836989 0.894307
O O19 0.560387 0.862449 0.000000
#
# Coordination Sequence:
#
# PCOD9444976 Si02
#       8
#     8   8   8   8   8   8   8   8
#     4  10  23  42  67 102 142 181 225 292 366 435
#     4  11  26  41  70 106 141 186 239 301 360 435
#     4  11  25  45  72 101 138 189 243 298 354 425
#     4  10  23  43  65  96 140 185 236 294 358 427
#     4  11  23  42  68  99 138 184 229 295 356 418
#     4  10  22  41  65 100 138 178 235 292 346 421
#     4  10  22  38  66  97 138 186 226 290 358 423
#     4  10  22  42  72 101 135 183 236 293 355 427
#
# _framework density 23.608988
#
# number of rings (size 3 to 8) (size 9 to 14) (size 15 to 20)
#    0.000    1.625    0.000    3.375    7.000    6.000 
#    0.000    6.250    0.000   12.000    0.000    0.000 
#    0.000    0.000    0.000    0.000    0.000    0.000 
#
# Total GULP energy -357038.947504 kJ/mol
# GULP energy per Si atom -5578.733555 kJ/mol
# Density = 2.355525 g / cm^3
# Si number density = 23.608988 Si / 1000 Ang^3
#
#
#
# Elastic Constant Matrix: (Units=GPa)
#
#
# Indices 1 2 3 4 5 6 
#
# 1 93.7678 -22.6903 21.4819 0.0000 0.0000 0.0000
# 2 -22.6903 50.9020 23.5863 0.0000 0.0000 0.0000
# 3 21.4819 23.5863 149.5099 0.0000 0.0000 0.0000
# 4 0.0000 0.0000 0.0000 22.8844 0.0000 0.0000
# 5 0.0000 0.0000 0.0000 0.0000 24.5959 0.0000
# 6 0.0000 0.0000 0.0000 0.0000 0.0000 33.1601
#
#
#
# Elastic Compliance Matrix: (Units=1/GPa)
#
#
# Indices 1 2 3 4 5 6 
#
# 1 0.013112 0.007248 -0.003027 0.000000 0.000000 0.000000
# 2 0.007248 0.025201 -0.005017 0.000000 0.000000 0.000000
# 3 -0.003027 -0.005017 0.007915 0.000000 0.000000 0.000000
# 4 0.000000 0.000000 0.000000 0.043698 0.000000 0.000000
# 5 0.000000 0.000000 0.000000 0.000000 0.040657 0.000000
# 6 0.000000 0.000000 0.000000 0.000000 0.000000 0.030157
#
#
# Mechanical properties :
#
#
# Convention : Reuss Voigt Hill
#
# Bulk Modulus (GPa) = 22.40416 37.65950 30.03183
# Shear Modulus (GPa) = 28.21490 34.24821 31.23156
#
# Velocity S-wave (km/s) = 3.46076 3.81286 3.64107
# Velocity P-wave (km/s) = 5.04771 5.94726 5.51585
#
# Compressibility (1/GPa) = 0.04463456
#
# Stress axis : x y z
#
# Youngs Moduli (GPa) = 76.26604 39.68093 126.34297
#
# Poissons Ratio (x) = -0.28759 0.38248
# Poissons Ratio (y) = -0.55275 0.63386
# Poissons Ratio (z) = 0.23088 0.19908
#
# Static dielectric constant tensor:
#      x y z
#    x 2.262520 0.000000 0.000000 
#    y 0.000000 2.130060 0.000000 
#    z 0.000000 0.000000 1.899590 
# 
# From -- ./inp_files/14840.got.cif
#   From: 2010.05.17/outbox.cif.g08.bks.cpg/sg58_8_cif.got.tgz:14840.got - 2010.06.03 14:20:14.
