data_PCOD9444828
_publ_section_title
;
Structure prediction by ZEFSAII (Michael W. Deem and Ramdas Pophale) SiO2 
 PCOD9444828
Probable space group: P N N M
;
_chemical_formula_sum "Si O2"
_cell_formula_units_Z 56
_cell_length_a 13.195558
_cell_length_b 12.588694
_cell_length_c 13.606612
_cell_angle_alpha 90.000000
_cell_angle_beta 90.000000
_cell_angle_gamma 90.000000
_cell_volume 2260.260200
_symmetry_space_group_name_H-M "P N N M"
_symmetry_group_IT_number 58
_symmetry_cell_setting 'orthorhombic'
loop_
_space_group_symop_operation_xyz
x,y,z
-x,-y,z
1/2+x,1/2-y,1/2-z
1/2-x,1/2+y,1/2-z
-x,-y,-z
x,y,-z
1/2-x,1/2+y,1/2+z
1/2+x,1/2-y,1/2+z
loop_
_atom_site_type_symbol
_atom_site_label
_atom_site_fract_x
_atom_site_fract_y
_atom_site_fract_z
Si Si1 0.056710 0.199175 0.676925
Si Si2 0.628163 0.651578 0.244597
Si Si3 0.684100 0.477536 0.387920
Si Si4 0.688102 0.073100 0.611385
Si Si5 0.560233 0.273268 0.393709
Si Si6 0.095844 0.438375 0.382140
Si Si7 0.776875 0.338354 0.116902
O O1 0.011521 0.197163 0.789919
O O2 0.087918 0.318370 0.653395
O O3 0.159640 0.139736 0.650749
O O4 0.946455 0.162324 0.645397
O O5 0.616755 0.545233 0.313724
O O6 0.733326 0.620956 0.186995
O O7 0.672549 0.748139 0.315900
O O8 0.666595 0.515217 0.500000
O O9 0.656193 0.353348 0.388977
O O10 0.800368 0.500447 0.362932
O O11 0.728299 0.077239 0.500000
O O12 0.592371 0.151830 0.612421
O O13 0.665749 0.949685 0.629967
O O14 0.510498 0.292367 0.500000
O O15 0.087493 0.432724 0.500000
O O16 0.000000 0.500000 0.341003
O O17 0.775091 0.309574 0.000000
#
# Coordination Sequence:
#
# PCOD9444828 Si02
#       7
#     8   8   8   8   8   8   8
#     4  12  25  39  65 102 135 176 227 279 338 416
#     4  12  25  40  69  99 134 180 230 276 343 409
#     4  10  21  41  69  95 130 176 229 284 338 399
#     4  10  23  42  67  95 133 179 222 274 343 407
#     4  10  22  41  64  93 131 176 224 281 338 402
#     4  10  22  40  66  98 129 168 228 292 342 390
#     4  11  24  47  72  98 137 182 229 283 345 413
#
# _framework density 24.775908999999999
#
# number of rings (size 3 to 8) (size 9 to 14) (size 15 to 20)
#    0.000    1.286    2.857    1.714    2.000    5.714 
#    0.000    2.857    0.000    3.000    0.000    0.000 
#    0.000    0.000    0.000    0.000    0.000    0.000 
#
# Total GULP energy -312521.822898 kJ/mol
# GULP energy per Si atom -5580.746837 kJ/mol
# Density = 2.471952 g / cm^3
# Si number density = 24.775909 Si / 1000 Ang^3
#
#
#
# Elastic Constant Matrix: (Units=GPa)
#
#
# Indices 1 2 3 4 5 6 
#
# 1 102.3460 25.6443 19.3882 0.0000 0.0000 0.0000
# 2 25.6443 119.3213 26.2234 0.0000 0.0000 0.0000
# 3 19.3882 26.2234 103.1850 0.0000 0.0000 0.0000
# 4 0.0000 0.0000 0.0000 30.5967 0.0000 0.0000
# 5 0.0000 0.0000 0.0000 0.0000 15.8086 0.0000
# 6 0.0000 0.0000 0.0000 0.0000 0.0000 34.1535
#
#
#
# Elastic Compliance Matrix: (Units=1/GPa)
#
#
# Indices 1 2 3 4 5 6 
#
# 1 0.010538 -0.001938 -0.001488 0.000000 0.000000 0.000000
# 2 -0.001938 0.009233 -0.001982 0.000000 0.000000 0.000000
# 3 -0.001488 -0.001982 0.010475 0.000000 0.000000 0.000000
# 4 0.000000 0.000000 0.000000 0.032683 0.000000 0.000000
# 5 0.000000 0.000000 0.000000 0.000000 0.063257 0.000000
# 6 0.000000 0.000000 0.000000 0.000000 0.000000 0.029280
#
#
# Mechanical properties :
#
#
# Convention : Reuss Voigt Hill
#
# Bulk Modulus (GPa) = 51.46673 51.92937 51.69805
# Shear Modulus (GPa) = 28.94231 33.01820 30.98026
#
# Velocity S-wave (km/s) = 3.42155 3.65454 3.53996
# Velocity P-wave (km/s) = 6.03550 6.22998 6.13351
#
# Compressibility (1/GPa) = 0.01943003
#
# Stress axis : x y z
#
# Youngs Moduli (GPa) = 94.89332 108.30859 95.46876
#
# Poissons Ratio (x) = 0.20989 0.14202
# Poissons Ratio (y) = 0.18389 0.18925
# Poissons Ratio (z) = 0.14116 0.21470
#
# Static dielectric constant tensor:
#      x y z
#    x 2.092660 0.000000 0.000000 
#    y 0.000000 1.989680 0.000000 
#    z 0.000000 0.000000 2.094610 
# 
# From -- ./inp_files/22215.got.cif
#   From: 2010.05.17/outbox.cif.g08.bks.cpg/sg58_12_cif.got.tgz:22215.got - 2010.06.03 14:20:14.
