data_PCOD9444321
_publ_section_title
;
Structure prediction by ZEFSAII (Michael W. Deem and Ramdas Pophale) SiO2 
 PCOD9444321
Probable space group: P N N M
;
_chemical_formula_sum "Si O2"
_cell_formula_units_Z 64
_cell_length_a 30.834686
_cell_length_b 8.672639
_cell_length_c 11.191656
_cell_angle_alpha 90.000000
_cell_angle_beta 90.000000
_cell_angle_gamma 90.000000
_cell_volume 2992.851387
_symmetry_space_group_name_H-M "P N N M"
_symmetry_group_IT_number 58
_symmetry_cell_setting 'orthorhombic'
loop_
_space_group_symop_operation_xyz
x,y,z
-x,-y,z
1/2+x,1/2-y,1/2-z
1/2-x,1/2+y,1/2-z
-x,-y,-z
x,y,-z
1/2-x,1/2+y,1/2+z
1/2+x,1/2-y,1/2+z
loop_
_atom_site_type_symbol
_atom_site_label
_atom_site_fract_x
_atom_site_fract_y
_atom_site_fract_z
Si Si1 0.746122 0.031848 0.130573
Si Si2 0.132063 0.433520 0.868494
Si Si3 0.194680 0.697134 0.787167
Si Si4 0.548363 0.441378 0.857440
Si Si5 0.494804 0.180984 0.865798
Si Si6 0.362883 0.418599 0.860561
Si Si7 0.660187 0.240797 0.865885
Si Si8 0.958316 0.386251 0.870485
O O1 0.733421 0.896260 0.221617
O O2 0.785173 0.150589 0.153018
O O3 0.704311 0.144190 0.129741
O O4 0.751453 0.959863 0.000000
O O5 0.168616 0.568125 0.860687
O O6 0.137326 0.325398 0.752664
O O7 0.085517 0.516282 0.863712
O O8 0.135972 0.357079 0.000000
O O9 0.159129 0.771719 0.698631
O O10 0.500000 0.500000 0.825049
O O11 0.540808 0.260128 0.835838
O O12 0.590996 0.522058 0.808279
O O13 0.552778 0.454443 0.000000
O O14 0.463725 0.206910 0.752666
O O15 0.500000 0.000000 0.875207
O O16 0.480642 0.233252 0.000000
O O17 0.334211 0.575192 0.852855
O O18 0.368200 0.381586 0.000000
O O19 0.639323 0.220301 0.000000
O O20 0.000000 0.500000 0.872954
O O21 0.958277 0.302707 0.000000
#
# Coordination Sequence:
#
# PCOD9444321 Si02
#       8
#     8   8   8   8   8   8   8   8
#     4  10  21  40  63  88 118 150 193 244 302 366
#     4  10  22  39  59  89 125 161 205 253 305 359
#     4  11  22  39  63  90 117 156 199 244 304 368
#     4   9  19  34  51  78 118 156 191 240 302 352
#     4   9  18  31  53  84 108 142 197 247 287 338
#     4  10  21  37  57  86 124 158 197 252 304 354
#     4   9  20  38  62  90 118 152 194 247 304 363
#     4   9  19  34  53  78 116 160 198 242 294 347
#
# _framework density 21.384288000000002
#
# number of rings (size 3 to 8) (size 9 to 14) (size 15 to 20)
#    0.000    2.375    0.000    1.500    5.250    1.000 
#    0.000    9.375    0.000    1.875    0.000    0.000 
#    0.000    0.000    0.000    0.000    0.000    0.000 
#
# Total GULP energy -356358.858393 kJ/mol
# GULP energy per Si atom -5568.107162 kJ/mol
# Density = 2.133562 g / cm^3
# Si number density = 21.384288 Si / 1000 Ang^3
#
#
#
# Elastic Constant Matrix: (Units=GPa)
#
#
# Indices 1 2 3 4 5 6 
#
# 1 55.4822 2.7481 14.2761 0.0000 0.0000 0.0000
# 2 2.7481 63.2914 15.3331 0.0000 0.0000 0.0000
# 3 14.2761 15.3331 135.4207 0.0000 0.0000 0.0000
# 4 0.0000 0.0000 0.0000 -98.5067 0.0000 0.0000
# 5 0.0000 0.0000 0.0000 0.0000 9.1980 0.0000
# 6 0.0000 0.0000 0.0000 0.0000 0.0000 35.7268
#
#
#
# Elastic Compliance Matrix: (Units=1/GPa)
#
#
# Indices 1 2 3 4 5 6 
#
# 1 0.018533 -0.000341 -0.001915 0.000000 0.000000 0.000000
# 2 -0.000341 0.016252 -0.001804 0.000000 0.000000 0.000000
# 3 -0.001915 -0.001804 0.007791 0.000000 0.000000 0.000000
# 4 0.000000 0.000000 0.000000 -0.010152 0.000000 0.000000
# 5 0.000000 0.000000 0.000000 0.000000 0.108719 0.000000
# 6 0.000000 0.000000 0.000000 0.000000 0.000000 0.027990
#
#
# Mechanical properties :
#
#
# Convention : Reuss Voigt Hill
#
# Bulk Modulus (GPa) = 29.02289 35.43432 32.22861
# Shear Modulus (GPa) = 26.49158 4.07276 15.28217
#
# Velocity S-wave (km/s) = 3.52353 1.38155 2.67618
# Velocity P-wave (km/s) = 5.49137 4.37620 4.96520
#
# Compressibility (1/GPa) = 0.03445556
#
# Stress axis : x y z
#
# Youngs Moduli (GPa) = 53.95642 61.53160 128.36016
#
# Poissons Ratio (x) = 0.02097 0.24584
# Poissons Ratio (y) = 0.01838 0.23159
# Poissons Ratio (z) = 0.10334 0.11102
#
# Static dielectric constant tensor:
#      x y z
#    x 1.807320 0.000000 0.000000 
#    y 0.000000 1.825270 0.000000 
#    z 0.000000 0.000000 1.850400 
# 
# From -- ./inp_files/17990.got.cif
#   From: 2010.05.17/outbox.cif.g08.bks.cpg/sg58_9_cif.got.tgz:17990.got - 2010.06.03 14:20:14.
