data_PCOD9444965
_publ_section_title
;
Structure prediction by ZEFSAII (Michael W. Deem and Ramdas Pophale) SiO2 
 PCOD9444965
Probable space group: P N N M
;
_chemical_formula_sum "Si O2"
_cell_formula_units_Z 48
_cell_length_a 9.384858
_cell_length_b 8.760159
_cell_length_c 27.013168
_cell_angle_alpha 90.000000
_cell_angle_beta 90.000000
_cell_angle_gamma 90.000000
_cell_volume 2220.829482
_symmetry_space_group_name_H-M "P N N M"
_symmetry_group_IT_number 58
_symmetry_cell_setting 'orthorhombic'
loop_
_space_group_symop_operation_xyz
x,y,z
-x,-y,z
1/2+x,1/2-y,1/2-z
1/2-x,1/2+y,1/2-z
-x,-y,-z
x,y,-z
1/2-x,1/2+y,1/2+z
1/2+x,1/2-y,1/2+z
loop_
_atom_site_type_symbol
_atom_site_label
_atom_site_fract_x
_atom_site_fract_y
_atom_site_fract_z
Si Si1 0.000000 0.500000 0.756241
Si Si2 0.373635 0.236655 0.327913
Si Si3 0.785228 0.671572 0.500000
Si Si4 0.872199 0.114116 0.405847
Si Si5 0.633565 0.822283 0.000000
Si Si6 0.434097 0.730965 0.817990
Si Si7 0.000000 0.000000 0.239143
Si Si8 0.620061 0.888537 0.577073
O O1 0.104437 0.590711 0.792692
O O2 0.949772 0.627822 0.718386
O O3 0.420315 0.381037 0.295807
O O4 0.456516 0.202904 0.378307
O O5 0.212373 0.259207 0.345682
O O6 0.781992 0.484968 0.500000
O O7 0.706938 0.765183 0.544317
O O8 0.958569 0.681549 0.500000
O O9 0.834346 0.231775 0.449358
O O10 0.937897 0.193042 0.356096
O O11 0.736038 0.005970 0.399716
O O12 0.000000 0.000000 0.422509
O O13 0.409474 0.595685 0.778570
O O14 0.500000 0.000000 0.553762
#
# Coordination Sequence:
#
# PCOD9444965 Si02
#       8
#     4   8   4   8   4   8   4   8
#     4  10  24  38  60  96 136 170 222 282 344 400
#     4  11  21  41  63  92 132 178 226 277 341 401
#     4  11  24  45  72 103 142 173 222 292 345 404
#     4  12  22  43  74 100 134 177 231 280 337 419
#     4  11  24  44  74 110 134 169 230 290 350 398
#     4  11  21  40  65  99 128 174 230 282 335 403
#     4  10  22  38  60  94 134 176 222 284 344 402
#     4  12  25  46  69  99 140 184 226 274 350 420
#
# _framework density 21.613544000000001
#
# number of rings (size 3 to 8) (size 9 to 14) (size 15 to 20)
#    0.000    0.833    5.000    2.000    0.000    4.000 
#    6.000    0.833    0.000    0.000    0.000    0.000 
#    0.000    0.000    0.000    0.000    0.000    0.000 
#
# Total GULP energy -267226.658387 kJ/mol
# GULP energy per Si atom -5567.222050 kJ/mol
# Density = 2.156435 g / cm^3
# Si number density = 21.613544 Si / 1000 Ang^3
#
#
#
# Elastic Constant Matrix: (Units=GPa)
#
#
# Indices 1 2 3 4 5 6 
#
# 1 70.5503 27.5016 18.3033 0.0000 0.0000 0.0000
# 2 27.5016 128.1617 64.6272 0.0000 0.0000 0.0000
# 3 18.3033 64.6272 150.5588 0.0000 0.0000 0.0000
# 4 0.0000 0.0000 0.0000 59.6899 0.0000 0.0000
# 5 0.0000 0.0000 0.0000 0.0000 37.6589 0.0000
# 6 0.0000 0.0000 0.0000 0.0000 0.0000 8.5468
#
#
#
# Elastic Compliance Matrix: (Units=1/GPa)
#
#
# Indices 1 2 3 4 5 6 
#
# 1 0.015508 -0.003034 -0.000583 0.000000 0.000000 0.000000
# 2 -0.003034 0.010552 -0.004160 0.000000 0.000000 0.000000
# 3 -0.000583 -0.004160 0.008499 0.000000 0.000000 0.000000
# 4 0.000000 0.000000 0.000000 0.016753 0.000000 0.000000
# 5 0.000000 0.000000 0.000000 0.000000 0.026554 0.000000
# 6 0.000000 0.000000 0.000000 0.000000 0.000000 0.117003
#
#
# Mechanical properties :
#
#
# Convention : Reuss Voigt Hill
#
# Bulk Modulus (GPa) = 52.62098 63.34833 57.98466
# Shear Modulus (GPa) = 23.06722 37.10170 30.08446
#
# Velocity S-wave (km/s) = 3.27043 4.14768 3.73490
# Velocity P-wave (km/s) = 6.21773 7.23262 6.74429
#
# Compressibility (1/GPa) = 0.01900383
#
# Stress axis : x y z
#
# Youngs Moduli (GPa) = 64.48216 94.77226 117.66542
#
# Poissons Ratio (x) = 0.28752 0.06861
# Poissons Ratio (y) = 0.19563 0.48954
# Poissons Ratio (z) = 0.03760 0.39430
#
# Static dielectric constant tensor:
#      x y z
#    x 1.742030 0.000000 0.000000 
#    y 0.000000 1.643690 0.000000 
#    z 0.000000 0.000000 1.825280 
# 
# From -- ./inp_files/34672.got.cif
#   From: 2010.05.17/outbox.cif.g08.bks.cpg/sg58_18_cif.got.tgz:34672.got - 2010.06.03 14:20:14.
