data_PCOD9444624
_publ_section_title
;
Structure prediction by ZEFSAII (Michael W. Deem and Ramdas Pophale) SiO2 
 PCOD9444624
Probable space group: P N N M
;
_chemical_formula_sum "Si O2"
_cell_formula_units_Z 64
_cell_length_a 9.651332
_cell_length_b 14.031368
_cell_length_c 24.418944
_cell_angle_alpha 90.000000
_cell_angle_beta 90.000000
_cell_angle_gamma 90.000000
_cell_volume 3306.847363
_symmetry_space_group_name_H-M "P N N M"
_symmetry_group_IT_number 58
_symmetry_cell_setting 'orthorhombic'
loop_
_space_group_symop_operation_xyz
x,y,z
-x,-y,z
1/2+x,1/2-y,1/2-z
1/2-x,1/2+y,1/2-z
-x,-y,-z
x,y,-z
1/2-x,1/2+y,1/2+z
1/2+x,1/2-y,1/2+z
loop_
_atom_site_type_symbol
_atom_site_label
_atom_site_fract_x
_atom_site_fract_y
_atom_site_fract_z
Si Si1 0.293938 0.347079 0.338701
Si Si2 0.652232 0.044013 0.367442
Si Si3 0.502252 0.614517 0.562247
Si Si4 0.208215 0.229876 0.869156
Si Si5 0.362807 0.944179 0.755388
Si Si6 0.525931 0.273556 0.854585
Si Si7 0.467681 0.729514 0.267497
Si Si8 0.370530 0.569684 0.938905
O O1 0.381834 0.359468 0.393170
O O2 0.255461 0.438164 0.301244
O O3 0.146089 0.304507 0.353725
O O4 0.385773 0.279962 0.298642
O O5 0.660320 0.158750 0.375802
O O6 0.691519 0.022881 0.303922
O O7 0.500000 0.000000 0.373909
O O8 0.750839 0.989415 0.409031
O O9 0.500000 0.500000 0.562231
O O10 0.530221 0.646313 0.500000
O O11 0.362214 0.664577 0.584621
O O12 0.373817 0.232977 0.867178
O O13 0.145871 0.193265 0.811032
O O14 0.421299 0.837792 0.743428
O O15 0.500000 0.000000 0.772756
O O16 0.521908 0.316156 0.792610
O O17 0.575571 0.347567 0.899657
O O18 0.500000 0.500000 0.944151
O O19 0.329136 0.602022 0.000000
#
# Coordination Sequence:
#
# PCOD9444624 Si02
#       8
#     8   8   8   8   8   8   8   8
#     4  10  22  38  61  92 117 152 205 250 299 363
#     4  10  21  39  61  90 126 164 205 242 298 367
#     4  10  24  46  65  84 114 154 207 262 302 354
#     4  10  21  40  61  90 122 164 198 242 319 369
#     4   9  19  34  57  89 125 153 188 244 310 359
#     4  11  21  37  61  88 126 161 195 249 309 361
#     4   9  19  37  57  87 124 156 197 243 299 366
#     4  11  25  40  55  86 129 163 207 254 288 353
#
# _framework density 19.353783
#
# number of rings (size 3 to 8) (size 9 to 14) (size 15 to 20)
#    0.000    2.000    1.250    2.250    7.000    3.750 
#    4.500    0.000    0.000    1.875    0.000    0.000 
#    0.000    0.000    0.000    0.000    0.000    0.000 
#
# Total GULP energy -356922.781754 kJ/mol
# GULP energy per Si atom -5576.918465 kJ/mol
# Density = 1.930973 g / cm^3
# Si number density = 19.353783 Si / 1000 Ang^3
#
#
#
# Elastic Constant Matrix: (Units=GPa)
#
#
# Indices 1 2 3 4 5 6 
#
# 1 110.6563 38.2905 75.5623 0.0000 0.0000 0.0000
# 2 38.2905 31.7393 42.5502 0.0000 0.0000 0.0000
# 3 75.5623 42.5502 177.9490 0.0000 0.0000 0.0000
# 4 0.0000 0.0000 0.0000 25.3414 0.0000 0.0000
# 5 0.0000 0.0000 0.0000 0.0000 19.1761 0.0000
# 6 0.0000 0.0000 0.0000 0.0000 0.0000 17.1370
#
#
#
# Elastic Compliance Matrix: (Units=1/GPa)
#
#
# Indices 1 2 3 4 5 6 
#
# 1 0.016777 -0.015732 -0.003362 0.000000 0.000000 0.000000
# 2 -0.015732 0.061124 -0.007935 0.000000 0.000000 0.000000
# 3 -0.003362 -0.007935 0.008945 0.000000 0.000000 0.000000
# 4 0.000000 0.000000 0.000000 0.039461 0.000000 0.000000
# 5 0.000000 0.000000 0.000000 0.000000 0.052148 0.000000
# 6 0.000000 0.000000 0.000000 0.000000 0.000000 0.058353
#
#
# Mechanical properties :
#
#
# Convention : Reuss Voigt Hill
#
# Bulk Modulus (GPa) = 30.50044 70.35008 50.42526
# Shear Modulus (GPa) = 16.56746 23.26034 19.91390
#
# Velocity S-wave (km/s) = 2.92898 3.47053 3.21119
# Velocity P-wave (km/s) = 5.21845 7.24485 6.31348
#
# Compressibility (1/GPa) = 0.03278641
#
# Stress axis : x y z
#
# Youngs Moduli (GPa) = 59.60680 16.36008 111.79840
#
# Poissons Ratio (x) = 0.25738 0.37587
# Poissons Ratio (y) = 0.93775 0.88716
# Poissons Ratio (z) = 0.20040 0.12982
#
# Static dielectric constant tensor:
#      x y z
#    x 1.667900 0.000000 0.000000 
#    y 0.000000 1.650890 0.000000 
#    z 0.000000 0.000000 1.736400 
# 
# From -- ./inp_files/31632.got.cif
#   From: 2010.05.17/outbox.cif.g08.bks.cpg/sg58_16_cif.got.tgz:31632.got - 2010.06.03 14:20:14.
