data_PCOD9444887
_publ_section_title
;
Structure prediction by ZEFSAII (Michael W. Deem and Ramdas Pophale) SiO2 
 PCOD9444887
Probable space group: P N N M
;
_chemical_formula_sum "Si O2"
_cell_formula_units_Z 34
_cell_length_a 5.010934
_cell_length_b 26.045636
_cell_length_c 14.023763
_cell_angle_alpha 90.000000
_cell_angle_beta 90.000000
_cell_angle_gamma 90.000000
_cell_volume 1830.282861
_symmetry_space_group_name_H-M "P N N M"
_symmetry_group_IT_number 58
_symmetry_cell_setting 'orthorhombic'
loop_
_space_group_symop_operation_xyz
x,y,z
-x,-y,z
1/2+x,1/2-y,1/2-z
1/2-x,1/2+y,1/2-z
-x,-y,-z
x,y,-z
1/2-x,1/2+y,1/2+z
1/2+x,1/2-y,1/2+z
loop_
_atom_site_type_symbol
_atom_site_label
_atom_site_fract_x
_atom_site_fract_y
_atom_site_fract_z
Si Si1 0.500000 0.000000 0.500000
Si Si2 0.007158 0.776403 0.794964
Si Si3 0.374041 0.385201 0.206188
Si Si4 0.371696 0.233142 0.500000
Si Si5 0.128076 0.837805 0.500000
Si Si6 0.633070 0.949641 0.698265
O O1 0.370308 0.035867 0.585698
O O2 0.211854 0.742171 0.732377
O O3 0.055351 0.835147 0.766664
O O4 0.070691 0.764659 0.904518
O O5 0.414825 0.370091 0.095439
O O6 0.573898 0.432064 0.227264
O O7 0.070315 0.403057 0.216036
O O8 0.574276 0.184909 0.500000
O O9 0.075844 0.209838 0.500000
O O10 0.500000 0.000000 0.745153
#
# Coordination Sequence:
#
# PCOD9444887 Si02
#       6
#     2   8   8   4   4   8
#     4   8  20  36  52  78 124 132 192 228 280 342
#     4  12  23  40  57  85 117 152 197 237 277 342
#     4  12  21  36  56  81 113 158 187 224 283 342
#     4  12  22  41  54  86 116 158 188 247 272 330
#     4  12  22  32  59  82 118 154 201 216 286 338
#     4  10  22  35  52  79 113 149 184 233 278 338
#
# _framework density 18.576364999999999
#
# number of rings (size 3 to 8) (size 9 to 14) (size 15 to 20)
#    0.706    0.000    4.706    4.941    0.000    0.941 
#    0.000    0.000    0.000    0.000    0.000    4.941 
#    0.000    0.000    0.000    0.000    0.000    0.000 
#
# Total GULP energy -189411.261295 kJ/mol
# GULP energy per Si atom -5570.919450 kJ/mol
# Density = 1.853408 g / cm^3
# Si number density = 18.576365 Si / 1000 Ang^3
#
#
#
# Elastic Constant Matrix: (Units=GPa)
#
#
# Indices 1 2 3 4 5 6 
#
# 1 47.8314 -14.2615 -5.1240 0.0000 0.0000 0.0000
# 2 -14.2615 49.5089 9.6035 0.0000 0.0000 0.0000
# 3 -5.1240 9.6035 50.9439 0.0000 0.0000 0.0000
# 4 0.0000 0.0000 0.0000 6.0177 0.0000 0.0000
# 5 0.0000 0.0000 0.0000 0.0000 1.9753 0.0000
# 6 0.0000 0.0000 0.0000 0.0000 0.0000 30.8339
#
#
#
# Elastic Compliance Matrix: (Units=1/GPa)
#
#
# Indices 1 2 3 4 5 6 
#
# 1 0.022931 0.006392 0.001101 0.000000 0.000000 0.000000
# 2 0.006392 0.022747 -0.003645 0.000000 0.000000 0.000000
# 3 0.001101 -0.003645 0.020427 0.000000 0.000000 0.000000
# 4 0.000000 0.000000 0.000000 0.166176 0.000000 0.000000
# 5 0.000000 0.000000 0.000000 0.000000 0.506257 0.000000
# 6 0.000000 0.000000 0.000000 0.000000 0.000000 0.032432
#
#
# Mechanical properties :
#
#
# Convention : Reuss Voigt Hill
#
# Bulk Modulus (GPa) = 13.55003 14.30225 13.92614
# Shear Modulus (GPa) = 6.34620 18.30312 12.32466
#
# Velocity S-wave (km/s) = 1.85032 3.14234 2.57856
# Velocity P-wave (km/s) = 3.44601 4.56964 4.04701
#
# Compressibility (1/GPa) = 0.07380058
#
# Stress axis : x y z
#
# Youngs Moduli (GPa) = 43.61002 43.96259 48.95393
#
# Poissons Ratio (x) = -0.28099 -0.05392
# Poissons Ratio (y) = -0.27874 0.17844
# Poissons Ratio (z) = -0.04804 0.16025
#
# Static dielectric constant tensor:
#      x y z
#    x 1.667080 0.000000 0.000000 
#    y 0.000000 1.672040 0.000000 
#    z 0.000000 0.000000 1.599690 
# 
# From -- ./inp_files/18420.got.cif
#   From: 2010.05.17/outbox.cif.g08.bks.cpg/sg58_10_cif.got.tgz:18420.got - 2010.06.03 14:20:14.
