data_PCOD9444923
_publ_section_title
;
Structure prediction by ZEFSAII (Michael W. Deem and Ramdas Pophale) SiO2 
 PCOD9444923
Probable space group: P N N M
;
_chemical_formula_sum "Si O2"
_cell_formula_units_Z 32
_cell_length_a 7.056252
_cell_length_b 6.854417
_cell_length_c 22.770583
_cell_angle_alpha 90.000000
_cell_angle_beta 90.000000
_cell_angle_gamma 90.000000
_cell_volume 1101.333258
_symmetry_space_group_name_H-M "P N N M"
_symmetry_group_IT_number 58
_symmetry_cell_setting 'orthorhombic'
loop_
_space_group_symop_operation_xyz
x,y,z
-x,-y,z
1/2+x,1/2-y,1/2-z
1/2-x,1/2+y,1/2-z
-x,-y,-z
x,y,-z
1/2-x,1/2+y,1/2+z
1/2+x,1/2-y,1/2+z
loop_
_atom_site_type_symbol
_atom_site_label
_atom_site_fract_x
_atom_site_fract_y
_atom_site_fract_z
Si Si1 0.817256 0.248329 0.434632
Si Si2 0.734242 0.788788 0.437836
Si Si3 0.442557 0.227381 0.809875
Si Si4 0.638923 0.814904 0.681275
O O1 0.760820 0.327818 0.500000
O O2 0.046968 0.275988 0.436575
O O3 0.795879 0.285131 0.364131
O O4 0.750594 0.023368 0.436908
O O5 0.648357 0.736491 0.500000
O O6 0.617903 0.714246 0.382297
O O7 0.377127 0.286653 0.744472
O O8 0.633631 0.350795 0.822643
O O9 0.500000 0.000000 0.804256
O O10 0.500000 0.000000 0.681595
#
# Coordination Sequence:
#
# PCOD9444923 Si02
#       4
#     8   8   8   8
#     4   8  15  30  56  85 117 158 207 250 302 372
#     4   8  15  31  57  87 115 155 207 258 302 361
#     4  10  22  37  57  88 122 162 208 254 309 369
#     4  10  22  38  58  86 124 161 203 256 310 375
#
# _framework density 29.055688
#
# number of rings (size 3 to 8) (size 9 to 14) (size 15 to 20)
#    0.000    3.000    0.000    1.500    7.000    1.000 
#    0.000    0.000    0.000    0.000    0.000    3.500 
#    0.000    0.000    0.000    0.000    0.000    0.000 
#
# Total GULP energy -178525.118718 kJ/mol
# GULP energy per Si atom -5578.909960 kJ/mol
# Density = 2.898956 g / cm^3
# Si number density = 29.055688 Si / 1000 Ang^3
#
#
#
# Elastic Constant Matrix: (Units=GPa)
#
#
# Indices 1 2 3 4 5 6 
#
# 1 165.1175 28.8220 33.7435 0.0000 0.0000 0.0000
# 2 28.8220 102.5044 46.1832 0.0000 0.0000 0.0000
# 3 33.7435 46.1832 387.6972 0.0000 0.0000 0.0000
# 4 0.0000 0.0000 0.0000 13.4561 0.0000 0.0000
# 5 0.0000 0.0000 0.0000 0.0000 67.9337 0.0000
# 6 0.0000 0.0000 0.0000 0.0000 0.0000 24.9995
#
#
#
# Elastic Compliance Matrix: (Units=1/GPa)
#
#
# Indices 1 2 3 4 5 6 
#
# 1 0.006417 -0.001641 -0.000363 0.000000 0.000000 0.000000
# 2 -0.001641 0.010728 -0.001135 0.000000 0.000000 0.000000
# 3 -0.000363 -0.001135 0.002746 0.000000 0.000000 0.000000
# 4 0.000000 0.000000 0.000000 0.074316 0.000000 0.000000
# 5 0.000000 0.000000 0.000000 0.000000 0.014720 0.000000
# 6 0.000000 0.000000 0.000000 0.000000 0.000000 0.040001
#
#
# Mechanical properties :
#
#
# Convention : Reuss Voigt Hill
#
# Bulk Modulus (GPa) = 73.45601 96.97961 85.21781
# Shear Modulus (GPa) = 31.30007 57.71587 44.50797
#
# Velocity S-wave (km/s) = 3.28570 4.46173 3.91809
# Velocity P-wave (km/s) = 6.30321 7.74547 7.06126
#
# Compressibility (1/GPa) = 0.01361359
#
# Stress axis : x y z
#
# Youngs Moduli (GPa) = 155.83897 93.20987 364.14513
#
# Poissons Ratio (x) = 0.15293 0.13220
# Poissons Ratio (y) = 0.25569 0.41338
# Poissons Ratio (z) = 0.05658 0.10581
#
# Static dielectric constant tensor:
#      x y z
#    x 2.286840 0.000000 0.000000 
#    y 0.000000 2.289790 0.000000 
#    z 0.000000 0.000000 2.380210 
# 
# From -- ./inp_files/28451.got.cif
#   From: 2010.05.17/outbox.cif.g08.bks.cpg/sg58_15_cif.got.tgz:28451.got - 2010.06.03 14:20:14.
