data_PCOD9444352
_publ_section_title
;
Structure prediction by ZEFSAII (Michael W. Deem and Ramdas Pophale) SiO2 
 PCOD9444352
Probable space group: P N N M
;
_chemical_formula_sum "Si O2"
_cell_formula_units_Z 32
_cell_length_a 7.955145
_cell_length_b 14.101391
_cell_length_c 13.580081
_cell_angle_alpha 90.000000
_cell_angle_beta 90.000000
_cell_angle_gamma 90.000000
_cell_volume 1523.394612
_symmetry_space_group_name_H-M "P N N M"
_symmetry_group_IT_number 58
_symmetry_cell_setting 'orthorhombic'
loop_
_space_group_symop_operation_xyz
x,y,z
-x,-y,z
1/2+x,1/2-y,1/2-z
1/2-x,1/2+y,1/2-z
-x,-y,-z
x,y,-z
1/2-x,1/2+y,1/2+z
1/2+x,1/2-y,1/2+z
loop_
_atom_site_type_symbol
_atom_site_label
_atom_site_fract_x
_atom_site_fract_y
_atom_site_fract_z
Si Si1 0.108300 0.303351 0.244318
Si Si2 0.666446 0.832058 0.115879
Si Si3 0.191436 0.994399 0.782195
Si Si4 0.360812 0.083934 0.609862
O O1 0.196913 0.221108 0.183688
O O2 0.238042 0.388924 0.266237
O O3 0.010876 0.288915 0.346945
O O4 0.959271 0.337458 0.171404
O O5 0.688731 0.942694 0.146699
O O6 0.691507 0.819084 0.000000
O O7 0.209727 0.044516 0.675447
O O8 0.000000 0.000000 0.816768
O O9 0.314795 0.112070 0.500000
O O10 0.500000 0.000000 0.604923
#
# Coordination Sequence:
#
# PCOD9444352 Si02
#       4
#     8   8   8   8
#     4  10  21  39  59  87 125 156 204 261 303 363
#     4  11  23  41  66  91 121 164 206 251 309 365
#     4  10  21  37  58  88 125 160 202 254 302 361
#     4   8  15  30  53  79 111 153 194 240 299 352
#
# _framework density 21.00572
#
# number of rings (size 3 to 8) (size 9 to 14) (size 15 to 20)
#    0.000    2.250    0.000    4.500    0.000    4.000 
#    0.000   13.750    0.000    0.000    0.000    0.000 
#    0.000    0.000    0.000    0.000    0.000    0.000 
#
# Total GULP energy -178476.753038 kJ/mol
# GULP energy per Si atom -5577.398532 kJ/mol
# Density = 2.095791 g / cm^3
# Si number density = 21.005720 Si / 1000 Ang^3
#
#
#
# Elastic Constant Matrix: (Units=GPa)
#
#
# Indices 1 2 3 4 5 6 
#
# 1 62.6846 2.4037 27.2759 0.0000 0.0000 0.0000
# 2 2.4037 56.7192 27.4391 0.0000 0.0000 0.0000
# 3 27.2759 27.4391 113.0427 0.0000 0.0000 0.0000
# 4 0.0000 0.0000 0.0000 12.4261 0.0000 0.0000
# 5 0.0000 0.0000 0.0000 0.0000 21.8939 0.0000
# 6 0.0000 0.0000 0.0000 0.0000 0.0000 26.3676
#
#
#
# Elastic Compliance Matrix: (Units=1/GPa)
#
#
# Indices 1 2 3 4 5 6 
#
# 1 0.017938 0.001511 -0.004695 0.000000 0.000000 0.000000
# 2 0.001511 0.020104 -0.005244 0.000000 0.000000 0.000000
# 3 -0.004695 -0.005244 0.011252 0.000000 0.000000 0.000000
# 4 0.000000 0.000000 0.000000 0.080476 0.000000 0.000000
# 5 0.000000 0.000000 0.000000 0.000000 0.045675 0.000000
# 6 0.000000 0.000000 0.000000 0.000000 0.000000 0.037925
#
#
# Mechanical properties :
#
#
# Convention : Reuss Voigt Hill
#
# Bulk Modulus (GPa) = 30.82894 38.52044 34.67469
# Shear Modulus (GPa) = 20.74355 23.82603 22.28479
#
# Velocity S-wave (km/s) = 3.14589 3.37154 3.26067
# Velocity P-wave (km/s) = 5.28241 5.79087 5.54247
#
# Compressibility (1/GPa) = 0.03243706
#
# Stress axis : x y z
#
# Youngs Moduli (GPa) = 55.74799 49.74186 88.87256
#
# Poissons Ratio (x) = -0.07517 0.41726
# Poissons Ratio (y) = -0.08424 0.46609
# Poissons Ratio (z) = 0.26174 0.26087
#
# Static dielectric constant tensor:
#      x y z
#    x 1.766360 0.000000 0.000000 
#    y 0.000000 1.796780 0.000000 
#    z 0.000000 0.000000 1.740380 
# 
# From -- ./inp_files/19315.got.cif
#   From: 2010.05.17/outbox.cif.g08.bks.cpg/sg58_10_cif.got.tgz:19315.got - 2010.06.03 14:20:14.
