data_PCOD9444705
_publ_section_title
;
Structure prediction by ZEFSAII (Michael W. Deem and Ramdas Pophale) SiO2 
 PCOD9444705
Probable space group: P N N M
;
_chemical_formula_sum "Si O2"
_cell_formula_units_Z 48
_cell_length_a 15.704217
_cell_length_b 16.816089
_cell_length_c 8.000051
_cell_angle_alpha 90.000000
_cell_angle_beta 90.000000
_cell_angle_gamma 90.000000
_cell_volume 2112.681554
_symmetry_space_group_name_H-M "P N N M"
_symmetry_group_IT_number 58
_symmetry_cell_setting 'orthorhombic'
loop_
_space_group_symop_operation_xyz
x,y,z
-x,-y,z
1/2+x,1/2-y,1/2-z
1/2-x,1/2+y,1/2-z
-x,-y,-z
x,y,-z
1/2-x,1/2+y,1/2+z
1/2+x,1/2-y,1/2+z
loop_
_atom_site_type_symbol
_atom_site_label
_atom_site_fract_x
_atom_site_fract_y
_atom_site_fract_z
Si Si1 0.366118 0.026005 0.805066
Si Si2 0.095298 0.099037 0.500000
Si Si3 0.394215 0.409091 0.000000
Si Si4 0.542647 0.810327 0.202482
Si Si5 0.204337 0.132192 0.183166
Si Si6 0.639927 0.148279 0.694312
Si Si7 0.691633 0.708691 0.748862
O O1 0.426307 0.099895 0.759327
O O2 0.270401 0.059900 0.789605
O O3 0.377001 0.945483 0.705918
O O4 0.382752 0.008033 0.000000
O O5 0.139454 0.133837 0.335172
O O6 0.994292 0.111441 0.500000
O O7 0.112054 0.003856 0.500000
O O8 0.347082 0.365841 0.151689
O O9 0.444310 0.805903 0.249264
O O10 0.603208 0.750502 0.305614
O O11 0.554792 0.797422 0.000000
O O12 0.264007 0.210383 0.180499
O O13 0.163992 0.123802 0.000000
O O14 0.660418 0.167179 0.500000
O O15 0.720232 0.169242 0.812323
#
# Coordination Sequence:
#
# PCOD9444705 Si02
#       7
#     8   4   4   8   8   8   8
#     4   9  20  39  62  90 126 170 217 263 339 413
#     4  11  26  40  78 107 134 190 250 278 360 428
#     4  11  22  46  68 101 141 187 229 303 354 426
#     4  10  21  40  62  85 120 171 218 260 326 420
#     4  10  21  43  70  99 137 185 230 293 344 418
#     4  12  23  36  62  94 127 165 211 279 347 396
#     4  11  22  43  66  87 136 184 217 277 359 398
#
# _framework density 22.719943000000001
#
# number of rings (size 3 to 8) (size 9 to 14) (size 15 to 20)
#    0.000    1.500    2.500    3.000    3.500    2.667 
#    6.000    1.667    3.667    0.000    0.000    0.000 
#    0.000    0.000    0.000    0.000    0.000    0.000 
#
# Total GULP energy -267608.861919 kJ/mol
# GULP energy per Si atom -5575.184623 kJ/mol
# Density = 2.266823 g / cm^3
# Si number density = 22.719943 Si / 1000 Ang^3
#
#
#
# Elastic Constant Matrix: (Units=GPa)
#
#
# Indices 1 2 3 4 5 6 
#
# 1 172.1696 51.1457 61.9304 0.0000 0.0000 0.0000
# 2 51.1457 106.6012 14.4855 0.0000 0.0000 0.0000
# 3 61.9304 14.4855 94.4001 0.0000 0.0000 0.0000
# 4 0.0000 0.0000 0.0000 9.9213 0.0000 0.0000
# 5 0.0000 0.0000 0.0000 0.0000 8.9503 0.0000
# 6 0.0000 0.0000 0.0000 0.0000 0.0000 26.3185
#
#
#
# Elastic Compliance Matrix: (Units=1/GPa)
#
#
# Indices 1 2 3 4 5 6 
#
# 1 0.008701 -0.003471 -0.005176 0.000000 0.000000 0.000000
# 2 -0.003471 0.010965 0.000595 0.000000 0.000000 0.000000
# 3 -0.005176 0.000595 0.013897 0.000000 0.000000 0.000000
# 4 0.000000 0.000000 0.000000 0.100793 0.000000 0.000000
# 5 0.000000 0.000000 0.000000 0.000000 0.111729 0.000000
# 6 0.000000 0.000000 0.000000 0.000000 0.000000 0.037996
#
#
# Mechanical properties :
#
#
# Convention : Reuss Voigt Hill
#
# Bulk Modulus (GPa) = 57.27566 69.81047 63.54306
# Shear Modulus (GPa) = 16.33954 25.41196 20.87575
#
# Velocity S-wave (km/s) = 2.68465 3.34801 3.03451
# Velocity P-wave (km/s) = 5.90541 6.76304 6.34873
#
# Compressibility (1/GPa) = 0.01745942
#
# Stress axis : x y z
#
# Youngs Moduli (GPa) = 114.92703 91.19537 71.95599
#
# Poissons Ratio (x) = 0.31658 0.37242
# Poissons Ratio (y) = 0.39896 -0.04280
# Poissons Ratio (z) = 0.59482 -0.05424
#
# Static dielectric constant tensor:
#      x y z
#    x 1.857670 0.000000 0.000000 
#    y 0.000000 1.833110 0.000000 
#    z 0.000000 0.000000 1.914550 
# 
# From -- ./inp_files/5925.got.cif
#   From: 2010.05.17/outbox.cif.g08.bks.cpg/sg58_3_cif.got.tgz:5925.got - 2010.06.03 14:20:14.
