data_PCOD9444248
_publ_section_title
;
Structure prediction by ZEFSAII (Michael W. Deem and Ramdas Pophale) SiO2 
 PCOD9444248
Probable space group: P N N M
;
_chemical_formula_sum "Si O2"
_cell_formula_units_Z 58
_cell_length_a 17.907686
_cell_length_b 5.181976
_cell_length_c 26.814406
_cell_angle_alpha 90.000000
_cell_angle_beta 90.000000
_cell_angle_gamma 90.000000
_cell_volume 2488.301771
_symmetry_space_group_name_H-M "P N N M"
_symmetry_group_IT_number 58
_symmetry_cell_setting 'orthorhombic'
loop_
_space_group_symop_operation_xyz
x,y,z
-x,-y,z
1/2+x,1/2-y,1/2-z
1/2-x,1/2+y,1/2-z
-x,-y,-z
x,y,-z
1/2-x,1/2+y,1/2+z
1/2+x,1/2-y,1/2+z
loop_
_atom_site_type_symbol
_atom_site_label
_atom_site_fract_x
_atom_site_fract_y
_atom_site_fract_z
Si Si1 0.691638 0.311533 0.153405
Si Si2 0.376081 0.039182 0.912455
Si Si3 0.427203 0.325542 0.187660
Si Si4 0.000000 0.500000 0.500000
Si Si5 0.345433 0.075965 0.384351
Si Si6 0.229606 0.043203 0.781232
Si Si7 0.572300 0.677432 0.298915
Si Si8 0.204586 0.097093 0.940809
O O1 0.638329 0.463292 0.189573
O O2 0.768878 0.458103 0.146933
O O3 0.716325 0.030057 0.172996
O O4 0.645221 0.255781 0.103401
O O5 0.413815 0.161914 0.862481
O O6 0.293420 0.142483 0.928560
O O7 0.435541 0.047262 0.956389
O O8 0.500000 0.500000 0.182246
O O9 0.429404 0.197900 0.242948
O O10 0.410812 0.129010 0.344541
O O11 0.325628 0.332256 0.416201
O O12 0.346264 0.827540 0.419111
O O13 0.251135 0.803200 0.745873
O O14 0.145355 0.007544 0.799334
O O15 0.500000 0.500000 0.305015
O O16 0.198403 0.081423 0.000000
#
# Coordination Sequence:
#
# PCOD9444248 Si02
#       8
#     8   8   8   2   8   8   8   8
#     4  10  21  36  60  89 128 173 238 284 335 417
#     4  11  23  40  60  94 134 187 246 292 354 416
#     4  11  21  40  60  92 139 183 232 288 355 434
#     4  12  24  44  62  92 144 198 238 310 354 414
#     4  10  23  42  70 103 135 181 234 295 356 435
#     4  11  22  39  66  98 132 182 237 283 347 430
#     4  10  23  42  68 103 149 188 233 300 375 438
#     4  11  22  45  73 101 135 177 242 301 356 424
#
# _framework density 23.309069999999998
#
# number of rings (size 3 to 8) (size 9 to 14) (size 15 to 20)
#    0.000    1.379    3.448    2.069    0.000    3.310 
#    2.483    5.862    0.000    2.483    0.000    0.000 
#    0.000    0.000    0.000    0.000    0.000    0.000 
#
# Total GULP energy -323693.691764 kJ/mol
# GULP energy per Si atom -5580.925720 kJ/mol
# Density = 2.325602 g / cm^3
# Si number density = 23.309070 Si / 1000 Ang^3
#
#
#
# Elastic Constant Matrix: (Units=GPa)
#
#
# Indices 1 2 3 4 5 6 
#
# 1 116.4746 31.7417 47.3394 0.0000 0.0000 0.0000
# 2 31.7417 88.5482 47.0166 0.0000 0.0000 0.0000
# 3 47.3394 47.0166 174.6038 0.0000 0.0000 0.0000
# 4 0.0000 0.0000 0.0000 19.5930 0.0000 0.0000
# 5 0.0000 0.0000 0.0000 0.0000 35.8398 0.0000
# 6 0.0000 0.0000 0.0000 0.0000 0.0000 27.5175
#
#
#
# Elastic Compliance Matrix: (Units=1/GPa)
#
#
# Indices 1 2 3 4 5 6 
#
# 1 0.010113 -0.002531 -0.002060 0.000000 0.000000 0.000000
# 2 -0.002531 0.013811 -0.003033 0.000000 0.000000 0.000000
# 3 -0.002060 -0.003033 0.007102 0.000000 0.000000 0.000000
# 4 0.000000 0.000000 0.000000 0.051039 0.000000 0.000000
# 5 0.000000 0.000000 0.000000 0.000000 0.027902 0.000000
# 6 0.000000 0.000000 0.000000 0.000000 0.000000 0.036341
#
#
# Mechanical properties :
#
#
# Convention : Reuss Voigt Hill
#
# Bulk Modulus (GPa) = 63.37968 70.20243 66.79106
# Shear Modulus (GPa) = 29.97339 33.49198 31.73269
#
# Velocity S-wave (km/s) = 3.58985 3.79471 3.69370
# Velocity P-wave (km/s) = 6.66579 7.02732 6.84894
#
# Compressibility (1/GPa) = 0.01577793
#
# Stress axis : x y z
#
# Youngs Moduli (GPa) = 98.88555 72.40659 140.79644
#
# Poissons Ratio (x) = 0.18327 0.29007
# Poissons Ratio (y) = 0.25030 0.42699
# Poissons Ratio (z) = 0.20373 0.21959
#
# Static dielectric constant tensor:
#      x y z
#    x 1.888000 0.000000 0.000000 
#    y 0.000000 1.946680 0.000000 
#    z 0.000000 0.000000 1.959060 
# 
# From -- ./inp_files/33827.got.cif
#   From: 2010.05.17/outbox.cif.g08.bks.cpg/sg58_17_cif.got.tgz:33827.got - 2010.06.03 14:20:14.
