data_PCOD9444924
_publ_section_title
;
Structure prediction by ZEFSAII (Michael W. Deem and Ramdas Pophale) SiO2 
 PCOD9444924
Probable space group: P N N M
;
_chemical_formula_sum "Si O2"
_cell_formula_units_Z 58
_cell_length_a 12.274651
_cell_length_b 27.936665
_cell_length_c 7.622566
_cell_angle_alpha 90.000000
_cell_angle_beta 90.000000
_cell_angle_gamma 90.000000
_cell_volume 2613.875549
_symmetry_space_group_name_H-M "P N N M"
_symmetry_group_IT_number 58
_symmetry_cell_setting 'orthorhombic'
loop_
_space_group_symop_operation_xyz
x,y,z
-x,-y,z
1/2+x,1/2-y,1/2-z
1/2-x,1/2+y,1/2-z
-x,-y,-z
x,y,-z
1/2-x,1/2+y,1/2+z
1/2+x,1/2-y,1/2+z
loop_
_atom_site_type_symbol
_atom_site_label
_atom_site_fract_x
_atom_site_fract_y
_atom_site_fract_z
Si Si1 0.556138 0.877648 0.794827
Si Si2 0.290272 0.346012 0.207878
Si Si3 0.836391 0.002518 0.302082
Si Si4 0.144478 0.434370 0.210166
Si Si5 0.796958 0.897804 0.792188
Si Si6 0.586521 0.211585 0.212069
Si Si7 0.027484 0.182032 0.712879
Si Si8 0.000000 0.000000 0.000000
O O1 0.475189 0.922874 0.779803
O O2 0.676114 0.886537 0.722775
O O3 0.491073 0.831598 0.721683
O O4 0.573131 0.867536 0.000000
O O5 0.223909 0.391779 0.277116
O O6 0.209559 0.301388 0.235527
O O7 0.410491 0.336692 0.277824
O O8 0.301462 0.353957 0.000000
O O9 0.859238 0.020367 0.500000
O O10 0.842631 0.945285 0.297156
O O11 0.712495 0.017835 0.254595
O O12 0.918453 0.020586 0.155329
O O13 0.133729 0.430585 0.000000
O O14 0.876545 0.853298 0.767945
O O15 0.792936 0.909819 0.000000
O O16 0.549657 0.263723 0.272140
O O17 0.582721 0.210844 0.000000
O O18 0.024784 0.182773 0.500000
#
# Coordination Sequence:
#
# PCOD9444924 Si02
#       8
#     8   8   8   8   8   8   8   2
#     4   9  20  38  63  87 124 165 209 269 323 383
#     4   9  19  36  58  83 113 150 198 251 308 375
#     4  11  25  44  67  97 133 171 219 271 326 381
#     4   9  20  38  62  92 120 162 213 261 317 380
#     4  11  24  41  60  93 128 167 213 261 325 391
#     4   9  19  37  57  85 115 157 207 255 319 381
#     4  10  22  37  58  83 119 161 204 258 322 384
#     4  12  26  44  68  96 132 176 214 260 318 402
#
# _framework density 22.189276
#
# number of rings (size 3 to 8) (size 9 to 14) (size 15 to 20)
#    0.000    2.207    0.690    0.621    4.828    2.759 
#    0.000    2.759    0.000    0.000    0.000    0.000 
#    0.000    0.000    0.000    0.000    0.000    0.000 
#
# Total GULP energy -323437.821077 kJ/mol
# GULP energy per Si atom -5576.514156 kJ/mol
# Density = 2.213877 g / cm^3
# Si number density = 22.189276 Si / 1000 Ang^3
#
#
#
# Elastic Constant Matrix: (Units=GPa)
#
#
# Indices 1 2 3 4 5 6 
#
# 1 126.0135 -0.9818 21.0670 0.0000 0.0000 0.0000
# 2 -0.9818 35.3408 8.6481 0.0000 0.0000 0.0000
# 3 21.0670 8.6481 74.4049 0.0000 0.0000 0.0000
# 4 0.0000 0.0000 0.0000 16.3955 0.0000 0.0000
# 5 0.0000 0.0000 0.0000 0.0000 41.9516 0.0000
# 6 0.0000 0.0000 0.0000 0.0000 0.0000 16.6324
#
#
#
# Elastic Compliance Matrix: (Units=1/GPa)
#
#
# Indices 1 2 3 4 5 6 
#
# 1 0.008354 0.000835 -0.002462 0.000000 0.000000 0.000000
# 2 0.000835 0.029208 -0.003631 0.000000 0.000000 0.000000
# 3 -0.002462 -0.003631 0.014559 0.000000 0.000000 0.000000
# 4 0.000000 0.000000 0.000000 0.060992 0.000000 0.000000
# 5 0.000000 0.000000 0.000000 0.000000 0.023837 0.000000
# 6 0.000000 0.000000 0.000000 0.000000 0.000000 0.060124
#
#
# Mechanical properties :
#
#
# Convention : Reuss Voigt Hill
#
# Bulk Modulus (GPa) = 24.03672 32.58065 28.30869
# Shear Modulus (GPa) = 22.57757 28.79764 25.68760
#
# Velocity S-wave (km/s) = 3.19329 3.60643 3.40613
# Velocity P-wave (km/s) = 4.94492 5.66187 5.31549
#
# Compressibility (1/GPa) = 0.04160301
#
# Stress axis : x y z
#
# Youngs Moduli (GPa) = 119.70583 34.23763 68.68505
#
# Poissons Ratio (x) = -0.02858 0.16912
# Poissons Ratio (y) = -0.09991 0.24940
# Poissons Ratio (z) = 0.29475 0.12432
#
# Static dielectric constant tensor:
#      x y z
#    x 1.828860 0.000000 0.000000 
#    y 0.000000 1.813460 0.000000 
#    z 0.000000 0.000000 1.847570 
# 
# From -- ./inp_files/4462.got.cif
#   From: 2010.05.17/outbox.cif.g08.bks.cpg/sg58_3_cif.got.tgz:4462.got - 2010.06.03 14:20:14.
