data_PCOD9444789
_publ_section_title
;
Structure prediction by ZEFSAII (Michael W. Deem and Ramdas Pophale) SiO2 
 PCOD9444789
Probable space group: P N N M
;
_chemical_formula_sum "Si O2"
_cell_formula_units_Z 34
_cell_length_a 10.238633
_cell_length_b 11.793845
_cell_length_c 12.712871
_cell_angle_alpha 90.000000
_cell_angle_beta 90.000000
_cell_angle_gamma 90.000000
_cell_volume 1535.115413
_symmetry_space_group_name_H-M "P N N M"
_symmetry_group_IT_number 58
_symmetry_cell_setting 'orthorhombic'
loop_
_space_group_symop_operation_xyz
x,y,z
-x,-y,z
1/2+x,1/2-y,1/2-z
1/2-x,1/2+y,1/2-z
-x,-y,-z
x,y,-z
1/2-x,1/2+y,1/2+z
1/2+x,1/2-y,1/2+z
loop_
_atom_site_type_symbol
_atom_site_label
_atom_site_fract_x
_atom_site_fract_y
_atom_site_fract_z
Si Si1 0.573103 0.842618 0.118367
Si Si2 0.176586 0.596964 0.159349
Si Si3 0.000000 0.500000 0.000000
Si Si4 0.877643 0.084087 0.323731
Si Si5 0.767107 0.655282 0.382404
O O1 0.651341 0.894713 0.216107
O O2 0.592417 0.706238 0.127130
O O3 0.420170 0.870384 0.133876
O O4 0.611013 0.877774 0.000000
O O5 0.045323 0.590138 0.092728
O O6 0.256819 0.485031 0.126843
O O7 0.255267 0.708604 0.127887
O O8 0.829858 0.106937 0.204796
O O9 0.000000 0.000000 0.328233
O O10 0.730244 0.621191 0.500000
#
# Coordination Sequence:
#
# PCOD9444789 Si02
#       5
#     8   8   2   8   8
#     4  10  23  43  67  93 129 173 216 271 323 385
#     4  11  23  41  62  99 127 169 215 265 326 383
#     4  12  24  40  68  92 134 170 210 268 316 392
#     4  11  23  40  66  97 128 167 221 265 322 391
#     4  10  21  41  63  90 131 168 213 271 325 377
#
# _framework density 22.148171999999999
#
# number of rings (size 3 to 8) (size 9 to 14) (size 15 to 20)
#    0.000    1.412    3.529    1.412    1.647    1.882 
#    0.000    2.941    0.000    0.000    0.000    0.000 
#    0.000    0.000    0.000    0.000    0.000    0.000 
#
# Total GULP energy -189592.671369 kJ/mol
# GULP energy per Si atom -5576.255040 kJ/mol
# Density = 2.209776 g / cm^3
# Si number density = 22.148172 Si / 1000 Ang^3
#
#
#
# Elastic Constant Matrix: (Units=GPa)
#
#
# Indices 1 2 3 4 5 6 
#
# 1 47.2815 10.0601 25.8579 0.0000 0.0000 0.0000
# 2 10.0601 100.3625 15.1958 0.0000 0.0000 0.0000
# 3 25.8579 15.1958 153.6913 0.0000 0.0000 0.0000
# 4 0.0000 0.0000 0.0000 -72.3432 0.0000 0.0000
# 5 0.0000 0.0000 0.0000 0.0000 5.5597 0.0000
# 6 0.0000 0.0000 0.0000 0.0000 0.0000 26.0128
#
#
#
# Elastic Compliance Matrix: (Units=1/GPa)
#
#
# Indices 1 2 3 4 5 6 
#
# 1 0.023606 -0.001792 -0.003795 0.000000 0.000000 0.000000
# 2 -0.001792 0.010251 -0.000712 0.000000 0.000000 0.000000
# 3 -0.003795 -0.000712 0.007215 0.000000 0.000000 0.000000
# 4 0.000000 0.000000 0.000000 -0.013823 0.000000 0.000000
# 5 0.000000 0.000000 0.000000 0.000000 0.179865 0.000000
# 6 0.000000 0.000000 0.000000 0.000000 0.000000 0.038443
#
#
# Mechanical properties :
#
#
# Convention : Reuss Voigt Hill
#
# Bulk Modulus (GPa) = 35.11690 44.84031 39.97860
# Shear Modulus (GPa) = 18.68137 8.52730 13.60434
#
# Velocity S-wave (km/s) = 2.90741 1.96430 2.48108
# Velocity P-wave (km/s) = 5.21158 5.04323 5.12810
#
# Compressibility (1/GPa) = 0.02847632
#
# Stress axis : x y z
#
# Youngs Moduli (GPa) = 42.36150 97.54861 138.59313
#
# Poissons Ratio (x) = 0.17478 0.52589
# Poissons Ratio (y) = 0.07590 0.09869
# Poissons Ratio (z) = 0.16074 0.06947
#
# Static dielectric constant tensor:
#      x y z
#    x 1.858870 0.000000 0.000000 
#    y 0.000000 1.842200 0.000000 
#    z 0.000000 0.000000 1.805910 
# 
# From -- ./inp_files/13851.got.cif
#   From: 2010.05.17/outbox.cif.g08.bks.cpg/sg58_7_cif.got.tgz:13851.got - 2010.06.03 14:20:14.
