data_PCOD9444784
_publ_section_title
;
Structure prediction by ZEFSAII (Michael W. Deem and Ramdas Pophale) SiO2 
 PCOD9444784
Probable space group: P N N M
;
_chemical_formula_sum "Si O2"
_cell_formula_units_Z 56
_cell_length_a 5.582037
_cell_length_b 34.521815
_cell_length_c 14.427090
_cell_angle_alpha 90.000000
_cell_angle_beta 90.000000
_cell_angle_gamma 90.000000
_cell_volume 2780.129799
_symmetry_space_group_name_H-M "P N N M"
_symmetry_group_IT_number 58
_symmetry_cell_setting 'orthorhombic'
loop_
_space_group_symop_operation_xyz
x,y,z
-x,-y,z
1/2+x,1/2-y,1/2-z
1/2-x,1/2+y,1/2-z
-x,-y,-z
x,y,-z
1/2-x,1/2+y,1/2+z
1/2+x,1/2-y,1/2+z
loop_
_atom_site_type_symbol
_atom_site_label
_atom_site_fract_x
_atom_site_fract_y
_atom_site_fract_z
Si Si1 0.678019 0.965618 0.897063
Si Si2 0.314521 0.745025 0.694790
Si Si3 0.324702 0.893545 0.101322
Si Si4 0.434190 0.589336 0.275146
Si Si5 0.694749 0.173379 0.391612
Si Si6 0.280612 0.161577 0.107850
Si Si7 0.696324 0.366166 0.887898
O O1 0.523775 0.926601 0.907253
O O2 0.867577 0.951537 0.821854
O O3 0.500000 0.000000 0.870274
O O4 0.775907 0.974690 0.000000
O O5 0.073890 0.752962 0.755305
O O6 0.276567 0.703123 0.649419
O O7 0.319681 0.780966 0.624422
O O8 0.439770 0.851044 0.108478
O O9 0.208549 0.904524 0.198978
O O10 0.193544 0.896296 0.000000
O O11 0.343043 0.594927 0.171543
O O12 0.337129 0.626946 0.333130
O O13 0.692452 0.164704 0.500000
O O14 0.446771 0.153770 0.356475
O O15 0.956601 0.158203 0.360136
O O16 0.208941 0.160589 0.000000
O O17 0.699220 0.370513 0.000000
#
# Coordination Sequence:
#
# PCOD9444784 Si02
#       7
#     8   8   8   8   8   8   8
#     4   9  19  35  55  86 123 155 190 231 281 347
#     4  12  25  38  55  82 112 156 201 246 296 349
#     4   9  19  34  55  83 114 151 190 233 287 347
#     4  11  20  34  59  82 116 150 196 236 295 347
#     4  10  21  41  58  79 109 150 196 250 301 343
#     4  10  22  37  54  82 115 151 192 241 295 351
#     4  10  23  39  63  86 114 150 200 254 299 347
#
# _framework density 20.142944
#
# number of rings (size 3 to 8) (size 9 to 14) (size 15 to 20)
#    0.000    1.857    0.000    5.143    8.000    0.571 
#    0.000    3.571    0.000    0.429    0.000    1.000 
#    0.000    0.000    0.000    0.000    0.000    0.000 
#
# Total GULP energy -311762.162012 kJ/mol
# GULP energy per Si atom -5567.181464 kJ/mol
# Density = 2.009710 g / cm^3
# Si number density = 20.142944 Si / 1000 Ang^3
#
#
#
# Elastic Constant Matrix: (Units=GPa)
#
#
# Indices 1 2 3 4 5 6 
#
# 1 85.4033 17.4610 13.0665 0.0000 0.0000 0.0000
# 2 17.4610 43.1515 10.2492 0.0000 0.0000 0.0000
# 3 13.0665 10.2492 47.7807 0.0000 0.0000 0.0000
# 4 0.0000 0.0000 0.0000 -531.9010 0.0000 0.0000
# 5 0.0000 0.0000 0.0000 0.0000 20.4696 0.0000
# 6 0.0000 0.0000 0.0000 0.0000 0.0000 19.0699
#
#
#
# Elastic Compliance Matrix: (Units=1/GPa)
#
#
# Indices 1 2 3 4 5 6 
#
# 1 0.013058 -0.004674 -0.002568 0.000000 0.000000 0.000000
# 2 -0.004674 0.026091 -0.004319 0.000000 0.000000 0.000000
# 3 -0.002568 -0.004319 0.022558 0.000000 0.000000 0.000000
# 4 0.000000 0.000000 0.000000 -0.001880 0.000000 0.000000
# 5 0.000000 0.000000 0.000000 0.000000 0.048853 0.000000
# 6 0.000000 0.000000 0.000000 0.000000 0.000000 0.052439
#
#
# Mechanical properties :
#
#
# Convention : Reuss Voigt Hill
#
# Bulk Modulus (GPa) = 25.91663 28.65431 27.28547
# Shear Modulus (GPa) = 25.36772 -89.43504 -32.03366
#
# Velocity S-wave (km/s) = 3.55263 -6.67058 -3.99220
# Velocity P-wave (km/s) = 5.45184 6.71360 2.77037
#
# Compressibility (1/GPa) = 0.03858526
#
# Stress axis : x y z
#
# Youngs Moduli (GPa) = 76.58350 38.32724 44.33085
#
# Poissons Ratio (x) = 0.17913 0.11386
# Poissons Ratio (y) = 0.35793 0.19145
# Poissons Ratio (z) = 0.19669 0.16552
#
# Static dielectric constant tensor:
#      x y z
#    x 1.891450 0.000000 0.000000 
#    y 0.000000 1.678490 0.000000 
#    z 0.000000 0.000000 1.780250 
# 
# From -- ./inp_files/18729.got.cif
#   From: 2010.05.17/outbox.cif.g08.bks.cpg/sg58_10_cif.got.tgz:18729.got - 2010.06.03 14:20:14.
