data_PCOD9444941
_publ_section_title
;
Structure prediction by ZEFSAII (Michael W. Deem and Ramdas Pophale) SiO2 
 PCOD9444941
Probable space group: P N N M
;
_chemical_formula_sum "Si O2"
_cell_formula_units_Z 52
_cell_length_a 18.026473
_cell_length_b 7.390461
_cell_length_c 15.641538
_cell_angle_alpha 90.000000
_cell_angle_beta 90.000000
_cell_angle_gamma 90.000000
_cell_volume 2083.827409
_symmetry_space_group_name_H-M "P N N M"
_symmetry_group_IT_number 58
_symmetry_cell_setting 'orthorhombic'
loop_
_space_group_symop_operation_xyz
x,y,z
-x,-y,z
1/2+x,1/2-y,1/2-z
1/2-x,1/2+y,1/2-z
-x,-y,-z
x,y,-z
1/2-x,1/2+y,1/2+z
1/2+x,1/2-y,1/2+z
loop_
_atom_site_type_symbol
_atom_site_label
_atom_site_fract_x
_atom_site_fract_y
_atom_site_fract_z
Si Si1 0.915543 0.533422 0.828321
Si Si2 0.642686 0.922551 0.500000
Si Si3 0.182806 0.945501 0.000000
Si Si4 0.739715 0.694382 0.000000
Si Si5 0.411011 0.541389 0.332977
Si Si6 0.969041 0.253261 0.593485
Si Si7 0.350306 0.515832 0.144196
Si Si8 0.113829 0.408922 0.347131
O O1 0.901347 0.416202 0.911860
O O2 0.905763 0.744067 0.843715
O O3 0.865714 0.502889 0.744128
O O4 0.000000 0.500000 0.805606
O O5 0.703251 0.765432 0.500000
O O6 0.677534 0.119665 0.500000
O O7 0.249836 0.089483 0.000000
O O8 0.131179 0.969143 0.916424
O O9 0.705900 0.604055 0.913397
O O10 0.500000 0.500000 0.326937
O O11 0.365022 0.489164 0.246273
O O12 0.003942 0.260353 0.500000
O O13 0.908170 0.416275 0.597680
O O14 0.033872 0.303589 0.658551
O O15 0.926758 0.067258 0.607045
O O16 0.337826 0.732180 0.130451
#
# Coordination Sequence:
#
# PCOD9444941 Si02
#       8
#     8   4   4   4   8   8   8   8
#     4  11  20  41  70 108 148 174 225 314 376 448
#     4  12  27  45  73  96 140 195 252 295 376 425
#     4  12  27  51  77 108 144 201 249 312 378 451
#     4  12  28  54  65 100 152 206 259 301 340 462
#     4  11  23  45  78 118 148 182 245 318 392 449
#     4  11  21  36  63 104 145 187 232 299 360 440
#     4  11  25  43  70  99 146 197 246 295 362 432
#     4  10  22  37  65 104 144 178 236 293 375 434
#
# _framework density 24.954080999999999
#
# number of rings (size 3 to 8) (size 9 to 14) (size 15 to 20)
#    0.000    0.923    3.846    4.615    4.308    1.846 
#    2.769    0.000    0.000    0.000    0.000    0.000 
#    0.000    0.000    0.000    0.000    0.000    0.000 
#
# Total GULP energy -290066.662036 kJ/mol
# GULP energy per Si atom -5578.205039 kJ/mol
# Density = 2.489728 g / cm^3
# Si number density = 24.954081 Si / 1000 Ang^3
#
#
#
# Elastic Constant Matrix: (Units=GPa)
#
#
# Indices 1 2 3 4 5 6 
#
# 1 40.9391 -2.3356 42.3383 0.0000 0.0000 0.0000
# 2 -2.3356 121.2894 48.4008 0.0000 0.0000 0.0000
# 3 42.3383 48.4008 189.0777 0.0000 0.0000 0.0000
# 4 0.0000 0.0000 0.0000 -168.0157 0.0000 0.0000
# 5 0.0000 0.0000 0.0000 0.0000 18.5429 0.0000
# 6 0.0000 0.0000 0.0000 0.0000 0.0000 36.8858
#
#
#
# Elastic Compliance Matrix: (Units=1/GPa)
#
#
# Indices 1 2 3 4 5 6 
#
# 1 0.033484 0.004050 -0.008535 0.000000 0.000000 0.000000
# 2 0.004050 0.009673 -0.003383 0.000000 0.000000 0.000000
# 3 -0.008535 -0.003383 0.008066 0.000000 0.000000 0.000000
# 4 0.000000 0.000000 0.000000 -0.005952 0.000000 0.000000
# 5 0.000000 0.000000 0.000000 0.000000 0.053929 0.000000
# 6 0.000000 0.000000 0.000000 0.000000 0.000000 0.027111
#
#
# Mechanical properties :
#
#
# Convention : Reuss Voigt Hill
#
# Bulk Modulus (GPa) = 28.17835 58.67924 43.42879
# Shear Modulus (GPa) = 32.49412 -4.99055 13.75178
#
# Velocity S-wave (km/s) = 3.61246 -1.41571 2.35006
# Velocity P-wave (km/s) = 5.35877 4.57095 4.98046
#
# Compressibility (1/GPa) = 0.03548824
#
# Stress axis : x y z
#
# Youngs Moduli (GPa) = 29.86518 103.38313 123.97880
#
# Poissons Ratio (x) = -0.41875 1.05810
# Poissons Ratio (y) = -0.12097 0.41943
# Poissons Ratio (z) = 0.25489 0.34975
#
# Static dielectric constant tensor:
#      x y z
#    x 2.003640 0.000000 0.000000 
#    y 0.000000 2.020460 0.000000 
#    z 0.000000 0.000000 2.061780 
# 
# From -- ./inp_files/23219.got.cif
#   From: 2010.05.17/outbox.cif.g08.bks.cpg/sg58_12_cif.got.tgz:23219.got - 2010.06.03 14:20:14.
