data_PCOD9444415
_publ_section_title
;
Structure prediction by ZEFSAII (Michael W. Deem and Ramdas Pophale) SiO2 
 PCOD9444415
Probable space group: P N N M
;
_chemical_formula_sum "Si O2"
_cell_formula_units_Z 34
_cell_length_a 8.601916
_cell_length_b 16.402054
_cell_length_c 12.882720
_cell_angle_alpha 90.000000
_cell_angle_beta 90.000000
_cell_angle_gamma 90.000000
_cell_volume 1817.611251
_symmetry_space_group_name_H-M "P N N M"
_symmetry_group_IT_number 58
_symmetry_cell_setting 'orthorhombic'
loop_
_space_group_symop_operation_xyz
x,y,z
-x,-y,z
1/2+x,1/2-y,1/2-z
1/2-x,1/2+y,1/2-z
-x,-y,-z
x,y,-z
1/2-x,1/2+y,1/2+z
1/2+x,1/2-y,1/2+z
loop_
_atom_site_type_symbol
_atom_site_label
_atom_site_fract_x
_atom_site_fract_y
_atom_site_fract_z
Si Si1 0.954782 0.199431 0.621474
Si Si2 0.049457 0.615467 0.312217
Si Si3 0.641525 0.444931 0.227804
Si Si4 0.833407 0.582778 0.881667
Si Si5 0.000000 0.500000 0.500000
O O1 0.993571 0.206556 0.500000
O O2 0.957643 0.287894 0.672453
O O3 0.783843 0.159174 0.628586
O O4 0.069546 0.134808 0.674856
O O5 0.227399 0.584022 0.307667
O O6 0.965131 0.592171 0.204824
O O7 0.972685 0.569096 0.408241
O O8 0.500000 0.500000 0.271633
O O9 0.728055 0.503911 0.145390
O O10 0.890313 0.579099 0.000000
#
# Coordination Sequence:
#
# PCOD9444415 Si02
#       5
#     8   8   8   8   2
#     4  10  21  37  62  88 123 156 199 251 300 352
#     4  12  22  41  62  86 124 161 205 239 294 364
#     4  10  21  38  61  90 118 155 197 250 300 350
#     4  10  21  38  62  90 119 156 200 253 302 347
#     4  12  24  40  64  84 118 172 194 238 298 358
#
# _framework density 18.705870999999998
#
# number of rings (size 3 to 8) (size 9 to 14) (size 15 to 20)
#    0.000    1.412    3.529    2.118    0.000    5.647 
#    0.000    0.588    0.000    0.000    0.000    0.000 
#    0.000    0.000    0.000    0.000    0.000    0.000 
#
# Total GULP energy -189286.502014 kJ/mol
# GULP energy per Si atom -5567.250059 kJ/mol
# Density = 1.866330 g / cm^3
# Si number density = 18.705871 Si / 1000 Ang^3
#
#
#
# Elastic Constant Matrix: (Units=GPa)
#
#
# Indices 1 2 3 4 5 6 
#
# 1 70.9426 36.4751 23.9344 0.0000 0.0000 0.0000
# 2 36.4751 171.0266 33.2886 0.0000 0.0000 0.0000
# 3 23.9344 33.2886 75.8842 0.0000 0.0000 0.0000
# 4 0.0000 0.0000 0.0000 11.7066 0.0000 0.0000
# 5 0.0000 0.0000 0.0000 0.0000 2.0228 0.0000
# 6 0.0000 0.0000 0.0000 0.0000 0.0000 24.8448
#
#
#
# Elastic Compliance Matrix: (Units=1/GPa)
#
#
# Indices 1 2 3 4 5 6 
#
# 1 0.016926 -0.002811 -0.004106 0.000000 0.000000 0.000000
# 2 -0.002811 0.006860 -0.002123 0.000000 0.000000 0.000000
# 3 -0.004106 -0.002123 0.015404 0.000000 0.000000 0.000000
# 4 0.000000 0.000000 0.000000 0.085422 0.000000 0.000000
# 5 0.000000 0.000000 0.000000 0.000000 0.494363 0.000000
# 6 0.000000 0.000000 0.000000 0.000000 0.000000 0.040250
#
#
# Mechanical properties :
#
#
# Convention : Reuss Voigt Hill
#
# Bulk Modulus (GPa) = 47.36670 56.13884 51.75277
# Shear Modulus (GPa) = 7.30631 22.65853 14.98242
#
# Velocity S-wave (km/s) = 1.97848 3.48416 2.83317
# Velocity P-wave (km/s) = 5.53136 6.80164 6.19912
#
# Compressibility (1/GPa) = 0.02111188
#
# Stress axis : x y z
#
# Youngs Moduli (GPa) = 59.08008 145.78006 64.91795
#
# Poissons Ratio (x) = 0.40975 0.26653
# Poissons Ratio (y) = 0.16606 0.13780
# Poissons Ratio (z) = 0.24256 0.30944
#
# Static dielectric constant tensor:
#      x y z
#    x 1.679930 0.000000 0.000000 
#    y 0.000000 1.644960 0.000000 
#    z 0.000000 0.000000 1.597990 
# 
# From -- ./inp_files/19340.got.cif
#   From: 2010.05.17/outbox.cif.g08.bks.cpg/sg58_10_cif.got.tgz:19340.got - 2010.06.03 14:20:14.
