data_PCOD9444187
_publ_section_title
;
Structure prediction by ZEFSAII (Michael W. Deem and Ramdas Pophale) SiO2 
 PCOD9444187
Probable space group: P N N M
;
_chemical_formula_sum "Si O2"
_cell_formula_units_Z 56
_cell_length_a 9.140102
_cell_length_b 15.574987
_cell_length_c 20.573844
_cell_angle_alpha 90.000000
_cell_angle_beta 90.000000
_cell_angle_gamma 90.000000
_cell_volume 2928.830090
_symmetry_space_group_name_H-M "P N N M"
_symmetry_group_IT_number 58
_symmetry_cell_setting 'orthorhombic'
loop_
_space_group_symop_operation_xyz
x,y,z
-x,-y,z
1/2+x,1/2-y,1/2-z
1/2-x,1/2+y,1/2-z
-x,-y,-z
x,y,-z
1/2-x,1/2+y,1/2+z
1/2+x,1/2-y,1/2+z
loop_
_atom_site_type_symbol
_atom_site_label
_atom_site_fract_x
_atom_site_fract_y
_atom_site_fract_z
Si Si1 0.325743 0.257535 0.075784
Si Si2 0.158342 0.679935 0.196403
Si Si3 0.670147 0.415356 0.383820
Si Si4 0.811621 0.684436 0.206235
Si Si5 0.368067 0.401505 0.571290
Si Si6 0.672017 0.250879 0.924754
Si Si7 0.330486 0.003741 0.762455
O O1 0.267841 0.161292 0.089708
O O2 0.251241 0.312440 0.132996
O O3 0.500089 0.260637 0.086081
O O4 0.294670 0.279677 0.000000
O O5 0.239002 0.739933 0.250332
O O6 0.229670 0.700087 0.127103
O O7 0.174850 0.578240 0.208610
O O8 0.985849 0.698502 0.202090
O O9 0.665086 0.498334 0.429541
O O10 0.501396 0.384938 0.379700
O O11 0.730077 0.456830 0.318331
O O12 0.786596 0.591009 0.238809
O O13 0.422358 0.373826 0.500000
O O14 0.223498 0.347632 0.584993
O O15 0.701715 0.274058 0.000000
O O16 0.500000 0.000000 0.785202
#
# Coordination Sequence:
#
# PCOD9444187 Si02
#       7
#     8   8   8   8   8   8   8
#     4  11  23  40  62  90 124 166 212 260 319 379
#     4  11  22  41  64  91 124 164 210 259 318 374
#     4  11  20  35  58  88 121 161 204 253 311 376
#     4  11  23  42  65  92 127 167 210 263 316 379
#     4  10  21  36  55  87 126 160 201 251 309 378
#     4  10  23  40  60  89 126 165 207 260 318 375
#     4  10  24  40  60  91 125 160 206 262 318 374
#
# _framework density 19.120263999999999
#
# number of rings (size 3 to 8) (size 9 to 14) (size 15 to 20)
#    0.000    1.429    1.429    4.286    4.000    2.857 
#    5.143    2.857    0.000    4.286    0.000    0.000 
#    0.000    0.000    0.000    0.000    0.000    0.000 
#
# Total GULP energy -312521.293192 kJ/mol
# GULP energy per Si atom -5580.737378 kJ/mol
# Density = 1.907674 g / cm^3
# Si number density = 19.120264 Si / 1000 Ang^3
#
#
#
# Elastic Constant Matrix: (Units=GPa)
#
#
# Indices 1 2 3 4 5 6 
#
# 1 93.7638 28.2190 58.7989 0.0000 0.0000 0.0000
# 2 28.2190 62.6842 19.3511 0.0000 0.0000 0.0000
# 3 58.7989 19.3511 96.8847 0.0000 0.0000 0.0000
# 4 0.0000 0.0000 0.0000 35.6459 0.0000 0.0000
# 5 0.0000 0.0000 0.0000 0.0000 33.9487 0.0000
# 6 0.0000 0.0000 0.0000 0.0000 0.0000 27.2596
#
#
#
# Elastic Compliance Matrix: (Units=1/GPa)
#
#
# Indices 1 2 3 4 5 6 
#
# 1 0.018704 -0.005239 -0.010305 0.000000 0.000000 0.000000
# 2 -0.005239 0.018469 -0.000509 0.000000 0.000000 0.000000
# 3 -0.010305 -0.000509 0.016677 0.000000 0.000000 0.000000
# 4 0.000000 0.000000 0.000000 0.028054 0.000000 0.000000
# 5 0.000000 0.000000 0.000000 0.000000 0.029456 0.000000
# 6 0.000000 0.000000 0.000000 0.000000 0.000000 0.036684
#
#
# Mechanical properties :
#
#
# Convention : Reuss Voigt Hill
#
# Bulk Modulus (GPa) = 45.99071 51.78564 48.88818
# Shear Modulus (GPa) = 26.68110 29.16842 27.92476
#
# Velocity S-wave (km/s) = 3.73961 3.91003 3.82577
# Velocity P-wave (km/s) = 6.53849 6.89401 6.71860
#
# Compressibility (1/GPa) = 0.02174352
#
# Stress axis : x y z
#
# Youngs Moduli (GPa) = 53.46444 54.14586 59.96156
#
# Poissons Ratio (x) = 0.28366 0.61790
# Poissons Ratio (y) = 0.28009 0.03054
# Poissons Ratio (z) = 0.55095 0.02758
#
# Static dielectric constant tensor:
#      x y z
#    x 1.671020 0.000000 0.000000 
#    y 0.000000 1.662830 0.000000 
#    z 0.000000 0.000000 1.715710 
# 
# From -- ./inp_files/28952.got.cif
#   From: 2010.05.17/outbox.cif.g08.bks.cpg/sg58_15_cif.got.tgz:28952.got - 2010.06.03 14:20:14.
