data_PCOD9444002
_publ_section_title
;
Structure prediction by ZEFSAII (Michael W. Deem and Ramdas Pophale) SiO2 
 PCOD9444002
Probable space group: P N N M
;
_chemical_formula_sum "Si O2"
_cell_formula_units_Z 56
_cell_length_a 21.123288
_cell_length_b 14.722472
_cell_length_c 9.038510
_cell_angle_alpha 90.000000
_cell_angle_beta 90.000000
_cell_angle_gamma 90.000000
_cell_volume 2810.859255
_symmetry_space_group_name_H-M "P N N M"
_symmetry_group_IT_number 58
_symmetry_cell_setting 'orthorhombic'
loop_
_space_group_symop_operation_xyz
x,y,z
-x,-y,z
1/2+x,1/2-y,1/2-z
1/2-x,1/2+y,1/2-z
-x,-y,-z
x,y,-z
1/2-x,1/2+y,1/2+z
1/2+x,1/2-y,1/2+z
loop_
_atom_site_type_symbol
_atom_site_label
_atom_site_fract_x
_atom_site_fract_y
_atom_site_fract_z
Si Si1 0.085591 0.090885 0.825921
Si Si2 0.712612 0.296131 0.324858
Si Si3 0.120033 0.884835 0.823064
Si Si4 0.670078 0.919157 0.179346
Si Si5 0.232020 0.388830 0.322590
Si Si6 0.987453 0.222833 0.324810
Si Si7 0.532999 0.903986 0.676467
O O1 0.155012 0.134064 0.803531
O O2 0.036602 0.146588 0.728461
O O3 0.089692 0.983949 0.795163
O O4 0.068799 0.101933 0.000000
O O5 0.717203 0.278903 0.500000
O O6 0.777876 0.344004 0.276806
O O7 0.701715 0.201481 0.243824
O O8 0.193729 0.889161 0.780682
O O9 0.080673 0.810392 0.734887
O O10 0.115951 0.867663 0.000000
O O11 0.698141 0.017825 0.221345
O O12 0.603118 0.904910 0.255481
O O13 0.663727 0.916213 0.000000
O O14 0.229646 0.384872 0.500000
O O15 0.986962 0.232006 0.500000
O O16 0.002806 0.318849 0.248859
O O17 0.535385 0.892359 0.500000
O O18 0.500000 0.000000 0.709669
#
# Coordination Sequence:
#
# PCOD9444002 Si02
#       7
#     8   8   8   8   8   8   8
#     4  10  21  40  64  89 122 165 208 251 303 367
#     4  10  21  38  61  90 124 162 203 250 302 363
#     4  10  20  40  66  91 124 168 209 246 301 371
#     4  10  21  41  65  92 126 159 198 251 310 361
#     4  10  21  37  61  92 124 159 199 247 302 364
#     4  12  26  41  61  91 126 162 203 259 314 361
#     4  11  26  46  66  89 120 162 213 257 301 369
#
# _framework density 19.922733000000001
#
# number of rings (size 3 to 8) (size 9 to 14) (size 15 to 20)
#    0.000    1.571    1.429    3.000    2.000    8.000 
#    0.000    0.000    0.000    0.000    0.000    0.000 
#    0.000    0.000    0.000    0.000    0.000    0.000 
#
# Total GULP energy -313195.017295 kJ/mol
# GULP energy per Si atom -5592.768166 kJ/mol
# Density = 1.987739 g / cm^3
# Si number density = 19.922733 Si / 1000 Ang^3
#
#
#
# Elastic Constant Matrix: (Units=GPa)
#
#
# Indices 1 2 3 4 5 6 
#
# 1 41.0713 -1.8551 18.6822 0.0000 0.0000 0.0000
# 2 -1.8551 100.6176 36.4557 0.0000 0.0000 0.0000
# 3 18.6822 36.4557 40.1753 0.0000 0.0000 0.0000
# 4 0.0000 0.0000 0.0000 53.4488 0.0000 0.0000
# 5 0.0000 0.0000 0.0000 0.0000 -3.6459 0.0000
# 6 0.0000 0.0000 0.0000 0.0000 0.0000 20.6201
#
#
#
# Elastic Compliance Matrix: (Units=1/GPa)
#
#
# Indices 1 2 3 4 5 6 
#
# 1 0.036837 0.010258 -0.026439 0.000000 0.000000 0.000000
# 2 0.010258 0.017663 -0.020798 0.000000 0.000000 0.000000
# 3 -0.026439 -0.020798 0.056058 0.000000 0.000000 0.000000
# 4 0.000000 0.000000 0.000000 0.018709 0.000000 0.000000
# 5 0.000000 0.000000 0.000000 0.000000 -0.274278 0.000000
# 6 0.000000 0.000000 0.000000 0.000000 0.000000 0.048496
#
#
# Mechanical properties :
#
#
# Convention : Reuss Voigt Hill
#
# Bulk Modulus (GPa) = 27.32114 32.04774 29.68444
# Shear Modulus (GPa) = -482.83085 22.65670 -230.08707
#
# Velocity S-wave (km/s) = -15.58454 3.37594 -10.75827
# Velocity P-wave (km/s) = 17.60948 5.59615 11.80629
#
# Compressibility (1/GPa) = 0.03660170
#
# Stress axis : x y z
#
# Youngs Moduli (GPa) = 27.14632 56.61436 17.83870
#
# Poissons Ratio (x) = -0.58077 0.47163
# Poissons Ratio (y) = -0.27848 0.37101
# Poissons Ratio (z) = 0.71771 1.17748
#
# Static dielectric constant tensor:
#      x y z
#    x 1.700390 0.000000 0.000000 
#    y 0.000000 1.693210 0.000000 
#    z 0.000000 0.000000 1.660460 
# 
# From -- ./inp_files/6280.got.cif
#   From: 2010.05.17/outbox.cif.g08.bks.cpg/sg58_4_cif.got.tgz:6280.got - 2010.06.03 14:20:14.
