data_PCOD9444751
_publ_section_title
;
Structure prediction by ZEFSAII (Michael W. Deem and Ramdas Pophale) SiO2 
 PCOD9444751
Probable space group: P N N M
;
_chemical_formula_sum "Si O2"
_cell_formula_units_Z 64
_cell_length_a 13.451258
_cell_length_b 28.350978
_cell_length_c 8.497256
_cell_angle_alpha 90.000000
_cell_angle_beta 90.000000
_cell_angle_gamma 90.000000
_cell_volume 3240.482275
_symmetry_space_group_name_H-M "P N N M"
_symmetry_group_IT_number 58
_symmetry_cell_setting 'orthorhombic'
loop_
_space_group_symop_operation_xyz
x,y,z
-x,-y,z
1/2+x,1/2-y,1/2-z
1/2-x,1/2+y,1/2-z
-x,-y,-z
x,y,-z
1/2-x,1/2+y,1/2+z
1/2+x,1/2-y,1/2+z
loop_
_atom_site_type_symbol
_atom_site_label
_atom_site_fract_x
_atom_site_fract_y
_atom_site_fract_z
Si Si1 0.413180 0.061139 0.310957
Si Si2 0.515355 0.356282 0.688567
Si Si3 0.334496 0.209520 0.820434
Si Si4 0.376812 0.955409 0.810026
Si Si5 0.277452 0.803640 0.677413
Si Si6 0.534694 0.249205 0.189014
Si Si7 0.693464 0.605223 0.683829
Si Si8 0.227190 0.125243 0.315667
O O1 0.419301 0.063330 0.500000
O O2 0.523034 0.072168 0.243160
O O3 0.321021 0.094000 0.258779
O O4 0.388517 0.008032 0.256656
O O5 0.508087 0.352888 0.500000
O O6 0.516999 0.302799 0.754387
O O7 0.417794 0.384889 0.748411
O O8 0.620640 0.379932 0.733074
O O9 0.308306 0.264605 0.823122
O O10 0.447953 0.211809 0.770073
O O11 0.263994 0.178738 0.712251
O O12 0.322944 0.191864 0.000000
O O13 0.272815 0.932741 0.752664
O O14 0.376784 0.956692 0.000000
O O15 0.288949 0.822462 0.500000
O O16 0.370186 0.772784 0.729189
O O17 0.250317 0.845317 0.793784
O O18 0.543773 0.250098 0.000000
O O19 0.680747 0.594048 0.500000
O O20 0.213334 0.116138 0.500000
#
# Coordination Sequence:
#
# PCOD9444751 Si02
#       8
#     8   8   8   8   8   8   8   8
#     4  10  22  41  63  91 120 148 185 235 293 349
#     4  11  22  38  59  82 115 156 196 240 287 339
#     4  10  22  37  54  80 114 153 197 239 282 338
#     4  10  21  40  66  92 116 149 188 233 292 350
#     4  11  22  36  55  83 115 153 198 237 285 342
#     4  11  22  37  54  77 113 154 196 243 287 337
#     4  10  23  40  59  87 118 152 196 241 289 345
#     4  11  24  39  59  86 117 154 196 239 289 347
#
# _framework density 19.750145
#
# number of rings (size 3 to 8) (size 9 to 14) (size 15 to 20)
#    0.000    1.500    2.500    3.000    1.750    5.000 
#    0.000    0.625    0.000    3.750    0.000    0.000 
#    0.000    0.000    0.000    0.000    0.000    0.000 
#
# Total GULP energy -357022.076410 kJ/mol
# GULP energy per Si atom -5578.469944 kJ/mol
# Density = 1.970519 g / cm^3
# Si number density = 19.750145 Si / 1000 Ang^3
#
#
#
# Elastic Constant Matrix: (Units=GPa)
#
#
# Indices 1 2 3 4 5 6 
#
# 1 75.7543 -9.2163 6.3712 0.0000 0.0000 0.0000
# 2 -9.2163 12.6978 -10.2128 0.0000 0.0000 0.0000
# 3 6.3712 -10.2128 22.8427 0.0000 0.0000 0.0000
# 4 0.0000 0.0000 0.0000 14.5258 0.0000 0.0000
# 5 0.0000 0.0000 0.0000 0.0000 22.9330 0.0000
# 6 0.0000 0.0000 0.0000 0.0000 0.0000 34.9315
#
#
#
# Elastic Compliance Matrix: (Units=1/GPa)
#
#
# Indices 1 2 3 4 5 6 
#
# 1 0.014495 0.011351 0.001032 0.000000 0.000000 0.000000
# 2 0.011351 0.131864 0.055790 0.000000 0.000000 0.000000
# 3 0.001032 0.055790 0.068433 0.000000 0.000000 0.000000
# 4 0.000000 0.000000 0.000000 0.068843 0.000000 0.000000
# 5 0.000000 0.000000 0.000000 0.000000 0.043605 0.000000
# 6 0.000000 0.000000 0.000000 0.000000 0.000000 0.028627
#
#
# Mechanical properties :
#
#
# Convention : Reuss Voigt Hill
#
# Bulk Modulus (GPa) = 2.84790 9.46433 6.15611
# Shear Modulus (GPa) = 14.85580 22.76823 18.81201
#
# Velocity S-wave (km/s) = 2.74558 3.39899 3.08961
# Velocity P-wave (km/s) = 3.39058 4.49518 3.98137
#
# Compressibility (1/GPa) = 0.35113622
#
# Stress axis : x y z
#
# Youngs Moduli (GPa) = 68.99070 7.58355 14.61286
#
# Poissons Ratio (x) = -0.08608 -0.01508
# Poissons Ratio (y) = -0.78309 -0.81525
# Poissons Ratio (z) = -0.07119 -0.42308
#
# Static dielectric constant tensor:
#      x y z
#    x 1.764110 0.000000 0.000000 
#    y 0.000000 1.678570 0.000000 
#    z 0.000000 0.000000 1.686210 
# 
# From -- ./inp_files/4684.got.cif
#   From: 2010.05.17/outbox.cif.g08.bks.cpg/sg58_3_cif.got.tgz:4684.got - 2010.06.03 14:20:14.
