data_PCOD9444763
_publ_section_title
;
Structure prediction by ZEFSAII (Michael W. Deem and Ramdas Pophale) SiO2 
 PCOD9444763
Probable space group: P N N M
;
_chemical_formula_sum "Si O2"
_cell_formula_units_Z 48
_cell_length_a 12.225094
_cell_length_b 13.575993
_cell_length_c 14.551167
_cell_angle_alpha 90.000000
_cell_angle_beta 90.000000
_cell_angle_gamma 90.000000
_cell_volume 2415.025037
_symmetry_space_group_name_H-M "P N N M"
_symmetry_group_IT_number 58
_symmetry_cell_setting 'orthorhombic'
loop_
_space_group_symop_operation_xyz
x,y,z
-x,-y,z
1/2+x,1/2-y,1/2-z
1/2-x,1/2+y,1/2-z
-x,-y,-z
x,y,-z
1/2-x,1/2+y,1/2+z
1/2+x,1/2-y,1/2+z
loop_
_atom_site_type_symbol
_atom_site_label
_atom_site_fract_x
_atom_site_fract_y
_atom_site_fract_z
Si Si1 0.609034 0.301796 0.896117
Si Si2 0.328393 0.103294 0.607465
Si Si3 0.599956 0.074863 0.103473
Si Si4 0.019219 0.888173 0.771301
Si Si5 0.448528 0.793978 0.611000
Si Si6 0.234647 0.411078 0.782736
O O1 0.740646 0.308017 0.883559
O O2 0.567128 0.189929 0.889361
O O3 0.555207 0.365645 0.817362
O O4 0.586719 0.337763 0.000000
O O5 0.336822 0.079010 0.500000
O O6 0.449965 0.133753 0.637029
O O7 0.277704 0.010059 0.657951
O O8 0.685672 0.061338 0.183784
O O9 0.500000 0.000000 0.115489
O O10 0.643950 0.060972 0.000000
O O11 0.142878 0.876169 0.735357
O O12 0.985223 0.811587 0.850107
O O13 0.000000 0.000000 0.801468
O O14 0.435430 0.794922 0.500000
O O15 0.341523 0.831551 0.664938
#
# Coordination Sequence:
#
# PCOD9444763 Si02
#       6
#     8   8   8   8   8   8
#     4  10  21  41  66  94 128 167 217 269 326 390
#     4  10  21  40  69  98 128 170 218 277 337 389
#     4  10  21  40  66  98 130 167 215 268 323 385
#     4  12  26  43  65  95 134 177 220 266 340 408
#     4  11  25  44  67  98 134 172 220 279 339 397
#     4  12  23  40  70  96 132 169 223 275 329 399
#
# _framework density 19.875571000000001
#
# number of rings (size 3 to 8) (size 9 to 14) (size 15 to 20)
#    0.000    1.167    3.333    3.000    0.000    5.333 
#    0.000    0.000    0.000    0.000    0.000    0.000 
#    0.000    0.000    0.000    0.000    0.000    0.000 
#
# Total GULP energy -268119.929190 kJ/mol
# GULP energy per Si atom -5585.831858 kJ/mol
# Density = 1.983033 g / cm^3
# Si number density = 19.875571 Si / 1000 Ang^3
#
#
#
# Elastic Constant Matrix: (Units=GPa)
#
#
# Indices 1 2 3 4 5 6 
#
# 1 114.4689 29.3829 45.1259 0.0000 0.0000 0.0000
# 2 29.3829 96.1045 16.0065 0.0000 0.0000 0.0000
# 3 45.1259 16.0065 66.6156 0.0000 0.0000 0.0000
# 4 0.0000 0.0000 0.0000 27.3168 0.0000 0.0000
# 5 0.0000 0.0000 0.0000 0.0000 -13.9882 0.0000
# 6 0.0000 0.0000 0.0000 0.0000 0.0000 22.8085
#
#
#
# Elastic Compliance Matrix: (Units=1/GPa)
#
#
# Indices 1 2 3 4 5 6 
#
# 1 0.012473 -0.002506 -0.007847 0.000000 0.000000 0.000000
# 2 -0.002506 0.011343 -0.001028 0.000000 0.000000 0.000000
# 3 -0.007847 -0.001028 0.020574 0.000000 0.000000 0.000000
# 4 0.000000 0.000000 0.000000 0.036608 0.000000 0.000000
# 5 0.000000 0.000000 0.000000 0.000000 -0.071489 0.000000
# 6 0.000000 0.000000 0.000000 0.000000 0.000000 0.043843
#
#
# Mechanical properties :
#
#
# Convention : Reuss Voigt Hill
#
# Bulk Modulus (GPa) = 46.23706 50.91328 48.57517
# Shear Modulus (GPa) = 60.00763 19.67232 39.83998
#
# Velocity S-wave (km/s) = 5.50065 3.14948 4.48199
# Velocity P-wave (km/s) = 7.97851 6.23677 7.16079
#
# Compressibility (1/GPa) = 0.02162767
#
# Stress axis : x y z
#
# Youngs Moduli (GPa) = 80.17457 88.16151 48.60522
#
# Poissons Ratio (x) = 0.22098 0.38140
# Poissons Ratio (y) = 0.20096 0.04994
# Poissons Ratio (z) = 0.62912 0.09059
#
# Static dielectric constant tensor:
#      x y z
#    x 1.710140 0.000000 0.000000 
#    y 0.000000 1.725820 0.000000 
#    z 0.000000 0.000000 1.690900 
# 
# From -- ./inp_files/21136.got.cif
#   From: 2010.05.17/outbox.cif.g08.bks.cpg/sg58_11_cif.got.tgz:21136.got - 2010.06.03 14:20:14.
