data_PCOD9444982
_publ_section_title
;
Structure prediction by ZEFSAII (Michael W. Deem and Ramdas Pophale) SiO2 
 PCOD9444982
Probable space group: P N N M
;
_chemical_formula_sum "Si O2"
_cell_formula_units_Z 64
_cell_length_a 13.646724
_cell_length_b 9.382441
_cell_length_c 23.324977
_cell_angle_alpha 90.000000
_cell_angle_beta 90.000000
_cell_angle_gamma 90.000000
_cell_volume 2986.520323
_symmetry_space_group_name_H-M "P N N M"
_symmetry_group_IT_number 58
_symmetry_cell_setting 'orthorhombic'
loop_
_space_group_symop_operation_xyz
x,y,z
-x,-y,z
1/2+x,1/2-y,1/2-z
1/2-x,1/2+y,1/2-z
-x,-y,-z
x,y,-z
1/2-x,1/2+y,1/2+z
1/2+x,1/2-y,1/2+z
loop_
_atom_site_type_symbol
_atom_site_label
_atom_site_fract_x
_atom_site_fract_y
_atom_site_fract_z
Si Si1 0.708188 0.646219 0.863862
Si Si2 0.501054 0.667171 0.253942
Si Si3 0.992941 0.172761 0.934180
Si Si4 0.359953 0.649849 0.840793
Si Si5 0.705628 0.354407 0.566970
Si Si6 0.272064 0.319590 0.570458
Si Si7 0.402069 0.924025 0.689037
Si Si8 0.189881 0.665866 0.746598
O O1 0.633136 0.518097 0.856317
O O2 0.713536 0.734906 0.921554
O O3 0.811322 0.566077 0.853325
O O4 0.709227 0.772292 0.816298
O O5 0.500000 0.500000 0.265655
O O6 0.462112 0.695856 0.188870
O O7 0.432867 0.767334 0.292062
O O8 0.609927 0.719762 0.267069
O O9 0.100770 0.204502 0.909872
O O10 0.885537 0.218051 0.912103
O O11 0.991410 0.223082 0.000000
O O12 0.000000 0.000000 0.934064
O O13 0.309558 0.733640 0.893512
O O14 0.283775 0.662211 0.787294
O O15 0.689150 0.373528 0.500000
O O16 0.734323 0.512504 0.586860
O O17 0.263031 0.304620 0.500000
O O18 0.500000 0.000000 0.667184
O O19 0.363875 0.013862 0.745020
#
# Coordination Sequence:
#
# PCOD9444982 Si02
#       8
#     8   8   8   8   8   8   8   8
#     4  11  21  35  56  82 121 154 192 245 293 352
#     4  11  21  38  60  84 119 151 196 240 295 357
#     4   7  12  28  50  75 108 144 189 238 282 339
#     4  11  23  37  59  88 120 155 198 244 299 361
#     4   9  19  33  55  83 115 157 202 243 295 361
#     4   9  19  36  58  85 117 157 202 250 298 353
#     4   9  21  37  55  81 116 155 191 242 291 353
#     4  10  22  39  57  84 117 154 194 243 299 354
#
# _framework density 21.429621999999998
#
# number of rings (size 3 to 8) (size 9 to 14) (size 15 to 20)
#    0.000    2.375    2.500    1.500    1.750    4.500 
#    0.000    1.250    0.000    3.750    0.000    1.750 
#    0.000    0.000    0.000    0.000    0.000    0.000 
#
# Total GULP energy -356304.240664 kJ/mol
# GULP energy per Si atom -5567.253760 kJ/mol
# Density = 2.138085 g / cm^3
# Si number density = 21.429622 Si / 1000 Ang^3
#
#
#
# Elastic Constant Matrix: (Units=GPa)
#
#
# Indices 1 2 3 4 5 6 
#
# 1 35.4745 11.1143 4.2575 0.0000 0.0000 0.0000
# 2 11.1143 84.5398 24.5975 0.0000 0.0000 0.0000
# 3 4.2575 24.5975 49.3477 0.0000 0.0000 0.0000
# 4 0.0000 0.0000 0.0000 20.0076 0.0000 0.0000
# 5 0.0000 0.0000 0.0000 0.0000 11.6860 0.0000
# 6 0.0000 0.0000 0.0000 0.0000 0.0000 24.7308
#
#
#
# Elastic Compliance Matrix: (Units=1/GPa)
#
#
# Indices 1 2 3 4 5 6 
#
# 1 0.029422 -0.003660 -0.000714 0.000000 0.000000 0.000000
# 2 -0.003660 0.014291 -0.006807 0.000000 0.000000 0.000000
# 3 -0.000714 -0.006807 0.023719 0.000000 0.000000 0.000000
# 4 0.000000 0.000000 0.000000 0.049981 0.000000 0.000000
# 5 0.000000 0.000000 0.000000 0.000000 0.085573 0.000000
# 6 0.000000 0.000000 0.000000 0.000000 0.000000 0.040435
#
#
# Mechanical properties :
#
#
# Convention : Reuss Voigt Hill
#
# Bulk Modulus (GPa) = 22.18856 27.70006 24.94431
# Shear Modulus (GPa) = 17.80585 19.91104 18.85844
#
# Velocity S-wave (km/s) = 2.88566 3.05148 2.96973
# Velocity P-wave (km/s) = 4.63458 5.03681 4.83988
#
# Compressibility (1/GPa) = 0.04506828
#
# Stress axis : x y z
#
# Youngs Moduli (GPa) = 33.98847 69.97592 42.16004
#
# Poissons Ratio (x) = 0.25613 0.03010
# Poissons Ratio (y) = 0.12441 0.28700
# Poissons Ratio (z) = 0.02426 0.47635
#
# Static dielectric constant tensor:
#      x y z
#    x 1.859200 0.000000 0.000000 
#    y 0.000000 1.808450 0.000000 
#    z 0.000000 0.000000 1.820690 
# 
# From -- ./inp_files/32249.got.cif
#   From: 2010.05.17/outbox.cif.g08.bks.cpg/sg58_17_cif.got.tgz:32249.got - 2010.06.03 14:20:14.
