data_PCOD9444900
_publ_section_title
;
Structure prediction by ZEFSAII (Michael W. Deem and Ramdas Pophale) SiO2 
 PCOD9444900
Probable space group: P N N M
;
_chemical_formula_sum "Si O2"
_cell_formula_units_Z 58
_cell_length_a 12.248759
_cell_length_b 29.986471
_cell_length_c 7.487232
_cell_angle_alpha 90.000000
_cell_angle_beta 90.000000
_cell_angle_gamma 90.000000
_cell_volume 2750.038275
_symmetry_space_group_name_H-M "P N N M"
_symmetry_group_IT_number 58
_symmetry_cell_setting 'orthorhombic'
loop_
_space_group_symop_operation_xyz
x,y,z
-x,-y,z
1/2+x,1/2-y,1/2-z
1/2-x,1/2+y,1/2-z
-x,-y,-z
x,y,-z
1/2-x,1/2+y,1/2+z
1/2+x,1/2-y,1/2+z
loop_
_atom_site_type_symbol
_atom_site_label
_atom_site_fract_x
_atom_site_fract_y
_atom_site_fract_z
Si Si1 0.305597 0.579557 0.283763
Si Si2 0.247699 0.893670 0.707495
Si Si3 0.500000 0.000000 0.500000
Si Si4 0.007596 0.862395 0.783803
Si Si5 0.690736 0.009661 0.795209
Si Si6 0.340422 0.161466 0.784514
Si Si7 0.409696 0.819186 0.709527
Si Si8 0.362626 0.720275 0.718065
O O1 0.308791 0.581733 0.500000
O O2 0.420875 0.599891 0.223860
O O3 0.273743 0.529583 0.236627
O O4 0.210877 0.614195 0.225744
O O5 0.274842 0.901032 0.500000
O O6 0.128539 0.872091 0.720129
O O7 0.253379 0.942018 0.794790
O O8 0.336214 0.859043 0.784861
O O9 0.591861 0.009595 0.657282
O O10 0.955871 0.815025 0.727700
O O11 0.010098 0.862608 0.000000
O O12 0.656085 0.999483 0.000000
O O13 0.462686 0.169944 0.723658
O O14 0.253821 0.199375 0.728100
O O15 0.341975 0.161330 0.000000
O O16 0.381094 0.816750 0.500000
O O17 0.383916 0.770107 0.783428
O O18 0.363790 0.720513 0.500000
#
# Coordination Sequence:
#
# PCOD9444900 Si02
#       8
#     8   8   2   8   8   8   8   8
#     4   8  18  38  63  89 113 154 207 260 311 372
#     4  11  24  40  55  89 131 165 205 257 320 383
#     4  12  26  44  64  96 132 168 210 264 318 390
#     4   9  18  38  65  86 116 155 210 264 315 380
#     4  11  24  43  67  93 128 171 217 262 323 382
#     4   9  18  35  59  83 108 142 196 249 297 364
#     4  10  22  36  54  79 120 159 193 249 313 368
#     4   8  17  36  58  82 110 154 198 247 312 371
#
# _framework density 21.090613999999999
#
# number of rings (size 3 to 8) (size 9 to 14) (size 15 to 20)
#    0.000    2.483    0.690    2.276    3.862    1.655 
#    1.241    5.517    0.000    0.000    0.000    0.000 
#    0.000    0.000    0.000    0.000    0.000    0.000 
#
# Total GULP energy -323323.877879 kJ/mol
# GULP energy per Si atom -5574.549619 kJ/mol
# Density = 2.104261 g / cm^3
# Si number density = 21.090614 Si / 1000 Ang^3
#
#
#
# Elastic Constant Matrix: (Units=GPa)
#
#
# Indices 1 2 3 4 5 6 
#
# 1 148.4034 118.5889 2.8521 0.0000 0.0000 0.0000
# 2 118.5889 245.1068 20.7510 0.0000 0.0000 0.0000
# 3 2.8521 20.7510 82.9634 0.0000 0.0000 0.0000
# 4 0.0000 0.0000 0.0000 8.8415 0.0000 0.0000
# 5 0.0000 0.0000 0.0000 0.0000 27.7806 0.0000
# 6 0.0000 0.0000 0.0000 0.0000 0.0000 -23.1968
#
#
#
# Elastic Compliance Matrix: (Units=1/GPa)
#
#
# Indices 1 2 3 4 5 6 
#
# 1 0.011063 -0.005435 0.000979 0.000000 0.000000 0.000000
# 2 -0.005435 0.006839 -0.001524 0.000000 0.000000 0.000000
# 3 0.000979 -0.001524 0.012401 0.000000 0.000000 0.000000
# 4 0.000000 0.000000 0.000000 0.113104 0.000000 0.000000
# 5 0.000000 0.000000 0.000000 0.000000 0.035996 0.000000
# 6 0.000000 0.000000 0.000000 0.000000 0.000000 -0.043109
#
#
# Mechanical properties :
#
#
# Convention : Reuss Voigt Hill
#
# Bulk Modulus (GPa) = 54.51719 84.53973 69.52846
# Shear Modulus (GPa) = 32.39028 24.97050 28.68039
#
# Velocity S-wave (km/s) = 3.92314 3.44461 3.69164
# Velocity P-wave (km/s) = 6.81370 7.48275 7.15605
#
# Compressibility (1/GPa) = 0.01834284
#
# Stress axis : x y z
#
# Youngs Moduli (GPa) = 90.39094 146.22717 80.63901
#
# Poissons Ratio (x) = 0.79482 -0.07896
# Poissons Ratio (y) = 0.49132 0.12287
# Poissons Ratio (z) = -0.08851 0.22280
#
# Static dielectric constant tensor:
#      x y z
#    x 1.702140 0.000000 0.000000 
#    y 0.000000 1.758860 0.000000 
#    z 0.000000 0.000000 1.808420 
# 
# From -- ./inp_files/4568.got.cif
#   From: 2010.05.17/outbox.cif.g08.bks.cpg/sg58_3_cif.got.tgz:4568.got - 2010.06.03 14:20:14.
