data_PCOD9444011
_publ_section_title
;
Structure prediction by ZEFSAII (Michael W. Deem and Ramdas Pophale) SiO2 
 PCOD9444011
Probable space group: P N N M
;
_chemical_formula_sum "Si O2"
_cell_formula_units_Z 38
_cell_length_a 9.246967
_cell_length_b 18.000342
_cell_length_c 10.522389
_cell_angle_alpha 90.000000
_cell_angle_beta 90.000000
_cell_angle_gamma 90.000000
_cell_volume 1751.436586
_symmetry_space_group_name_H-M "P N N M"
_symmetry_group_IT_number 58
_symmetry_cell_setting 'orthorhombic'
loop_
_space_group_symop_operation_xyz
x,y,z
-x,-y,z
1/2+x,1/2-y,1/2-z
1/2-x,1/2+y,1/2-z
-x,-y,-z
x,y,-z
1/2-x,1/2+y,1/2+z
1/2+x,1/2-y,1/2+z
loop_
_atom_site_type_symbol
_atom_site_label
_atom_site_fract_x
_atom_site_fract_y
_atom_site_fract_z
Si Si1 0.839710 0.993392 0.849872
Si Si2 0.816334 0.239328 0.500000
Si Si3 0.190356 0.423909 0.000000
Si Si4 0.079591 0.427965 0.726970
Si Si5 0.500000 0.500000 0.000000
Si Si6 0.634453 0.328631 0.000000
Si Si7 0.302267 0.159221 0.760519
O O1 0.741324 0.066423 0.828744
O O2 0.768192 0.921327 0.788421
O O3 0.850957 0.980278 0.000000
O O4 0.000000 0.000000 0.791993
O O5 0.732172 0.162203 0.500000
O O6 0.770782 0.284405 0.625738
O O7 0.989887 0.222966 0.500000
O O8 0.103908 0.442032 0.125449
O O9 0.337847 0.468284 0.000000
O O10 0.000000 0.500000 0.666589
O O11 0.974089 0.358049 0.723938
O O12 0.568402 0.411936 0.000000
O O13 0.736044 0.317350 0.124998
#
# Coordination Sequence:
#
# PCOD9444011 Si02
#       7
#     8   4   4   8   2   4   8
#     4  10  22  39  66 105 138 177 225 284 353 410
#     4  11  28  44  65  99 142 186 232 284 353 419
#     4  11  23  39  64  99 126 174 218 291 335 418
#     4  10  22  37  70  96 132 164 228 282 348 396
#     4  10  20  40  70 106 136 160 238 292 358 380
#     4  11  26  44  75 100 140 185 236 298 350 422
#     4  11  24  46  67  98 141 184 229 287 346 426
#
# _framework density 21.696473000000001
#
# number of rings (size 3 to 8) (size 9 to 14) (size 15 to 20)
#    0.000    1.474    1.053    3.474   13.263    1.263 
#    0.000    0.000    0.000    0.000    0.000    0.000 
#    0.000    0.000    0.000    0.000    0.000    0.000 
#
# Total GULP energy -211642.007706 kJ/mol
# GULP energy per Si atom -5569.526519 kJ/mol
# Density = 2.164709 g / cm^3
# Si number density = 21.696473 Si / 1000 Ang^3
#
#
#
# Elastic Constant Matrix: (Units=GPa)
#
#
# Indices 1 2 3 4 5 6 
#
# 1 100.8687 32.4888 18.6945 0.0000 0.0000 0.0000
# 2 32.4888 61.2772 34.9425 0.0000 0.0000 0.0000
# 3 18.6945 34.9425 110.6353 0.0000 0.0000 0.0000
# 4 0.0000 0.0000 0.0000 34.4980 0.0000 0.0000
# 5 0.0000 0.0000 0.0000 0.0000 37.2664 0.0000
# 6 0.0000 0.0000 0.0000 0.0000 0.0000 19.6511
#
#
#
# Elastic Compliance Matrix: (Units=1/GPa)
#
#
# Indices 1 2 3 4 5 6 
#
# 1 0.011956 -0.006326 -0.000022 0.000000 0.000000 0.000000
# 2 -0.006326 0.023251 -0.006275 0.000000 0.000000 0.000000
# 3 -0.000022 -0.006275 0.011024 0.000000 0.000000 0.000000
# 4 0.000000 0.000000 0.000000 0.028987 0.000000 0.000000
# 5 0.000000 0.000000 0.000000 0.000000 0.026834 0.000000
# 6 0.000000 0.000000 0.000000 0.000000 0.000000 0.050888
#
#
# Mechanical properties :
#
#
# Convention : Reuss Voigt Hill
#
# Bulk Modulus (GPa) = 47.65248 49.44810 48.55029
# Shear Modulus (GPa) = 27.00062 30.72679 28.86371
#
# Velocity S-wave (km/s) = 3.53153 3.76734 3.65134
# Velocity P-wave (km/s) = 6.21610 6.46252 6.34051
#
# Compressibility (1/GPa) = 0.02098527
#
# Stress axis : x y z
#
# Youngs Moduli (GPa) = 83.64300 43.00813 90.70946
#
# Poissons Ratio (x) = 0.27208 0.00201
# Poissons Ratio (y) = 0.52914 0.56917
# Poissons Ratio (z) = 0.00185 0.26986
#
# Static dielectric constant tensor:
#      x y z
#    x 1.861180 0.000000 0.000000 
#    y 0.000000 1.819840 0.000000 
#    z 0.000000 0.000000 1.632170 
# 
# From -- ./inp_files/12762.got.cif
#   From: 2010.05.17/outbox.cif.g08.bks.cpg/sg58_7_cif.got.tgz:12762.got - 2010.06.03 14:20:14.
