data_PCOD9444088
_publ_section_title
;
Structure prediction by ZEFSAII (Michael W. Deem and Ramdas Pophale) SiO2 
 PCOD9444088
Probable space group: P N N M
;
_chemical_formula_sum "Si O2"
_cell_formula_units_Z 56
_cell_length_a 24.045033
_cell_length_b 14.446134
_cell_length_c 7.548247
_cell_angle_alpha 90.000000
_cell_angle_beta 90.000000
_cell_angle_gamma 90.000000
_cell_volume 2621.942236
_symmetry_space_group_name_H-M "P N N M"
_symmetry_group_IT_number 58
_symmetry_cell_setting 'orthorhombic'
loop_
_space_group_symop_operation_xyz
x,y,z
-x,-y,z
1/2+x,1/2-y,1/2-z
1/2-x,1/2+y,1/2-z
-x,-y,-z
x,y,-z
1/2-x,1/2+y,1/2+z
1/2+x,1/2-y,1/2+z
loop_
_atom_site_type_symbol
_atom_site_label
_atom_site_fract_x
_atom_site_fract_y
_atom_site_fract_z
Si Si1 0.934253 0.896974 0.283279
Si Si2 0.124292 0.283589 0.708725
Si Si3 0.834523 0.423424 0.790213
Si Si4 0.559230 0.038676 0.714547
Si Si5 0.270055 0.900345 0.214351
Si Si6 0.168499 0.782005 0.791320
Si Si7 0.438361 0.394127 0.213475
O O1 0.933453 0.895984 0.500000
O O2 0.893779 0.815975 0.219145
O O3 0.998128 0.877182 0.229569
O O4 0.921351 0.002045 0.228011
O O5 0.134436 0.270795 0.500000
O O6 0.074229 0.357038 0.730475
O O7 0.179192 0.334825 0.779802
O O8 0.889890 0.474435 0.719961
O O9 0.784192 0.495121 0.767730
O O10 0.825428 0.321161 0.715885
O O11 0.844017 0.412753 0.000000
O O12 0.559347 0.037515 0.500000
O O13 0.500000 0.000000 0.774849
O O14 0.212563 0.856656 0.279547
O O15 0.271272 0.900786 0.000000
O O16 0.106295 0.819476 0.772194
O O17 0.181269 0.775483 0.000000
O O18 0.438713 0.394483 0.000000
#
# Coordination Sequence:
#
# PCOD9444088 Si02
#       7
#     8   8   8   8   8   8   8
#     4   8  16  32  52  75 103 130 166 215 255 296
#     4   9  17  31  51  71  94 129 168 207 252 298
#     4   9  19  35  52  72 101 134 168 205 249 304
#     4   9  18  31  47  71 102 131 160 200 249 303
#     4   9  19  35  51  71 100 130 167 213 252 291
#     4  10  21  35  52  76 105 135 168 210 257 303
#     4   9  18  33  52  75 102 133 169 209 253 303
#
# _framework density 21.358211000000001
#
# number of rings (size 3 to 8) (size 9 to 14) (size 15 to 20)
#    0.000    3.000    0.000    0.857    2.000    2.571 
#    0.000    5.000    0.000    3.429    0.000    0.000 
#    0.000    0.000    0.000    0.000    0.000    0.000 
#
# Total GULP energy -312429.229654 kJ/mol
# GULP energy per Si atom -5579.093387 kJ/mol
# Density = 2.130960 g / cm^3
# Si number density = 21.358211 Si / 1000 Ang^3
#
#
#
# Elastic Constant Matrix: (Units=GPa)
#
#
# Indices 1 2 3 4 5 6 
#
# 1 28.0720 30.6143 -1.0872 0.0000 0.0000 0.0000
# 2 30.6143 128.9788 -2.7306 0.0000 0.0000 0.0000
# 3 -1.0872 -2.7306 41.0838 0.0000 0.0000 0.0000
# 4 0.0000 0.0000 0.0000 6.4801 0.0000 0.0000
# 5 0.0000 0.0000 0.0000 0.0000 18.1390 0.0000
# 6 0.0000 0.0000 0.0000 0.0000 0.0000 20.6834
#
#
#
# Elastic Compliance Matrix: (Units=1/GPa)
#
#
# Indices 1 2 3 4 5 6 
#
# 1 0.048075 -0.011400 0.000515 0.000000 0.000000 0.000000
# 2 -0.011400 0.010467 0.000394 0.000000 0.000000 0.000000
# 3 0.000515 0.000394 0.024380 0.000000 0.000000 0.000000
# 4 0.000000 0.000000 0.000000 0.154318 0.000000 0.000000
# 5 0.000000 0.000000 0.000000 0.000000 0.055130 0.000000
# 6 0.000000 0.000000 0.000000 0.000000 0.000000 0.048348
#
#
# Mechanical properties :
#
#
# Convention : Reuss Voigt Hill
#
# Bulk Modulus (GPa) = 16.14472 27.96972 22.05722
# Shear Modulus (GPa) = 13.07706 20.48303 16.78004
#
# Velocity S-wave (km/s) = 2.47710 3.10017 2.80598
# Velocity P-wave (km/s) = 3.96948 5.09301 4.56593
#
# Compressibility (1/GPa) = 0.06193974
#
# Stress axis : x y z
#
# Youngs Moduli (GPa) = 20.80075 95.53387 41.01669
#
# Poissons Ratio (x) = 1.08910 -0.02110
# Poissons Ratio (y) = 0.23713 -0.01616
# Poissons Ratio (z) = -0.01070 -0.03764
#
# Static dielectric constant tensor:
#      x y z
#    x 1.753510 0.000000 0.000000 
#    y 0.000000 1.767830 0.000000 
#    z 0.000000 0.000000 1.804270 
# 
# From -- ./inp_files/9059.got.cif
#   From: 2010.05.17/outbox.cif.g08.bks.cpg/sg58_5_cif.got.tgz:9059.got - 2010.06.03 14:20:14.
