data_PCOD9444329
_publ_section_title
;
Structure prediction by ZEFSAII (Michael W. Deem and Ramdas Pophale) SiO2 
 PCOD9444329
Probable space group: P N N M
;
_chemical_formula_sum "Si O2"
_cell_formula_units_Z 40
_cell_length_a 8.550628
_cell_length_b 25.337788
_cell_length_c 7.609767
_cell_angle_alpha 90.000000
_cell_angle_beta 90.000000
_cell_angle_gamma 90.000000
_cell_volume 1648.686456
_symmetry_space_group_name_H-M "P N N M"
_symmetry_group_IT_number 58
_symmetry_cell_setting 'orthorhombic'
loop_
_space_group_symop_operation_xyz
x,y,z
-x,-y,z
1/2+x,1/2-y,1/2-z
1/2-x,1/2+y,1/2-z
-x,-y,-z
x,y,-z
1/2-x,1/2+y,1/2+z
1/2+x,1/2-y,1/2+z
loop_
_atom_site_type_symbol
_atom_site_label
_atom_site_fract_x
_atom_site_fract_y
_atom_site_fract_z
Si Si1 0.360245 0.120953 0.286543
Si Si2 0.349190 0.528461 0.201067
Si Si3 0.313981 0.722179 0.788137
Si Si4 0.305541 0.927362 0.205415
Si Si5 0.652529 0.675511 0.290935
O O1 0.361373 0.119434 0.500000
O O2 0.223766 0.081399 0.221774
O O3 0.317425 0.180045 0.230350
O O4 0.525129 0.098769 0.224906
O O5 0.500000 0.500000 0.283586
O O6 0.216630 0.483316 0.203008
O O7 0.391845 0.541336 0.000000
O O8 0.481147 0.698721 0.738454
O O9 0.273509 0.780474 0.720925
O O10 0.308740 0.724163 0.000000
O O11 0.185182 0.883148 0.277599
O O12 0.276898 0.937537 0.000000
O O13 0.677889 0.671179 0.500000
#
# Coordination Sequence:
#
# PCOD9444329 Si02
#       5
#     8   8   8   8   8
#     4  10  21  37  58  83 109 142 187 231 270 320
#     4  10  21  38  59  82 109 143 185 231 274 320
#     4  10  21  38  60  84 110 145 187 227 272 326
#     4  11  23  37  55  82 115 148 181 222 276 332
#     4  10  22  38  56  83 115 144 180 226 274 326
#
# _framework density 24.261738000000001
#
# number of rings (size 3 to 8) (size 9 to 14) (size 15 to 20)
#    0.000    1.800    0.000    3.600    0.000    8.400 
#    0.000    0.000    0.000    0.000    0.000    0.000 
#    0.000    0.000    0.000    0.000    0.000    0.000 
#
# Total GULP energy -223780.851706 kJ/mol
# GULP energy per Si atom -5594.521293 kJ/mol
# Density = 2.420652 g / cm^3
# Si number density = 24.261738 Si / 1000 Ang^3
#
#
#
# Elastic Constant Matrix: (Units=GPa)
#
#
# Indices 1 2 3 4 5 6 
#
# 1 60.2034 -21.2431 -6.9912 0.0000 0.0000 0.0000
# 2 -21.2431 87.2085 10.0891 0.0000 0.0000 0.0000
# 3 -6.9912 10.0891 64.5029 0.0000 0.0000 0.0000
# 4 0.0000 0.0000 0.0000 9.3812 0.0000 0.0000
# 5 0.0000 0.0000 0.0000 0.0000 26.3821 0.0000
# 6 0.0000 0.0000 0.0000 0.0000 0.0000 47.8634
#
#
#
# Elastic Compliance Matrix: (Units=1/GPa)
#
#
# Indices 1 2 3 4 5 6 
#
# 1 0.018280 0.004301 0.001309 0.000000 0.000000 0.000000
# 2 0.004301 0.012690 -0.001519 0.000000 0.000000 0.000000
# 3 0.001309 -0.001519 0.015883 0.000000 0.000000 0.000000
# 4 0.000000 0.000000 0.000000 0.106596 0.000000 0.000000
# 5 0.000000 0.000000 0.000000 0.000000 0.037904 0.000000
# 6 0.000000 0.000000 0.000000 0.000000 0.000000 0.020893
#
#
# Mechanical properties :
#
#
# Convention : Reuss Voigt Hill
#
# Bulk Modulus (GPa) = 18.17009 19.51380 18.84194
# Shear Modulus (GPa) = 22.48114 32.06270 27.27192
#
# Velocity S-wave (km/s) = 3.04733 3.63923 3.35635
# Velocity P-wave (km/s) = 4.45949 5.07141 4.77526
#
# Compressibility (1/GPa) = 0.05503552
#
# Stress axis : x y z
#
# Youngs Moduli (GPa) = 54.70424 78.80056 62.96221
#
# Poissons Ratio (x) = -0.33896 -0.08239
# Poissons Ratio (y) = -0.23531 0.09562
# Poissons Ratio (z) = -0.07158 0.11967
#
# Static dielectric constant tensor:
#      x y z
#    x 1.937460 0.000000 0.000000 
#    y 0.000000 1.952310 0.000000 
#    z 0.000000 0.000000 1.898650 
# 
# From -- ./inp_files/2397.got.cif
#   From: 2010.05.17/outbox.cif.g08.bks.cpg/sg58_2_cif.got.tgz:2397.got - 2010.06.03 14:20:14.
