data_PCOD9444013
_publ_section_title
;
Structure prediction by ZEFSAII (Michael W. Deem and Ramdas Pophale) SiO2 
 PCOD9444013
Probable space group: P N N M
;
_chemical_formula_sum "Si O2"
_cell_formula_units_Z 44
_cell_length_a 8.319373
_cell_length_b 8.618118
_cell_length_c 28.840045
_cell_angle_alpha 90.000000
_cell_angle_beta 90.000000
_cell_angle_gamma 90.000000
_cell_volume 2067.754460
_symmetry_space_group_name_H-M "P N N M"
_symmetry_group_IT_number 58
_symmetry_cell_setting 'orthorhombic'
loop_
_space_group_symop_operation_xyz
x,y,z
-x,-y,z
1/2+x,1/2-y,1/2-z
1/2-x,1/2+y,1/2-z
-x,-y,-z
x,y,-z
1/2-x,1/2+y,1/2+z
1/2+x,1/2-y,1/2+z
loop_
_atom_site_type_symbol
_atom_site_label
_atom_site_fract_x
_atom_site_fract_y
_atom_site_fract_z
Si Si1 0.249138 0.235931 0.796148
Si Si2 0.739728 0.724867 0.631473
Si Si3 0.911249 0.664593 0.888043
Si Si4 0.188061 0.033277 0.448475
Si Si5 0.000000 0.500000 0.328289
Si Si6 0.838665 0.936296 0.285179
O O1 0.204890 0.275974 0.848288
O O2 0.412841 0.135708 0.798777
O O3 0.127960 0.141091 0.764167
O O4 0.250606 0.404820 0.773533
O O5 0.555373 0.709512 0.614181
O O6 0.747126 0.822965 0.679830
O O7 0.857009 0.580383 0.641690
O O8 0.803953 0.834399 0.590492
O O9 0.800272 0.610442 0.931081
O O10 0.000000 0.500000 0.876189
O O11 0.245007 0.080516 0.500000
O O12 0.000000 0.000000 0.451436
O O13 0.000000 0.000000 0.309292
#
# Coordination Sequence:
#
# PCOD9444013 Si02
#       6
#     8   8   8   8   4   8
#     4  12  26  41  62  92 130 177 231 275 335 396
#     4  11  23  42  63  97 130 178 219 282 336 399
#     4  10  22  41  67  95 133 164 220 285 331 398
#     4  10  20  40  73 103 129 167 218 279 342 406
#     4  12  26  42  63  88 136 186 225 274 336 402
#     4  12  25  40  63  88 134 176 229 282 328 399
#
# _framework density 21.279122999999998
#
# number of rings (size 3 to 8) (size 9 to 14) (size 15 to 20)
#    0.000    0.909    5.455    2.727    5.091    3.273 
#    1.636    0.455    0.000    1.091    0.000    8.909 
#    0.000    0.000    0.000    0.000    0.000    0.000 
#
# Total GULP energy -245102.703388 kJ/mol
# GULP energy per Si atom -5570.515986 kJ/mol
# Density = 2.123069 g / cm^3
# Si number density = 21.279123 Si / 1000 Ang^3
#
#
#
# Elastic Constant Matrix: (Units=GPa)
#
#
# Indices 1 2 3 4 5 6 
#
# 1 86.9049 26.7503 5.4970 0.0000 0.0000 0.0000
# 2 26.7503 90.5303 32.8464 0.0000 0.0000 0.0000
# 3 5.4970 32.8464 91.9734 0.0000 0.0000 0.0000
# 4 0.0000 0.0000 0.0000 7.2880 0.0000 0.0000
# 5 0.0000 0.0000 0.0000 0.0000 18.9175 0.0000
# 6 0.0000 0.0000 0.0000 0.0000 0.0000 47.0000
#
#
#
# Elastic Compliance Matrix: (Units=1/GPa)
#
#
# Indices 1 2 3 4 5 6 
#
# 1 0.012694 -0.003993 0.000667 0.000000 0.000000 0.000000
# 2 -0.003993 0.013946 -0.004742 0.000000 0.000000 0.000000
# 3 0.000667 -0.004742 0.012526 0.000000 0.000000 0.000000
# 4 0.000000 0.000000 0.000000 0.137212 0.000000 0.000000
# 5 0.000000 0.000000 0.000000 0.000000 0.052861 0.000000
# 6 0.000000 0.000000 0.000000 0.000000 0.000000 0.021277
#
#
# Mechanical properties :
#
#
# Convention : Reuss Voigt Hill
#
# Bulk Modulus (GPa) = 43.41941 44.39959 43.90950
# Shear Modulus (GPa) = 18.22632 28.26208 23.24420
#
# Velocity S-wave (km/s) = 2.92984 3.64835 3.30865
# Velocity P-wave (km/s) = 5.64750 6.21755 5.93937
#
# Compressibility (1/GPa) = 0.02303117
#
# Stress axis : x y z
#
# Youngs Moduli (GPa) = 78.77936 71.70320 79.83178
#
# Poissons Ratio (x) = 0.28630 -0.05327
# Poissons Ratio (y) = 0.31456 0.37856
# Poissons Ratio (z) = -0.05257 0.34002
#
# Static dielectric constant tensor:
#      x y z
#    x 1.909700 0.000000 0.000000 
#    y 0.000000 1.833950 0.000000 
#    z 0.000000 0.000000 1.735670 
# 
# From -- ./inp_files/34475.got.cif
#   From: 2010.05.17/outbox.cif.g08.bks.cpg/sg58_18_cif.got.tgz:34475.got - 2010.06.03 14:20:14.
