data_PCOD9444084
_publ_section_title
;
Structure prediction by ZEFSAII (Michael W. Deem and Ramdas Pophale) SiO2 
 PCOD9444084
Probable space group: P N N M
;
_chemical_formula_sum "Si O2"
_cell_formula_units_Z 56
_cell_length_a 22.712724
_cell_length_b 15.137850
_cell_length_c 7.434010
_cell_angle_alpha 90.000000
_cell_angle_beta 90.000000
_cell_angle_gamma 90.000000
_cell_volume 2555.974766
_symmetry_space_group_name_H-M "P N N M"
_symmetry_group_IT_number 58
_symmetry_cell_setting 'orthorhombic'
loop_
_space_group_symop_operation_xyz
x,y,z
-x,-y,z
1/2+x,1/2-y,1/2-z
1/2-x,1/2+y,1/2-z
-x,-y,-z
x,y,-z
1/2-x,1/2+y,1/2+z
1/2+x,1/2-y,1/2+z
loop_
_atom_site_type_symbol
_atom_site_label
_atom_site_fract_x
_atom_site_fract_y
_atom_site_fract_z
Si Si1 0.564792 0.524030 0.709700
Si Si2 0.639859 0.986714 0.217228
Si Si3 0.857564 0.853751 0.718502
Si Si4 0.874889 0.200088 0.210478
Si Si5 0.961865 0.359213 0.717367
Si Si6 0.405711 0.834404 0.780440
Si Si7 0.274505 0.171570 0.709391
O O1 0.500000 0.500000 0.786112
O O2 0.554081 0.546874 0.500000
O O3 0.606818 0.439212 0.719808
O O4 0.599671 0.608729 0.787862
O O5 0.577925 0.942077 0.271972
O O6 0.689732 0.920159 0.281902
O O7 0.638894 0.088151 0.275924
O O8 0.642835 0.985064 0.000000
O O9 0.857465 0.857834 0.500000
O O10 0.889233 0.763573 0.775400
O O11 0.790317 0.845279 0.783814
O O12 0.926850 0.272074 0.224112
O O13 0.817203 0.251370 0.286280
O O14 0.861740 0.183909 0.000000
O O15 0.962999 0.359548 0.500000
O O16 0.028604 0.358157 0.779442
O O17 0.405570 0.834738 0.000000
O O18 0.265967 0.194556 0.500000
#
# Coordination Sequence:
#
# PCOD9444084 Si02
#       7
#     8   8   8   8   8   8   8
#     4  10  21  36  54  78 105 133 169 212 256 300
#     4   9  17  30  51  75  98 127 161 197 241 295
#     4  10  21  35  51  71  97 131 169 208 246 291
#     4   9  18  33  52  71  98 136 167 198 247 302
#     4   9  16  28  49  77 103 124 155 201 243 285
#     4   9  17  30  49  73  99 127 159 196 243 295
#     4   9  19  35  50  69  98 129 166 207 246 292
#
# _framework density 21.90945
#
# number of rings (size 3 to 8) (size 9 to 14) (size 15 to 20)
#    0.000    2.714    0.000    1.286    0.000    4.286 
#    0.000    4.286    0.000    3.429    0.000    0.000 
#    0.000    0.000    0.000    0.000    0.000    0.000 
#
# Total GULP energy -312495.410268 kJ/mol
# GULP energy per Si atom -5580.275183 kJ/mol
# Density = 2.185958 g / cm^3
# Si number density = 21.909450 Si / 1000 Ang^3
#
#
#
# Elastic Constant Matrix: (Units=GPa)
#
#
# Indices 1 2 3 4 5 6 
#
# 1 117.9004 39.2233 -2.3894 0.0000 0.0000 0.0000
# 2 39.2233 146.6687 -7.7880 0.0000 0.0000 0.0000
# 3 -2.3894 -7.7880 63.3400 0.0000 0.0000 0.0000
# 4 0.0000 0.0000 0.0000 467.4644 0.0000 0.0000
# 5 0.0000 0.0000 0.0000 0.0000 5.5371 0.0000
# 6 0.0000 0.0000 0.0000 0.0000 0.0000 11.1936
#
#
#
# Elastic Compliance Matrix: (Units=1/GPa)
#
#
# Indices 1 2 3 4 5 6 
#
# 1 0.009310 -0.002487 0.000045 0.000000 0.000000 0.000000
# 2 -0.002487 0.007527 0.000832 0.000000 0.000000 0.000000
# 3 0.000045 0.000832 0.015892 0.000000 0.000000 0.000000
# 4 0.000000 0.000000 0.000000 0.002139 0.000000 0.000000
# 5 0.000000 0.000000 0.000000 0.000000 0.180600 0.000000
# 6 0.000000 0.000000 0.000000 0.000000 0.000000 0.089337
#
#
# Mechanical properties :
#
#
# Convention : Reuss Voigt Hill
#
# Bulk Modulus (GPa) = 33.88821 42.88898 38.38859
# Shear Modulus (GPa) = 15.73007 116.76323 66.24665
#
# Velocity S-wave (km/s) = 2.68238 7.30816 5.50474
# Velocity P-wave (km/s) = 5.00944 9.53050 7.61331
#
# Compressibility (1/GPa) = 0.02950879
#
# Stress axis : x y z
#
# Youngs Moduli (GPa) = 107.40947 132.84717 62.92561
#
# Poissons Ratio (x) = 0.33044 -0.00286
# Poissons Ratio (y) = 0.26717 -0.05234
# Poissons Ratio (z) = -0.00487 -0.11049
#
# Static dielectric constant tensor:
#      x y z
#    x 1.783710 0.000000 0.000000 
#    y 0.000000 1.769430 0.000000 
#    z 0.000000 0.000000 1.869420 
# 
# From -- ./inp_files/6247.got.cif
#   From: 2010.05.17/outbox.cif.g08.bks.cpg/sg58_4_cif.got.tgz:6247.got - 2010.06.03 14:20:14.
