data_PCOD9444500
_publ_section_title
;
Structure prediction by ZEFSAII (Michael W. Deem and Ramdas Pophale) SiO2 
 PCOD9444500
Probable space group: P N N M
;
_chemical_formula_sum "Si O2"
_cell_formula_units_Z 58
_cell_length_a 13.613578
_cell_length_b 26.538015
_cell_length_c 7.694131
_cell_angle_alpha 90.000000
_cell_angle_beta 90.000000
_cell_angle_gamma 90.000000
_cell_volume 2779.715159
_symmetry_space_group_name_H-M "P N N M"
_symmetry_group_IT_number 58
_symmetry_cell_setting 'orthorhombic'
loop_
_space_group_symop_operation_xyz
x,y,z
-x,-y,z
1/2+x,1/2-y,1/2-z
1/2-x,1/2+y,1/2-z
-x,-y,-z
x,y,-z
1/2-x,1/2+y,1/2+z
1/2+x,1/2-y,1/2+z
loop_
_atom_site_type_symbol
_atom_site_label
_atom_site_fract_x
_atom_site_fract_y
_atom_site_fract_z
Si Si1 0.450254 0.074940 0.288018
Si Si2 0.746228 0.659774 0.786150
Si Si3 0.646225 0.556723 0.209623
Si Si4 0.226446 0.049995 0.708704
Si Si5 0.056533 0.783985 0.301588
Si Si6 0.500000 0.000000 0.000000
Si Si7 0.454907 0.615951 0.701012
Si Si8 0.037574 0.320003 0.203156
O O1 0.464708 0.066804 0.500000
O O2 0.338629 0.059541 0.239781
O O3 0.468881 0.133491 0.244369
O O4 0.516329 0.042370 0.157624
O O5 0.715516 0.603118 0.735580
O O6 0.659615 0.696773 0.724495
O O7 0.853076 0.675119 0.720935
O O8 0.742685 0.660642 0.000000
O O9 0.683831 0.503117 0.276456
O O10 0.535840 0.572897 0.258458
O O11 0.648325 0.554628 0.000000
O O12 0.226575 0.047563 0.500000
O O13 0.151796 0.094114 0.759179
O O14 0.075539 0.770091 0.500000
O O15 0.986548 0.833099 0.297224
O O16 0.008354 0.734808 0.222341
O O17 0.462024 0.628617 0.500000
O O18 0.052443 0.328743 0.000000
#
# Coordination Sequence:
#
# PCOD9444500 Si02
#       8
#     8   8   8   8   8   2   8   8
#     4  10  25  44  65  95 128 166 209 259 311 375
#     4   8  17  35  59  85 111 152 198 244 302 368
#     4   9  18  35  59  84 116 159 204 246 301 370
#     4  10  21  38  60  88 123 164 204 249 311 372
#     4  10  21  39  61  84 116 155 203 251 307 368
#     4  12  26  44  68  90 134 168 214 252 314 370
#     4  11  22  36  56  86 122 158 203 256 310 365
#     4  10  21  40  64  89 120 154 200 256 310 362
#
# _framework density 20.865447
#
# number of rings (size 3 to 8) (size 9 to 14) (size 15 to 20)
#    0.000    2.207    0.000    3.103    3.862    3.310 
#    0.000    6.207    0.000    0.000    0.000    0.000 
#    0.000    0.000    0.000    0.000    0.000    0.000 
#
# Total GULP energy -323133.354787 kJ/mol
# GULP energy per Si atom -5571.264738 kJ/mol
# Density = 2.081796 g / cm^3
# Si number density = 20.865447 Si / 1000 Ang^3
#
#
#
# Elastic Constant Matrix: (Units=GPa)
#
#
# Indices 1 2 3 4 5 6 
#
# 1 63.1662 31.8951 5.9535 0.0000 0.0000 0.0000
# 2 31.8951 83.3196 -5.3666 0.0000 0.0000 0.0000
# 3 5.9535 -5.3666 43.7459 0.0000 0.0000 0.0000
# 4 0.0000 0.0000 0.0000 20.7876 0.0000 0.0000
# 5 0.0000 0.0000 0.0000 0.0000 -3.0219 0.0000
# 6 0.0000 0.0000 0.0000 0.0000 0.0000 14.3021
#
#
#
# Elastic Compliance Matrix: (Units=1/GPa)
#
#
# Indices 1 2 3 4 5 6 
#
# 1 0.020211 -0.007977 -0.003729 0.000000 0.000000 0.000000
# 2 -0.007977 0.015246 0.002956 0.000000 0.000000 0.000000
# 3 -0.003729 0.002956 0.023729 0.000000 0.000000 0.000000
# 4 0.000000 0.000000 0.000000 0.048106 0.000000 0.000000
# 5 0.000000 0.000000 0.000000 0.000000 -0.330914 0.000000
# 6 0.000000 0.000000 0.000000 0.000000 0.000000 0.069920
#
#
# Mechanical properties :
#
#
# Convention : Reuss Voigt Hill
#
# Bulk Modulus (GPa) = 23.98898 28.35508 26.17203
# Shear Modulus (GPa) = -40.88071 16.93020 -11.97526
#
# Velocity S-wave (km/s) = -4.43115 2.85160 -2.39828
# Velocity P-wave (km/s) = 3.82860 4.94582 2.21393
#
# Compressibility (1/GPa) = 0.04168581
#
# Stress axis : x y z
#
# Youngs Moduli (GPa) = 49.47902 65.59115 42.14181
#
# Poissons Ratio (x) = 0.52321 0.15715
# Poissons Ratio (y) = 0.39469 -0.12457
# Poissons Ratio (z) = 0.18451 -0.19388
#
# Static dielectric constant tensor:
#      x y z
#    x 1.778870 0.000000 0.000000 
#    y 0.000000 1.737490 0.000000 
#    z 0.000000 0.000000 1.774020 
# 
# From -- ./inp_files/4435.got.cif
#   From: 2010.05.17/outbox.cif.g08.bks.cpg/sg58_3_cif.got.tgz:4435.got - 2010.06.03 14:20:14.
