data_PCOD9444563
_publ_section_title
;
Structure prediction by ZEFSAII (Michael W. Deem and Ramdas Pophale) SiO2 
 PCOD9444563
Probable space group: P N N M
;
_chemical_formula_sum "Si O2"
_cell_formula_units_Z 20
_cell_length_a 8.487344
_cell_length_b 5.015825
_cell_length_c 19.344980
_cell_angle_alpha 90.000000
_cell_angle_beta 90.000000
_cell_angle_gamma 90.000000
_cell_volume 823.535767
_symmetry_space_group_name_H-M "P N N M"
_symmetry_group_IT_number 58
_symmetry_cell_setting 'orthorhombic'
loop_
_space_group_symop_operation_xyz
x,y,z
-x,-y,z
1/2+x,1/2-y,1/2-z
1/2-x,1/2+y,1/2-z
-x,-y,-z
x,y,-z
1/2-x,1/2+y,1/2+z
1/2+x,1/2-y,1/2+z
loop_
_atom_site_type_symbol
_atom_site_label
_atom_site_fract_x
_atom_site_fract_y
_atom_site_fract_z
Si Si1 0.321684 0.439748 0.421612
Si Si2 0.386748 0.257356 0.000000
Si Si3 0.175504 0.378481 0.284127
O O1 0.500000 0.500000 0.402146
O O2 0.324951 0.318144 0.500000
O O3 0.227914 0.716075 0.435107
O O4 0.224813 0.298604 0.362028
O O5 0.500000 0.500000 0.000000
O O6 0.500000 0.000000 0.000000
O O7 0.292249 0.618915 0.261850
O O8 0.000000 0.500000 0.280120
#
# Coordination Sequence:
#
# PCOD9444563 Si02
#       3
#     8   4   8
#     4   9  21  44  69 100 139 182 231 287 347 414
#     4  10  21  38  63  94 128 168 220 272 330 394
#     4  12  26  46  72 102 141 185 235 290 352 420
#
# _framework density 24.285529
#
# number of rings (size 3 to 8) (size 9 to 14) (size 15 to 20)
#    1.200    0.400    0.000    4.800    0.000    6.400 
#    0.000    8.000    0.000    0.000    0.000    0.000 
#    0.000    0.000    0.000    0.000    0.000    0.000 
#
# Total GULP energy -111730.490696 kJ/mol
# GULP energy per Si atom -5586.524535 kJ/mol
# Density = 2.423025 g / cm^3
# Si number density = 24.285529 Si / 1000 Ang^3
#
#
#
# Elastic Constant Matrix: (Units=GPa)
#
#
# Indices 1 2 3 4 5 6 
#
# 1 158.9441 38.2586 17.3026 0.0000 0.0000 0.0000
# 2 38.2586 116.5251 26.1490 0.0000 0.0000 0.0000
# 3 17.3026 26.1490 118.8658 0.0000 0.0000 0.0000
# 4 0.0000 0.0000 0.0000 222.4360 0.0000 0.0000
# 5 0.0000 0.0000 0.0000 0.0000 36.6204 0.0000
# 6 0.0000 0.0000 0.0000 0.0000 0.0000 30.8462
#
#
#
# Elastic Compliance Matrix: (Units=1/GPa)
#
#
# Indices 1 2 3 4 5 6 
#
# 1 0.006863 -0.002134 -0.000529 0.000000 0.000000 0.000000
# 2 -0.002134 0.009691 -0.001821 0.000000 0.000000 0.000000
# 3 -0.000529 -0.001821 0.008891 0.000000 0.000000 0.000000
# 4 0.000000 0.000000 0.000000 0.004496 0.000000 0.000000
# 5 0.000000 0.000000 0.000000 0.000000 0.027307 0.000000
# 6 0.000000 0.000000 0.000000 0.000000 0.000000 0.032419
#
#
# Mechanical properties :
#
#
# Convention : Reuss Voigt Hill
#
# Bulk Modulus (GPa) = 60.69998 61.97281 61.33640
# Shear Modulus (GPa) = 48.01761 78.82220 63.41990
#
# Velocity S-wave (km/s) = 4.45141 5.70324 5.11576
# Velocity P-wave (km/s) = 7.17416 8.30319 7.75924
#
# Compressibility (1/GPa) = 0.01647447
#
# Stress axis : x y z
#
# Youngs Moduli (GPa) = 145.71024 103.18468 112.47872
#
# Poissons Ratio (x) = 0.22025 0.05955
# Poissons Ratio (y) = 0.31102 0.20485
# Poissons Ratio (z) = 0.07714 0.18793
#
# Static dielectric constant tensor:
#      x y z
#    x 2.098490 0.000000 0.000000 
#    y 0.000000 1.907000 0.000000 
#    z 0.000000 0.000000 2.040690 
# 
# From -- ./inp_files/24559.got.cif
#   From: 2010.05.17/outbox.cif.g08.bks.cpg/sg58_13_cif.got.tgz:24559.got - 2010.06.03 14:20:14.
