data_PCOD9444677
_publ_section_title
;
Structure prediction by ZEFSAII (Michael W. Deem and Ramdas Pophale) SiO2 
 PCOD9444677
Probable space group: P N N M
;
_chemical_formula_sum "Si O2"
_cell_formula_units_Z 32
_cell_length_a 15.292102
_cell_length_b 4.786677
_cell_length_c 16.841623
_cell_angle_alpha 90.000000
_cell_angle_beta 90.000000
_cell_angle_gamma 90.000000
_cell_volume 1232.779064
_symmetry_space_group_name_H-M "P N N M"
_symmetry_group_IT_number 58
_symmetry_cell_setting 'orthorhombic'
loop_
_space_group_symop_operation_xyz
x,y,z
-x,-y,z
1/2+x,1/2-y,1/2-z
1/2-x,1/2+y,1/2-z
-x,-y,-z
x,y,-z
1/2-x,1/2+y,1/2+z
1/2+x,1/2-y,1/2+z
loop_
_atom_site_type_symbol
_atom_site_label
_atom_site_fract_x
_atom_site_fract_y
_atom_site_fract_z
Si Si1 0.948240 0.259953 0.866288
Si Si2 0.151283 0.394456 0.000000
Si Si3 0.269170 0.876985 0.000000
Si Si4 0.684375 0.612540 0.761077
Si Si5 0.589090 0.833914 0.089849
O O1 0.900517 0.472015 0.926520
O O2 0.883077 0.091602 0.810623
O O3 0.000000 0.500000 0.816694
O O4 0.000000 0.000000 0.905516
O O5 0.182367 0.074102 0.000000
O O6 0.242953 0.558555 0.000000
O O7 0.329668 0.955657 0.925786
O O8 0.758096 0.381635 0.759497
O O9 0.625559 0.640433 0.840365
O O10 0.500000 0.000000 0.109352
O O11 0.575506 0.711488 0.000000
#
# Coordination Sequence:
#
# PCOD9444677 Si02
#       5
#     8   4   4   8   8
#     4  12  25  42  65  95 132 175 225 279 338 405
#     4  12  22  41  65  94 133 176 223 274 332 408
#     4  10  21  39  64  96 127 170 219 270 334 396
#     4  12  25  45  69 101 136 181 231 287 354 411
#     4   9  21  44  70 101 139 181 229 287 351 416
#
# _framework density 25.957609999999999
#
# number of rings (size 3 to 8) (size 9 to 14) (size 15 to 20)
#    0.750    0.250    0.000    7.500    0.000    0.000 
#    0.000    5.000    0.000    0.000    0.000    0.000 
#    0.000    0.000    0.000    0.000    0.000    0.000 
#
# Total GULP energy -178936.934479 kJ/mol
# GULP energy per Si atom -5591.779202 kJ/mol
# Density = 2.589853 g / cm^3
# Si number density = 25.957610 Si / 1000 Ang^3
#
#
#
# Elastic Constant Matrix: (Units=GPa)
#
#
# Indices 1 2 3 4 5 6 
#
# 1 123.8236 49.6276 39.6789 0.0000 0.0000 0.0000
# 2 49.6276 164.7990 6.6120 0.0000 0.0000 0.0000
# 3 39.6789 6.6120 141.4546 0.0000 0.0000 0.0000
# 4 0.0000 0.0000 0.0000 13.3466 0.0000 0.0000
# 5 0.0000 0.0000 0.0000 0.0000 53.0530 0.0000
# 6 0.0000 0.0000 0.0000 0.0000 0.0000 37.0435
#
#
#
# Elastic Compliance Matrix: (Units=1/GPa)
#
#
# Indices 1 2 3 4 5 6 
#
# 1 0.010120 -0.002939 -0.002701 0.000000 0.000000 0.000000
# 2 -0.002939 0.006933 0.000500 0.000000 0.000000 0.000000
# 3 -0.002701 0.000500 0.007804 0.000000 0.000000 0.000000
# 4 0.000000 0.000000 0.000000 0.074925 0.000000 0.000000
# 5 0.000000 0.000000 0.000000 0.000000 0.018849 0.000000
# 6 0.000000 0.000000 0.000000 0.000000 0.000000 0.026995
#
#
# Mechanical properties :
#
#
# Convention : Reuss Voigt Hill
#
# Bulk Modulus (GPa) = 68.60374 69.10157 68.85266
# Shear Modulus (GPa) = 31.10139 42.96587 37.03363
#
# Velocity S-wave (km/s) = 3.46520 4.07287 3.78126
# Velocity P-wave (km/s) = 6.51895 6.98544 6.75622
#
# Compressibility (1/GPa) = 0.01457646
#
# Stress axis : x y z
#
# Youngs Moduli (GPa) = 98.81867 144.23808 128.14391
#
# Poissons Ratio (x) = 0.42392 0.34614
# Poissons Ratio (y) = 0.29043 -0.06412
# Poissons Ratio (z) = 0.26693 -0.07217
#
# Static dielectric constant tensor:
#      x y z
#    x 2.137960 0.000000 0.000000 
#    y 0.000000 1.978210 0.000000 
#    z 0.000000 0.000000 2.099630 
# 
# From -- ./inp_files/26575.got.cif
#   From: 2010.05.17/outbox.cif.g08.bks.cpg/sg58_14_cif.got.tgz:26575.got - 2010.06.03 14:20:14.
