data_PCOD9444640
_publ_section_title
;
Structure prediction by ZEFSAII (Michael W. Deem and Ramdas Pophale) SiO2 
 PCOD9444640
Probable space group: P N N M
;
_chemical_formula_sum "Si O2"
_cell_formula_units_Z 40
_cell_length_a 17.246191
_cell_length_b 7.371585
_cell_length_c 14.908738
_cell_angle_alpha 90.000000
_cell_angle_beta 90.000000
_cell_angle_gamma 90.000000
_cell_volume 1895.374144
_symmetry_space_group_name_H-M "P N N M"
_symmetry_group_IT_number 58
_symmetry_cell_setting 'orthorhombic'
loop_
_space_group_symop_operation_xyz
x,y,z
-x,-y,z
1/2+x,1/2-y,1/2-z
1/2-x,1/2+y,1/2-z
-x,-y,-z
x,y,-z
1/2-x,1/2+y,1/2+z
1/2+x,1/2-y,1/2+z
loop_
_atom_site_type_symbol
_atom_site_label
_atom_site_fract_x
_atom_site_fract_y
_atom_site_fract_z
Si Si1 0.766789 0.506609 0.000000
Si Si2 0.170982 0.040880 0.333054
Si Si3 0.252189 0.054576 0.000000
Si Si4 0.611889 0.729455 0.500000
Si Si5 0.705041 0.878977 0.194653
Si Si6 0.558959 0.835615 0.311524
Si Si7 0.500000 0.500000 0.193035
O O1 0.724562 0.412857 0.083771
O O2 0.763702 0.725662 0.000000
O O3 0.852620 0.433057 0.000000
O O4 0.185180 0.827380 0.324889
O O5 0.210550 0.115763 0.242383
O O6 0.080281 0.065698 0.352631
O O7 0.293819 0.023596 0.097305
O O8 0.175995 0.929603 0.000000
O O9 0.569776 0.730512 0.405214
O O10 0.637691 0.922641 0.267284
O O11 0.526578 0.677522 0.247424
O O12 0.500000 0.000000 0.321754
#
# Coordination Sequence:
#
# PCOD9444640 Si02
#       7
#     4   8   4   4   8   8   4
#     4  10  22  38  64  96 121 166 209 261 307 369
#     4  10  21  39  63  90 125 162 212 257 314 371
#     4  10  22  37  63  93 127 157 210 265 303 364
#     4  12  23  41  62  99 122 167 219 245 312 390
#     4  10  21  39  62  91 120 167 211 255 311 377
#     4  11  25  41  63  91 131 165 211 259 315 372
#     4  10  24  40  60  94 126 168 206 264 320 362
#
# _framework density 21.104012000000001
#
# number of rings (size 3 to 8) (size 9 to 14) (size 15 to 20)
#    0.000    1.600    2.000    2.700    2.800    2.400 
#    0.000    2.500    0.000    0.000    0.000    0.000 
#    0.000    0.000    0.000    0.000    0.000    0.000 
#
# Total GULP energy -222730.595075 kJ/mol
# GULP energy per Si atom -5568.264877 kJ/mol
# Density = 2.105598 g / cm^3
# Si number density = 21.104012 Si / 1000 Ang^3
#
#
#
# Elastic Constant Matrix: (Units=GPa)
#
#
# Indices 1 2 3 4 5 6 
#
# 1 54.6425 8.0751 -2.7394 0.0000 0.0000 0.0000
# 2 8.0751 68.7875 -3.8565 0.0000 0.0000 0.0000
# 3 -2.7394 -3.8565 78.7243 0.0000 0.0000 0.0000
# 4 0.0000 0.0000 0.0000 23.7083 0.0000 0.0000
# 5 0.0000 0.0000 0.0000 0.0000 -66.5404 0.0000
# 6 0.0000 0.0000 0.0000 0.0000 0.0000 -45.0517
#
#
#
# Elastic Compliance Matrix: (Units=1/GPa)
#
#
# Indices 1 2 3 4 5 6 
#
# 1 0.018647 -0.002159 0.000543 0.000000 0.000000 0.000000
# 2 -0.002159 0.014827 0.000651 0.000000 0.000000 0.000000
# 3 0.000543 0.000651 0.012753 0.000000 0.000000 0.000000
# 4 0.000000 0.000000 0.000000 0.042179 0.000000 0.000000
# 5 0.000000 0.000000 0.000000 0.000000 -0.015028 0.000000
# 6 0.000000 0.000000 0.000000 0.000000 0.000000 -0.022197
#
#
# Mechanical properties :
#
#
# Convention : Reuss Voigt Hill
#
# Bulk Modulus (GPa) = 22.57370 22.79033 22.68202
# Shear Modulus (GPa) = 73.66282 -4.19843 34.73219
#
# Velocity S-wave (km/s) = 5.91443 -1.41199 4.06120
# Velocity P-wave (km/s) = 7.57365 2.85731 5.72383
#
# Compressibility (1/GPa) = 0.04429935
#
# Stress axis : x y z
#
# Youngs Moduli (GPa) = 53.62797 67.44257 78.41074
#
# Poissons Ratio (x) = 0.14558 -0.04259
# Poissons Ratio (y) = 0.11576 -0.05106
# Poissons Ratio (z) = -0.02913 -0.04392
#
# Static dielectric constant tensor:
#      x y z
#    x 1.807050 0.000000 0.000000 
#    y 0.000000 1.750920 0.000000 
#    z 0.000000 0.000000 1.933500 
# 
# From -- ./inp_files/19540.got.cif
#   From: 2010.05.17/outbox.cif.g08.bks.cpg/sg58_10_cif.got.tgz:19540.got - 2010.06.03 14:20:14.
