data_PCOD9444855
_publ_section_title
;
Structure prediction by ZEFSAII (Michael W. Deem and Ramdas Pophale) SiO2 
 PCOD9444855
Probable space group: P N N M
;
_chemical_formula_sum "Si O2"
_cell_formula_units_Z 58
_cell_length_a 17.286282
_cell_length_b 18.512412
_cell_length_c 7.844071
_cell_angle_alpha 90.000000
_cell_angle_beta 90.000000
_cell_angle_gamma 90.000000
_cell_volume 2510.187235
_symmetry_space_group_name_H-M "P N N M"
_symmetry_group_IT_number 58
_symmetry_cell_setting 'orthorhombic'
loop_
_space_group_symop_operation_xyz
x,y,z
-x,-y,z
1/2+x,1/2-y,1/2-z
1/2-x,1/2+y,1/2-z
-x,-y,-z
x,y,-z
1/2-x,1/2+y,1/2+z
1/2+x,1/2-y,1/2+z
loop_
_atom_site_type_symbol
_atom_site_label
_atom_site_fract_x
_atom_site_fract_y
_atom_site_fract_z
Si Si1 0.626740 0.413053 0.804613
Si Si2 0.500000 0.000000 0.000000
Si Si3 0.036738 0.288506 0.798547
Si Si4 0.180046 0.939559 0.187331
Si Si5 0.269350 0.176914 0.294108
Si Si6 0.706910 0.176094 0.699728
Si Si7 0.533291 0.639071 0.198342
Si Si8 0.419220 0.079846 0.298250
O O1 0.659986 0.493229 0.805118
O O2 0.691269 0.361098 0.727156
O O3 0.540807 0.405612 0.732322
O O4 0.617020 0.388563 0.000000
O O5 0.562940 0.978651 0.846074
O O6 0.123411 0.300063 0.729532
O O7 0.991696 0.222241 0.714328
O O8 0.988974 0.362126 0.781785
O O9 0.041480 0.270993 0.000000
O O10 0.257738 0.896051 0.222754
O O11 0.110089 0.882853 0.204005
O O12 0.181600 0.971485 0.000000
O O13 0.266945 0.182226 0.500000
O O14 0.266737 0.257954 0.224976
O O15 0.342076 0.125951 0.257427
O O16 0.696813 0.162781 0.500000
O O17 0.547750 0.621144 0.000000
O O18 0.415534 0.056249 0.500000
#
# Coordination Sequence:
#
# PCOD9444855 Si02
#       8
#     8   2   8   8   8   8   8   8
#     4  10  22  41  64  95 131 170 213 261 327 392
#     4  12  26  44  68  98 128 180 230 284 336 410
#     4  10  22  41  66  97 131 170 214 274 331 388
#     4  12  26  41  60  91 130 171 215 265 325 384
#     4  10  21  42  69  95 128 172 216 269 331 396
#     4  11  23  40  66  96 131 169 218 270 325 396
#     4  11  22  39  67  95 128 168 214 266 321 394
#     4  10  24  45  68  98 137 177 226 283 339 398
#
# _framework density 23.105848000000002
#
# number of rings (size 3 to 8) (size 9 to 14) (size 15 to 20)
#    0.000    1.379    1.379    3.517    1.931    6.069 
#    2.483    4.138    0.000    0.000    0.000    0.000 
#    0.000    0.000    0.000    0.000    0.000    0.000 
#
# Total GULP energy -323775.596979 kJ/mol
# GULP energy per Si atom -5582.337879 kJ/mol
# Density = 2.305326 g / cm^3
# Si number density = 23.105848 Si / 1000 Ang^3
#
#
#
# Elastic Constant Matrix: (Units=GPa)
#
#
# Indices 1 2 3 4 5 6 
#
# 1 56.3798 0.4993 4.4650 0.0000 0.0000 0.0000
# 2 0.4993 44.8564 -1.4484 0.0000 0.0000 0.0000
# 3 4.4650 -1.4484 66.4042 0.0000 0.0000 0.0000
# 4 0.0000 0.0000 0.0000 20.7188 0.0000 0.0000
# 5 0.0000 0.0000 0.0000 0.0000 12.1294 0.0000
# 6 0.0000 0.0000 0.0000 0.0000 0.0000 15.6008
#
#
#
# Elastic Compliance Matrix: (Units=1/GPa)
#
#
# Indices 1 2 3 4 5 6 
#
# 1 0.017834 -0.000237 -0.001204 0.000000 0.000000 0.000000
# 2 -0.000237 0.022312 0.000503 0.000000 0.000000 0.000000
# 3 -0.001204 0.000503 0.015151 0.000000 0.000000 0.000000
# 4 0.000000 0.000000 0.000000 0.048265 0.000000 0.000000
# 5 0.000000 0.000000 0.000000 0.000000 0.082444 0.000000
# 6 0.000000 0.000000 0.000000 0.000000 0.000000 0.064099
#
#
# Mechanical properties :
#
#
# Convention : Reuss Voigt Hill
#
# Bulk Modulus (GPa) = 18.71973 19.40801 19.06387
# Shear Modulus (GPa) = 18.53283 20.63142 19.58212
#
# Velocity S-wave (km/s) = 2.83518 2.99140 2.91434
# Velocity P-wave (km/s) = 4.34016 4.51100 4.42641
#
# Compressibility (1/GPa) = 0.05341958
#
# Stress axis : x y z
#
# Youngs Moduli (GPa) = 56.07162 44.81844 66.00122
#
# Poissons Ratio (x) = 0.01064 0.07949
# Poissons Ratio (y) = 0.01331 -0.03317
# Poissons Ratio (z) = 0.06753 -0.02253
#
# Static dielectric constant tensor:
#      x y z
#    x 1.888230 0.000000 0.000000 
#    y 0.000000 1.844380 0.000000 
#    z 0.000000 0.000000 1.842780 
# 
# From -- ./inp_files/8015.got.cif
#   From: 2010.05.17/outbox.cif.g08.bks.cpg/sg58_5_cif.got.tgz:8015.got - 2010.06.03 14:20:14.
