data_PCOD9444237
_publ_section_title
;
Structure prediction by ZEFSAII (Michael W. Deem and Ramdas Pophale) SiO2 
 PCOD9444237
Probable space group: P N N M
;
_chemical_formula_sum "Si O2"
_cell_formula_units_Z 64
_cell_length_a 19.713827
_cell_length_b 17.362831
_cell_length_c 7.764458
_cell_angle_alpha 90.000000
_cell_angle_beta 90.000000
_cell_angle_gamma 90.000000
_cell_volume 2657.679609
_symmetry_space_group_name_H-M "P N N M"
_symmetry_group_IT_number 58
_symmetry_cell_setting 'orthorhombic'
loop_
_space_group_symop_operation_xyz
x,y,z
-x,-y,z
1/2+x,1/2-y,1/2-z
1/2-x,1/2+y,1/2-z
-x,-y,-z
x,y,-z
1/2-x,1/2+y,1/2+z
1/2+x,1/2-y,1/2+z
loop_
_atom_site_type_symbol
_atom_site_label
_atom_site_fract_x
_atom_site_fract_y
_atom_site_fract_z
Si Si1 0.045381 0.818510 0.708867
Si Si2 0.701064 0.673222 0.791147
Si Si3 0.830143 0.427974 0.693551
Si Si4 0.802011 0.003354 0.299337
Si Si5 0.399292 0.923547 0.692205
Si Si6 0.587221 0.392819 0.788269
Si Si7 0.663289 0.237538 0.799347
Si Si8 0.963852 0.353768 0.291597
O O1 0.047771 0.823599 0.500000
O O2 0.123063 0.820801 0.765212
O O3 0.017944 0.733715 0.752859
O O4 0.990406 0.880983 0.767096
O O5 0.720591 0.586484 0.731924
O O6 0.755586 0.733429 0.721498
O O7 0.704059 0.679896 0.000000
O O8 0.815023 0.401358 0.500000
O O9 0.759099 0.443093 0.784071
O O10 0.867778 0.511008 0.689237
O O11 0.887979 0.372984 0.769305
O O12 0.815663 0.017706 0.500000
O O13 0.870414 0.966268 0.225984
O O14 0.385483 0.951713 0.500000
O O15 0.365130 0.839996 0.713281
O O16 0.478741 0.909842 0.722005
O O17 0.629293 0.316289 0.736908
O O18 0.587524 0.395319 0.000000
O O19 0.645071 0.230823 0.000000
O O20 0.963536 0.360376 0.500000
#
# Coordination Sequence:
#
# PCOD9444237 Si02
#       8
#     8   8   8   8   8   8   8   8
#     4   9  18  36  60  85 115 152 196 241 285 340
#     4  10  21  36  59  88 118 150 192 245 290 335
#     4  11  23  37  57  85 118 159 196 232 287 354
#     4  10  21  37  57  87 120 151 195 244 291 339
#     4  12  23  37  59  86 117 152 192 244 294 346
#     4   9  19  36  60  85 114 153 195 241 289 341
#     4  11  21  37  61  84 115 157 196 234 287 353
#     4  10  21  38  58  83 117 155 196 236 283 353
#
# _framework density 24.081157000000001
#
# number of rings (size 3 to 8) (size 9 to 14) (size 15 to 20)
#    0.000    1.750    2.500    2.250    1.750    3.000 
#    0.000    3.750    0.000    0.000    0.000    1.750 
#    0.000    0.000    0.000    0.000    0.000    0.000 
#
# Total GULP energy -357798.007730 kJ/mol
# GULP energy per Si atom -5590.593871 kJ/mol
# Density = 2.402635 g / cm^3
# Si number density = 24.081157 Si / 1000 Ang^3
#
#
#
# Elastic Constant Matrix: (Units=GPa)
#
#
# Indices 1 2 3 4 5 6 
#
# 1 106.2095 0.8589 -10.8182 0.0000 0.0000 0.0000
# 2 0.8589 18.7466 0.7638 0.0000 0.0000 0.0000
# 3 -10.8182 0.7638 43.5087 0.0000 0.0000 0.0000
# 4 0.0000 0.0000 0.0000 8.3535 0.0000 0.0000
# 5 0.0000 0.0000 0.0000 0.0000 20.9305 0.0000
# 6 0.0000 0.0000 0.0000 0.0000 0.0000 44.2104
#
#
#
# Elastic Compliance Matrix: (Units=1/GPa)
#
#
# Indices 1 2 3 4 5 6 
#
# 1 0.009665 -0.000541 0.002413 0.000000 0.000000 0.000000
# 2 -0.000541 0.053411 -0.001072 0.000000 0.000000 0.000000
# 3 0.002413 -0.001072 0.023603 0.000000 0.000000 0.000000
# 4 0.000000 0.000000 0.000000 0.119710 0.000000 0.000000
# 5 0.000000 0.000000 0.000000 0.000000 0.047777 0.000000
# 6 0.000000 0.000000 0.000000 0.000000 0.000000 0.022619
#
#
# Mechanical properties :
#
#
# Convention : Reuss Voigt Hill
#
# Bulk Modulus (GPa) = 11.32779 16.67487 14.00133
# Shear Modulus (GPa) = 16.41427 26.54291 21.47859
#
# Velocity S-wave (km/s) = 2.61362 3.32358 2.98975
# Velocity P-wave (km/s) = 3.71783 4.65486 4.21248
#
# Compressibility (1/GPa) = 0.08827844
#
# Stress axis : x y z
#
# Youngs Moduli (GPa) = 103.46085 18.72257 42.36810
#
# Poissons Ratio (x) = 0.01013 -0.10222
# Poissons Ratio (y) = 0.05599 0.04543
# Poissons Ratio (z) = -0.24963 0.02007
#
# Static dielectric constant tensor:
#      x y z
#    x 1.942470 0.000000 0.000000 
#    y 0.000000 1.915520 0.000000 
#    z 0.000000 0.000000 1.905010 
# 
# From -- ./inp_files/8353.got.cif
#   From: 2010.05.17/outbox.cif.g08.bks.cpg/sg58_5_cif.got.tgz:8353.got - 2010.06.03 14:20:14.
