data_PCOD9444733
_publ_section_title
;
Structure prediction by ZEFSAII (Michael W. Deem and Ramdas Pophale) SiO2 
 PCOD9444733
Probable space group: P N N M
;
_chemical_formula_sum "Si O2"
_cell_formula_units_Z 48
_cell_length_a 6.823140
_cell_length_b 14.471625
_cell_length_c 25.334452
_cell_angle_alpha 90.000000
_cell_angle_beta 90.000000
_cell_angle_gamma 90.000000
_cell_volume 2501.572519
_symmetry_space_group_name_H-M "P N N M"
_symmetry_group_IT_number 58
_symmetry_cell_setting 'orthorhombic'
loop_
_space_group_symop_operation_xyz
x,y,z
-x,-y,z
1/2+x,1/2-y,1/2-z
1/2-x,1/2+y,1/2-z
-x,-y,-z
x,y,-z
1/2-x,1/2+y,1/2+z
1/2+x,1/2-y,1/2+z
loop_
_atom_site_type_symbol
_atom_site_label
_atom_site_fract_x
_atom_site_fract_y
_atom_site_fract_z
Si Si1 0.916335 0.744309 0.124289
Si Si2 0.500000 0.000000 0.875667
Si Si3 0.554597 0.825315 0.808042
Si Si4 0.000000 0.000000 0.356912
Si Si5 0.245841 0.161399 0.300258
Si Si6 0.143068 0.084684 0.941350
Si Si7 0.682753 0.070353 0.439620
O O1 0.720515 0.771523 0.157352
O O2 0.963436 0.840064 0.095308
O O3 0.879818 0.672426 0.077175
O O4 0.081652 0.697276 0.160765
O O5 0.455696 0.910880 0.838914
O O6 0.669021 0.957843 0.912251
O O7 0.659117 0.863647 0.755699
O O8 0.396003 0.748936 0.792445
O O9 0.157585 0.955151 0.396074
O O10 0.882501 0.922970 0.323425
O O11 0.192451 0.121484 0.000000
O O12 0.000000 0.000000 0.947112
O O13 0.754566 0.066359 0.500000
O O14 0.500000 0.000000 0.435295
#
# Coordination Sequence:
#
# PCOD9444733 Si02
#       7
#     8   4   8   4   8   8   8
#     4  11  22  41  65  91 124 167 209 259 318 377
#     4  10  23  40  62  90 122 162 205 260 312 370
#     4  11  24  41  63  91 125 166 213 262 316 377
#     4  12  25  42  66  96 128 170 215 262 318 380
#     4  12  24  41  65  92 128 168 213 260 317 379
#     4  10  21  40  64  92 123 159 204 256 314 375
#     4  11  23  41  64  93 129 166 209 261 316 379
#
# _framework density 19.187932
#
# number of rings (size 3 to 8) (size 9 to 14) (size 15 to 20)
#    0.000    1.000    5.000    2.000    0.000    2.667 
#    6.000    0.000    0.000    0.000    0.000    0.000 
#    0.000    0.000    0.000    0.000    0.000    0.000 
#
# Total GULP energy -267791.482685 kJ/mol
# GULP energy per Si atom -5578.989223 kJ/mol
# Density = 1.914426 g / cm^3
# Si number density = 19.187932 Si / 1000 Ang^3
#
#
#
# Elastic Constant Matrix: (Units=GPa)
#
#
# Indices 1 2 3 4 5 6 
#
# 1 33.3848 10.9740 7.7877 0.0000 0.0000 0.0000
# 2 10.9740 79.0235 19.2892 0.0000 0.0000 0.0000
# 3 7.7877 19.2892 89.7172 0.0000 0.0000 0.0000
# 4 0.0000 0.0000 0.0000 41.0303 0.0000 0.0000
# 5 0.0000 0.0000 0.0000 0.0000 33.9920 0.0000
# 6 0.0000 0.0000 0.0000 0.0000 0.0000 30.8388
#
#
#
# Elastic Compliance Matrix: (Units=1/GPa)
#
#
# Indices 1 2 3 4 5 6 
#
# 1 0.031692 -0.003936 -0.001905 0.000000 0.000000 0.000000
# 2 -0.003936 0.013844 -0.002635 0.000000 0.000000 0.000000
# 3 -0.001905 -0.002635 0.011878 0.000000 0.000000 0.000000
# 4 0.000000 0.000000 0.000000 0.024372 0.000000 0.000000
# 5 0.000000 0.000000 0.000000 0.000000 0.029419 0.000000
# 6 0.000000 0.000000 0.000000 0.000000 0.000000 0.032427
#
#
# Mechanical properties :
#
#
# Convention : Reuss Voigt Hill
#
# Bulk Modulus (GPa) = 24.71403 30.91411 27.81407
# Shear Modulus (GPa) = 28.72397 32.11053 30.41725
#
# Velocity S-wave (km/s) = 3.87328 4.09525 3.98581
# Velocity P-wave (km/s) = 5.73681 6.20545 5.97573
#
# Compressibility (1/GPa) = 0.04046285
#
# Stress axis : x y z
#
# Youngs Moduli (GPa) = 31.55375 72.23227 84.18955
#
# Poissons Ratio (x) = 0.28432 0.16035
# Poissons Ratio (y) = 0.12420 0.22183
# Poissons Ratio (z) = 0.06010 0.19032
#
# Static dielectric constant tensor:
#      x y z
#    x 1.617720 0.000000 0.000000 
#    y 0.000000 1.664000 0.000000 
#    z 0.000000 0.000000 1.684590 
# 
# From -- ./inp_files/32862.got.cif
#   From: 2010.05.17/outbox.cif.g08.bks.cpg/sg58_17_cif.got.tgz:32862.got - 2010.06.03 14:20:14.
