data_PCOD9444468
_publ_section_title
;
Structure prediction by ZEFSAII (Michael W. Deem and Ramdas Pophale) SiO2 
 PCOD9444468
Probable space group: P N N M
;
_chemical_formula_sum "Si O2"
_cell_formula_units_Z 34
_cell_length_a 14.360863
_cell_length_b 13.837899
_cell_length_c 7.500551
_cell_angle_alpha 90.000000
_cell_angle_beta 90.000000
_cell_angle_gamma 90.000000
_cell_volume 1490.540785
_symmetry_space_group_name_H-M "P N N M"
_symmetry_group_IT_number 58
_symmetry_cell_setting 'orthorhombic'
loop_
_space_group_symop_operation_xyz
x,y,z
-x,-y,z
1/2+x,1/2-y,1/2-z
1/2-x,1/2+y,1/2-z
-x,-y,-z
x,y,-z
1/2-x,1/2+y,1/2+z
1/2+x,1/2-y,1/2+z
loop_
_atom_site_type_symbol
_atom_site_label
_atom_site_fract_x
_atom_site_fract_y
_atom_site_fract_z
Si Si1 0.709808 0.588060 0.281038
Si Si2 0.500000 0.500000 0.500000
Si Si3 0.597951 0.398125 0.199948
Si Si4 0.602352 0.996287 0.206524
Si Si5 0.788530 0.303933 0.214926
O O1 0.699277 0.576070 0.500000
O O2 0.651466 0.501481 0.198866
O O3 0.816461 0.566665 0.226651
O O4 0.684308 0.696321 0.231048
O O5 0.519953 0.417431 0.344842
O O6 0.680633 0.326415 0.260924
O O7 0.566620 0.373962 0.000000
O O8 0.646014 0.889104 0.215575
O O9 0.500000 0.000000 0.289047
O O10 0.592043 0.024709 0.000000
O O11 0.791847 0.308721 0.000000
#
# Coordination Sequence:
#
# PCOD9444468 Si02
#       5
#     8   2   8   8   8
#     4   9  17  36  58  80 116 156 188 234 294 343
#     4  12  22  40  60  82 122 150 194 244 296 338
#     4  10  21  38  59  86 116 155 194 238 291 352
#     4   9  18  33  55  81 109 145 191 237 283 337
#     4   9  19  35  57  81 113 153 191 232 291 348
#
# _framework density 22.810511999999999
#
# number of rings (size 3 to 8) (size 9 to 14) (size 15 to 20)
#    0.000    2.588    1.176    0.353    1.647    1.412 
#    4.235    0.000    0.000    0.000    0.000    0.000 
#    0.000    0.000    0.000    0.000    0.000    0.000 
#
# Total GULP energy -189284.188122 kJ/mol
# GULP energy per Si atom -5567.182004 kJ/mol
# Density = 2.275859 g / cm^3
# Si number density = 22.810512 Si / 1000 Ang^3
#
#
#
# Elastic Constant Matrix: (Units=GPa)
#
#
# Indices 1 2 3 4 5 6 
#
# 1 49.8621 -10.3467 8.6176 0.0000 0.0000 0.0000
# 2 -10.3467 78.9266 -13.6493 0.0000 0.0000 0.0000
# 3 8.6176 -13.6493 83.1071 0.0000 0.0000 0.0000
# 4 0.0000 0.0000 0.0000 16.0839 0.0000 0.0000
# 5 0.0000 0.0000 0.0000 0.0000 21.7856 0.0000
# 6 0.0000 0.0000 0.0000 0.0000 0.0000 11.0479
#
#
#
# Elastic Compliance Matrix: (Units=1/GPa)
#
#
# Indices 1 2 3 4 5 6 
#
# 1 0.020864 0.002430 -0.001764 0.000000 0.000000 0.000000
# 2 0.002430 0.013323 0.001936 0.000000 0.000000 0.000000
# 3 -0.001764 0.001936 0.012534 0.000000 0.000000 0.000000
# 4 0.000000 0.000000 0.000000 0.062174 0.000000 0.000000
# 5 0.000000 0.000000 0.000000 0.000000 0.045902 0.000000
# 6 0.000000 0.000000 0.000000 0.000000 0.000000 0.090515
#
#
# Mechanical properties :
#
#
# Convention : Reuss Voigt Hill
#
# Bulk Modulus (GPa) = 19.25843 20.12656 19.69250
# Shear Modulus (GPa) = 19.42376 24.93511 22.17943
#
# Velocity S-wave (km/s) = 2.92126 3.30986 3.12161
# Velocity P-wave (km/s) = 4.45415 4.84246 4.65236
#
# Compressibility (1/GPa) = 0.05192530
#
# Stress axis : x y z
#
# Youngs Moduli (GPa) = 47.92831 75.05587 79.78545
#
# Poissons Ratio (x) = -0.18239 0.14077
# Poissons Ratio (y) = -0.11647 -0.15448
# Poissons Ratio (z) = 0.08456 -0.14532
#
# Static dielectric constant tensor:
#      x y z
#    x 1.989080 0.000000 0.000000 
#    y 0.000000 1.798240 0.000000 
#    z 0.000000 0.000000 1.918020 
# 
# From -- ./inp_files/7541.got.cif
#   From: 2010.05.17/outbox.cif.g08.bks.cpg/sg58_4_cif.got.tgz:7541.got - 2010.06.03 14:20:14.
