data_PCOD9444438
_publ_section_title
;
Structure prediction by ZEFSAII (Michael W. Deem and Ramdas Pophale) SiO2 
 PCOD9444438
Probable space group: P N N M
;
_chemical_formula_sum "Si O2"
_cell_formula_units_Z 40
_cell_length_a 19.060809
_cell_length_b 8.284076
_cell_length_c 12.299707
_cell_angle_alpha 90.000000
_cell_angle_beta 90.000000
_cell_angle_gamma 90.000000
_cell_volume 1942.138377
_symmetry_space_group_name_H-M "P N N M"
_symmetry_group_IT_number 58
_symmetry_cell_setting 'orthorhombic'
loop_
_space_group_symop_operation_xyz
x,y,z
-x,-y,z
1/2+x,1/2-y,1/2-z
1/2-x,1/2+y,1/2-z
-x,-y,-z
x,y,-z
1/2-x,1/2+y,1/2+z
1/2+x,1/2-y,1/2+z
loop_
_atom_site_type_symbol
_atom_site_label
_atom_site_fract_x
_atom_site_fract_y
_atom_site_fract_z
Si Si1 0.077519 0.973609 0.827137
Si Si2 0.442656 0.689358 0.124345
Si Si3 0.052450 0.626993 0.784146
Si Si4 0.822265 0.589125 0.693999
Si Si5 0.212916 0.172255 0.118511
O O1 0.086259 0.783243 0.840058
O O2 0.072662 0.033683 0.700435
O O3 0.136708 0.087384 0.875354
O O4 0.000000 0.000000 0.872763
O O5 0.501646 0.795567 0.189404
O O6 0.369420 0.787609 0.124737
O O7 0.463265 0.660258 0.000000
O O8 0.117960 0.525000 0.744212
O O9 0.000000 0.500000 0.843075
O O10 0.784307 0.695043 0.786877
O O11 0.767855 0.472163 0.635856
O O12 0.223354 0.246730 0.000000
#
# Coordination Sequence:
#
# PCOD9444438 Si02
#       5
#     8   8   8   8   8
#     4   9  19  36  56  81 113 147 189 238 277 329
#     4   9  18  33  57  86 114 147 187 235 295 346
#     4   9  18  33  55  80 114 147 177 227 283 330
#     4  10  21  38  56  83 117 145 189 239 280 341
#     4  11  23  40  62  83 112 154 191 234 291 340
#
# _framework density 20.595853999999999
#
# number of rings (size 3 to 8) (size 9 to 14) (size 15 to 20)
#    0.000    2.400    0.000    3.000    0.000    8.400 
#    0.000   12.000    0.000   21.600    0.000    0.000 
#    0.000    0.000    0.000    0.000    0.000    0.000 
#
# Total GULP energy -222863.616798 kJ/mol
# GULP energy per Si atom -5571.590420 kJ/mol
# Density = 2.054898 g / cm^3
# Si number density = 20.595854 Si / 1000 Ang^3
#
#
#
# Elastic Constant Matrix: (Units=GPa)
#
#
# Indices 1 2 3 4 5 6 
#
# 1 61.3025 -7.2692 -12.5551 0.0000 0.0000 0.0000
# 2 -7.2692 89.0670 4.8501 0.0000 0.0000 0.0000
# 3 -12.5551 4.8501 65.1266 0.0000 0.0000 0.0000
# 4 0.0000 0.0000 0.0000 -5.6150 0.0000 0.0000
# 5 0.0000 0.0000 0.0000 0.0000 -10.7761 0.0000
# 6 0.0000 0.0000 0.0000 0.0000 0.0000 35.5435
#
#
#
# Elastic Compliance Matrix: (Units=1/GPa)
#
#
# Indices 1 2 3 4 5 6 
#
# 1 0.017115 0.001222 0.003208 0.000000 0.000000 0.000000
# 2 0.001222 0.011360 -0.000610 0.000000 0.000000 0.000000
# 3 0.003208 -0.000610 0.016019 0.000000 0.000000 0.000000
# 4 0.000000 0.000000 0.000000 -0.178095 0.000000 0.000000
# 5 0.000000 0.000000 0.000000 0.000000 -0.092798 0.000000
# 6 0.000000 0.000000 0.000000 0.000000 0.000000 0.028135
#
#
# Mechanical properties :
#
#
# Convention : Reuss Voigt Hill
#
# Bulk Modulus (GPa) = 19.18147 20.61643 19.89895
# Shear Modulus (GPa) = -26.52139 19.19517 -3.66311
#
# Velocity S-wave (km/s) = -3.59235 3.05617 -1.33508
# Velocity P-wave (km/s) = 2.80592 4.74186 2.70297
#
# Compressibility (1/GPa) = 0.05213364
#
# Stress axis : x y z
#
# Youngs Moduli (GPa) = 58.42984 88.02446 62.42714
#
# Poissons Ratio (x) = -0.10757 -0.20029
# Poissons Ratio (y) = -0.07141 0.03811
# Poissons Ratio (z) = -0.18746 0.05373
#
# Static dielectric constant tensor:
#      x y z
#    x 1.739680 0.000000 0.000000 
#    y 0.000000 1.794050 0.000000 
#    z 0.000000 0.000000 1.758610 
# 
# From -- ./inp_files/12675.got.cif
#   From: 2010.05.17/outbox.cif.g08.bks.cpg/sg58_7_cif.got.tgz:12675.got - 2010.06.03 14:20:14.
