data_PCOD9444478
_publ_section_title
;
Structure prediction by ZEFSAII (Michael W. Deem and Ramdas Pophale) SiO2 
 PCOD9444478
Probable space group: P N N M
;
_chemical_formula_sum "Si O2"
_cell_formula_units_Z 58
_cell_length_a 12.368369
_cell_length_b 29.268145
_cell_length_c 7.703621
_cell_angle_alpha 90.000000
_cell_angle_beta 90.000000
_cell_angle_gamma 90.000000
_cell_volume 2788.704772
_symmetry_space_group_name_H-M "P N N M"
_symmetry_group_IT_number 58
_symmetry_cell_setting 'orthorhombic'
loop_
_space_group_symop_operation_xyz
x,y,z
-x,-y,z
1/2+x,1/2-y,1/2-z
1/2-x,1/2+y,1/2-z
-x,-y,-z
x,y,-z
1/2-x,1/2+y,1/2+z
1/2+x,1/2-y,1/2+z
loop_
_atom_site_type_symbol
_atom_site_label
_atom_site_fract_x
_atom_site_fract_y
_atom_site_fract_z
Si Si1 0.804255 0.073108 0.703636
Si Si2 0.500000 0.000000 0.500000
Si Si3 0.923091 0.323881 0.701160
Si Si4 0.012081 0.860416 0.702674
Si Si5 0.728965 0.385601 0.291845
Si Si6 0.355676 0.275228 0.299947
Si Si7 0.181955 0.514367 0.301286
Si Si8 0.835591 0.659954 0.288333
O O1 0.817513 0.062792 0.500000
O O2 0.711833 0.111780 0.726186
O O3 0.913072 0.097978 0.769408
O O4 0.766085 0.027473 0.795680
O O5 0.406924 0.005154 0.345600
O O6 0.932133 0.338035 0.500000
O O7 0.827029 0.354368 0.777463
O O8 0.890637 0.271006 0.708549
O O9 0.042817 0.331756 0.774793
O O10 0.039634 0.854933 0.500000
O O11 0.886765 0.870932 0.720802
O O12 0.051353 0.813667 0.789863
O O13 0.722048 0.379210 0.500000
O O14 0.758604 0.438060 0.259384
O O15 0.336319 0.263016 0.500000
O O16 0.247750 0.300377 0.231657
O O17 0.138688 0.518164 0.500000
O O18 0.832575 0.659830 0.500000
#
# Coordination Sequence:
#
# PCOD9444478 Si02
#       8
#     8   2   8   8   8   8   8   8
#     4  10  21  40  64  96 125 164 217 271 322 387
#     4  12  26  44  68  96 136 176 218 272 314 410
#     4  10  22  39  59  84 122 160 203 260 320 384
#     4  10  22  40  66  90 127 169 213 269 325 385
#     4  10  24  42  61  94 131 170 214 265 328 393
#     4  10  21  38  59  89 118 157 209 258 318 389
#     4  11  25  44  68  98 134 177 222 272 335 386
#     4   9  20  38  60  85 118 158 205 257 317 389
#
# _framework density 20.798186999999999
#
# number of rings (size 3 to 8) (size 9 to 14) (size 15 to 20)
#    0.000    1.931    0.690    1.448    4.828    3.862 
#    0.000    2.759    0.000    0.000    0.000    0.000 
#    0.000    0.000    0.000    0.000    0.000    0.000 
#
# Total GULP energy -323444.633367 kJ/mol
# GULP energy per Si atom -5576.631610 kJ/mol
# Density = 2.075085 g / cm^3
# Si number density = 20.798187 Si / 1000 Ang^3
#
#
#
# Elastic Constant Matrix: (Units=GPa)
#
#
# Indices 1 2 3 4 5 6 
#
# 1 173.2047 92.3420 13.3103 0.0000 0.0000 0.0000
# 2 92.3420 141.2658 5.3130 0.0000 0.0000 0.0000
# 3 13.3103 5.3130 59.5921 0.0000 0.0000 0.0000
# 4 0.0000 0.0000 0.0000 17.7281 0.0000 0.0000
# 5 0.0000 0.0000 0.0000 0.0000 19.1892 0.0000
# 6 0.0000 0.0000 0.0000 0.0000 0.0000 -9.3390
#
#
#
# Elastic Compliance Matrix: (Units=1/GPa)
#
#
# Indices 1 2 3 4 5 6 
#
# 1 0.008992 -0.005822 -0.001489 0.000000 0.000000 0.000000
# 2 -0.005822 0.010872 0.000331 0.000000 0.000000 0.000000
# 3 -0.001489 0.000331 0.017084 0.000000 0.000000 0.000000
# 4 0.000000 0.000000 0.000000 0.056408 0.000000 0.000000
# 5 0.000000 0.000000 0.000000 0.000000 0.052113 0.000000
# 6 0.000000 0.000000 0.000000 0.000000 0.000000 -0.107078
#
#
# Mechanical properties :
#
#
# Convention : Reuss Voigt Hill
#
# Bulk Modulus (GPa) = 43.50183 66.22150 54.86166
# Shear Modulus (GPa) = 83.31573 23.05547 53.18560
#
# Velocity S-wave (km/s) = 6.33609 3.33308 5.06239
# Velocity P-wave (km/s) = 8.63074 6.83533 7.78497
#
# Compressibility (1/GPa) = 0.02298754
#
# Stress axis : x y z
#
# Youngs Moduli (GPa) = 111.21356 91.98045 58.53469
#
# Poissons Ratio (x) = 0.53548 0.08718
# Poissons Ratio (y) = 0.64745 -0.01938
# Poissons Ratio (z) = 0.16563 -0.03045
#
# Static dielectric constant tensor:
#      x y z
#    x 1.734800 0.000000 0.000000 
#    y 0.000000 1.708440 0.000000 
#    z 0.000000 0.000000 1.776150 
# 
# From -- ./inp_files/4484.got.cif
#   From: 2010.05.17/outbox.cif.g08.bks.cpg/sg58_3_cif.got.tgz:4484.got - 2010.06.03 14:20:14.
