data_PCOD9444668
_publ_section_title
;
Structure prediction by ZEFSAII (Michael W. Deem and Ramdas Pophale) SiO2 
 PCOD9444668
Probable space group: P N N M
;
_chemical_formula_sum "Si O2"
_cell_formula_units_Z 64
_cell_length_a 23.229272
_cell_length_b 15.697286
_cell_length_c 9.246511
_cell_angle_alpha 90.000000
_cell_angle_beta 90.000000
_cell_angle_gamma 90.000000
_cell_volume 3371.615650
_symmetry_space_group_name_H-M "P N N M"
_symmetry_group_IT_number 58
_symmetry_cell_setting 'orthorhombic'
loop_
_space_group_symop_operation_xyz
x,y,z
-x,-y,z
1/2+x,1/2-y,1/2-z
1/2-x,1/2+y,1/2-z
-x,-y,-z
x,y,-z
1/2-x,1/2+y,1/2+z
1/2+x,1/2-y,1/2+z
loop_
_atom_site_type_symbol
_atom_site_label
_atom_site_fract_x
_atom_site_fract_y
_atom_site_fract_z
Si Si1 0.542988 0.575459 0.829446
Si Si2 0.313497 0.692126 0.671381
Si Si3 0.866396 0.646070 0.669215
Si Si4 0.751709 0.066298 0.837657
Si Si5 0.431178 0.250320 0.673373
Si Si6 0.158239 0.031149 0.333616
Si Si7 0.798194 0.260671 0.167480
Si Si8 0.981255 0.597574 0.170325
O O1 0.500000 0.500000 0.779318
O O2 0.542506 0.665272 0.747216
O O3 0.606779 0.535959 0.815879
O O4 0.530711 0.590077 0.000000
O O5 0.311647 0.696022 0.500000
O O6 0.343991 0.774581 0.738166
O O7 0.348335 0.611271 0.729489
O O8 0.248695 0.690321 0.736683
O O9 0.869330 0.669840 0.500000
O O10 0.816422 0.575117 0.681607
O O11 0.926647 0.616208 0.730733
O O12 0.777557 0.162036 0.832231
O O13 0.782996 0.013274 0.715443
O O14 0.764173 0.032500 0.000000
O O15 0.430390 0.264005 0.500000
O O16 0.364380 0.236709 0.717608
O O17 0.468933 0.166432 0.703401
O O18 0.159440 0.058989 0.500000
O O19 0.795132 0.290083 0.000000
O O20 0.000000 0.500000 0.190119
O O21 0.966311 0.608654 0.000000
#
# Coordination Sequence:
#
# PCOD9444668 Si02
#       8
#     8   8   8   8   8   8   8   8
#     4  10  23  40  58  87 124 162 204 250 302 366
#     4  11  23  37  58  88 122 158 199 244 296 362
#     4  10  22  41  63  86 119 159 201 249 308 362
#     4   9  18  35  58  83 114 151 192 243 295 352
#     4  10  21  39  64  90 121 163 205 253 305 356
#     4  11  22  36  57  87 123 157 197 243 300 361
#     4   9  18  36  58  83 116 152 196 244 299 357
#     4  10  23  42  62  90 124 159 207 257 303 362
#
# _framework density 18.981997
#
# number of rings (size 3 to 8) (size 9 to 14) (size 15 to 20)
#    0.000    2.000    1.250    2.625    1.750    5.500 
#    0.000    1.250    0.000    0.000    0.000    0.000 
#    0.000    0.000    0.000    0.000    0.000    0.000 
#
# Total GULP energy -357283.554679 kJ/mol
# GULP energy per Si atom -5582.555542 kJ/mol
# Density = 1.893879 g / cm^3
# Si number density = 18.981997 Si / 1000 Ang^3
#
#
#
# Elastic Constant Matrix: (Units=GPa)
#
#
# Indices 1 2 3 4 5 6 
#
# 1 88.8929 25.3243 45.7543 0.0000 0.0000 0.0000
# 2 25.3243 76.0154 46.6902 0.0000 0.0000 0.0000
# 3 45.7543 46.6902 93.7301 0.0000 0.0000 0.0000
# 4 0.0000 0.0000 0.0000 27.5395 0.0000 0.0000
# 5 0.0000 0.0000 0.0000 0.0000 35.8001 0.0000
# 6 0.0000 0.0000 0.0000 0.0000 0.0000 17.2075
#
#
#
# Elastic Compliance Matrix: (Units=1/GPa)
#
#
# Indices 1 2 3 4 5 6 
#
# 1 0.015052 -0.000723 -0.006988 0.000000 0.000000 0.000000
# 2 -0.000723 0.018989 -0.009107 0.000000 0.000000 0.000000
# 3 -0.006988 -0.009107 0.018616 0.000000 0.000000 0.000000
# 4 0.000000 0.000000 0.000000 0.036311 0.000000 0.000000
# 5 0.000000 0.000000 0.000000 0.000000 0.027933 0.000000
# 6 0.000000 0.000000 0.000000 0.000000 0.000000 0.058114
#
#
# Mechanical properties :
#
#
# Convention : Reuss Voigt Hill
#
# Bulk Modulus (GPa) = 52.56509 54.90846 53.73678
# Shear Modulus (GPa) = 23.25677 25.50073 24.37875
#
# Velocity S-wave (km/s) = 3.50409 3.66924 3.58761
# Velocity P-wave (km/s) = 6.64257 6.85131 6.74775
#
# Compressibility (1/GPa) = 0.01902403
#
# Stress axis : x y z
#
# Youngs Moduli (GPa) = 66.43641 52.66103 53.71647
#
# Poissons Ratio (x) = 0.03805 0.37535
# Poissons Ratio (y) = 0.04800 0.48917
# Poissons Ratio (z) = 0.46424 0.47956
#
# Static dielectric constant tensor:
#      x y z
#    x 1.660710 0.000000 0.000000 
#    y 0.000000 1.661120 0.000000 
#    z 0.000000 0.000000 1.640740 
# 
# From -- ./inp_files/9939.got.cif
#   From: 2010.05.17/outbox.cif.g08.bks.cpg/sg58_5_cif.got.tgz:9939.got - 2010.06.03 14:20:14.
