data_PCOD9444874
_publ_section_title
;
Structure prediction by ZEFSAII (Michael W. Deem and Ramdas Pophale) SiO2 
 PCOD9444874
Probable space group: P N N M
;
_chemical_formula_sum "Si O2"
_cell_formula_units_Z 64
_cell_length_a 18.131498
_cell_length_b 5.473765
_cell_length_c 29.442446
_cell_angle_alpha 90.000000
_cell_angle_beta 90.000000
_cell_angle_gamma 90.000000
_cell_volume 2922.090901
_symmetry_space_group_name_H-M "P N N M"
_symmetry_group_IT_number 58
_symmetry_cell_setting 'orthorhombic'
loop_
_space_group_symop_operation_xyz
x,y,z
-x,-y,z
1/2+x,1/2-y,1/2-z
1/2-x,1/2+y,1/2-z
-x,-y,-z
x,y,-z
1/2-x,1/2+y,1/2+z
1/2+x,1/2-y,1/2+z
loop_
_atom_site_type_symbol
_atom_site_label
_atom_site_fract_x
_atom_site_fract_y
_atom_site_fract_z
Si Si1 0.695580 0.739783 0.416685
Si Si2 0.419256 0.617327 0.550015
Si Si3 0.674594 0.530026 0.950894
Si Si4 0.356088 0.878459 0.360295
Si Si5 0.700491 0.851598 0.869774
Si Si6 0.422026 0.865513 0.177861
Si Si7 0.047017 0.247025 0.225208
Si Si8 0.955422 0.755625 0.577368
O O1 0.642061 0.594364 0.449186
O O2 0.758269 0.572478 0.394766
O O3 0.740878 0.949875 0.442447
O O4 0.647693 0.837961 0.374102
O O5 0.500000 0.500000 0.556011
O O6 0.418187 0.740460 0.500000
O O7 0.394982 0.769223 0.594358
O O8 0.656648 0.705745 0.908774
O O9 0.621193 0.295233 0.948867
O O10 0.667167 0.649029 0.000000
O O11 0.269943 0.808273 0.353899
O O12 0.398196 0.788162 0.316487
O O13 0.644920 0.949277 0.832015
O O14 0.413699 0.726741 0.225347
O O15 0.432543 0.723342 0.130582
O O16 0.500000 0.000000 0.181776
O O17 0.000000 0.500000 0.225237
O O18 0.000000 0.000000 0.218929
O O19 0.000000 0.500000 0.570580
O O20 0.000000 0.000000 0.564465
#
# Coordination Sequence:
#
# PCOD9444874 Si02
#       8
#     8   8   8   8   8   8   8   8
#     4  10  22  40  62  92 131 179 229 283 345 419
#     4  10  22  39  64  95 130 177 228 280 342 417
#     4  11  23  39  64  95 133 183 234 294 354 421
#     4  10  24  41  67  97 140 178 223 291 351 412
#     4  10  22  44  63  95 134 183 229 284 347 420
#     4  10  21  45  70  97 130 178 232 284 341 419
#     4  11  26  46  74 109 139 181 234 286 356 420
#     4  11  23  41  66  95 134 181 231 293 354 416
#
# _framework density 21.902125000000002
#
# number of rings (size 3 to 8) (size 9 to 14) (size 15 to 20)
#    0.000    1.625    1.250    2.625    5.250    7.000 
#    2.250    1.250    0.000    0.375    0.000    0.000 
#    0.000    0.000    0.000    0.000    0.000    0.000 
#
# Total GULP energy -357041.534713 kJ/mol
# GULP energy per Si atom -5578.773980 kJ/mol
# Density = 2.185228 g / cm^3
# Si number density = 21.902125 Si / 1000 Ang^3
#
#
#
# Elastic Constant Matrix: (Units=GPa)
#
#
# Indices 1 2 3 4 5 6 
#
# 1 90.9123 24.7083 58.3974 0.0000 0.0000 0.0000
# 2 24.7083 81.7873 26.3147 0.0000 0.0000 0.0000
# 3 58.3974 26.3147 117.3908 0.0000 0.0000 0.0000
# 4 0.0000 0.0000 0.0000 10.5119 0.0000 0.0000
# 5 0.0000 0.0000 0.0000 0.0000-4437.8640 0.0000
# 6 0.0000 0.0000 0.0000 0.0000 0.0000 31.5423
#
#
#
# Elastic Compliance Matrix: (Units=1/GPa)
#
#
# Indices 1 2 3 4 5 6 
#
# 1 0.016644 -0.002548 -0.007708 0.000000 0.000000 0.000000
# 2 -0.002548 0.013567 -0.001774 0.000000 0.000000 0.000000
# 3 -0.007708 -0.001774 0.012751 0.000000 0.000000 0.000000
# 4 0.000000 0.000000 0.000000 0.095130 0.000000 0.000000
# 5 0.000000 0.000000 0.000000 0.000000 -0.000225 0.000000
# 6 0.000000 0.000000 0.000000 0.000000 0.000000 0.031703
#
#
# Mechanical properties :
#
#
# Convention : Reuss Voigt Hill
#
# Bulk Modulus (GPa) = 52.90608 56.54793 54.72700
# Shear Modulus (GPa) = 25.00871 -867.11728 -421.05428
#
# Velocity S-wave (km/s) = 3.38278 -19.91896 -13.88023
# Velocity P-wave (km/s) = 6.28217 22.43091 15.22629
#
# Compressibility (1/GPa) = 0.01890142
#
# Stress axis : x y z
#
# Youngs Moduli (GPa) = 60.08333 73.70666 78.42652
#
# Poissons Ratio (x) = 0.18780 0.60454
# Poissons Ratio (y) = 0.15309 0.13911
# Poissons Ratio (z) = 0.46314 0.13074
#
# Static dielectric constant tensor:
#      x y z
#    x 1.923650 0.000000 0.000000 
#    y 0.000000 1.781860 0.000000 
#    z 0.000000 0.000000 1.824620 
# 
# From -- ./inp_files/35147.got.cif
#   From: 2010.05.17/outbox.cif.g08.bks.cpg/sg58_18_cif.got.tgz:35147.got - 2010.06.03 14:20:14.
