data_PCOD9444878
_publ_section_title
;
Structure prediction by ZEFSAII (Michael W. Deem and Ramdas Pophale) SiO2 
 PCOD9444878
Probable space group: P N N M
;
_chemical_formula_sum "Si O2"
_cell_formula_units_Z 64
_cell_length_a 14.789382
_cell_length_b 8.759275
_cell_length_c 25.382936
_cell_angle_alpha 90.000000
_cell_angle_beta 90.000000
_cell_angle_gamma 90.000000
_cell_volume 3288.213763
_symmetry_space_group_name_H-M "P N N M"
_symmetry_group_IT_number 58
_symmetry_cell_setting 'orthorhombic'
loop_
_space_group_symop_operation_xyz
x,y,z
-x,-y,z
1/2+x,1/2-y,1/2-z
1/2-x,1/2+y,1/2-z
-x,-y,-z
x,y,-z
1/2-x,1/2+y,1/2+z
1/2+x,1/2-y,1/2+z
loop_
_atom_site_type_symbol
_atom_site_label
_atom_site_fract_x
_atom_site_fract_y
_atom_site_fract_z
Si Si1 0.822265 0.129315 0.562111
Si Si2 0.860577 0.854627 0.639638
Si Si3 0.516181 0.679955 0.669651
Si Si4 0.793311 0.114289 0.154726
Si Si5 0.255508 0.458208 0.224478
Si Si6 0.541008 0.832125 0.877117
Si Si7 0.078107 0.626122 0.737617
Si Si8 0.320130 0.738119 0.363473
O O1 0.818902 0.110430 0.500000
O O2 0.726780 0.180605 0.587271
O O3 0.896059 0.257448 0.578791
O O4 0.849635 0.974505 0.592379
O O5 0.790498 0.714044 0.635927
O O6 0.959151 0.781515 0.637627
O O7 0.830966 0.946438 0.692504
O O8 0.500000 0.500000 0.672036
O O9 0.612696 0.698935 0.641242
O O10 0.532227 0.742435 0.728182
O O11 0.428390 0.753327 0.642937
O O12 0.787205 0.095720 0.218276
O O13 0.797495 0.941562 0.134101
O O14 0.166813 0.561454 0.234201
O O15 0.222264 0.318551 0.188254
O O16 0.598349 0.839919 0.823074
O O17 0.500000 0.000000 0.889224
O O18 0.000000 0.500000 0.735407
#
# Coordination Sequence:
#
# PCOD9444878 Si02
#       8
#     8   8   8   8   8   8   8   8
#     4  11  26  48  70  87 113 162 222 283 335 376
#     4  11  24  39  60  89 127 167 212 269 310 382
#     4  10  22  33  57  90 129 175 208 244 305 378
#     4  11  21  36  57  93 134 170 204 247 311 389
#     4  11  21  34  55  89 132 178 210 244 301 377
#     4  11  25  41  62  95 133 164 213 263 317 387
#     4  11  20  35  55  88 134 177 203 240 298 378
#     4  10  22  40  60  90 124 163 211 265 311 374
#
# _framework density 19.463453999999999
#
# number of rings (size 3 to 8) (size 9 to 14) (size 15 to 20)
#    0.000    1.250    2.500    4.125    7.000    1.250 
#    0.000    1.875    0.000    4.875    0.000    0.000 
#    0.000    0.000    0.000    0.000    0.000    0.000 
#
# Total GULP energy -357805.452804 kJ/mol
# GULP energy per Si atom -5590.710200 kJ/mol
# Density = 1.941915 g / cm^3
# Si number density = 19.463454 Si / 1000 Ang^3
#
#
#
# Elastic Constant Matrix: (Units=GPa)
#
#
# Indices 1 2 3 4 5 6 
#
# 1 110.4761 26.1402 27.7294 0.0000 0.0000 0.0000
# 2 26.1402 68.1383 32.1131 0.0000 0.0000 0.0000
# 3 27.7294 32.1131 97.6311 0.0000 0.0000 0.0000
# 4 0.0000 0.0000 0.0000 8.6140 0.0000 0.0000
# 5 0.0000 0.0000 0.0000 0.0000 6.9631 0.0000
# 6 0.0000 0.0000 0.0000 0.0000 0.0000 36.9991
#
#
#
# Elastic Compliance Matrix: (Units=1/GPa)
#
#
# Indices 1 2 3 4 5 6 
#
# 1 0.010249 -0.003030 -0.001914 0.000000 0.000000 0.000000
# 2 -0.003030 0.018264 -0.005147 0.000000 0.000000 0.000000
# 3 -0.001914 -0.005147 0.012479 0.000000 0.000000 0.000000
# 4 0.000000 0.000000 0.000000 0.116091 0.000000 0.000000
# 5 0.000000 0.000000 0.000000 0.000000 0.143614 0.000000
# 6 0.000000 0.000000 0.000000 0.000000 0.000000 0.027028
#
#
# Mechanical properties :
#
#
# Convention : Reuss Voigt Hill
#
# Bulk Modulus (GPa) = 48.05299 49.80119 48.92709
# Shear Modulus (GPa) = 14.09069 23.19942 18.64506
#
# Velocity S-wave (km/s) = 2.69356 3.45621 3.09844
# Velocity P-wave (km/s) = 5.86653 6.44746 6.16384
#
# Compressibility (1/GPa) = 0.02081036
#
# Stress axis : x y z
#
# Youngs Moduli (GPa) = 97.56944 54.75240 80.13244
#
# Poissons Ratio (x) = 0.16588 0.15341
# Poissons Ratio (y) = 0.29560 0.41244
# Poissons Ratio (z) = 0.18679 0.28181
#
# Static dielectric constant tensor:
#      x y z
#    x 1.737260 0.000000 0.000000 
#    y 0.000000 1.733770 0.000000 
#    z 0.000000 0.000000 1.634090 
# 
# From -- ./inp_files/32222.got.cif
#   From: 2010.05.17/outbox.cif.g08.bks.cpg/sg58_17_cif.got.tgz:32222.got - 2010.06.03 14:20:14.
