data_PCOD9444820
_publ_section_title
;
Structure prediction by ZEFSAII (Michael W. Deem and Ramdas Pophale) SiO2 
 PCOD9444820
Probable space group: P N N M
;
_chemical_formula_sum "Si O2"
_cell_formula_units_Z 48
_cell_length_a 18.794258
_cell_length_b 15.494233
_cell_length_c 7.855600
_cell_angle_alpha 90.000000
_cell_angle_beta 90.000000
_cell_angle_gamma 90.000000
_cell_volume 2287.571243
_symmetry_space_group_name_H-M "P N N M"
_symmetry_group_IT_number 58
_symmetry_cell_setting 'orthorhombic'
loop_
_space_group_symop_operation_xyz
x,y,z
-x,-y,z
1/2+x,1/2-y,1/2-z
1/2-x,1/2+y,1/2-z
-x,-y,-z
x,y,-z
1/2-x,1/2+y,1/2+z
1/2+x,1/2-y,1/2+z
loop_
_atom_site_type_symbol
_atom_site_label
_atom_site_fract_x
_atom_site_fract_y
_atom_site_fract_z
Si Si1 0.830790 0.862701 0.203728
Si Si2 0.509409 0.861787 0.500000
Si Si3 0.265591 0.970028 0.203993
Si Si4 0.620239 0.019308 0.500000
Si Si5 0.218548 0.775901 0.196301
Si Si6 0.008873 0.099528 0.793904
Si Si7 0.068677 0.740383 0.315614
O O1 0.787341 0.784080 0.283698
O O2 0.912669 0.868667 0.256994
O O3 0.790849 0.953455 0.237132
O O4 0.829897 0.850360 0.000000
O O5 0.429105 0.895864 0.500000
O O6 0.527054 0.807151 0.333344
O O7 0.565121 0.940494 0.500000
O O8 0.331280 0.984341 0.331347
O O9 0.234843 0.874728 0.243660
O O10 0.282836 0.971782 0.000000
O O11 0.153417 0.733412 0.296651
O O12 0.195163 0.776687 0.000000
O O13 0.950410 0.159350 0.708380
O O14 0.002202 0.106391 0.000000
O O15 0.000000 0.000000 0.749344
O O16 0.046075 0.708668 0.500000
#
# Coordination Sequence:
#
# PCOD9444820 Si02
#       7
#     8   4   8   4   8   8   8
#     4  10  22  39  65  98 132 173 220 271 329 397
#     4  11  26  48  65  98 132 178 231 277 341 402
#     4  10  24  43  66 100 136 168 224 278 335 399
#     4  11  26  44  74  92 131 182 222 283 342 399
#     4  11  23  41  65  94 132 175 218 275 333 394
#     4  10  21  41  67  96 139 181 216 271 339 402
#     4  12  25  42  68  97 137 178 228 277 333 407
#
# _framework density 20.982952999999998
#
# number of rings (size 3 to 8) (size 9 to 14) (size 15 to 20)
#    0.000    1.333    1.667    2.500    5.833    6.333 
#    0.000    1.667    0.000    0.000    0.000    0.000 
#    0.000    0.000    0.000    0.000    0.000    0.000 
#
# Total GULP energy -268518.133349 kJ/mol
# GULP energy per Si atom -5594.127778 kJ/mol
# Density = 2.093519 g / cm^3
# Si number density = 20.982953 Si / 1000 Ang^3
#
#
#
# Elastic Constant Matrix: (Units=GPa)
#
#
# Indices 1 2 3 4 5 6 
#
# 1 64.0663 -11.6303 10.0424 0.0000 0.0000 0.0000
# 2 -11.6303 60.1632 4.4789 0.0000 0.0000 0.0000
# 3 10.0424 4.4789 73.8391 0.0000 0.0000 0.0000
# 4 0.0000 0.0000 0.0000 -7.7998 0.0000 0.0000
# 5 0.0000 0.0000 0.0000 0.0000 21.4142 0.0000
# 6 0.0000 0.0000 0.0000 0.0000 0.0000 31.2010
#
#
#
# Elastic Compliance Matrix: (Units=1/GPa)
#
#
# Indices 1 2 3 4 5 6 
#
# 1 0.016612 0.003395 -0.002465 0.000000 0.000000 0.000000
# 2 0.003395 0.017391 -0.001517 0.000000 0.000000 0.000000
# 3 -0.002465 -0.001517 0.013970 0.000000 0.000000 0.000000
# 4 0.000000 0.000000 0.000000 -0.128209 0.000000 0.000000
# 5 0.000000 0.000000 0.000000 0.000000 0.046698 0.000000
# 6 0.000000 0.000000 0.000000 0.000000 0.000000 0.032050
#
#
# Mechanical properties :
#
#
# Convention : Reuss Voigt Hill
#
# Bulk Modulus (GPa) = 21.36825 22.65006 22.00915
# Shear Modulus (GPa) = 327.12270 21.97493 174.54881
#
# Velocity S-wave (km/s) = 12.49951 3.23967 9.13053
# Velocity P-wave (km/s) = 14.78251 4.98116 11.03029
#
# Compressibility (1/GPa) = 0.04679841
#
# Stress axis : x y z
#
# Youngs Moduli (GPa) = 60.19917 57.50226 71.58087
#
# Poissons Ratio (x) = -0.19521 0.17646
# Poissons Ratio (y) = -0.20436 0.10856
# Poissons Ratio (z) = 0.14840 0.08721
#
# Static dielectric constant tensor:
#      x y z
#    x 1.717430 0.000000 0.000000 
#    y 0.000000 1.776770 0.000000 
#    z 0.000000 0.000000 1.761780 
# 
# From -- ./inp_files/7763.got.cif
#   From: 2010.05.17/outbox.cif.g08.bks.cpg/sg58_4_cif.got.tgz:7763.got - 2010.06.03 14:20:14.
