data_PCOD9444587
_publ_section_title
;
Structure prediction by ZEFSAII (Michael W. Deem and Ramdas Pophale) SiO2 
 PCOD9444587
Probable space group: P N N M
;
_chemical_formula_sum "Si O2"
_cell_formula_units_Z 48
_cell_length_a 28.236324
_cell_length_b 9.833461
_cell_length_c 8.003093
_cell_angle_alpha 90.000000
_cell_angle_beta 90.000000
_cell_angle_gamma 90.000000
_cell_volume 2222.145132
_symmetry_space_group_name_H-M "P N N M"
_symmetry_group_IT_number 58
_symmetry_cell_setting 'orthorhombic'
loop_
_space_group_symop_operation_xyz
x,y,z
-x,-y,z
1/2+x,1/2-y,1/2-z
1/2-x,1/2+y,1/2-z
-x,-y,-z
x,y,-z
1/2-x,1/2+y,1/2+z
1/2+x,1/2-y,1/2+z
loop_
_atom_site_type_symbol
_atom_site_label
_atom_site_fract_x
_atom_site_fract_y
_atom_site_fract_z
Si Si1 0.455666 0.897822 0.000000
Si Si2 0.707371 0.272710 0.699518
Si Si3 0.457082 0.600289 0.000000
Si Si4 0.126531 0.740822 0.801485
Si Si5 0.885702 0.950275 0.799398
Si Si6 0.206515 0.537910 0.198565
Si Si7 0.056690 0.518343 0.818648
O O1 0.476862 0.751118 0.000000
O O2 0.426716 0.925826 0.832833
O O3 0.500000 0.000000 0.000000
O O4 0.716390 0.269725 0.500000
O O5 0.656576 0.343285 0.724021
O O6 0.746386 0.373591 0.775566
O O7 0.709708 0.116971 0.764240
O O8 0.500000 0.500000 0.000000
O O9 0.426842 0.584333 0.830686
O O10 0.164079 0.632476 0.731160
O O11 0.074931 0.670570 0.782161
O O12 0.129829 0.896186 0.746876
O O13 0.135434 0.748479 0.000000
O O14 0.898171 0.951563 0.000000
O O15 0.198075 0.522786 0.000000
O O16 0.000000 0.500000 0.829236
O O17 0.076572 0.479183 0.000000
#
# Coordination Sequence:
#
# PCOD9444587 Si02
#       7
#     4   8   4   8   8   8   8
#     4  10  24  42  64  92 128 166 218 266 324 387
#     4  10  22  41  62  94 128 168 218 266 331 392
#     4  12  30  46  66 104 136 172 226 280 337 403
#     4   9  19  38  64  95 123 170 221 263 331 389
#     4  10  24  46  70  93 134 177 217 276 335 400
#     4  10  21  38  65  93 132 171 217 275 325 398
#     4   9  19  36  63  91 123 164 216 267 316 384
#
# _framework density 21.600750000000001
#
# number of rings (size 3 to 8) (size 9 to 14) (size 15 to 20)
#    0.000    2.167    0.000    1.000    8.167    3.000 
#    3.000    0.000    0.000    0.000    0.000    0.000 
#    0.000    0.000    0.000    0.000    0.000    0.000 
#
# Total GULP energy -267721.389733 kJ/mol
# GULP energy per Si atom -5577.528953 kJ/mol
# Density = 2.155159 g / cm^3
# Si number density = 21.600750 Si / 1000 Ang^3
#
#
#
# Elastic Constant Matrix: (Units=GPa)
#
#
# Indices 1 2 3 4 5 6 
#
# 1 91.4044 55.6515 25.5307 0.0000 0.0000 0.0000
# 2 55.6515 206.6406 34.7557 0.0000 0.0000 0.0000
# 3 25.5307 34.7557 82.7909 0.0000 0.0000 0.0000
# 4 0.0000 0.0000 0.0000 76.4030 0.0000 0.0000
# 5 0.0000 0.0000 0.0000 0.0000 -42.0309 0.0000
# 6 0.0000 0.0000 0.0000 0.0000 0.0000 34.8924
#
#
#
# Elastic Compliance Matrix: (Units=1/GPa)
#
#
# Indices 1 2 3 4 5 6 
#
# 1 0.013695 -0.003204 -0.002878 0.000000 0.000000 0.000000
# 2 -0.003204 0.005957 -0.001513 0.000000 0.000000 0.000000
# 3 -0.002878 -0.001513 0.013601 0.000000 0.000000 0.000000
# 4 0.000000 0.000000 0.000000 0.013088 0.000000 0.000000
# 5 0.000000 0.000000 0.000000 0.000000 -0.023792 0.000000
# 6 0.000000 0.000000 0.000000 0.000000 0.000000 0.028660
#
#
# Mechanical properties :
#
#
# Convention : Reuss Voigt Hill
#
# Bulk Modulus (GPa) = 55.36108 68.07909 61.72008
# Shear Modulus (GPa) = 69.04187 31.51276 50.27732
#
# Velocity S-wave (km/s) = 5.65969 3.82366 4.82973
# Velocity P-wave (km/s) = 8.27009 7.14698 7.72896
#
# Compressibility (1/GPa) = 0.01806323
#
# Stress axis : x y z
#
# Youngs Moduli (GPa) = 73.01829 167.87912 73.52340
#
# Poissons Ratio (x) = 0.53793 0.21161
# Poissons Ratio (y) = 0.23397 0.11120
# Poissons Ratio (z) = 0.21016 0.25392
#
# Static dielectric constant tensor:
#      x y z
#    x 1.770870 0.000000 0.000000 
#    y 0.000000 1.791920 0.000000 
#    z 0.000000 0.000000 1.865330 
# 
# From -- ./inp_files/10766.got.cif
#   From: 2010.05.17/outbox.cif.g08.bks.cpg/sg58_6_cif.got.tgz:10766.got - 2010.06.03 14:20:14.
