data_PCOD9444095
_publ_section_title
;
Structure prediction by ZEFSAII (Michael W. Deem and Ramdas Pophale) SiO2 
 PCOD9444095
Probable space group: P N N M
;
_chemical_formula_sum "Si O2"
_cell_formula_units_Z 40
_cell_length_a 28.205262
_cell_length_b 5.192967
_cell_length_c 14.499545
_cell_angle_alpha 90.000000
_cell_angle_beta 90.000000
_cell_angle_gamma 90.000000
_cell_volume 2123.733781
_symmetry_space_group_name_H-M "P N N M"
_symmetry_group_IT_number 58
_symmetry_cell_setting 'orthorhombic'
loop_
_space_group_symop_operation_xyz
x,y,z
-x,-y,z
1/2+x,1/2-y,1/2-z
1/2-x,1/2+y,1/2-z
-x,-y,-z
x,y,-z
1/2-x,1/2+y,1/2+z
1/2+x,1/2-y,1/2+z
loop_
_atom_site_type_symbol
_atom_site_label
_atom_site_fract_x
_atom_site_fract_y
_atom_site_fract_z
Si Si1 0.221418 0.488877 0.892942
Si Si2 0.217474 0.497850 0.607438
Si Si3 0.055307 0.487020 0.162308
Si Si4 0.105727 0.994282 0.100659
Si Si5 0.856654 0.662648 0.756724
O O1 0.257650 0.263390 0.859151
O O2 0.173272 0.480633 0.836370
O O3 0.244821 0.767205 0.886338
O O4 0.212058 0.431966 0.000000
O O5 0.204641 0.535200 0.500000
O O6 0.173455 0.392323 0.666423
O O7 0.070154 0.238605 0.102822
O O8 0.090069 0.444689 0.250107
O O9 0.000000 0.500000 0.180909
O O10 0.074609 0.742338 0.114377
O O11 0.137270 0.058820 0.192149
O O12 0.130266 0.984079 0.000000
#
# Coordination Sequence:
#
# PCOD9444095 Si02
#       5
#     8   8   8   8   8
#     4  10  21  35  53  81 111 143 178 219 268 328
#     4  10  22  37  56  79 109 143 183 225 269 323
#     4  10  23  37  54  80 111 148 182 222 266 321
#     4  10  22  35  53  79 108 142 177 214 264 320
#     4  10  23  35  58  79 111 144 183 221 275 315
#
# _framework density 18.834752999999999
#
# number of rings (size 3 to 8) (size 9 to 14) (size 15 to 20)
#    1.200    0.800    0.000    3.000    5.600    2.400 
#    0.000    0.000    0.000    0.600    0.000    1.400 
#    0.000    0.000    0.000    0.000    0.000    0.000 
#
# Total GULP energy -222771.682928 kJ/mol
# GULP energy per Si atom -5569.292073 kJ/mol
# Density = 1.879188 g / cm^3
# Si number density = 18.834753 Si / 1000 Ang^3
#
#
#
# Elastic Constant Matrix: (Units=GPa)
#
#
# Indices 1 2 3 4 5 6 
#
# 1 85.6488 10.9908 29.0023 0.0000 0.0000 0.0000
# 2 10.9908 106.4577 -0.2498 0.0000 0.0000 0.0000
# 3 29.0023 -0.2498 51.3906 0.0000 0.0000 0.0000
# 4 0.0000 0.0000 0.0000 -0.4198 0.0000 0.0000
# 5 0.0000 0.0000 0.0000 0.0000 9.2695 0.0000
# 6 0.0000 0.0000 0.0000 0.0000 0.0000 17.4508
#
#
#
# Elastic Compliance Matrix: (Units=1/GPa)
#
#
# Indices 1 2 3 4 5 6 
#
# 1 0.014681 -0.001535 -0.008292 0.000000 0.000000 0.000000
# 2 -0.001535 0.009554 0.000913 0.000000 0.000000 0.000000
# 3 -0.008292 0.000913 0.024143 0.000000 0.000000 0.000000
# 4 0.000000 0.000000 0.000000 -2.381954 0.000000 0.000000
# 5 0.000000 0.000000 0.000000 0.000000 0.107880 0.000000
# 6 0.000000 0.000000 0.000000 0.000000 0.000000 0.057304
#
#
# Mechanical properties :
#
#
# Convention : Reuss Voigt Hill
#
# Bulk Modulus (GPa) = 32.73520 35.88708 34.31114
# Shear Modulus (GPa) = -2.33603 18.84370 8.25383
#
# Velocity S-wave (km/s) = -1.11489 3.16646 2.09565
# Velocity P-wave (km/s) = 3.96997 5.69769 4.91041
#
# Compressibility (1/GPa) = 0.03054815
#
# Stress axis : x y z
#
# Youngs Moduli (GPa) = 68.11734 104.66789 41.41974
#
# Poissons Ratio (x) = 0.16068 0.34347
# Poissons Ratio (y) = 0.10457 -0.03781
# Poissons Ratio (z) = 0.56486 -0.09554
#
# Static dielectric constant tensor:
#      x y z
#    x 1.652900 0.000000 0.000000 
#    y 0.000000 1.707840 0.000000 
#    z 0.000000 0.000000 1.678540 
# 
# From -- ./inp_files/27693.got.cif
#   From: 2010.05.17/outbox.cif.g08.bks.cpg/sg58_14_cif.got.tgz:27693.got - 2010.06.03 14:20:14.
