data_PCOD9444359
_publ_section_title
;
Structure prediction by ZEFSAII (Michael W. Deem and Ramdas Pophale) SiO2 
 PCOD9444359
Probable space group: P N N M
;
_chemical_formula_sum "Si O2"
_cell_formula_units_Z 56
_cell_length_a 11.357482
_cell_length_b 15.452776
_cell_length_c 18.709851
_cell_angle_alpha 90.000000
_cell_angle_beta 90.000000
_cell_angle_gamma 90.000000
_cell_volume 3283.665389
_symmetry_space_group_name_H-M "P N N M"
_symmetry_group_IT_number 58
_symmetry_cell_setting 'orthorhombic'
loop_
_space_group_symop_operation_xyz
x,y,z
-x,-y,z
1/2+x,1/2-y,1/2-z
1/2-x,1/2+y,1/2-z
-x,-y,-z
x,y,-z
1/2-x,1/2+y,1/2+z
1/2+x,1/2-y,1/2+z
loop_
_atom_site_type_symbol
_atom_site_label
_atom_site_fract_x
_atom_site_fract_y
_atom_site_fract_z
Si Si1 0.767198 0.343839 0.842531
Si Si2 0.736256 0.156978 0.338687
Si Si3 0.502813 0.102058 0.585117
Si Si4 0.144978 0.338775 0.320525
Si Si5 0.860053 0.001077 0.417819
Si Si6 0.142480 0.500759 0.581202
Si Si7 0.640573 0.839456 0.182642
O O1 0.699940 0.252605 0.844199
O O2 0.685702 0.417976 0.875406
O O3 0.807375 0.360529 0.760860
O O4 0.886136 0.350028 0.888379
O O5 0.614472 0.150206 0.381684
O O6 0.701320 0.139227 0.256398
O O7 0.816643 0.084262 0.374634
O O8 0.802155 0.248749 0.340919
O O9 0.509745 0.101961 0.500000
O O10 0.500000 0.000000 0.608670
O O11 0.175467 0.413930 0.376592
O O12 0.002316 0.333259 0.313618
O O13 0.813569 0.001739 0.500000
O O14 0.000000 0.000000 0.421129
O O15 0.187092 0.503416 0.500000
O O16 0.173554 0.584942 0.627426
O O17 0.000000 0.500000 0.578023
#
# Coordination Sequence:
#
# PCOD9444359 Si02
#       7
#     8   8   8   8   8   8   8
#     4  11  21  36  58  84 116 151 192 236 286 347
#     4  11  21  36  58  84 116 151 192 236 286 347
#     4  11  22  36  58  87 117 153 190 230 288 351
#     4  10  21  37  59  84 113 148 194 241 284 336
#     4  11  23  37  55  85 121 153 186 238 302 353
#     4   9  19  34  54  79 106 143 185 230 281 329
#     4  10  21  37  59  84 113 148 194 241 284 336
#
# _framework density 17.054112
#
# number of rings (size 3 to 8) (size 9 to 14) (size 15 to 20)
#    0.000    1.571    2.857    2.571    0.000    2.286 
#    0.000    2.857    0.000    0.000    0.000    2.000 
#    0.000    0.000    0.000    0.000    0.000    0.000 
#
# Total GULP energy -312579.354271 kJ/mol
# GULP energy per Si atom -5581.774183 kJ/mol
# Density = 1.701530 g / cm^3
# Si number density = 17.054112 Si / 1000 Ang^3
#
#
#
# Elastic Constant Matrix: (Units=GPa)
#
#
# Indices 1 2 3 4 5 6 
#
# 1 69.9244 32.8794 17.9330 0.0000 0.0000 0.0000
# 2 32.8794 107.2978 62.0326 0.0000 0.0000 0.0000
# 3 17.9330 62.0326 68.1348 0.0000 0.0000 0.0000
# 4 0.0000 0.0000 0.0000 14.8444 0.0000 0.0000
# 5 0.0000 0.0000 0.0000 0.0000 -287.9024 0.0000
# 6 0.0000 0.0000 0.0000 0.0000 0.0000 10.8380
#
#
#
# Elastic Compliance Matrix: (Units=1/GPa)
#
#
# Indices 1 2 3 4 5 6 
#
# 1 0.016719 -0.005445 0.000557 0.000000 0.000000 0.000000
# 2 -0.005445 0.021451 -0.018096 0.000000 0.000000 0.000000
# 3 0.000557 -0.018096 0.031006 0.000000 0.000000 0.000000
# 4 0.000000 0.000000 0.000000 0.067365 0.000000 0.000000
# 5 0.000000 0.000000 0.000000 0.000000 -0.003473 0.000000
# 6 0.000000 0.000000 0.000000 0.000000 0.000000 0.092268
#
#
# Mechanical properties :
#
#
# Convention : Reuss Voigt Hill
#
# Bulk Modulus (GPa) = 43.09161 52.33856 47.71509
# Shear Modulus (GPa) = 17.91867 -43.60985 -12.84559
#
# Velocity S-wave (km/s) = 3.24496 -5.06231 -2.74747
# Velocity P-wave (km/s) = 6.27392 1.84742 4.23964
#
# Compressibility (1/GPa) = 0.02320637
#
# Stress axis : x y z
#
# Youngs Moduli (GPa) = 59.81330 46.61892 32.25225
#
# Poissons Ratio (x) = 0.25386 -0.01797
# Poissons Ratio (y) = 0.32570 0.58364
# Poissons Ratio (z) = -0.03333 0.84363
#
# Static dielectric constant tensor:
#      x y z
#    x 1.569850 0.000000 0.000000 
#    y 0.000000 1.554950 0.000000 
#    z 0.000000 0.000000 1.570910 
# 
# From -- ./inp_files/21297.got.cif
#   From: 2010.05.17/outbox.cif.g08.bks.cpg/sg58_11_cif.got.tgz:21297.got - 2010.06.03 14:20:14.
