data_PCOD9444766
_publ_section_title
;
Structure prediction by ZEFSAII (Michael W. Deem and Ramdas Pophale) SiO2 
 PCOD9444766
Probable space group: P N N M
;
_chemical_formula_sum "Si O2"
_cell_formula_units_Z 58
_cell_length_a 12.902674
_cell_length_b 9.195704
_cell_length_c 20.794263
_cell_angle_alpha 90.000000
_cell_angle_beta 90.000000
_cell_angle_gamma 90.000000
_cell_volume 2467.222065
_symmetry_space_group_name_H-M "P N N M"
_symmetry_group_IT_number 58
_symmetry_cell_setting 'orthorhombic'
loop_
_space_group_symop_operation_xyz
x,y,z
-x,-y,z
1/2+x,1/2-y,1/2-z
1/2-x,1/2+y,1/2-z
-x,-y,-z
x,y,-z
1/2-x,1/2+y,1/2+z
1/2+x,1/2-y,1/2+z
loop_
_atom_site_type_symbol
_atom_site_label
_atom_site_fract_x
_atom_site_fract_y
_atom_site_fract_z
Si Si1 0.236053 0.369908 0.828609
Si Si2 0.125862 0.822199 0.794145
Si Si3 0.443157 0.859120 0.239092
Si Si4 0.000000 0.000000 0.000000
Si Si5 0.693662 0.318449 0.863549
Si Si6 0.665619 0.431387 0.382909
Si Si7 0.500223 0.657790 0.925992
Si Si8 0.387055 0.072998 0.925261
O O1 0.311881 0.312354 0.772635
O O2 0.139879 0.429971 0.786694
O O3 0.286556 0.508712 0.862099
O O4 0.187750 0.239733 0.870904
O O5 0.193578 0.746903 0.850498
O O6 0.020730 0.739122 0.780251
O O7 0.122146 0.987639 0.819543
O O8 0.381142 0.751268 0.191595
O O9 0.500000 0.000000 0.208311
O O10 0.911148 0.963959 0.057580
O O11 0.618515 0.287480 0.923661
O O12 0.785265 0.487869 0.391575
O O13 0.500000 0.500000 0.894588
O O14 0.582131 0.769009 0.896875
O O15 0.531476 0.642971 0.000000
O O16 0.500000 0.000000 0.926436
O O17 0.356050 0.087017 0.000000
#
# Coordination Sequence:
#
# PCOD9444766 Si02
#       8
#     8   8   8   2   8   8   8   8
#     4  11  25  44  68 109 149 196 247 329 401 475
#     4  11  24  44  70 104 144 197 249 324 391 468
#     4  11  24  43  69  98 150 192 246 310 387 480
#     4  12  28  52  78 114 146 240 276 330 388 470
#     4  11  24  40  68 102 139 187 242 297 394 470
#     4  12  25  46  76 106 154 197 279 322 389 498
#     4  10  22  39  60  93 136 174 222 289 373 439
#     4  10  21  40  66  99 135 179 234 315 383 442
#
# _framework density 23.508220999999999
#
# number of rings (size 3 to 8) (size 9 to 14) (size 15 to 20)
#    0.000    1.103    2.069    4.138    5.793    1.655 
#    2.483    0.000    0.000    0.828    0.000    0.000 
#    0.000    0.000    0.000    0.000    0.000    0.000 
#
# Total GULP energy -323319.080546 kJ/mol
# GULP energy per Si atom -5574.466906 kJ/mol
# Density = 2.345472 g / cm^3
# Si number density = 23.508221 Si / 1000 Ang^3
#
#
#
# Elastic Constant Matrix: (Units=GPa)
#
#
# Indices 1 2 3 4 5 6 
#
# 1 136.5833 40.4104 32.5914 0.0000 0.0000 0.0000
# 2 40.4104 123.0582 24.6177 0.0000 0.0000 0.0000
# 3 32.5914 24.6177 76.1073 0.0000 0.0000 0.0000
# 4 0.0000 0.0000 0.0000 18.1809 0.0000 0.0000
# 5 0.0000 0.0000 0.0000 0.0000 40.5335 0.0000
# 6 0.0000 0.0000 0.0000 0.0000 0.0000 41.2681
#
#
#
# Elastic Compliance Matrix: (Units=1/GPa)
#
#
# Indices 1 2 3 4 5 6 
#
# 1 0.008705 -0.002259 -0.002997 0.000000 0.000000 0.000000
# 2 -0.002259 0.009275 -0.002033 0.000000 0.000000 0.000000
# 3 -0.002997 -0.002033 0.015080 0.000000 0.000000 0.000000
# 4 0.000000 0.000000 0.000000 0.055003 0.000000 0.000000
# 5 0.000000 0.000000 0.000000 0.000000 0.024671 0.000000
# 6 0.000000 0.000000 0.000000 0.000000 0.000000 0.024232
#
#
# Mechanical properties :
#
#
# Convention : Reuss Voigt Hill
#
# Bulk Modulus (GPa) = 54.10502 58.99867 56.55185
# Shear Modulus (GPa) = 31.70499 35.87178 33.78838
#
# Velocity S-wave (km/s) = 3.67642 3.91055 3.79529
# Velocity P-wave (km/s) = 6.40989 6.74843 6.58134
#
# Compressibility (1/GPa) = 0.01848257
#
# Stress axis : x y z
#
# Youngs Moduli (GPa) = 114.87558 107.82026 66.31196
#
# Poissons Ratio (x) = 0.24357 0.19874
# Poissons Ratio (y) = 0.25951 0.13479
# Poissons Ratio (z) = 0.34429 0.21916
#
# Static dielectric constant tensor:
#      x y z
#    x 1.933170 0.000000 0.000000 
#    y 0.000000 2.057890 0.000000 
#    z 0.000000 0.000000 -0.753250 
# 
# From -- ./inp_files/33597.got.cif
#   From: 2010.05.17/outbox.cif.g08.bks.cpg/sg58_17_cif.got.tgz:33597.got - 2010.06.03 14:20:14.
