data_PCOD9444045
_publ_section_title
;
Structure prediction by ZEFSAII (Michael W. Deem and Ramdas Pophale) SiO2 
 PCOD9444045
Probable space group: P N N M
;
_chemical_formula_sum "Si O2"
_cell_formula_units_Z 58
_cell_length_a 24.719849
_cell_length_b 9.151041
_cell_length_c 13.014065
_cell_angle_alpha 90.000000
_cell_angle_beta 90.000000
_cell_angle_gamma 90.000000
_cell_volume 2943.942249
_symmetry_space_group_name_H-M "P N N M"
_symmetry_group_IT_number 58
_symmetry_cell_setting 'orthorhombic'
loop_
_space_group_symop_operation_xyz
x,y,z
-x,-y,z
1/2+x,1/2-y,1/2-z
1/2-x,1/2+y,1/2-z
-x,-y,-z
x,y,-z
1/2-x,1/2+y,1/2+z
1/2+x,1/2-y,1/2+z
loop_
_atom_site_type_symbol
_atom_site_label
_atom_site_fract_x
_atom_site_fract_y
_atom_site_fract_z
Si Si1 0.204024 0.026604 0.264117
Si Si2 0.900771 0.869618 0.612611
Si Si3 0.473387 0.341415 0.383237
Si Si4 0.272200 0.791697 0.380886
Si Si5 0.123962 0.479511 0.881273
Si Si6 0.500000 0.500000 0.000000
Si Si7 0.965930 0.629044 0.270044
Si Si8 0.346530 0.295734 0.381883
O O1 0.146978 0.077385 0.313846
O O2 0.231673 0.160956 0.202365
O O3 0.238160 0.935324 0.348043
O O4 0.190107 0.904527 0.180243
O O5 0.876022 0.841574 0.500000
O O6 0.929381 0.724470 0.654806
O O7 0.951683 0.977188 0.588427
O O8 0.500000 0.500000 0.372045
O O9 0.486590 0.288888 0.500000
O O10 0.496224 0.236549 0.295797
O O11 0.408719 0.349318 0.376189
O O12 0.259761 0.750497 0.500000
O O13 0.334378 0.846055 0.377687
O O14 0.072963 0.446656 0.812433
O O15 0.152190 0.628712 0.844549
O O16 0.108237 0.504548 0.000000
O O17 0.000000 0.500000 0.322433
O O18 0.329299 0.294632 0.500000
#
# Coordination Sequence:
#
# PCOD9444045 Si02
#       8
#     8   8   8   8   8   2   8   8
#     4  12  23  44  73  92 136 174 227 281 355 406
#     4  10  24  43  66  92 129 177 228 279 342 403
#     4  10  21  32  51  89 128 166 210 251 308 391
#     4  11  25  44  69 102 130 170 231 285 343 409
#     4  10  21  39  60  93 135 169 207 266 328 396
#     4   8  24  44  66  96 130 168 238 280 334 420
#     4  12  22  36  64  92 130 172 216 267 334 397
#     4  10  21  36  59  92 130 169 211 262 328 399
#
# _framework density 19.701474999999999
#
# number of rings (size 3 to 8) (size 9 to 14) (size 15 to 20)
#    0.414    0.966    2.759    2.897    2.897    0.828 
#    0.000    2.069    0.000    0.000    0.000    0.000 
#    0.000    0.000    0.000    0.000    0.000    0.000 
#
# Total GULP energy -323061.793543 kJ/mol
# GULP energy per Si atom -5570.030923 kJ/mol
# Density = 1.965663 g / cm^3
# Si number density = 19.701475 Si / 1000 Ang^3
#
#
#
# Elastic Constant Matrix: (Units=GPa)
#
#
# Indices 1 2 3 4 5 6 
#
# 1 53.2730 18.3834 19.1066 0.0000 0.0000 0.0000
# 2 18.3834 69.5698 23.9366 0.0000 0.0000 0.0000
# 3 19.1066 23.9366 57.0788 0.0000 0.0000 0.0000
# 4 0.0000 0.0000 0.0000 26.0841 0.0000 0.0000
# 5 0.0000 0.0000 0.0000 0.0000 25.4664 0.0000
# 6 0.0000 0.0000 0.0000 0.0000 0.0000 38.1021
#
#
#
# Elastic Compliance Matrix: (Units=1/GPa)
#
#
# Indices 1 2 3 4 5 6 
#
# 1 0.022187 -0.003865 -0.005806 0.000000 0.000000 0.000000
# 2 -0.003865 0.017471 -0.006033 0.000000 0.000000 0.000000
# 3 -0.005806 -0.006033 0.021993 0.000000 0.000000 0.000000
# 4 0.000000 0.000000 0.000000 0.038338 0.000000 0.000000
# 5 0.000000 0.000000 0.000000 0.000000 0.039267 0.000000
# 6 0.000000 0.000000 0.000000 0.000000 0.000000 0.026245
#
#
# Mechanical properties :
#
#
# Convention : Reuss Voigt Hill
#
# Bulk Modulus (GPa) = 33.06518 33.64165 33.35342
# Shear Modulus (GPa) = 24.15560 25.83018 24.99289
#
# Velocity S-wave (km/s) = 3.50534 3.62481 3.56558
# Velocity P-wave (km/s) = 5.76218 5.88488 5.82385
#
# Compressibility (1/GPa) = 0.03024330
#
# Stress axis : x y z
#
# Youngs Moduli (GPa) = 45.07059 57.23736 45.46876
#
# Poissons Ratio (x) = 0.22123 0.26400
# Poissons Ratio (y) = 0.17421 0.27431
# Poissons Ratio (z) = 0.26169 0.34531
#
# Static dielectric constant tensor:
#      x y z
#    x 1.690960 0.000000 0.000000 
#    y 0.000000 1.718110 0.000000 
#    z 0.000000 0.000000 1.699750 
# 
# From -- ./inp_files/17760.got.cif
#   From: 2010.05.17/outbox.cif.g08.bks.cpg/sg58_9_cif.got.tgz:17760.got - 2010.06.03 14:20:14.
