data_PCOD9444545
_publ_section_title
;
Structure prediction by ZEFSAII (Michael W. Deem and Ramdas Pophale) SiO2 
 PCOD9444545
Probable space group: P N N M
;
_chemical_formula_sum "Si O2"
_cell_formula_units_Z 48
_cell_length_a 15.322353
_cell_length_b 19.240513
_cell_length_c 8.484718
_cell_angle_alpha 90.000000
_cell_angle_beta 90.000000
_cell_angle_gamma 90.000000
_cell_volume 2501.379137
_symmetry_space_group_name_H-M "P N N M"
_symmetry_group_IT_number 58
_symmetry_cell_setting 'orthorhombic'
loop_
_space_group_symop_operation_xyz
x,y,z
-x,-y,z
1/2+x,1/2-y,1/2-z
1/2-x,1/2+y,1/2-z
-x,-y,-z
x,y,-z
1/2-x,1/2+y,1/2+z
1/2+x,1/2-y,1/2+z
loop_
_atom_site_type_symbol
_atom_site_label
_atom_site_fract_x
_atom_site_fract_y
_atom_site_fract_z
Si Si1 0.746102 0.416158 0.311270
Si Si2 0.504902 0.212348 0.811272
Si Si3 0.308212 0.739899 0.690775
Si Si4 0.360107 0.323710 0.808085
Si Si5 0.059491 0.564497 0.188701
Si Si6 0.901956 0.020236 0.309041
O O1 0.748829 0.416856 0.500000
O O2 0.722865 0.337226 0.261386
O O3 0.841265 0.437790 0.249684
O O4 0.670349 0.467061 0.252328
O O5 0.599476 0.239261 0.761606
O O6 0.433341 0.268784 0.756884
O O7 0.482563 0.137226 0.741746
O O8 0.499188 0.207475 0.000000
O O9 0.314524 0.740720 0.500000
O O10 0.233959 0.794687 0.739257
O O11 0.380037 0.401615 0.755416
O O12 0.361818 0.324369 0.000000
O O13 0.000000 0.500000 0.244886
O O14 0.061909 0.562138 0.000000
O O15 0.899771 0.018735 0.500000
O O16 0.000000 0.000000 0.259715
#
# Coordination Sequence:
#
# PCOD9444545 Si02
#       6
#     8   8   8   8   8   8
#     4  11  23  41  64  91 126 163 204 258 309 357
#     4  11  22  40  65  93 121 155 203 256 302 356
#     4  10  21  39  60  85 121 163 198 242 305 366
#     4   9  19  38  60  83 120 160 194 240 303 361
#     4  11  25  43  63  88 122 166 209 251 307 373
#     4  10  21  38  62  90 122 162 205 248 301 371
#
# _framework density 19.189413999999999
#
# number of rings (size 3 to 8) (size 9 to 14) (size 15 to 20)
#    0.000    1.667    1.667    2.500    2.333    4.333 
#    0.000    1.667    0.000    0.000    0.000    0.000 
#    0.000    0.000    0.000    0.000    0.000    0.000 
#
# Total GULP energy -268272.230133 kJ/mol
# GULP energy per Si atom -5589.004794 kJ/mol
# Density = 1.914574 g / cm^3
# Si number density = 19.189414 Si / 1000 Ang^3
#
#
#
# Elastic Constant Matrix: (Units=GPa)
#
#
# Indices 1 2 3 4 5 6 
#
# 1 135.2754 41.9687 22.3430 0.0000 0.0000 0.0000
# 2 41.9687 118.6625 21.5399 0.0000 0.0000 0.0000
# 3 22.3430 21.5399 23.3309 0.0000 0.0000 0.0000
# 4 0.0000 0.0000 0.0000 34.7764 0.0000 0.0000
# 5 0.0000 0.0000 0.0000 0.0000 20.9672 0.0000
# 6 0.0000 0.0000 0.0000 0.0000 0.0000 41.8823
#
#
#
# Elastic Compliance Matrix: (Units=1/GPa)
#
#
# Indices 1 2 3 4 5 6 
#
# 1 0.009152 -0.001977 -0.006939 0.000000 0.000000 0.000000
# 2 -0.001977 0.010551 -0.007848 0.000000 0.000000 0.000000
# 3 -0.006939 -0.007848 0.056752 0.000000 0.000000 0.000000
# 4 0.000000 0.000000 0.000000 0.028755 0.000000 0.000000
# 5 0.000000 0.000000 0.000000 0.000000 0.047694 0.000000
# 6 0.000000 0.000000 0.000000 0.000000 0.000000 0.023876
#
#
# Mechanical properties :
#
#
# Convention : Reuss Voigt Hill
#
# Bulk Modulus (GPa) = 23.29522 49.88578 36.59050
# Shear Modulus (GPa) = 22.26019 32.28633 27.27326
#
# Velocity S-wave (km/s) = 3.40961 4.10629 3.77406
# Velocity P-wave (km/s) = 5.25990 6.96671 6.17259
#
# Compressibility (1/GPa) = 0.04292727
#
# Stress axis : x y z
#
# Youngs Moduli (GPa) = 109.26776 94.77681 17.62062
#
# Poissons Ratio (x) = 0.18740 0.12227
# Poissons Ratio (y) = 0.21605 0.13828
# Poissons Ratio (z) = 0.75819 0.74377
#
# Static dielectric constant tensor:
#      x y z
#    x 1.621410 0.000000 0.000000 
#    y 0.000000 1.648200 0.000000 
#    z 0.000000 0.000000 1.660280 
# 
# From -- ./inp_files/5854.got.cif
#   From: 2010.05.17/outbox.cif.g08.bks.cpg/sg58_3_cif.got.tgz:5854.got - 2010.06.03 14:20:14.
