data_PCOD9444719
_publ_section_title
;
Structure prediction by ZEFSAII (Michael W. Deem and Ramdas Pophale) SiO2 
 PCOD9444719
Probable space group: P N N M
;
_chemical_formula_sum "Si O2"
_cell_formula_units_Z 64
_cell_length_a 28.898949
_cell_length_b 12.882574
_cell_length_c 8.189877
_cell_angle_alpha 90.000000
_cell_angle_beta 90.000000
_cell_angle_gamma 90.000000
_cell_volume 3049.032641
_symmetry_space_group_name_H-M "P N N M"
_symmetry_group_IT_number 58
_symmetry_cell_setting 'orthorhombic'
loop_
_space_group_symop_operation_xyz
x,y,z
-x,-y,z
1/2+x,1/2-y,1/2-z
1/2-x,1/2+y,1/2-z
-x,-y,-z
x,y,-z
1/2-x,1/2+y,1/2+z
1/2+x,1/2-y,1/2+z
loop_
_atom_site_type_symbol
_atom_site_label
_atom_site_fract_x
_atom_site_fract_y
_atom_site_fract_z
Si Si1 0.978341 0.109652 0.193978
Si Si2 0.336652 0.714267 0.697357
Si Si3 0.052183 0.481592 0.699334
Si Si4 0.199880 0.436413 0.191683
Si Si5 0.796737 0.998681 0.192017
Si Si6 0.563100 0.253817 0.195448
Si Si7 0.374652 0.352050 0.193811
Si Si8 0.635702 0.880105 0.195587
O O1 0.929261 0.133685 0.275747
O O2 0.017318 0.195016 0.231621
O O3 0.970603 0.103321 0.000000
O O4 0.000000 0.000000 0.250410
O O5 0.335352 0.715318 0.500000
O O6 0.320023 0.827212 0.758185
O O7 0.304540 0.619102 0.752075
O O8 0.389259 0.693283 0.750758
O O9 0.052333 0.484874 0.500000
O O10 0.067091 0.366267 0.747757
O O11 0.088322 0.567206 0.758012
O O12 0.000000 0.500000 0.753956
O O13 0.254479 0.444918 0.219992
O O14 0.175771 0.537773 0.267006
O O15 0.189678 0.438418 0.000000
O O16 0.844041 0.061106 0.219488
O O17 0.785840 0.995412 0.000000
O O18 0.559148 0.257527 0.000000
O O19 0.359577 0.237491 0.254904
O O20 0.365860 0.359626 0.000000
O O21 0.631825 0.872215 0.000000
#
# Coordination Sequence:
#
# PCOD9444719 Si02
#       8
#     8   8   8   8   8   8   8   8
#     4  11  24  41  61  87 127 174 214 257 317 377
#     4  10  23  43  64  89 127 165 202 256 319 377
#     4   9  17  32  55  85 119 156 197 241 300 366
#     4  11  24  42  65  94 124 160 210 263 315 377
#     4  11  25  44  66  91 125 168 209 256 322 382
#     4  11  21  35  62  93 121 159 209 259 306 367
#     4  11  24  42  66  96 129 167 214 264 313 373
#     4  10  21  40  63  89 127 166 202 253 318 378
#
# _framework density 20.990264
#
# number of rings (size 3 to 8) (size 9 to 14) (size 15 to 20)
#    0.000    1.500    1.250    3.375    1.750    8.500 
#    0.000    0.000    0.000    1.875    0.000    0.000 
#    0.000    0.000    0.000    0.000    0.000    0.000 
#
# Total GULP energy -357780.258829 kJ/mol
# GULP energy per Si atom -5590.316544 kJ/mol
# Density = 2.094249 g / cm^3
# Si number density = 20.990264 Si / 1000 Ang^3
#
#
#
# Elastic Constant Matrix: (Units=GPa)
#
#
# Indices 1 2 3 4 5 6 
#
# 1 84.2568 16.2313 -13.5938 0.0000 0.0000 0.0000
# 2 16.2313 110.0113 5.2095 0.0000 0.0000 0.0000
# 3 -13.5938 5.2095 9.9052 0.0000 0.0000 0.0000
# 4 0.0000 0.0000 0.0000 36.2835 0.0000 0.0000
# 5 0.0000 0.0000 0.0000 0.0000 36.8922 0.0000
# 6 0.0000 0.0000 0.0000 0.0000 0.0000 35.5851
#
#
#
# Elastic Compliance Matrix: (Units=1/GPa)
#
#
# Indices 1 2 3 4 5 6 
#
# 1 0.016528 -0.003602 0.024577 0.000000 0.000000 0.000000
# 2 -0.003602 0.010107 -0.010260 0.000000 0.000000 0.000000
# 3 0.024577 -0.010260 0.140082 0.000000 0.000000 0.000000
# 4 0.000000 0.000000 0.000000 0.027561 0.000000 0.000000
# 5 0.000000 0.000000 0.000000 0.000000 0.027106 0.000000
# 6 0.000000 0.000000 0.000000 0.000000 0.000000 0.028102
#
#
# Mechanical properties :
#
#
# Convention : Reuss Voigt Hill
#
# Bulk Modulus (GPa) = 5.31498 24.42970 14.87234
# Shear Modulus (GPa) = 17.19564 34.84059 26.01812
#
# Velocity S-wave (km/s) = 2.86531 4.07854 3.52452
# Velocity P-wave (km/s) = 3.67209 5.81749 4.86454
#
# Compressibility (1/GPa) = 0.18814736
#
# Stress axis : x y z
#
# Youngs Moduli (GPa) = 60.50463 98.93825 7.13866
#
# Poissons Ratio (x) = 0.35641 -0.17545
# Poissons Ratio (y) = 0.21796 0.07324
# Poissons Ratio (z) = -1.48703 1.01507
#
# Static dielectric constant tensor:
#      x y z
#    x 1.721290 0.000000 0.000000 
#    y 0.000000 1.771640 0.000000 
#    z 0.000000 0.000000 1.732930 
# 
# From -- ./inp_files/11068.got.cif
#   From: 2010.05.17/outbox.cif.g08.bks.cpg/sg58_6_cif.got.tgz:11068.got - 2010.06.03 14:20:14.
