data_PCOD9444573
_publ_section_title
;
Structure prediction by ZEFSAII (Michael W. Deem and Ramdas Pophale) SiO2 
 PCOD9444573
Probable space group: P N N M
;
_chemical_formula_sum "Si O2"
_cell_formula_units_Z 34
_cell_length_a 22.579530
_cell_length_b 9.047806
_cell_length_c 7.271163
_cell_angle_alpha 90.000000
_cell_angle_beta 90.000000
_cell_angle_gamma 90.000000
_cell_volume 1485.463750
_symmetry_space_group_name_H-M "P N N M"
_symmetry_group_IT_number 58
_symmetry_cell_setting 'orthorhombic'
loop_
_space_group_symop_operation_xyz
x,y,z
-x,-y,z
1/2+x,1/2-y,1/2-z
1/2-x,1/2+y,1/2-z
-x,-y,-z
x,y,-z
1/2-x,1/2+y,1/2+z
1/2+x,1/2-y,1/2+z
loop_
_atom_site_type_symbol
_atom_site_label
_atom_site_fract_x
_atom_site_fract_y
_atom_site_fract_z
Si Si1 0.595671 0.135372 0.720935
Si Si2 0.433106 0.528023 0.723526
Si Si3 0.328816 0.332250 0.291184
Si Si4 0.000000 0.500000 0.500000
Si Si5 0.281953 0.022931 0.279535
O O1 0.585780 0.118729 0.500000
O O2 0.587313 0.307391 0.770951
O O3 0.662482 0.082923 0.759410
O O4 0.549312 0.042475 0.839171
O O5 0.500000 0.500000 0.784146
O O6 0.432359 0.521488 0.500000
O O7 0.387710 0.403461 0.791255
O O8 0.344886 0.289249 0.500000
O O9 0.278724 0.457536 0.295366
O O10 0.300020 0.185127 0.209982
O O11 0.273597 0.029127 0.500000
#
# Coordination Sequence:
#
# PCOD9444573 Si02
#       5
#     8   8   8   2   8
#     4  10  23  43  66  91 132 171 212 263 321 382
#     4   9  19  38  64  91 124 171 214 259 324 384
#     4  10  21  38  64  91 123 165 214 263 315 382
#     4  12  26  40  66 102 128 168 214 268 312 386
#     4  10  22  40  63  92 123 166 211 257 324 380
#
# _framework density 22.888476000000001
#
# number of rings (size 3 to 8) (size 9 to 14) (size 15 to 20)
#    0.000    2.118    0.000    1.765    4.941    2.824 
#    2.118    0.588    0.000    0.000    0.000    0.000 
#    0.000    0.000    0.000    0.000    0.000    0.000 
#
# Total GULP energy -189610.697828 kJ/mol
# GULP energy per Si atom -5576.785230 kJ/mol
# Density = 2.283638 g / cm^3
# Si number density = 22.888476 Si / 1000 Ang^3
#
#
#
# Elastic Constant Matrix: (Units=GPa)
#
#
# Indices 1 2 3 4 5 6 
#
# 1 108.8467 81.6169 -5.4637 0.0000 0.0000 0.0000
# 2 81.6169 83.6267 2.2509 0.0000 0.0000 0.0000
# 3 -5.4637 2.2509 104.7964 0.0000 0.0000 0.0000
# 4 0.0000 0.0000 0.0000 5.1254 0.0000 0.0000
# 5 0.0000 0.0000 0.0000 0.0000 0.9137 0.0000
# 6 0.0000 0.0000 0.0000 0.0000 0.0000 27.1981
#
#
#
# Elastic Compliance Matrix: (Units=1/GPa)
#
#
# Indices 1 2 3 4 5 6 
#
# 1 0.034927 -0.034156 0.002555 0.000000 0.000000 0.000000
# 2 -0.034156 0.045368 -0.002755 0.000000 0.000000 0.000000
# 3 0.002555 -0.002755 0.009735 0.000000 0.000000 0.000000
# 4 0.000000 0.000000 0.000000 0.195105 0.000000 0.000000
# 5 0.000000 0.000000 0.000000 0.000000 1.094462 0.000000
# 6 0.000000 0.000000 0.000000 0.000000 0.000000 0.036767
#
#
# Mechanical properties :
#
#
# Convention : Reuss Voigt Hill
#
# Bulk Modulus (GPa) = 46.91477 50.45311 48.68394
# Shear Modulus (GPa) = 3.35079 21.23850 12.29465
#
# Velocity S-wave (km/s) = 1.21126 3.04947 2.32017
# Velocity P-wave (km/s) = 4.74318 5.87281 5.33796
#
# Compressibility (1/GPa) = 0.02131525
#
# Stress axis : x y z
#
# Youngs Moduli (GPa) = 28.63104 22.04216 102.72550
#
# Poissons Ratio (x) = 0.75288 -0.26243
# Poissons Ratio (y) = 0.97793 0.28303
# Poissons Ratio (z) = -0.07314 0.06073
#
# Static dielectric constant tensor:
#      x y z
#    x 1.785630 0.000000 0.000000 
#    y 0.000000 1.844730 0.000000 
#    z 0.000000 0.000000 1.892410 
# 
# From -- ./inp_files/2259.got.cif
#   From: 2010.05.17/outbox.cif.g08.bks.cpg/sg58_2_cif.got.tgz:2259.got - 2010.06.03 14:20:14.
