data_PCOD9444915
_publ_section_title
;
Structure prediction by ZEFSAII (Michael W. Deem and Ramdas Pophale) SiO2 
 PCOD9444915
Probable space group: P N N M
;
_chemical_formula_sum "Si O2"
_cell_formula_units_Z 64
_cell_length_a 13.100104
_cell_length_b 28.717471
_cell_length_c 8.903958
_cell_angle_alpha 90.000000
_cell_angle_beta 90.000000
_cell_angle_gamma 90.000000
_cell_volume 3349.685532
_symmetry_space_group_name_H-M "P N N M"
_symmetry_group_IT_number 58
_symmetry_cell_setting 'orthorhombic'
loop_
_space_group_symop_operation_xyz
x,y,z
-x,-y,z
1/2+x,1/2-y,1/2-z
1/2-x,1/2+y,1/2-z
-x,-y,-z
x,y,-z
1/2-x,1/2+y,1/2+z
1/2+x,1/2-y,1/2+z
loop_
_atom_site_type_symbol
_atom_site_label
_atom_site_fract_x
_atom_site_fract_y
_atom_site_fract_z
Si Si1 0.406917 0.062226 0.318456
Si Si2 0.510941 0.353083 0.680109
Si Si3 0.265886 0.218358 0.836048
Si Si4 0.367709 0.953818 0.680928
Si Si5 0.366057 0.810419 0.671042
Si Si6 0.492819 0.251913 0.171177
Si Si7 0.715974 0.615169 0.680037
Si Si8 0.220859 0.126805 0.322820
O O1 0.409881 0.066317 0.500000
O O2 0.524703 0.070353 0.269709
O O3 0.315359 0.095308 0.265521
O O4 0.380115 0.008490 0.284781
O O5 0.515085 0.351740 0.500000
O O6 0.513383 0.300072 0.741902
O O7 0.401897 0.375771 0.724884
O O8 0.610905 0.379000 0.743782
O O9 0.184627 0.259377 0.830679
O O10 0.372120 0.244915 0.828966
O O11 0.251799 0.180110 0.709854
O O12 0.257530 0.194594 0.000000
O O13 0.359310 0.949110 0.500000
O O14 0.269569 0.931270 0.757845
O O15 0.384876 0.825938 0.500000
O O16 0.467058 0.796819 0.760220
O O17 0.288355 0.844685 0.751854
O O18 0.531007 0.256703 0.000000
O O19 0.720358 0.616329 0.500000
O O20 0.208697 0.118610 0.500000
#
# Coordination Sequence:
#
# PCOD9444915 Si02
#       8
#     8   8   8   8   8   8   8   8
#     4   8  18  38  63  92 116 143 182 231 288 351
#     4  11  23  39  56  77 114 158 195 236 285 337
#     4  10  22  37  53  79 115 151 190 232 281 337
#     4   9  18  39  67  88 115 147 182 230 291 349
#     4  11  22  37  56  80 113 152 194 233 282 339
#     4  11  22  37  55  78 111 150 194 242 282 331
#     4  11  24  39  57  85 117 150 197 241 283 340
#     4  11  22  36  59  87 115 148 194 238 282 341
#
# _framework density 19.106269999999999
#
# number of rings (size 3 to 8) (size 9 to 14) (size 15 to 20)
#    0.000    1.750    2.500    2.625    1.750    3.000 
#    0.000    3.750    0.000    3.750    0.000    0.000 
#    0.000    0.000    0.000    0.000    0.000    0.000 
#
# Total GULP energy -356983.186045 kJ/mol
# GULP energy per Si atom -5577.862282 kJ/mol
# Density = 1.906278 g / cm^3
# Si number density = 19.106270 Si / 1000 Ang^3
#
#
#
# Elastic Constant Matrix: (Units=GPa)
#
#
# Indices 1 2 3 4 5 6 
#
# 1 58.2617 7.4786 6.4599 0.0000 0.0000 0.0000
# 2 7.4786 35.4769 4.0899 0.0000 0.0000 0.0000
# 3 6.4599 4.0899 49.2234 0.0000 0.0000 0.0000
# 4 0.0000 0.0000 0.0000 22.0354 0.0000 0.0000
# 5 0.0000 0.0000 0.0000 0.0000 30.8915 0.0000
# 6 0.0000 0.0000 0.0000 0.0000 0.0000 32.6783
#
#
#
# Elastic Compliance Matrix: (Units=1/GPa)
#
#
# Indices 1 2 3 4 5 6 
#
# 1 0.017844 -0.003525 -0.002049 0.000000 0.000000 0.000000
# 2 -0.003525 0.029156 -0.001960 0.000000 0.000000 0.000000
# 3 -0.002049 -0.001960 0.020747 0.000000 0.000000 0.000000
# 4 0.000000 0.000000 0.000000 0.045382 0.000000 0.000000
# 5 0.000000 0.000000 0.000000 0.000000 0.032371 0.000000
# 6 0.000000 0.000000 0.000000 0.000000 0.000000 0.030601
#
#
# Mechanical properties :
#
#
# Convention : Reuss Voigt Hill
#
# Bulk Modulus (GPa) = 18.98280 19.89099 19.43689
# Shear Modulus (GPa) = 23.95447 25.44994 24.70221
#
# Velocity S-wave (km/s) = 3.54467 3.65365 3.59957
# Velocity P-wave (km/s) = 5.16816 5.31339 5.24128
#
# Compressibility (1/GPa) = 0.05267926
#
# Stress axis : x y z
#
# Youngs Moduli (GPa) = 56.04250 34.29779 48.19911
#
# Poissons Ratio (x) = 0.12091 0.09875
# Poissons Ratio (y) = 0.19756 0.09447
# Poissons Ratio (z) = 0.11482 0.06722
#
# Static dielectric constant tensor:
#      x y z
#    x 1.694330 0.000000 0.000000 
#    y 0.000000 1.658620 0.000000 
#    z 0.000000 0.000000 1.705490 
# 
# From -- ./inp_files/4685.got.cif
#   From: 2010.05.17/outbox.cif.g08.bks.cpg/sg58_3_cif.got.tgz:4685.got - 2010.06.03 14:20:14.
