data_PCOD9444160
_publ_section_title
;
Structure prediction by ZEFSAII (Michael W. Deem and Ramdas Pophale) SiO2 
 PCOD9444160
Probable space group: P N N M
;
_chemical_formula_sum "Si O2"
_cell_formula_units_Z 40
_cell_length_a 24.393222
_cell_length_b 8.247180
_cell_length_c 7.614890
_cell_angle_alpha 90.000000
_cell_angle_beta 90.000000
_cell_angle_gamma 90.000000
_cell_volume 1531.927724
_symmetry_space_group_name_H-M "P N N M"
_symmetry_group_IT_number 58
_symmetry_cell_setting 'orthorhombic'
loop_
_space_group_symop_operation_xyz
x,y,z
-x,-y,z
1/2+x,1/2-y,1/2-z
1/2-x,1/2+y,1/2-z
-x,-y,-z
x,y,-z
1/2-x,1/2+y,1/2+z
1/2+x,1/2-y,1/2+z
loop_
_atom_site_type_symbol
_atom_site_label
_atom_site_fract_x
_atom_site_fract_y
_atom_site_fract_z
Si Si1 0.365162 0.833931 0.786863
Si Si2 0.064970 0.640190 0.702086
Si Si3 0.334931 0.316990 0.705231
Si Si4 0.967338 0.842901 0.284896
Si Si5 0.737547 0.979422 0.296720
O O1 0.404647 0.686762 0.731263
O O2 0.304091 0.868051 0.722054
O O3 0.400012 0.991845 0.724104
O O4 0.361515 0.831987 0.000000
O O5 0.055971 0.595511 0.500000
O O6 0.106115 0.795185 0.706963
O O7 0.006568 0.694353 0.773338
O O8 0.344696 0.288796 0.500000
O O9 0.296635 0.473093 0.724150
O O10 0.296814 0.170437 0.780780
O O11 0.967752 0.844319 0.500000
O O12 0.000000 0.000000 0.223702
O O13 0.746240 0.941531 0.500000
#
# Coordination Sequence:
#
# PCOD9444160 Si02
#       5
#     8   8   8   8   8
#     4   9  17  31  51  73  99 133 170 206 248 300
#     4   9  17  31  51  73  99 133 170 206 248 300
#     4  10  21  36  54  77 104 135 172 213 258 307
#     4   9  17  29  48  75 102 128 164 209 252 295
#     4  10  21  36  54  77 104 135 172 213 258 307
#
# _framework density 26.110893999999998
#
# number of rings (size 3 to 8) (size 9 to 14) (size 15 to 20)
#    0.000    2.600    0.000    1.800    0.000    6.400 
#    0.000    5.000    0.000    6.000    0.000    0.000 
#    0.000    0.000    0.000    0.000    0.000    0.000 
#
# Total GULP energy -223562.630866 kJ/mol
# GULP energy per Si atom -5589.065772 kJ/mol
# Density = 2.605146 g / cm^3
# Si number density = 26.110894 Si / 1000 Ang^3
#
#
#
# Elastic Constant Matrix: (Units=GPa)
#
#
# Indices 1 2 3 4 5 6 
#
# 1 168.2335 12.8342 -4.1847 0.0000 0.0000 0.0000
# 2 12.8342 53.1912 -11.2321 0.0000 0.0000 0.0000
# 3 -4.1847 -11.2321 66.8094 0.0000 0.0000 0.0000
# 4 0.0000 0.0000 0.0000 4.1079 0.0000 0.0000
# 5 0.0000 0.0000 0.0000 0.0000 11.2583 0.0000
# 6 0.0000 0.0000 0.0000 0.0000 0.0000 50.7949
#
#
#
# Elastic Compliance Matrix: (Units=1/GPa)
#
#
# Indices 1 2 3 4 5 6 
#
# 1 0.006057 -0.001432 0.000139 0.000000 0.000000 0.000000
# 2 -0.001432 0.019831 0.003244 0.000000 0.000000 0.000000
# 3 0.000139 0.003244 0.015522 0.000000 0.000000 0.000000
# 4 0.000000 0.000000 0.000000 0.243435 0.000000 0.000000
# 5 0.000000 0.000000 0.000000 0.000000 0.088823 0.000000
# 6 0.000000 0.000000 0.000000 0.000000 0.000000 0.019687
#
#
# Mechanical properties :
#
#
# Convention : Reuss Voigt Hill
#
# Bulk Modulus (GPa) = 22.06969 31.45212 26.76091
# Shear Modulus (GPa) = 12.35919 32.62001 22.48960
#
# Velocity S-wave (km/s) = 2.17799 3.53836 2.93799
# Velocity P-wave (km/s) = 3.84649 5.36331 4.66693
#
# Compressibility (1/GPa) = 0.04531101
#
# Stress axis : x y z
#
# Youngs Moduli (GPa) = 165.10309 50.42680 64.42448
#
# Poissons Ratio (x) = 0.07222 -0.00893
# Poissons Ratio (y) = 0.23645 -0.20901
# Poissons Ratio (z) = -0.02288 -0.16360
#
# Static dielectric constant tensor:
#      x y z
#    x 2.003780 0.000000 0.000000 
#    y 0.000000 2.196510 0.000000 
#    z 0.000000 0.000000 1.966240 
# 
# From -- ./inp_files/2408.got.cif
#   From: 2010.05.17/outbox.cif.g08.bks.cpg/sg58_2_cif.got.tgz:2408.got - 2010.06.03 14:20:14.
