data_PCOD9444220
_publ_section_title
;
Structure prediction by ZEFSAII (Michael W. Deem and Ramdas Pophale) SiO2 
 PCOD9444220
Probable space group: P N N M
;
_chemical_formula_sum "Si O2"
_cell_formula_units_Z 64
_cell_length_a 10.614074
_cell_length_b 34.016875
_cell_length_c 7.432383
_cell_angle_alpha 90.000000
_cell_angle_beta 90.000000
_cell_angle_gamma 90.000000
_cell_volume 2683.518580
_symmetry_space_group_name_H-M "P N N M"
_symmetry_group_IT_number 58
_symmetry_cell_setting 'orthorhombic'
loop_
_space_group_symop_operation_xyz
x,y,z
-x,-y,z
1/2+x,1/2-y,1/2-z
1/2-x,1/2+y,1/2-z
-x,-y,-z
x,y,-z
1/2-x,1/2+y,1/2+z
1/2+x,1/2-y,1/2+z
loop_
_atom_site_type_symbol
_atom_site_label
_atom_site_fract_x
_atom_site_fract_y
_atom_site_fract_z
Si Si1 0.553585 0.715493 0.702733
Si Si2 0.296818 0.831531 0.284435
Si Si3 0.927974 0.301513 0.787149
Si Si4 0.050555 0.136391 0.219922
Si Si5 0.793787 0.090703 0.707182
Si Si6 0.909310 0.465232 0.709098
Si Si7 0.853317 0.005326 0.281195
Si Si8 0.318263 0.113944 0.789959
O O1 0.506656 0.724114 0.500000
O O2 0.683066 0.691536 0.696772
O O3 0.588600 0.757456 0.786993
O O4 0.459966 0.682209 0.780308
O O5 0.272346 0.832743 0.500000
O O6 0.425492 0.809709 0.256930
O O7 0.299177 0.876389 0.216833
O O8 0.862500 0.340934 0.718811
O O9 0.898157 0.300677 0.000000
O O10 0.176667 0.115404 0.284984
O O11 0.929443 0.112191 0.283259
O O12 0.047968 0.137056 0.000000
O O13 0.758066 0.084211 0.500000
O O14 0.808630 0.048033 0.787165
O O15 0.947871 0.462587 0.500000
O O16 0.761132 0.477166 0.723022
O O17 0.907828 0.420531 0.786249
O O18 0.000000 0.500000 0.786407
O O19 0.855686 0.004271 0.500000
O O20 0.000000 0.000000 0.224473
O O21 0.305815 0.104250 0.000000
#
# Coordination Sequence:
#
# PCOD9444220 Si02
#       8
#     8   8   8   8   8   8   8   8
#     4   9  19  35  53  78 107 136 173 221 270 316
#     4   9  19  35  54  76 105 141 178 218 265 319
#     4  10  22  36  54  79 108 141 179 224 271 324
#     4   9  18  34  56  80 108 142 180 221 269 328
#     4   9  18  33  54  81 111 140 178 224 271 326
#     4  10  23  41  58  83 119 154 194 242 289 345
#     4  10  21  36  58  88 116 146 189 240 290 343
#     4  10  22  38  57  80 108 147 188 225 275 333
#
# _framework density 23.849284000000001
#
# number of rings (size 3 to 8) (size 9 to 14) (size 15 to 20)
#    0.000    2.500    0.000    0.750    3.500    3.000 
#    0.000    0.000    0.000    0.000    0.000    0.000 
#    0.000    0.000    0.000    0.000    0.000    0.000 
#
# Total GULP energy -356918.181616 kJ/mol
# GULP energy per Si atom -5576.846588 kJ/mol
# Density = 2.379500 g / cm^3
# Si number density = 23.849284 Si / 1000 Ang^3
#
#
#
# Elastic Constant Matrix: (Units=GPa)
#
#
# Indices 1 2 3 4 5 6 
#
# 1 41.8215 9.3246 -2.2612 0.0000 0.0000 0.0000
# 2 9.3246 154.1977 -7.2135 0.0000 0.0000 0.0000
# 3 -2.2612 -7.2135 61.3441 0.0000 0.0000 0.0000
# 4 0.0000 0.0000 0.0000 0.4554 0.0000 0.0000
# 5 0.0000 0.0000 0.0000 0.0000 321.1698 0.0000
# 6 0.0000 0.0000 0.0000 0.0000 0.0000 23.8638
#
#
#
# Elastic Compliance Matrix: (Units=1/GPa)
#
#
# Indices 1 2 3 4 5 6 
#
# 1 0.024270 -0.001434 0.000726 0.000000 0.000000 0.000000
# 2 -0.001434 0.006606 0.000724 0.000000 0.000000 0.000000
# 3 0.000726 0.000724 0.016413 0.000000 0.000000 0.000000
# 4 0.000000 0.000000 0.000000 2.195816 0.000000 0.000000
# 5 0.000000 0.000000 0.000000 0.000000 0.003114 0.000000
# 6 0.000000 0.000000 0.000000 0.000000 0.000000 0.041904
#
#
# Mechanical properties :
#
#
# Convention : Reuss Voigt Hill
#
# Bulk Modulus (GPa) = 21.13194 28.56255 24.84724
# Shear Modulus (GPa) = 2.17027 86.26538 44.21782
#
# Velocity S-wave (km/s) = 0.95497 6.02076 4.31054
# Velocity P-wave (km/s) = 3.17739 7.76756 5.93426
#
# Compressibility (1/GPa) = 0.04732174
#
# Stress axis : x y z
#
# Youngs Moduli (GPa) = 41.20304 151.38335 60.92590
#
# Poissons Ratio (x) = 0.21704 -0.04423
# Poissons Ratio (y) = 0.05907 -0.04411
# Poissons Ratio (z) = -0.02991 -0.10959
#
# Static dielectric constant tensor:
#      x y z
#    x 1.897030 0.000000 0.000000 
#    y 0.000000 1.978090 0.000000 
#    z 0.000000 0.000000 1.980350 
# 
# From -- ./inp_files/4798.got.cif
#   From: 2010.05.17/outbox.cif.g08.bks.cpg/sg58_3_cif.got.tgz:4798.got - 2010.06.03 14:20:14.
