data_PCOD9444805
_publ_section_title
;
Structure prediction by ZEFSAII (Michael W. Deem and Ramdas Pophale) SiO2 
 PCOD9444805
Probable space group: P N N M
;
_chemical_formula_sum "Si O2"
_cell_formula_units_Z 48
_cell_length_a 20.098201
_cell_length_b 5.515344
_cell_length_c 18.027860
_cell_angle_alpha 90.000000
_cell_angle_beta 90.000000
_cell_angle_gamma 90.000000
_cell_volume 1998.361100
_symmetry_space_group_name_H-M "P N N M"
_symmetry_group_IT_number 58
_symmetry_cell_setting 'orthorhombic'
loop_
_space_group_symop_operation_xyz
x,y,z
-x,-y,z
1/2+x,1/2-y,1/2-z
1/2-x,1/2+y,1/2-z
-x,-y,-z
x,y,-z
1/2-x,1/2+y,1/2+z
1/2+x,1/2-y,1/2+z
loop_
_atom_site_type_symbol
_atom_site_label
_atom_site_fract_x
_atom_site_fract_y
_atom_site_fract_z
Si Si1 0.574558 0.050435 0.860102
Si Si2 0.561345 0.683114 0.578823
Si Si3 0.776091 0.269612 0.718991
Si Si4 0.318521 0.681878 0.413187
Si Si5 0.400851 0.011569 0.298611
Si Si6 0.923689 0.043545 0.587227
O O1 0.569493 0.118719 0.773256
O O2 0.605266 0.786926 0.877693
O O3 0.500000 0.000000 0.890621
O O4 0.609043 0.282732 0.896563
O O5 0.500000 0.500000 0.574619
O O6 0.561432 0.822495 0.500000
O O7 0.633781 0.555160 0.584113
O O8 0.550798 0.824600 0.654093
O O9 0.735980 0.485091 0.763669
O O10 0.749208 0.327105 0.635395
O O11 0.846668 0.324175 0.756593
O O12 0.308260 0.752436 0.500000
O O13 0.363587 0.857659 0.361666
O O14 0.925791 0.081934 0.500000
O O15 0.000000 0.000000 0.614553
#
# Coordination Sequence:
#
# PCOD9444805 Si02
#       6
#     8   8   8   8   8   8
#     4  10  22  33  56  89 122 163 208 254 313 379
#     4  10  22  38  61  94 133 178 223 268 331 404
#     4  10  21  41  65  91 119 164 213 269 324 379
#     4  10  22  41  64  91 126 172 222 274 332 393
#     4  11  23  37  62  89 134 169 219 267 334 385
#     4   9  18  36  56  78 112 159 209 256 307 367
#
# _framework density 24.019684000000002
#
# number of rings (size 3 to 8) (size 9 to 14) (size 15 to 20)
#    0.000    2.000    1.667    1.000    4.667    2.667 
#    0.000    4.167    0.000    0.000    0.000    0.000 
#    0.000    0.000    0.000    0.000    0.000    0.000 
#
# Total GULP energy -267226.524862 kJ/mol
# GULP energy per Si atom -5567.219268 kJ/mol
# Density = 2.396501 g / cm^3
# Si number density = 24.019684 Si / 1000 Ang^3
#
#
#
# Elastic Constant Matrix: (Units=GPa)
#
#
# Indices 1 2 3 4 5 6 
#
# 1 54.3348 8.2057 22.2814 0.0000 0.0000 0.0000
# 2 8.2057 106.4495 54.2705 0.0000 0.0000 0.0000
# 3 22.2814 54.2705 187.9204 0.0000 0.0000 0.0000
# 4 0.0000 0.0000 0.0000 331.8696 0.0000 0.0000
# 5 0.0000 0.0000 0.0000 0.0000 9.1630 0.0000
# 6 0.0000 0.0000 0.0000 0.0000 0.0000 13.5697
#
#
#
# Elastic Compliance Matrix: (Units=1/GPa)
#
#
# Indices 1 2 3 4 5 6 
#
# 1 0.019358 -0.000378 -0.002186 0.000000 0.000000 0.000000
# 2 -0.000378 0.011023 -0.003139 0.000000 0.000000 0.000000
# 3 -0.002186 -0.003139 0.006487 0.000000 0.000000 0.000000
# 4 0.000000 0.000000 0.000000 0.003013 0.000000 0.000000
# 5 0.000000 0.000000 0.000000 0.000000 0.109134 0.000000
# 6 0.000000 0.000000 0.000000 0.000000 0.000000 0.073693
#
#
# Mechanical properties :
#
#
# Convention : Reuss Voigt Hill
#
# Bulk Modulus (GPa) = 39.27220 57.58000 48.42610
# Shear Modulus (GPa) = 20.60986 88.51693 54.56340
#
# Velocity S-wave (km/s) = 2.93241 6.07716 4.77131
# Velocity P-wave (km/s) = 5.27739 8.55958 7.11046
#
# Compressibility (1/GPa) = 0.02546330
#
# Stress axis : x y z
#
# Youngs Moduli (GPa) = 51.65840 90.71579 154.15287
#
# Poissons Ratio (x) = 0.03426 0.33700
# Poissons Ratio (y) = 0.01951 0.48385
# Poissons Ratio (z) = 0.11293 0.28473
#
# Static dielectric constant tensor:
#      x y z
#    x 1.919470 0.000000 0.000000 
#    y 0.000000 1.958240 0.000000 
#    z 0.000000 0.000000 1.944290 
# 
# From -- ./inp_files/23646.got.cif
#   From: 2010.05.17/outbox.cif.g08.bks.cpg/sg58_12_cif.got.tgz:23646.got - 2010.06.03 14:20:14.
