data_PCOD9444919
_publ_section_title
;
Structure prediction by ZEFSAII (Michael W. Deem and Ramdas Pophale) SiO2 
 PCOD9444919
Probable space group: P N N M
;
_chemical_formula_sum "Si O2"
_cell_formula_units_Z 56
_cell_length_a 12.170890
_cell_length_b 13.486698
_cell_length_c 19.801063
_cell_angle_alpha 90.000000
_cell_angle_beta 90.000000
_cell_angle_gamma 90.000000
_cell_volume 3250.247819
_symmetry_space_group_name_H-M "P N N M"
_symmetry_group_IT_number 58
_symmetry_cell_setting 'orthorhombic'
loop_
_space_group_symop_operation_xyz
x,y,z
-x,-y,z
1/2+x,1/2-y,1/2-z
1/2-x,1/2+y,1/2-z
-x,-y,-z
x,y,-z
1/2-x,1/2+y,1/2+z
1/2+x,1/2-y,1/2+z
loop_
_atom_site_type_symbol
_atom_site_label
_atom_site_fract_x
_atom_site_fract_y
_atom_site_fract_z
Si Si1 0.399349 0.361380 0.576550
Si Si2 0.947026 0.608162 0.577598
Si Si3 0.731122 0.190868 0.820908
Si Si4 0.889512 0.889467 0.276119
Si Si5 0.834372 0.263269 0.577573
Si Si6 0.641416 0.412373 0.616517
Si Si7 0.646626 0.604893 0.806777
O O1 0.375331 0.333281 0.500000
O O2 0.336123 0.295187 0.630647
O O3 0.529612 0.363343 0.588894
O O4 0.359634 0.475011 0.589664
O O5 0.904128 0.612995 0.500000
O O6 0.856025 0.631008 0.633416
O O7 0.000000 0.500000 0.586716
O O8 0.045181 0.687661 0.584008
O O9 0.676131 0.292962 0.798247
O O10 0.773710 0.133651 0.754909
O O11 0.867941 0.913487 0.197517
O O12 0.019943 0.873863 0.285658
O O13 0.852262 0.986760 0.317347
O O14 0.819294 0.232238 0.500000
O O15 0.745926 0.348862 0.594370
O O16 0.824613 0.172749 0.629441
#
# Coordination Sequence:
#
# PCOD9444919 Si02
#       7
#     8   8   8   8   8   8   8
#     4  11  21  34  56  91 122 150 187 235 295 350
#     4  10  22  37  55  87 125 154 187 238 297 353
#     4  12  21  36  62  86 115 153 191 238 292 347
#     4  11  22  39  60  86 114 151 196 238 287 337
#     4  11  22  37  58  83 114 158 198 235 289 343
#     4  11  19  36  60  87 119 150 189 239 288 351
#     4  11  22  41  59  81 117 152 196 242 279 346
#
# _framework density 17.229455999999999
#
# number of rings (size 3 to 8) (size 9 to 14) (size 15 to 20)
#    0.000    1.000    5.714    3.857    0.000    1.143 
#    0.000    2.857    0.000    0.000    0.000    2.000 
#    0.000    0.000    0.000    0.000    0.000    0.000 
#
# Total GULP energy -312833.337575 kJ/mol
# GULP energy per Si atom -5586.309600 kJ/mol
# Density = 1.719024 g / cm^3
# Si number density = 17.229456 Si / 1000 Ang^3
#
#
#
# Elastic Constant Matrix: (Units=GPa)
#
#
# Indices 1 2 3 4 5 6 
#
# 1 83.0555 28.8309 22.0216 0.0000 0.0000 0.0000
# 2 28.8309 64.0060 22.2643 0.0000 0.0000 0.0000
# 3 22.0216 22.2643 97.7712 0.0000 0.0000 0.0000
# 4 0.0000 0.0000 0.0000 23.1665 0.0000 0.0000
# 5 0.0000 0.0000 0.0000 0.0000 -362.8552 0.0000
# 6 0.0000 0.0000 0.0000 0.0000 0.0000 29.0269
#
#
#
# Elastic Compliance Matrix: (Units=1/GPa)
#
#
# Indices 1 2 3 4 5 6 
#
# 1 0.014605 -0.005902 -0.001946 0.000000 0.000000 0.000000
# 2 -0.005902 0.019352 -0.003078 0.000000 0.000000 0.000000
# 3 -0.001946 -0.003078 0.011367 0.000000 0.000000 0.000000
# 4 0.000000 0.000000 0.000000 0.043166 0.000000 0.000000
# 5 0.000000 0.000000 0.000000 0.000000 -0.002756 0.000000
# 6 0.000000 0.000000 0.000000 0.000000 0.000000 0.034451
#
#
# Mechanical properties :
#
#
# Convention : Reuss Voigt Hill
#
# Bulk Modulus (GPa) = 42.59989 43.45180 43.02585
# Shear Modulus (GPa) = 33.36460 -50.68463 -8.66001
#
# Velocity S-wave (km/s) = 4.40533 -5.42967 -2.24437
# Velocity P-wave (km/s) = 7.11720 3.74622 4.27904
#
# Compressibility (1/GPa) = 0.02347424
#
# Stress axis : x y z
#
# Youngs Moduli (GPa) = 68.47123 51.67298 87.97400
#
# Poissons Ratio (x) = 0.30496 0.17116
# Poissons Ratio (y) = 0.40410 0.27075
# Poissons Ratio (z) = 0.13321 0.15903
#
# Static dielectric constant tensor:
#      x y z
#    x 1.594750 0.000000 0.000000 
#    y 0.000000 1.561940 0.000000 
#    z 0.000000 0.000000 1.578090 
# 
# From -- ./inp_files/29599.got.cif
#   From: 2010.05.17/outbox.cif.g08.bks.cpg/sg58_15_cif.got.tgz:29599.got - 2010.06.03 14:20:14.
