data_PCOD9444690
_publ_section_title
;
Structure prediction by ZEFSAII (Michael W. Deem and Ramdas Pophale) SiO2 
 PCOD9444690
Probable space group: P N N M
;
_chemical_formula_sum "Si O2"
_cell_formula_units_Z 44
_cell_length_a 29.182952
_cell_length_b 8.149389
_cell_length_c 7.247538
_cell_angle_alpha 90.000000
_cell_angle_beta 90.000000
_cell_angle_gamma 90.000000
_cell_volume 1723.632882
_symmetry_space_group_name_H-M "P N N M"
_symmetry_group_IT_number 58
_symmetry_cell_setting 'orthorhombic'
loop_
_space_group_symop_operation_xyz
x,y,z
-x,-y,z
1/2+x,1/2-y,1/2-z
1/2-x,1/2+y,1/2-z
-x,-y,-z
x,y,-z
1/2-x,1/2+y,1/2+z
1/2+x,1/2-y,1/2+z
loop_
_atom_site_type_symbol
_atom_site_label
_atom_site_fract_x
_atom_site_fract_y
_atom_site_fract_z
Si Si1 0.351287 0.393487 0.280103
Si Si2 0.599344 0.272609 0.275730
Si Si3 0.177967 0.443996 0.791028
Si Si4 0.584557 0.752701 0.000000
Si Si5 0.239788 0.738755 0.220592
Si Si6 0.996865 0.301979 0.213670
O O1 0.357436 0.376296 0.500000
O O2 0.376598 0.559307 0.218146
O O3 0.375946 0.254177 0.162616
O O4 0.297204 0.383661 0.242574
O O5 0.600378 0.266432 0.500000
O O6 0.630384 0.120640 0.209219
O O7 0.546530 0.262365 0.222356
O O8 0.211909 0.580149 0.710391
O O9 0.211108 0.284262 0.799509
O O10 0.167892 0.500028 0.000000
O O11 0.544353 0.747632 0.159750
O O12 0.245824 0.723647 0.000000
O O13 0.000000 0.500000 0.220537
O O14 0.989828 0.252656 0.000000
#
# Coordination Sequence:
#
# PCOD9444690 Si02
#       6
#     8   8   8   4   8   8
#     4  10  23  42  65  92 134 169 217 268 329 390
#     4   9  20  41  65  91 123 177 216 265 330 392
#     4  10  21  39  67  90 125 166 214 259 325 390
#     4  12  25  41  66 100 127 177 218 280 316 400
#     4  10  22  40  61  95 127 167 208 264 326 391
#     4  10  23  43  66  93 136 173 220 274 331 391
#
# _framework density 25.527476
#
# number of rings (size 3 to 8) (size 9 to 14) (size 15 to 20)
#    0.000    2.000    0.000    1.909    3.818    4.364 
#    3.273    2.727    0.000    0.000    0.000    0.000 
#    0.000    0.000    0.000    0.000    0.000    0.000 
#
# Total GULP energy -245269.049817 kJ/mol
# GULP energy per Si atom -5574.296587 kJ/mol
# Density = 2.546937 g / cm^3
# Si number density = 25.527476 Si / 1000 Ang^3
#
#
#
# Elastic Constant Matrix: (Units=GPa)
#
#
# Indices 1 2 3 4 5 6 
#
# 1 144.1094 -8.8225 21.8827 0.0000 0.0000 0.0000
# 2 -8.8225 52.5250 -10.1509 0.0000 0.0000 0.0000
# 3 21.8827 -10.1509 137.2266 0.0000 0.0000 0.0000
# 4 0.0000 0.0000 0.0000 -7.7793 0.0000 0.0000
# 5 0.0000 0.0000 0.0000 0.0000 28.9371 0.0000
# 6 0.0000 0.0000 0.0000 0.0000 0.0000 28.1906
#
#
#
# Elastic Compliance Matrix: (Units=1/GPa)
#
#
# Indices 1 2 3 4 5 6 
#
# 1 0.007162 0.000997 -0.001068 0.000000 0.000000 0.000000
# 2 0.000997 0.019453 0.001280 0.000000 0.000000 0.000000
# 3 -0.001068 0.001280 0.007552 0.000000 0.000000 0.000000
# 4 0.000000 0.000000 0.000000 -0.128546 0.000000 0.000000
# 5 0.000000 0.000000 0.000000 0.000000 0.034558 0.000000
# 6 0.000000 0.000000 0.000000 0.000000 0.000000 0.035473
#
#
# Mechanical properties :
#
#
# Convention : Reuss Voigt Hill
#
# Bulk Modulus (GPa) = 27.33400 37.74219 32.53810
# Shear Modulus (GPa) = -343.20304 31.93313 -155.63496
#
# Velocity S-wave (km/s) = -11.60760 3.54069 -7.81665
# Velocity P-wave (km/s) = 12.99683 5.61536 8.28810
#
# Compressibility (1/GPa) = 0.03658447
#
# Stress axis : x y z
#
# Youngs Moduli (GPa) = 139.61755 51.40507 132.41033
#
# Poissons Ratio (x) = -0.05123 0.14147
# Poissons Ratio (y) = -0.13914 -0.16950
# Poissons Ratio (z) = 0.14917 -0.06580
#
# Static dielectric constant tensor:
#      x y z
#    x 1.585970 0.000000 0.000000 
#    y 0.000000 0.891040 0.000000 
#    z 0.000000 0.000000 1.971780 
# 
# From -- ./inp_files/10677.got.cif
#   From: 2010.05.17/outbox.cif.g08.bks.cpg/sg58_6_cif.got.tgz:10677.got - 2010.06.03 14:20:14.
