data_PCOD9444330
_publ_section_title
;
Structure prediction by ZEFSAII (Michael W. Deem and Ramdas Pophale) SiO2 
 PCOD9444330
Probable space group: P N N M
;
_chemical_formula_sum "Si O2"
_cell_formula_units_Z 56
_cell_length_a 22.514385
_cell_length_b 15.039419
_cell_length_c 7.729604
_cell_angle_alpha 90.000000
_cell_angle_beta 90.000000
_cell_angle_gamma 90.000000
_cell_volume 2617.269187
_symmetry_space_group_name_H-M "P N N M"
_symmetry_group_IT_number 58
_symmetry_cell_setting 'orthorhombic'
loop_
_space_group_symop_operation_xyz
x,y,z
-x,-y,z
1/2+x,1/2-y,1/2-z
1/2-x,1/2+y,1/2-z
-x,-y,-z
x,y,-z
1/2-x,1/2+y,1/2+z
1/2+x,1/2-y,1/2+z
loop_
_atom_site_type_symbol
_atom_site_label
_atom_site_fract_x
_atom_site_fract_y
_atom_site_fract_z
Si Si1 0.564905 0.522681 0.701171
Si Si2 0.466819 0.151194 0.796661
Si Si3 0.854780 0.861956 0.698751
Si Si4 0.370681 0.013317 0.290607
Si Si5 0.278904 0.164757 0.711976
Si Si6 0.126874 0.802051 0.797132
Si Si7 0.399641 0.824437 0.300250
O O1 0.500000 0.500000 0.777991
O O2 0.553612 0.547205 0.500000
O O3 0.605859 0.435880 0.708750
O O4 0.600843 0.606537 0.778382
O O5 0.431399 0.059640 0.769823
O O6 0.424553 0.227940 0.719954
O O7 0.530735 0.153583 0.710284
O O8 0.474233 0.167349 0.000000
O O9 0.849425 0.891767 0.500000
O O10 0.788471 0.847024 0.769618
O O11 0.886343 0.766685 0.705056
O O12 0.371991 0.011719 0.500000
O O13 0.317997 0.079195 0.236685
O O14 0.366486 0.911958 0.230364
O O15 0.278903 0.168026 0.500000
O O16 0.314199 0.252818 0.773779
O O17 0.139225 0.818273 0.000000
O O18 0.382730 0.810823 0.500000
#
# Coordination Sequence:
#
# PCOD9444330 Si02
#       7
#     8   8   8   8   8   8   8
#     4  10  21  37  58  83 109 143 189 234 277 332
#     4  11  21  33  54  86 118 141 171 222 276 323
#     4  11  23  37  55  80 112 144 179 233 286 326
#     4   9  19  37  59  79 106 148 187 217 259 322
#     4   8  17  36  57  79 108 144 184 223 273 330
#     4   9  18  36  60  80 108 151 188 220 266 332
#     4  11  22  36  55  78 107 146 188 223 263 324
#
# _framework density 21.396346000000001
#
# number of rings (size 3 to 8) (size 9 to 14) (size 15 to 20)
#    0.000    2.143    0.000    4.286    0.000    6.000 
#    0.000    5.714    0.000    0.000    0.000    0.000 
#    0.000    0.000    0.000    0.000    0.000    0.000 
#
# Total GULP energy -312695.713893 kJ/mol
# GULP energy per Si atom -5583.852034 kJ/mol
# Density = 2.134765 g / cm^3
# Si number density = 21.396346 Si / 1000 Ang^3
#
#
#
# Elastic Constant Matrix: (Units=GPa)
#
#
# Indices 1 2 3 4 5 6 
#
# 1 105.4841 42.1561 -1.7851 0.0000 0.0000 0.0000
# 2 42.1561 125.2093 -13.8827 0.0000 0.0000 0.0000
# 3 -1.7851 -13.8827 31.5459 0.0000 0.0000 0.0000
# 4 0.0000 0.0000 0.0000 -110.8002 0.0000 0.0000
# 5 0.0000 0.0000 0.0000 0.0000 -22.4930 0.0000
# 6 0.0000 0.0000 0.0000 0.0000 0.0000 15.0644
#
#
#
# Elastic Compliance Matrix: (Units=1/GPa)
#
#
# Indices 1 2 3 4 5 6 
#
# 1 0.010987 -0.003817 -0.001058 0.000000 0.000000 0.000000
# 2 -0.003817 0.009722 0.004063 0.000000 0.000000 0.000000
# 3 -0.001058 0.004063 0.033428 0.000000 0.000000 0.000000
# 4 0.000000 0.000000 0.000000 -0.009025 0.000000 0.000000
# 5 0.000000 0.000000 0.000000 0.000000 -0.044458 0.000000
# 6 0.000000 0.000000 0.000000 0.000000 0.000000 0.066382
#
#
# Mechanical properties :
#
#
# Convention : Reuss Voigt Hill
#
# Bulk Modulus (GPa) = 19.04276 35.02399 27.03337
# Shear Modulus (GPa) = 58.02891 -7.92903 25.04994
#
# Velocity S-wave (km/s) = 5.21343 -1.92713 3.42535
# Velocity P-wave (km/s) = 6.72005 3.38421 5.32034
#
# Compressibility (1/GPa) = 0.05251340
#
# Stress axis : x y z
#
# Youngs Moduli (GPa) = 91.01269 102.85891 29.91522
#
# Poissons Ratio (x) = 0.39257 0.03165
# Poissons Ratio (y) = 0.34736 -0.12153
# Poissons Ratio (z) = 0.09628 -0.41786
#
# Static dielectric constant tensor:
#      x y z
#    x 1.761990 0.000000 0.000000 
#    y 0.000000 1.760890 0.000000 
#    z 0.000000 0.000000 1.793530 
# 
# From -- ./inp_files/9064.got.cif
#   From: 2010.05.17/outbox.cif.g08.bks.cpg/sg58_5_cif.got.tgz:9064.got - 2010.06.03 14:20:14.
