data_PCOD9444053
_publ_section_title
;
Structure prediction by ZEFSAII (Michael W. Deem and Ramdas Pophale) SiO2 
 PCOD9444053
Probable space group: P N N M
;
_chemical_formula_sum "Si O2"
_cell_formula_units_Z 48
_cell_length_a 13.843118
_cell_length_b 5.278655
_cell_length_c 28.748413
_cell_angle_alpha 90.000000
_cell_angle_beta 90.000000
_cell_angle_gamma 90.000000
_cell_volume 2100.734049
_symmetry_space_group_name_H-M "P N N M"
_symmetry_group_IT_number 58
_symmetry_cell_setting 'orthorhombic'
loop_
_space_group_symop_operation_xyz
x,y,z
-x,-y,z
1/2+x,1/2-y,1/2-z
1/2-x,1/2+y,1/2-z
-x,-y,-z
x,y,-z
1/2-x,1/2+y,1/2+z
1/2+x,1/2-y,1/2+z
loop_
_atom_site_type_symbol
_atom_site_label
_atom_site_fract_x
_atom_site_fract_y
_atom_site_fract_z
Si Si1 0.147301 0.924987 0.390980
Si Si2 0.639030 0.082544 0.351380
Si Si3 0.685971 0.085416 0.054468
Si Si4 0.600642 0.713182 0.206286
Si Si5 0.385118 0.794303 0.244454
Si Si6 0.098749 0.910950 0.092677
O O1 0.249680 0.957949 0.364716
O O2 0.155852 0.687769 0.425618
O O3 0.082643 0.847999 0.347348
O O4 0.132645 0.187077 0.418096
O O5 0.623164 0.106437 0.296629
O O6 0.614165 0.355895 0.372329
O O7 0.588206 0.846301 0.377338
O O8 0.802517 0.112594 0.063112
O O9 0.666544 0.104031 0.000000
O O10 0.498055 0.752366 0.231483
O O11 0.654730 0.483660 0.232269
O O12 0.652696 0.983635 0.210790
O O13 0.000000 0.000000 0.066978
#
# Coordination Sequence:
#
# PCOD9444053 Si02
#       6
#     8   8   8   8   8   8
#     4  10  21  38  56  83 113 145 183 235 285 331
#     4  10  21  34  52  79 116 150 194 225 266 319
#     4  10  21  39  60  83 107 140 187 234 287 348
#     4  10  21  34  53  80 112 149 190 227 276 319
#     4  10  21  34  52  81 109 154 191 225 262 331
#     4  10  21  33  54  80 112 150 180 232 275 322
#
# _framework density 22.849159
#
# number of rings (size 3 to 8) (size 9 to 14) (size 15 to 20)
#    0.000    2.000    0.000    3.000    7.000    1.667 
#    0.000    0.000    0.000    6.000    0.000   46.667 
#    0.000    0.000    0.000    0.000    0.000    0.000 
#
# Total GULP energy -268091.304366 kJ/mol
# GULP energy per Si atom -5585.235508 kJ/mol
# Density = 2.279715 g / cm^3
# Si number density = 22.849159 Si / 1000 Ang^3
#
#
#
# Elastic Constant Matrix: (Units=GPa)
#
#
# Indices 1 2 3 4 5 6 
#
# 1 19.2207 12.6245 15.5490 0.0000 0.0000 0.0000
# 2 12.6245 169.5032 39.1482 0.0000 0.0000 0.0000
# 3 15.5490 39.1482 131.1410 0.0000 0.0000 0.0000
# 4 0.0000 0.0000 0.0000 102.2275 0.0000 0.0000
# 5 0.0000 0.0000 0.0000 0.0000 3.5058 0.0000
# 6 0.0000 0.0000 0.0000 0.0000 0.0000 6.3497
#
#
#
# Elastic Compliance Matrix: (Units=1/GPa)
#
#
# Indices 1 2 3 4 5 6 
#
# 1 0.058916 -0.002980 -0.006096 0.000000 0.000000 0.000000
# 2 -0.002980 0.006487 -0.001583 0.000000 0.000000 0.000000
# 3 -0.006096 -0.001583 0.008821 0.000000 0.000000 0.000000
# 4 0.000000 0.000000 0.000000 0.009782 0.000000 0.000000
# 5 0.000000 0.000000 0.000000 0.000000 0.285246 0.000000
# 6 0.000000 0.000000 0.000000 0.000000 0.000000 0.157487
#
#
# Mechanical properties :
#
#
# Convention : Reuss Voigt Hill
#
# Bulk Modulus (GPa) = 18.90158 50.50091 34.70124
# Shear Modulus (GPa) = 8.83873 39.25281 24.04577
#
# Velocity S-wave (km/s) = 1.96893 4.14927 3.24754
# Velocity P-wave (km/s) = 3.66868 6.71603 5.41130
#
# Compressibility (1/GPa) = 0.05290563
#
# Stress axis : x y z
#
# Youngs Moduli (GPa) = 16.97330 154.14944 113.36886
#
# Poissons Ratio (x) = 0.45939 0.69108
# Poissons Ratio (y) = 0.05058 0.17949
# Poissons Ratio (z) = 0.10347 0.24405
#
# Static dielectric constant tensor:
#      x y z
#    x 2.070610 0.000000 0.000000 
#    y 0.000000 1.941510 0.000000 
#    z 0.000000 0.000000 1.784840 
# 
# From -- ./inp_files/32301.got.cif
#   From: 2010.05.17/outbox.cif.g08.bks.cpg/sg58_17_cif.got.tgz:32301.got - 2010.06.03 14:20:14.
