data_PCOD9444531
_publ_section_title
;
Structure prediction by ZEFSAII (Michael W. Deem and Ramdas Pophale) SiO2 
 PCOD9444531
Probable space group: P N N M
;
_chemical_formula_sum "Si O2"
_cell_formula_units_Z 40
_cell_length_a 7.394906
_cell_length_b 24.686706
_cell_length_c 11.115278
_cell_angle_alpha 90.000000
_cell_angle_beta 90.000000
_cell_angle_gamma 90.000000
_cell_volume 2029.159249
_symmetry_space_group_name_H-M "P N N M"
_symmetry_group_IT_number 58
_symmetry_cell_setting 'orthorhombic'
loop_
_space_group_symop_operation_xyz
x,y,z
-x,-y,z
1/2+x,1/2-y,1/2-z
1/2-x,1/2+y,1/2-z
-x,-y,-z
x,y,-z
1/2-x,1/2+y,1/2+z
1/2+x,1/2-y,1/2+z
loop_
_atom_site_type_symbol
_atom_site_label
_atom_site_fract_x
_atom_site_fract_y
_atom_site_fract_z
Si Si1 0.955794 0.667110 0.715133
Si Si2 0.367963 0.550661 0.868436
Si Si3 0.383955 0.344222 0.133594
Si Si4 0.787775 0.776942 0.358642
Si Si5 0.380673 0.055192 0.133429
O O1 0.809861 0.646480 0.811071
O O2 0.836633 0.713273 0.647965
O O3 0.124996 0.696966 0.781083
O O4 0.018338 0.613564 0.643892
O O5 0.500000 0.500000 0.860704
O O6 0.500921 0.601533 0.869699
O O7 0.243804 0.553443 0.751564
O O8 0.271957 0.549418 0.000000
O O9 0.526682 0.303271 0.192335
O O10 0.353286 0.321962 0.000000
O O11 0.761212 0.791705 0.500000
O O12 0.500000 0.000000 0.138571
O O13 0.291608 0.054320 0.000000
#
# Coordination Sequence:
#
# PCOD9444531 Si02
#       5
#     8   8   8   8   8
#     4  12  22  42  65  92 129 175 216 268 336 395
#     4  10  21  40  65  95 129 170 223 275 324 389
#     4  10  21  38  61  91 125 161 214 275 324 385
#     4  11  23  39  61  91 125 165 218 274 325 389
#     4  11  25  43  65  97 138 177 221 274 329 399
#
# _framework density 19.712599000000001
#
# number of rings (size 3 to 8) (size 9 to 14) (size 15 to 20)
#    0.000    1.200    4.000    2.400    0.000    1.600 
#    0.000    4.000    0.000    0.000    0.000    0.000 
#    0.000    0.000    0.000    0.000    0.000    0.000 
#
# Total GULP energy -222679.087482 kJ/mol
# GULP energy per Si atom -5566.977187 kJ/mol
# Density = 1.966773 g / cm^3
# Si number density = 19.712599 Si / 1000 Ang^3
#
#
#
# Elastic Constant Matrix: (Units=GPa)
#
#
# Indices 1 2 3 4 5 6 
#
# 1 71.1908 16.0217 70.2270 0.0000 0.0000 0.0000
# 2 16.0217 122.1994 25.6452 0.0000 0.0000 0.0000
# 3 70.2270 25.6452 128.1291 0.0000 0.0000 0.0000
# 4 0.0000 0.0000 0.0000 7.4200 0.0000 0.0000
# 5 0.0000 0.0000 0.0000 0.0000 862.3640 0.0000
# 6 0.0000 0.0000 0.0000 0.0000 0.0000 26.2032
#
#
#
# Elastic Compliance Matrix: (Units=1/GPa)
#
#
# Indices 1 2 3 4 5 6 
#
# 1 0.030612 -0.000514 -0.016676 0.000000 0.000000 0.000000
# 2 -0.000514 0.008551 -0.001430 0.000000 0.000000 0.000000
# 3 -0.016676 -0.001430 0.017231 0.000000 0.000000 0.000000
# 4 0.000000 0.000000 0.000000 0.134770 0.000000 0.000000
# 5 0.000000 0.000000 0.000000 0.000000 0.001160 0.000000
# 6 0.000000 0.000000 0.000000 0.000000 0.000000 0.038163
#
#
# Mechanical properties :
#
#
# Convention : Reuss Voigt Hill
#
# Bulk Modulus (GPa) = 52.20560 60.58967 56.39763
# Shear Modulus (GPa) = 18.24083 193.17246 105.70665
#
# Velocity S-wave (km/s) = 3.04524 9.90995 7.33078
# Velocity P-wave (km/s) = 6.23743 12.71794 10.01628
#
# Compressibility (1/GPa) = 0.01915503
#
# Stress axis : x y z
#
# Youngs Moduli (GPa) = 32.66669 116.94831 58.03636
#
# Poissons Ratio (x) = 0.06011 0.96779
# Poissons Ratio (y) = 0.01679 0.08298
# Poissons Ratio (z) = 0.54473 0.16720
#
# Static dielectric constant tensor:
#      x y z
#    x 1.631060 0.000000 0.000000 
#    y 0.000000 1.822890 0.000000 
#    z 0.000000 0.000000 1.746710 
# 
# From -- ./inp_files/11753.got.cif
#   From: 2010.05.17/outbox.cif.g08.bks.cpg/sg58_6_cif.got.tgz:11753.got - 2010.06.03 14:20:14.
