data_PCOD9444452
_publ_section_title
;
Structure prediction by ZEFSAII (Michael W. Deem and Ramdas Pophale) SiO2 
 PCOD9444452
Probable space group: P N N M
;
_chemical_formula_sum "Si O2"
_cell_formula_units_Z 64
_cell_length_a 24.632920
_cell_length_b 15.768108
_cell_length_c 7.887913
_cell_angle_alpha 90.000000
_cell_angle_beta 90.000000
_cell_angle_gamma 90.000000
_cell_volume 3063.780122
_symmetry_space_group_name_H-M "P N N M"
_symmetry_group_IT_number 58
_symmetry_cell_setting 'orthorhombic'
loop_
_space_group_symop_operation_xyz
x,y,z
-x,-y,z
1/2+x,1/2-y,1/2-z
1/2-x,1/2+y,1/2-z
-x,-y,-z
x,y,-z
1/2-x,1/2+y,1/2+z
1/2+x,1/2-y,1/2+z
loop_
_atom_site_type_symbol
_atom_site_label
_atom_site_fract_x
_atom_site_fract_y
_atom_site_fract_z
Si Si1 0.504307 0.171312 0.198157
Si Si2 0.507501 0.360020 0.695822
Si Si3 0.126912 0.095462 0.696639
Si Si4 0.196146 0.255175 0.707809
Si Si5 0.392719 0.410956 0.699790
Si Si6 0.606514 0.903661 0.700313
Si Si7 0.381389 0.907008 0.795121
Si Si8 0.679144 0.745892 0.292455
O O1 0.495006 0.259791 0.293585
O O2 0.452105 0.111909 0.216907
O O3 0.559149 0.126085 0.259231
O O4 0.511883 0.192683 0.000000
O O5 0.515935 0.386045 0.500000
O O6 0.564173 0.376865 0.786693
O O7 0.454316 0.406570 0.768731
O O8 0.140543 0.085210 0.500000
O O9 0.164192 0.171146 0.766099
O O10 0.132201 0.003452 0.778690
O O11 0.194913 0.254423 0.500000
O O12 0.163146 0.338666 0.761227
O O13 0.258475 0.255946 0.762534
O O14 0.399252 0.393701 0.500000
O O15 0.354826 0.335870 0.767306
O O16 0.598974 0.891933 0.500000
O O17 0.647839 0.830980 0.760428
O O18 0.627419 0.997880 0.733612
O O19 0.381335 0.908805 0.000000
O O20 0.679982 0.744635 0.500000
#
# Coordination Sequence:
#
# PCOD9444452 Si02
#       8
#     8   8   8   8   8   8   8   8
#     4  11  21  36  59  86 117 151 188 233 286 345
#     4  11  21  36  59  86 117 151 188 233 286 345
#     4  11  22  37  58  88 117 150 191 233 286 342
#     4   9  19  38  60  80 111 154 194 233 282 338
#     4  10  21  38  58  84 114 150 190 231 283 340
#     4  11  22  37  58  88 117 150 191 233 286 342
#     4  10  21  38  58  84 114 150 190 231 283 340
#     4   9  19  38  60  80 111 154 194 233 282 338
#
# _framework density 20.889227999999999
#
# number of rings (size 3 to 8) (size 9 to 14) (size 15 to 20)
#    0.000    1.750    2.500    2.250    0.000    6.000 
#    0.000    0.000    0.000    5.250    0.000    0.000 
#    0.000    0.000    0.000    0.000    0.000    0.000 
#
# Total GULP energy -357693.698892 kJ/mol
# GULP energy per Si atom -5588.964045 kJ/mol
# Density = 2.084168 g / cm^3
# Si number density = 20.889228 Si / 1000 Ang^3
#
#
#
# Elastic Constant Matrix: (Units=GPa)
#
#
# Indices 1 2 3 4 5 6 
#
# 1 142.9085 52.0435 5.4214 0.0000 0.0000 0.0000
# 2 52.0435 122.9666 -1.7011 0.0000 0.0000 0.0000
# 3 5.4214 -1.7011 23.1438 0.0000 0.0000 0.0000
# 4 0.0000 0.0000 0.0000 29.5600 0.0000 0.0000
# 5 0.0000 0.0000 0.0000 0.0000 14.7912 0.0000
# 6 0.0000 0.0000 0.0000 0.0000 0.0000 6.0867
#
#
#
# Elastic Compliance Matrix: (Units=1/GPa)
#
#
# Indices 1 2 3 4 5 6 
#
# 1 0.008386 -0.003580 -0.002227 0.000000 0.000000 0.000000
# 2 -0.003580 0.009669 0.001549 0.000000 0.000000 0.000000
# 3 -0.002227 0.001549 0.043844 0.000000 0.000000 0.000000
# 4 0.000000 0.000000 0.000000 0.033830 0.000000 0.000000
# 5 0.000000 0.000000 0.000000 0.000000 0.067608 0.000000
# 6 0.000000 0.000000 0.000000 0.000000 0.000000 0.164292
#
#
# Mechanical properties :
#
#
# Convention : Reuss Voigt Hill
#
# Bulk Modulus (GPa) = 18.73288 44.50519 31.61903
# Shear Modulus (GPa) = 14.12677 25.63792 19.88234
#
# Velocity S-wave (km/s) = 2.60334 3.50712 3.08847
# Velocity P-wave (km/s) = 4.24543 6.14422 5.28087
#
# Compressibility (1/GPa) = 0.05338208
#
# Stress axis : x y z
#
# Youngs Moduli (GPa) = 119.25064 103.42479 22.80825
#
# Poissons Ratio (x) = 0.37025 0.05080
# Poissons Ratio (y) = 0.42691 -0.03534
# Poissons Ratio (z) = 0.26563 -0.16023
#
# Static dielectric constant tensor:
#      x y z
#    x 1.724660 0.000000 0.000000 
#    y 0.000000 1.725040 0.000000 
#    z 0.000000 0.000000 1.775680 
# 
# From -- ./inp_files/10070.got.cif
#   From: 2010.05.17/outbox.cif.g08.bks.cpg/sg58_6_cif.got.tgz:10070.got - 2010.06.03 14:20:14.
