data_PCOD9444497
_publ_section_title
;
Structure prediction by ZEFSAII (Michael W. Deem and Ramdas Pophale) SiO2 
 PCOD9444497
Probable space group: P N N M
;
_chemical_formula_sum "Si O2"
_cell_formula_units_Z 32
_cell_length_a 9.645677
_cell_length_b 8.189554
_cell_length_c 18.673347
_cell_angle_alpha 90.000000
_cell_angle_beta 90.000000
_cell_angle_gamma 90.000000
_cell_volume 1475.078501
_symmetry_space_group_name_H-M "P N N M"
_symmetry_group_IT_number 58
_symmetry_cell_setting 'orthorhombic'
loop_
_space_group_symop_operation_xyz
x,y,z
-x,-y,z
1/2+x,1/2-y,1/2-z
1/2-x,1/2+y,1/2-z
-x,-y,-z
x,y,-z
1/2-x,1/2+y,1/2+z
1/2+x,1/2-y,1/2+z
loop_
_atom_site_type_symbol
_atom_site_label
_atom_site_fract_x
_atom_site_fract_y
_atom_site_fract_z
Si Si1 0.709742 0.618639 0.416555
Si Si2 0.005660 0.808053 0.804559
Si Si3 0.514331 0.308576 0.923695
Si Si4 0.198220 0.672431 0.689272
O O1 0.701323 0.564239 0.500000
O O2 0.562536 0.677442 0.385571
O O3 0.827340 0.756996 0.413057
O O4 0.761931 0.490108 0.355852
O O5 0.113611 0.691793 0.763105
O O6 0.848582 0.746082 0.799684
O O7 0.000000 0.000000 0.776422
O O8 0.500000 0.500000 0.927726
O O9 0.411806 0.253257 0.863113
O O10 0.471143 0.232204 0.000000
#
# Coordination Sequence:
#
# PCOD9444497 Si02
#       4
#     8   8   8   8
#     4  10  22  42  67  94 124 161 208 259 310 370
#     4  10  23  39  60  90 126 162 201 257 310 367
#     4  10  21  38  60  87 122 159 198 248 305 366
#     4  11  21  37  61  88 121 160 205 251 305 363
#
# _framework density 21.693760000000001
#
# number of rings (size 3 to 8) (size 9 to 14) (size 15 to 20)
#    0.000    1.750    0.000    3.750    0.000   11.500 
#    0.000    6.250    0.000    4.500    0.000    0.000 
#    0.000    0.000    0.000    0.000    0.000    0.000 
#
# Total GULP energy -178299.212261 kJ/mol
# GULP energy per Si atom -5571.850383 kJ/mol
# Density = 2.164438 g / cm^3
# Si number density = 21.693760 Si / 1000 Ang^3
#
#
#
# Elastic Constant Matrix: (Units=GPa)
#
#
# Indices 1 2 3 4 5 6 
#
# 1 115.2932 -12.5733 29.7985 0.0000 0.0000 0.0000
# 2 -12.5733 13.1652 8.3845 0.0000 0.0000 0.0000
# 3 29.7985 8.3845 105.0534 0.0000 0.0000 0.0000
# 4 0.0000 0.0000 0.0000 5.2194 0.0000 0.0000
# 5 0.0000 0.0000 0.0000 0.0000 42.5772 0.0000
# 6 0.0000 0.0000 0.0000 0.0000 0.0000 23.1024
#
#
#
# Elastic Compliance Matrix: (Units=1/GPa)
#
#
# Indices 1 2 3 4 5 6 
#
# 1 0.011242 0.013451 -0.004262 0.000000 0.000000 0.000000
# 2 0.013451 0.096120 -0.011487 0.000000 0.000000 0.000000
# 3 -0.004262 -0.011487 0.011645 0.000000 0.000000 0.000000
# 4 0.000000 0.000000 0.000000 0.191594 0.000000 0.000000
# 5 0.000000 0.000000 0.000000 0.000000 0.023487 0.000000
# 6 0.000000 0.000000 0.000000 0.000000 0.000000 0.043286
#
#
# Mechanical properties :
#
#
# Convention : Reuss Voigt Hill
#
# Bulk Modulus (GPa) = 8.74041 31.63679 20.18860
# Shear Modulus (GPa) = 11.90174 28.03993 19.97084
#
# Velocity S-wave (km/s) = 2.34482 3.59908 3.03740
# Velocity P-wave (km/s) = 3.37174 5.64679 4.65053
#
# Compressibility (1/GPa) = 0.11441112
#
# Stress axis : x y z
#
# Youngs Moduli (GPa) = 88.95113 10.40362 85.87526
#
# Poissons Ratio (x) = -0.13994 0.36604
# Poissons Ratio (y) = -1.19651 0.98645
# Poissons Ratio (z) = 0.37915 0.11951
#
# Static dielectric constant tensor:
#      x y z
#    x 1.831440 0.000000 0.000000 
#    y 0.000000 1.845120 0.000000 
#    z 0.000000 0.000000 1.999900 
# 
# From -- ./inp_files/28430.got.cif
#   From: 2010.05.17/outbox.cif.g08.bks.cpg/sg58_15_cif.got.tgz:28430.got - 2010.06.03 14:20:14.
