data_PCOD9444333
_publ_section_title
;
Structure prediction by ZEFSAII (Michael W. Deem and Ramdas Pophale) SiO2 
 PCOD9444333
Probable space group: P N N M
;
_chemical_formula_sum "Si O2"
_cell_formula_units_Z 48
_cell_length_a 31.786321
_cell_length_b 9.180999
_cell_length_c 8.550734
_cell_angle_alpha 90.000000
_cell_angle_beta 90.000000
_cell_angle_gamma 90.000000
_cell_volume 2495.362254
_symmetry_space_group_name_H-M "P N N M"
_symmetry_group_IT_number 58
_symmetry_cell_setting 'orthorhombic'
loop_
_space_group_symop_operation_xyz
x,y,z
-x,-y,z
1/2+x,1/2-y,1/2-z
1/2-x,1/2+y,1/2-z
-x,-y,-z
x,y,-z
1/2-x,1/2+y,1/2+z
1/2+x,1/2-y,1/2+z
loop_
_atom_site_type_symbol
_atom_site_label
_atom_site_fract_x
_atom_site_fract_y
_atom_site_fract_z
Si Si1 0.957082 0.080708 0.689221
Si Si2 0.375310 0.917777 0.688957
Si Si3 0.042492 0.581596 0.310960
Si Si4 0.792531 0.083752 0.687576
Si Si5 0.874550 0.919113 0.187617
Si Si6 0.708709 0.912047 0.310863
O O1 0.955032 0.076722 0.500000
O O2 0.957649 0.249608 0.738472
O O3 0.916567 0.998918 0.755166
O O4 0.000000 0.000000 0.737213
O O5 0.376147 0.919467 0.500000
O O6 0.374628 0.749447 0.739923
O O7 0.416466 0.999336 0.750127
O O8 0.333099 0.001514 0.739940
O O9 0.043177 0.578788 0.500000
O O10 0.000000 0.500000 0.259118
O O11 0.793227 0.085488 0.500000
O O12 0.791559 0.248594 0.747985
O O13 0.833797 0.001878 0.748352
O O14 0.750616 0.997760 0.739297
O O15 0.873183 0.921892 0.000000
O O16 0.708533 0.907222 0.500000
#
# Coordination Sequence:
#
# PCOD9444333 Si02
#       6
#     8   8   8   8   8   8
#     4  10  21  38  60  86 116 150 192 240 288 343
#     4  10  22  39  58  82 113 150 190 233 282 337
#     4  10  21  37  58  84 113 147 187 233 285 338
#     4  11  23  39  61  88 117 151 192 235 284 342
#     4  11  23  39  59  84 117 154 193 237 286 341
#     4  10  22  40  60  84 116 151 188 234 285 337
#
# _framework density 19.235683999999999
#
# number of rings (size 3 to 8) (size 9 to 14) (size 15 to 20)
#    0.000    1.667    0.000    4.000    0.000   10.000 
#    0.000    0.000    0.000    0.000    0.000    0.000 
#    0.000    0.000    0.000    0.000    0.000    0.000 
#
# Total GULP energy -268391.632907 kJ/mol
# GULP energy per Si atom -5591.492352 kJ/mol
# Density = 1.919190 g / cm^3
# Si number density = 19.235684 Si / 1000 Ang^3
#
#
#
# Elastic Constant Matrix: (Units=GPa)
#
#
# Indices 1 2 3 4 5 6 
#
# 1 241.7014 149.5085 37.9309 0.0000 0.0000 0.0000
# 2 149.5085 244.1473 39.3237 0.0000 0.0000 0.0000
# 3 37.9309 39.3237 14.9421 0.0000 0.0000 0.0000
# 4 0.0000 0.0000 0.0000 31.8956 0.0000 0.0000
# 5 0.0000 0.0000 0.0000 0.0000 147.6561 0.0000
# 6 0.0000 0.0000 0.0000 0.0000 0.0000 46.8096
#
#
#
# Elastic Compliance Matrix: (Units=1/GPa)
#
#
# Indices 1 2 3 4 5 6 
#
# 1 0.007821 -0.002763 -0.012583 0.000000 0.000000 0.000000
# 2 -0.002763 0.008085 -0.014265 0.000000 0.000000 0.000000
# 3 -0.012583 -0.014265 0.136411 0.000000 0.000000 0.000000
# 4 0.000000 0.000000 0.000000 0.031352 0.000000 0.000000
# 5 0.000000 0.000000 0.000000 0.000000 0.006772 0.000000
# 6 0.000000 0.000000 0.000000 0.000000 0.000000 0.021363
#
#
# Mechanical properties :
#
#
# Convention : Reuss Voigt Hill
#
# Bulk Modulus (GPa) = 10.74179 106.03524 58.38852
# Shear Modulus (GPa) = 16.55308 63.54076 40.04692
#
# Velocity S-wave (km/s) = 2.93668 5.75365 4.56774
# Velocity P-wave (km/s) = 4.13463 9.96911 7.63146
#
# Compressibility (1/GPa) = 0.09309433
#
# Stress axis : x y z
#
# Youngs Moduli (GPa) = 127.86287 123.68161 7.33081
#
# Poissons Ratio (x) = 0.34168 0.09224
# Poissons Ratio (y) = 0.35323 0.10458
# Poissons Ratio (z) = 1.60892 1.76438
#
# Static dielectric constant tensor:
#      x y z
#    x 1.628940 0.000000 0.000000 
#    y 0.000000 1.639760 0.000000 
#    z 0.000000 0.000000 1.661820 
# 
# From -- ./inp_files/2915.got.cif
#   From: 2010.05.17/outbox.cif.g08.bks.cpg/sg58_2_cif.got.tgz:2915.got - 2010.06.03 14:20:14.
