data_PCOD9444072
_publ_section_title
;
Structure prediction by ZEFSAII (Michael W. Deem and Ramdas Pophale) SiO2 
 PCOD9444072
Probable space group: P N N M
;
_chemical_formula_sum "Si O2"
_cell_formula_units_Z 40
_cell_length_a 5.133449
_cell_length_b 28.479621
_cell_length_c 13.034328
_cell_angle_alpha 90.000000
_cell_angle_beta 90.000000
_cell_angle_gamma 90.000000
_cell_volume 1905.601574
_symmetry_space_group_name_H-M "P N N M"
_symmetry_group_IT_number 58
_symmetry_cell_setting 'orthorhombic'
loop_
_space_group_symop_operation_xyz
x,y,z
-x,-y,z
1/2+x,1/2-y,1/2-z
1/2-x,1/2+y,1/2-z
-x,-y,-z
x,y,-z
1/2-x,1/2+y,1/2+z
1/2+x,1/2-y,1/2+z
loop_
_atom_site_type_symbol
_atom_site_label
_atom_site_fract_x
_atom_site_fract_y
_atom_site_fract_z
Si Si1 0.079074 0.054106 0.879690
Si Si2 0.271188 0.685353 0.280785
Si Si3 0.165772 0.851854 0.615939
Si Si4 0.425849 0.898458 0.212990
Si Si5 0.466690 0.240083 0.390616
O O1 0.828994 0.084746 0.847199
O O2 0.333485 0.067937 0.814594
O O3 0.138951 0.061489 0.000000
O O4 0.000000 0.000000 0.864915
O O5 0.440736 0.654962 0.200465
O O6 0.030262 0.653666 0.315445
O O7 0.414058 0.708697 0.375830
O O8 0.202463 0.729477 0.208627
O O9 0.080446 0.862729 0.500000
O O10 0.349956 0.891363 0.667334
O O11 0.323447 0.802491 0.610962
O O12 0.325380 0.236291 0.500000
#
# Coordination Sequence:
#
# PCOD9444072 Si02
#       5
#     8   8   8   8   8
#     4  11  24  45  72  99 130 167 205 255 333 414
#     4  11  20  38  59  90 132 171 222 269 314 374
#     4  10  21  40  64  89 126 177 222 262 314 376
#     4  11  23  42  65 100 130 167 214 270 314 386
#     4  10  21  34  55  85 123 172 219 266 315 365
#
# _framework density 20.990748
#
# number of rings (size 3 to 8) (size 9 to 14) (size 15 to 20)
#    0.000    1.400    4.000    1.800    0.000    4.000 
#    0.000    0.000    0.000    3.600    0.000    0.000 
#    0.000    0.000    0.000    0.000    0.000    0.000 
#
# Total GULP energy -223180.851263 kJ/mol
# GULP energy per Si atom -5579.521282 kJ/mol
# Density = 2.094297 g / cm^3
# Si number density = 20.990748 Si / 1000 Ang^3
#
#
#
# Elastic Constant Matrix: (Units=GPa)
#
#
# Indices 1 2 3 4 5 6 
#
# 1 87.3849 22.3954 36.2800 0.0000 0.0000 0.0000
# 2 22.3954 67.2878 53.6920 0.0000 0.0000 0.0000
# 3 36.2800 53.6920 96.1200 0.0000 0.0000 0.0000
# 4 0.0000 0.0000 0.0000 16.7103 0.0000 0.0000
# 5 0.0000 0.0000 0.0000 0.0000 17.1142 0.0000
# 6 0.0000 0.0000 0.0000 0.0000 0.0000 35.7905
#
#
#
# Elastic Compliance Matrix: (Units=1/GPa)
#
#
# Indices 1 2 3 4 5 6 
#
# 1 0.013593 -0.000776 -0.004697 0.000000 0.000000 0.000000
# 2 -0.000776 0.026857 -0.014709 0.000000 0.000000 0.000000
# 3 -0.004697 -0.014709 0.020393 0.000000 0.000000 0.000000
# 4 0.000000 0.000000 0.000000 0.059843 0.000000 0.000000
# 5 0.000000 0.000000 0.000000 0.000000 0.058431 0.000000
# 6 0.000000 0.000000 0.000000 0.000000 0.000000 0.027940
#
#
# Mechanical properties :
#
#
# Convention : Reuss Voigt Hill
#
# Bulk Modulus (GPa) = 48.83279 52.83638 50.83458
# Shear Modulus (GPa) = 19.66587 23.15137 21.40862
#
# Velocity S-wave (km/s) = 3.06417 3.32464 3.19706
# Velocity P-wave (km/s) = 5.98610 6.32168 6.15617
#
# Compressibility (1/GPa) = 0.02047804
#
# Stress axis : x y z
#
# Youngs Moduli (GPa) = 73.56960 37.23431 49.03662
#
# Poissons Ratio (x) = 0.02890 0.23032
# Poissons Ratio (y) = 0.05710 0.72129
# Poissons Ratio (z) = 0.34555 0.54769
#
# Static dielectric constant tensor:
#      x y z
#    x 1.839800 0.000000 0.000000 
#    y 0.000000 1.753200 0.000000 
#    z 0.000000 0.000000 1.722320 
# 
# From -- ./inp_files/11749.got.cif
#   From: 2010.05.17/outbox.cif.g08.bks.cpg/sg58_6_cif.got.tgz:11749.got - 2010.06.03 14:20:14.
