data_PCOD9444487
_publ_section_title
;
Structure prediction by ZEFSAII (Michael W. Deem and Ramdas Pophale) SiO2 
 PCOD9444487
Probable space group: P N N M
;
_chemical_formula_sum "Si O2"
_cell_formula_units_Z 48
_cell_length_a 12.272883
_cell_length_b 22.606386
_cell_length_c 7.631239
_cell_angle_alpha 90.000000
_cell_angle_beta 90.000000
_cell_angle_gamma 90.000000
_cell_volume 2117.253152
_symmetry_space_group_name_H-M "P N N M"
_symmetry_group_IT_number 58
_symmetry_cell_setting 'orthorhombic'
loop_
_space_group_symop_operation_xyz
x,y,z
-x,-y,z
1/2+x,1/2-y,1/2-z
1/2-x,1/2+y,1/2-z
-x,-y,-z
x,y,-z
1/2-x,1/2+y,1/2+z
1/2+x,1/2-y,1/2+z
loop_
_atom_site_type_symbol
_atom_site_label
_atom_site_fract_x
_atom_site_fract_y
_atom_site_fract_z
Si Si1 0.356530 0.766221 0.795540
Si Si2 0.283792 0.639921 0.699649
Si Si3 0.487266 0.567450 0.288739
Si Si4 0.779140 0.116446 0.708983
Si Si5 0.040919 0.652148 0.714157
Si Si6 0.593178 0.040185 0.301465
O O1 0.322280 0.707681 0.696750
O O2 0.273923 0.821968 0.773532
O O3 0.478031 0.787346 0.744538
O O4 0.357538 0.750863 0.000000
O O5 0.268408 0.618777 0.500000
O O6 0.377738 0.599110 0.779461
O O7 0.163103 0.642536 0.777437
O O8 0.500000 0.500000 0.224929
O O9 0.479822 0.565591 0.500000
O O10 0.594778 0.605625 0.247520
O O11 0.764355 0.116482 0.500000
O O12 0.709427 0.059241 0.777707
O O13 0.035845 0.646688 0.500000
O O14 0.966844 0.602831 0.801433
O O15 0.610751 0.016976 0.500000
O O16 0.500000 0.000000 0.213480
#
# Coordination Sequence:
#
# PCOD9444487 Si02
#       6
#     8   8   8   8   8   8
#     4  10  21  38  60  88 115 146 192 240 294 354
#     4  10  22  39  59  85 118 153 189 239 296 347
#     4  10  23  41  60  86 122 162 204 246 296 356
#     4  10  21  38  60  85 117 154 193 241 294 350
#     4   9  20  37  56  82 112 144 187 233 281 344
#     4   9  19  35  56  83 113 145 184 234 287 336
#
# _framework density 22.670884000000001
#
# number of rings (size 3 to 8) (size 9 to 14) (size 15 to 20)
#    0.000    2.333    0.000    1.000    4.667    3.333 
#    0.000    0.000    0.000    0.000    0.000    0.000 
#    0.000    0.000    0.000    0.000    0.000    0.000 
#
# Total GULP energy -267728.853784 kJ/mol
# GULP energy per Si atom -5577.684454 kJ/mol
# Density = 2.261928 g / cm^3
# Si number density = 22.670884 Si / 1000 Ang^3
#
#
#
# Elastic Constant Matrix: (Units=GPa)
#
#
# Indices 1 2 3 4 5 6 
#
# 1 153.2300 16.4026 -0.6581 0.0000 0.0000 0.0000
# 2 16.4026 46.7267 -7.0312 0.0000 0.0000 0.0000
# 3 -0.6581 -7.0312 51.4229 0.0000 0.0000 0.0000
# 4 0.0000 0.0000 0.0000 20.9763 0.0000 0.0000
# 5 0.0000 0.0000 0.0000 0.0000 -11.5652 0.0000
# 6 0.0000 0.0000 0.0000 0.0000 0.0000 14.8585
#
#
#
# Elastic Compliance Matrix: (Units=1/GPa)
#
#
# Indices 1 2 3 4 5 6 
#
# 1 0.006784 -0.002418 -0.000244 0.000000 0.000000 0.000000
# 2 -0.002418 0.022713 0.003075 0.000000 0.000000 0.000000
# 3 -0.000244 0.003075 0.019864 0.000000 0.000000 0.000000
# 4 0.000000 0.000000 0.000000 0.047673 0.000000 0.000000
# 5 0.000000 0.000000 0.000000 0.000000 -0.086466 0.000000
# 6 0.000000 0.000000 0.000000 0.000000 0.000000 0.067302
#
#
# Mechanical properties :
#
#
# Convention : Reuss Voigt Hill
#
# Bulk Modulus (GPa) = 19.92596 29.86735 24.89666
# Shear Modulus (GPa) = 53.32090 21.03166 37.17628
#
# Velocity S-wave (km/s) = 4.85496 3.04911 4.05387
# Velocity P-wave (km/s) = 6.34317 5.05955 5.73737
#
# Compressibility (1/GPa) = 0.05018578
#
# Stress axis : x y z
#
# Youngs Moduli (GPa) = 147.40708 44.02860 50.34265
#
# Poissons Ratio (x) = 0.10646 0.01227
# Poissons Ratio (y) = 0.35644 -0.15478
# Poissons Ratio (z) = 0.03594 -0.13537
#
# Static dielectric constant tensor:
#      x y z
#    x 1.892600 0.000000 0.000000 
#    y 0.000000 1.843940 0.000000 
#    z 0.000000 0.000000 1.902700 
# 
# From -- ./inp_files/4192.got.cif
#   From: 2010.05.17/outbox.cif.g08.bks.cpg/sg58_3_cif.got.tgz:4192.got - 2010.06.03 14:20:14.
