data_PCOD9444197
_publ_section_title
;
Structure prediction by ZEFSAII (Michael W. Deem and Ramdas Pophale) SiO2 
 PCOD9444197
Probable space group: P N N M
;
_chemical_formula_sum "Si O2"
_cell_formula_units_Z 64
_cell_length_a 7.377467
_cell_length_b 21.394313
_cell_length_c 18.134044
_cell_angle_alpha 90.000000
_cell_angle_beta 90.000000
_cell_angle_gamma 90.000000
_cell_volume 2862.202034
_symmetry_space_group_name_H-M "P N N M"
_symmetry_group_IT_number 58
_symmetry_cell_setting 'orthorhombic'
loop_
_space_group_symop_operation_xyz
x,y,z
-x,-y,z
1/2+x,1/2-y,1/2-z
1/2-x,1/2+y,1/2-z
-x,-y,-z
x,y,-z
1/2-x,1/2+y,1/2+z
1/2+x,1/2-y,1/2+z
loop_
_atom_site_type_symbol
_atom_site_label
_atom_site_fract_x
_atom_site_fract_y
_atom_site_fract_z
Si Si1 0.436610 0.063297 0.417467
Si Si2 0.526937 0.307952 0.309391
Si Si3 0.981782 0.911354 0.419400
Si Si4 0.069756 0.325424 0.177690
Si Si5 0.362752 0.157565 0.087775
Si Si6 0.934033 0.428286 0.287106
Si Si7 0.515188 0.716348 0.853104
Si Si8 0.017677 0.068664 0.253857
O O1 0.507952 0.061219 0.500000
O O2 0.220462 0.062142 0.419234
O O3 0.512665 0.126936 0.385398
O O4 0.500000 0.000000 0.377937
O O5 0.453547 0.238845 0.327578
O O6 0.673632 0.324184 0.371853
O O7 0.588159 0.293469 0.224257
O O8 0.434070 0.375254 0.294303
O O9 0.064198 0.926569 0.500000
O O10 0.057807 0.930762 0.338374
O O11 0.963737 0.836853 0.410865
O O12 0.274740 0.300427 0.168319
O O13 0.041303 0.371204 0.247407
O O14 0.419687 0.093861 0.128218
O O15 0.491141 0.215233 0.112718
O O16 0.349521 0.154168 0.000000
O O17 0.735417 0.421935 0.248667
O O18 0.000000 0.500000 0.282097
O O19 0.000000 0.000000 0.221663
#
# Coordination Sequence:
#
# PCOD9444197 Si02
#       8
#     8   8   8   8   8   8   8   8
#     4  10  22  38  55  82 129 172 202 249 315 376
#     4   9  21  38  62  90 121 157 206 255 307 373
#     4  10  21  36  56  85 125 165 207 255 309 371
#     4  11  21  37  63  88 119 163 210 263 313 381
#     4  10  21  41  65  92 127 166 208 264 327 380
#     4  11  23  38  61  92 121 161 212 266 321 369
#     4  10  21  37  64  94 123 160 213 262 315 380
#     4  10  22  39  59  86 121 163 208 257 310 383
#
# _framework density 22.360406000000001
#
# number of rings (size 3 to 8) (size 9 to 14) (size 15 to 20)
#    0.000    1.875    2.500    0.750    3.500    3.000 
#    0.000    1.250    0.000    6.750    0.000    0.000 
#    0.000    0.000    0.000    0.000    0.000    0.000 
#
# Total GULP energy -356594.860058 kJ/mol
# GULP energy per Si atom -5571.794688 kJ/mol
# Density = 2.230951 g / cm^3
# Si number density = 22.360406 Si / 1000 Ang^3
#
#
#
# Elastic Constant Matrix: (Units=GPa)
#
#
# Indices 1 2 3 4 5 6 
#
# 1 40.4247 1.0206 -1.0701 0.0000 0.0000 0.0000
# 2 1.0206 199.0850 59.8944 0.0000 0.0000 0.0000
# 3 -1.0701 59.8944 157.4683 0.0000 0.0000 0.0000
# 4 0.0000 0.0000 0.0000 25.6358 0.0000 0.0000
# 5 0.0000 0.0000 0.0000 0.0000 2.9902 0.0000
# 6 0.0000 0.0000 0.0000 0.0000 0.0000 30.2618
#
#
#
# Elastic Compliance Matrix: (Units=1/GPa)
#
#
# Indices 1 2 3 4 5 6 
#
# 1 0.024749 -0.000200 0.000244 0.000000 0.000000 0.000000
# 2 -0.000200 0.005674 -0.002159 0.000000 0.000000 0.000000
# 3 0.000244 -0.002159 0.007173 0.000000 0.000000 0.000000
# 4 0.000000 0.000000 0.000000 0.039008 0.000000 0.000000
# 5 0.000000 0.000000 0.000000 0.000000 0.334426 0.000000
# 6 0.000000 0.000000 0.000000 0.000000 0.000000 0.033045
#
#
# Mechanical properties :
#
#
# Convention : Reuss Voigt Hill
#
# Bulk Modulus (GPa) = 29.97128 57.40753 43.68941
# Shear Modulus (GPa) = 10.88312 34.25310 22.56811
#
# Velocity S-wave (km/s) = 2.20855 3.91815 3.18038
# Velocity P-wave (km/s) = 4.46502 6.79696 5.75044
#
# Compressibility (1/GPa) = 0.03336527
#
# Stress axis : x y z
#
# Youngs Moduli (GPa) = 40.40585 176.25330 139.40229
#
# Poissons Ratio (x) = 0.03532 -0.03407
# Poissons Ratio (y) = 0.00810 0.30102
# Poissons Ratio (z) = -0.00988 0.38060
#
# Static dielectric constant tensor:
#      x y z
#    x 1.921100 0.000000 0.000000 
#    y 0.000000 1.919490 0.000000 
#    z 0.000000 0.000000 1.842240 
# 
# From -- ./inp_files/25683.got.cif
#   From: 2010.05.17/outbox.cif.g08.bks.cpg/sg58_13_cif.got.tgz:25683.got - 2010.06.03 14:20:14.
