data_PCOD9444241
_publ_section_title
;
Structure prediction by ZEFSAII (Michael W. Deem and Ramdas Pophale) SiO2 
 PCOD9444241
Probable space group: P N N M
;
_chemical_formula_sum "Si O2"
_cell_formula_units_Z 48
_cell_length_a 28.029357
_cell_length_b 5.549463
_cell_length_c 13.607633
_cell_angle_alpha 90.000000
_cell_angle_beta 90.000000
_cell_angle_gamma 90.000000
_cell_volume 2116.638459
_symmetry_space_group_name_H-M "P N N M"
_symmetry_group_IT_number 58
_symmetry_cell_setting 'orthorhombic'
loop_
_space_group_symop_operation_xyz
x,y,z
-x,-y,z
1/2+x,1/2-y,1/2-z
1/2-x,1/2+y,1/2-z
-x,-y,-z
x,y,-z
1/2-x,1/2+y,1/2+z
1/2+x,1/2-y,1/2+z
loop_
_atom_site_type_symbol
_atom_site_label
_atom_site_fract_x
_atom_site_fract_y
_atom_site_fract_z
Si Si1 0.120584 0.704882 0.388098
Si Si2 0.959179 0.694129 0.397489
Si Si3 0.875798 0.947876 0.782347
Si Si4 0.300556 0.922092 0.211065
Si Si5 0.026174 0.239785 0.825712
Si Si6 0.203635 0.751332 0.884708
O O1 0.121810 0.796988 0.500000
O O2 0.088809 0.463227 0.388423
O O3 0.172705 0.628033 0.350930
O O4 0.101421 0.879056 0.302167
O O5 0.956581 0.840365 0.500000
O O6 0.973547 0.788734 0.292033
O O7 0.000000 0.500000 0.411022
O O8 0.836655 0.800327 0.719493
O O9 0.916086 0.790472 0.839074
O O10 0.844851 0.108001 0.857109
O O11 0.296759 0.004394 0.323796
O O12 0.249872 0.879301 0.162252
O O13 0.000000 0.500000 0.849276
O O14 0.000000 0.000000 0.867751
O O15 0.208785 0.722659 0.000000
#
# Coordination Sequence:
#
# PCOD9444241 Si02
#       6
#     8   8   8   8   8   8
#     4  10  21  36  59  90 132 181 226 281 341 408
#     4   9  17  31  51  82 124 170 222 273 329 402
#     4  11  23  41  65  94 135 173 233 284 341 422
#     4  11  22  43  63  98 133 173 226 280 335 428
#     4  11  23  39  65  94 131 185 236 293 363 417
#     4  11  25  44  69  99 136 180 223 282 353 416
#
# _framework density 22.677468000000001
#
# number of rings (size 3 to 8) (size 9 to 14) (size 15 to 20)
#    0.000    1.500    3.333    2.500    2.333    3.000 
#    0.000    0.000    0.000    1.000    0.000    0.000 
#    0.000    0.000    0.000    0.000    0.000    0.000 
#
# Total GULP energy -267508.631355 kJ/mol
# GULP energy per Si atom -5573.096487 kJ/mol
# Density = 2.262585 g / cm^3
# Si number density = 22.677468 Si / 1000 Ang^3
#
#
#
# Elastic Constant Matrix: (Units=GPa)
#
#
# Indices 1 2 3 4 5 6 
#
# 1 100.0287 33.4460 25.5508 0.0000 0.0000 0.0000
# 2 33.4460 82.1955 25.2494 0.0000 0.0000 0.0000
# 3 25.5508 25.2494 102.4056 0.0000 0.0000 0.0000
# 4 0.0000 0.0000 0.0000 0.5938 0.0000 0.0000
# 5 0.0000 0.0000 0.0000 0.0000 10.6270 0.0000
# 6 0.0000 0.0000 0.0000 0.0000 0.0000 39.6721
#
#
#
# Elastic Compliance Matrix: (Units=1/GPa)
#
#
# Indices 1 2 3 4 5 6 
#
# 1 0.011911 -0.004256 -0.001923 0.000000 0.000000 0.000000
# 2 -0.004256 0.014684 -0.002559 0.000000 0.000000 0.000000
# 3 -0.001923 -0.002559 0.010876 0.000000 0.000000 0.000000
# 4 0.000000 0.000000 0.000000 1.684197 0.000000 0.000000
# 5 0.000000 0.000000 0.000000 0.000000 0.094100 0.000000
# 6 0.000000 0.000000 0.000000 0.000000 0.000000 0.025207
#
#
# Mechanical properties :
#
#
# Convention : Reuss Voigt Hill
#
# Bulk Modulus (GPa) = 50.00929 50.34690 50.17810
# Shear Modulus (GPa) = 2.68080 23.53746 13.10913
#
# Velocity S-wave (km/s) = 1.08844 3.22518 2.40691
# Velocity P-wave (km/s) = 4.86620 6.00987 5.46802
#
# Compressibility (1/GPa) = 0.01999628
#
# Stress axis : x y z
#
# Youngs Moduli (GPa) = 83.95356 68.10147 91.94886
#
# Poissons Ratio (x) = 0.28986 0.17677
# Poissons Ratio (y) = 0.35733 0.23526
# Poissons Ratio (z) = 0.16140 0.17424
#
# Static dielectric constant tensor:
#      x y z
#    x 1.966070 0.000000 0.000000 
#    y 0.000000 1.939970 0.000000 
#    z 0.000000 0.000000 1.892340 
# 
# From -- ./inp_files/23648.got.cif
#   From: 2010.05.17/outbox.cif.g08.bks.cpg/sg58_12_cif.got.tgz:23648.got - 2010.06.03 14:20:14.
