data_PCOD9444889
_publ_section_title
;
Structure prediction by ZEFSAII (Michael W. Deem and Ramdas Pophale) SiO2 
 PCOD9444889
Probable space group: P N N M
;
_chemical_formula_sum "Si O2"
_cell_formula_units_Z 34
_cell_length_a 12.231498
_cell_length_b 8.083272
_cell_length_c 13.131923
_cell_angle_alpha 90.000000
_cell_angle_beta 90.000000
_cell_angle_gamma 90.000000
_cell_volume 1298.360125
_symmetry_space_group_name_H-M "P N N M"
_symmetry_group_IT_number 58
_symmetry_cell_setting 'orthorhombic'
loop_
_space_group_symop_operation_xyz
x,y,z
-x,-y,z
1/2+x,1/2-y,1/2-z
1/2-x,1/2+y,1/2-z
-x,-y,-z
x,y,-z
1/2-x,1/2+y,1/2+z
1/2+x,1/2-y,1/2+z
loop_
_atom_site_type_symbol
_atom_site_label
_atom_site_fract_x
_atom_site_fract_y
_atom_site_fract_z
Si Si1 0.847845 0.344440 0.108112
Si Si2 0.000000 0.500000 0.500000
Si Si3 0.619289 0.465176 0.832886
Si Si4 0.123037 0.656154 0.668629
Si Si5 0.353619 0.543351 0.608887
O O1 0.715597 0.363776 0.115453
O O2 0.890324 0.408087 0.216523
O O3 0.878490 0.151211 0.105514
O O4 0.880790 0.421278 0.000000
O O5 0.976236 0.364141 0.591494
O O6 0.500000 0.500000 0.877430
O O7 0.662955 0.654076 0.823559
O O8 0.603992 0.393129 0.717873
O O9 0.222650 0.559164 0.616443
O O10 0.387655 0.618071 0.500000
#
# Coordination Sequence:
#
# PCOD9444889 Si02
#       5
#     8   2   8   8   8
#     4   9  20  38  60  81 114 152 188 236 293 336
#     4  12  24  36  64  84 114 148 192 244 274 348
#     4  10  22  35  55  89 118 145 195 244 280 333
#     4  10  22  37  56  86 114 149 193 230 287 345
#     4   9  18  38  60  79 112 157 191 231 293 347
#
# _framework density 26.186878
#
# number of rings (size 3 to 8) (size 9 to 14) (size 15 to 20)
#    0.000    2.353    1.176    0.000    4.941    0.941 
#    0.000    0.588    0.000    0.000    0.000    0.000 
#    0.000    0.000    0.000    0.000    0.000    0.000 
#
# Total GULP energy -189305.411955 kJ/mol
# GULP energy per Si atom -5567.806234 kJ/mol
# Density = 2.612728 g / cm^3
# Si number density = 26.186878 Si / 1000 Ang^3
#
#
#
# Elastic Constant Matrix: (Units=GPa)
#
#
# Indices 1 2 3 4 5 6 
#
# 1 69.7417 2.7441 17.4958 0.0000 0.0000 0.0000
# 2 2.7441 31.0084 7.4397 0.0000 0.0000 0.0000
# 3 17.4958 7.4397 275.1686 0.0000 0.0000 0.0000
# 4 0.0000 0.0000 0.0000 8.2909 0.0000 0.0000
# 5 0.0000 0.0000 0.0000 0.0000 13.5023 0.0000
# 6 0.0000 0.0000 0.0000 0.0000 0.0000 19.6333
#
#
#
# Elastic Compliance Matrix: (Units=1/GPa)
#
#
# Indices 1 2 3 4 5 6 
#
# 1 0.014607 -0.001077 -0.000900 0.000000 0.000000 0.000000
# 2 -0.001077 0.032539 -0.000811 0.000000 0.000000 0.000000
# 3 -0.000900 -0.000811 0.003713 0.000000 0.000000 0.000000
# 4 0.000000 0.000000 0.000000 0.120614 0.000000 0.000000
# 5 0.000000 0.000000 0.000000 0.000000 0.074062 0.000000
# 6 0.000000 0.000000 0.000000 0.000000 0.000000 0.050934
#
#
# Mechanical properties :
#
#
# Convention : Reuss Voigt Hill
#
# Bulk Modulus (GPa) = 22.08293 47.91975 35.00134
# Shear Modulus (GPa) = 15.76597 31.50124 23.63360
#
# Velocity S-wave (km/s) = 2.45634 3.47211 3.00742
# Velocity P-wave (km/s) = 4.06152 5.86625 5.04524
#
# Compressibility (1/GPa) = 0.04528384
#
# Stress axis : x y z
#
# Youngs Moduli (GPa) = 68.46182 30.73211 269.30441
#
# Poissons Ratio (x) = 0.03309 0.24227
# Poissons Ratio (y) = 0.07372 0.21849
# Poissons Ratio (z) = 0.06159 0.02493
#
# Static dielectric constant tensor:
#      x y z
#    x 2.117000 0.000000 0.000000 
#    y 0.000000 2.073290 0.000000 
#    z 0.000000 0.000000 2.092880 
# 
# From -- ./inp_files/15315.got.cif
#   From: 2010.05.17/outbox.cif.g08.bks.cpg/sg58_8_cif.got.tgz:15315.got - 2010.06.03 14:20:14.
