data_PCOD9444860
_publ_section_title
;
Structure prediction by ZEFSAII (Michael W. Deem and Ramdas Pophale) SiO2 
 PCOD9444860
Probable space group: P N N M
;
_chemical_formula_sum "Si O2"
_cell_formula_units_Z 36
_cell_length_a 6.905264
_cell_length_b 9.693837
_cell_length_c 23.034258
_cell_angle_alpha 90.000000
_cell_angle_beta 90.000000
_cell_angle_gamma 90.000000
_cell_volume 1541.878763
_symmetry_space_group_name_H-M "P N N M"
_symmetry_group_IT_number 58
_symmetry_cell_setting 'orthorhombic'
loop_
_space_group_symop_operation_xyz
x,y,z
-x,-y,z
1/2+x,1/2-y,1/2-z
1/2-x,1/2+y,1/2-z
-x,-y,-z
x,y,-z
1/2-x,1/2+y,1/2+z
1/2+x,1/2-y,1/2+z
loop_
_atom_site_type_symbol
_atom_site_label
_atom_site_fract_x
_atom_site_fract_y
_atom_site_fract_z
Si Si1 0.320492 0.661936 0.184585
Si Si2 0.384309 0.631802 0.644892
Si Si3 0.708479 0.732661 0.564682
Si Si4 0.738461 0.124100 0.277120
Si Si5 0.500000 0.000000 0.099775
O O1 0.272174 0.665211 0.116559
O O2 0.277755 0.809451 0.213745
O O3 0.545843 0.639608 0.197125
O O4 0.205537 0.539022 0.217060
O O5 0.500000 0.500000 0.670259
O O6 0.503992 0.669209 0.586569
O O7 0.383373 0.769192 0.683533
O O8 0.164245 0.585163 0.634254
O O9 0.694573 0.790244 0.500000
O O10 0.869247 0.611313 0.566040
#
# Coordination Sequence:
#
# PCOD9444860 Si02
#       5
#     8   8   8   8   4
#     4  11  26  44  71 107 143 189 232 297 361 423
#     4  10  23  41  70 104 139 185 237 292 355 420
#     4  11  24  43  68 104 144 190 243 286 351 431
#     4  11  25  45  72 105 142 183 241 295 363 425
#     4  10  21  42  70 100 142 190 233 294 352 416
#
# _framework density 23.348140000000001
#
# number of rings (size 3 to 8) (size 9 to 14) (size 15 to 20)
#    0.000    1.333    2.222    1.667    9.333    8.444 
#    0.000    4.444    0.000    0.000    0.000    0.000 
#    0.000    0.000    0.000    0.000    0.000    0.000 
#
# Total GULP energy -201370.886246 kJ/mol
# GULP energy per Si atom -5593.635729 kJ/mol
# Density = 2.329500 g / cm^3
# Si number density = 23.348140 Si / 1000 Ang^3
#
#
#
# Elastic Constant Matrix: (Units=GPa)
#
#
# Indices 1 2 3 4 5 6 
#
# 1 125.8190 12.0061 25.4165 0.0000 0.0000 0.0000
# 2 12.0061 113.3456 42.4699 0.0000 0.0000 0.0000
# 3 25.4165 42.4699 149.5458 0.0000 0.0000 0.0000
# 4 0.0000 0.0000 0.0000 22.8959 0.0000 0.0000
# 5 0.0000 0.0000 0.0000 0.0000 21.4201 0.0000
# 6 0.0000 0.0000 0.0000 0.0000 0.0000 45.9395
#
#
#
# Elastic Compliance Matrix: (Units=1/GPa)
#
#
# Indices 1 2 3 4 5 6 
#
# 1 0.008246 -0.000390 -0.001291 0.000000 0.000000 0.000000
# 2 -0.000390 0.009892 -0.002743 0.000000 0.000000 0.000000
# 3 -0.001291 -0.002743 0.007685 0.000000 0.000000 0.000000
# 4 0.000000 0.000000 0.000000 0.043676 0.000000 0.000000
# 5 0.000000 0.000000 0.000000 0.000000 0.046685 0.000000
# 6 0.000000 0.000000 0.000000 0.000000 0.000000 0.021768
#
#
# Mechanical properties :
#
#
# Convention : Reuss Voigt Hill
#
# Bulk Modulus (GPa) = 58.90728 60.94392 59.92560
# Shear Modulus (GPa) = 32.79610 38.63896 35.71753
#
# Velocity S-wave (km/s) = 3.75194 4.07247 3.91548
# Velocity P-wave (km/s) = 6.63733 6.94782 6.79435
#
# Compressibility (1/GPa) = 0.01697583
#
# Stress axis : x y z
#
# Youngs Moduli (GPa) = 121.27292 101.09581 130.11942
#
# Poissons Ratio (x) = 0.03941 0.16795
# Poissons Ratio (y) = 0.04727 0.35690
# Poissons Ratio (z) = 0.15653 0.27729
#
# Static dielectric constant tensor:
#      x y z
#    x 1.956290 0.000000 0.000000 
#    y 0.000000 1.928770 0.000000 
#    z 0.000000 0.000000 1.871920 
# 
# From -- ./inp_files/23414.got.cif
#   From: 2010.05.17/outbox.cif.g08.bks.cpg/sg58_12_cif.got.tgz:23414.got - 2010.06.03 14:20:14.
