data_PCOD9444675
_publ_section_title
;
Structure prediction by ZEFSAII (Michael W. Deem and Ramdas Pophale) SiO2 
 PCOD9444675
Probable space group: P N N M
;
_chemical_formula_sum "Si O2"
_cell_formula_units_Z 44
_cell_length_a 14.421016
_cell_length_b 11.918744
_cell_length_c 13.894291
_cell_angle_alpha 90.000000
_cell_angle_beta 90.000000
_cell_angle_gamma 90.000000
_cell_volume 2388.156266
_symmetry_space_group_name_H-M "P N N M"
_symmetry_group_IT_number 58
_symmetry_cell_setting 'orthorhombic'
loop_
_space_group_symop_operation_xyz
x,y,z
-x,-y,z
1/2+x,1/2-y,1/2-z
1/2-x,1/2+y,1/2-z
-x,-y,-z
x,y,-z
1/2-x,1/2+y,1/2+z
1/2+x,1/2-y,1/2+z
loop_
_atom_site_type_symbol
_atom_site_label
_atom_site_fract_x
_atom_site_fract_y
_atom_site_fract_z
Si Si1 0.583611 0.412645 0.500000
Si Si2 0.867180 0.921465 0.785604
Si Si3 0.562255 0.661879 0.214841
Si Si4 0.500000 0.000000 0.672172
Si Si5 0.056984 0.348592 0.000000
Si Si6 0.279422 0.020747 0.500000
Si Si7 0.579069 0.595070 0.000000
Si Si8 0.831635 0.375091 0.797204
O O1 0.500000 0.500000 0.500000
O O2 0.635315 0.430078 0.599660
O O3 0.552614 0.283532 0.500000
O O4 0.767727 0.879230 0.752975
O O5 0.955297 0.846700 0.750801
O O6 0.890268 0.043662 0.742745
O O7 0.568917 0.665894 0.098579
O O8 0.617221 0.760487 0.268245
O O9 0.512087 0.102771 0.597279
O O10 0.406816 0.027568 0.729597
O O11 0.157497 0.408128 0.000000
O O12 0.305928 0.094722 0.592523
O O13 0.175241 0.974636 0.500000
O O14 0.500000 0.500000 0.000000
#
# Coordination Sequence:
#
# PCOD9444675 Si02
#       8
#     4   8   8   4   4   4   4   8
#     4  12  23  36  62  87 136 165 210 275 332 376
#     4  11  24  40  57  98 124 174 215 268 326 393
#     4  11  23  39  65  91 128 168 217 271 324 390
#     4   9  20  38  62  91 122 162 206 267 310 387
#     4   9  20  36  60  90 119 160 210 258 323 376
#     4  10  21  39  64  95 126 166 216 273 317 391
#     4  12  20  41  66  89 130 166 224 270 317 396
#     4  11  23  39  65  93 129 168 222 263 331 385
#
# _framework density 18.424256
#
# number of rings (size 3 to 8) (size 9 to 14) (size 15 to 20)
#    0.000    1.273    5.455    1.636    2.545    2.909 
#    0.000    0.000    0.000    4.364    0.000    0.000 
#    0.000    0.000    0.000    0.000    0.000    0.000 
#
# Total GULP energy -245427.435467 kJ/mol
# GULP energy per Si atom -5577.896261 kJ/mol
# Density = 1.838232 g / cm^3
# Si number density = 18.424256 Si / 1000 Ang^3
#
#
#
# Elastic Constant Matrix: (Units=GPa)
#
#
# Indices 1 2 3 4 5 6 
#
# 1 184.2562 47.9309 55.7109 0.0000 0.0000 0.0000
# 2 47.9309 90.4559 37.1391 0.0000 0.0000 0.0000
# 3 55.7109 37.1391 126.3279 0.0000 0.0000 0.0000
# 4 0.0000 0.0000 0.0000 25.4280 0.0000 0.0000
# 5 0.0000 0.0000 0.0000 0.0000 16.8462 0.0000
# 6 0.0000 0.0000 0.0000 0.0000 0.0000 21.6015
#
#
#
# Elastic Compliance Matrix: (Units=1/GPa)
#
#
# Indices 1 2 3 4 5 6 
#
# 1 0.006795 -0.002696 -0.002204 0.000000 0.000000 0.000000
# 2 -0.002696 0.013642 -0.002822 0.000000 0.000000 0.000000
# 3 -0.002204 -0.002822 0.009718 0.000000 0.000000 0.000000
# 4 0.000000 0.000000 0.000000 0.039327 0.000000 0.000000
# 5 0.000000 0.000000 0.000000 0.000000 0.059360 0.000000
# 6 0.000000 0.000000 0.000000 0.000000 0.000000 0.046293
#
#
# Mechanical properties :
#
#
# Convention : Reuss Voigt Hill
#
# Bulk Modulus (GPa) = 67.97447 75.84465 71.90956
# Shear Modulus (GPa) = 25.57786 30.12574 27.85180
#
# Velocity S-wave (km/s) = 3.72999 4.04804 3.89227
# Velocity P-wave (km/s) = 7.45148 7.94379 7.70157
#
# Compressibility (1/GPa) = 0.01471141
#
# Stress axis : x y z
#
# Youngs Moduli (GPa) = 147.17071 73.30298 102.90690
#
# Poissons Ratio (x) = 0.19759 0.22682
# Poissons Ratio (y) = 0.39670 0.29039
# Poissons Ratio (z) = 0.32438 0.20685
#
# Static dielectric constant tensor:
#      x y z
#    x 1.670270 0.000000 0.000000 
#    y 0.000000 1.447820 0.000000 
#    z 0.000000 0.000000 1.646110 
# 
# From -- ./inp_files/22086.got.cif
#   From: 2010.05.17/outbox.cif.g08.bks.cpg/sg58_12_cif.got.tgz:22086.got - 2010.06.03 14:20:14.
