data_PCOD9444004
_publ_section_title
;
Structure prediction by ZEFSAII (Michael W. Deem and Ramdas Pophale) SiO2 
 PCOD9444004
Probable space group: P N N M
;
_chemical_formula_sum "Si O2"
_cell_formula_units_Z 52
_cell_length_a 15.050008
_cell_length_b 20.247275
_cell_length_c 8.016595
_cell_angle_alpha 90.000000
_cell_angle_beta 90.000000
_cell_angle_gamma 90.000000
_cell_volume 2442.830062
_symmetry_space_group_name_H-M "P N N M"
_symmetry_group_IT_number 58
_symmetry_cell_setting 'orthorhombic'
loop_
_space_group_symop_operation_xyz
x,y,z
-x,-y,z
1/2+x,1/2-y,1/2-z
1/2-x,1/2+y,1/2-z
-x,-y,-z
x,y,-z
1/2-x,1/2+y,1/2+z
1/2+x,1/2-y,1/2+z
loop_
_atom_site_type_symbol
_atom_site_label
_atom_site_fract_x
_atom_site_fract_y
_atom_site_fract_z
Si Si1 0.480587 0.884868 0.000000
Si Si2 0.752632 0.136971 0.684629
Si Si3 0.039511 0.072004 0.800403
Si Si4 0.296522 0.648880 0.184659
Si Si5 0.309418 0.105640 0.000000
Si Si6 0.914326 0.721664 0.242258
Si Si7 0.297765 0.952452 0.000000
Si Si8 0.432521 0.303630 0.803585
O O1 0.456773 0.836593 0.150090
O O2 0.584169 0.900053 0.000000
O O3 0.405256 0.941686 0.000000
O O4 0.775808 0.109080 0.500000
O O5 0.663769 0.179396 0.662523
O O6 0.739182 0.084708 0.834313
O O7 0.829274 0.189151 0.734214
O O8 0.133304 0.089472 0.716661
O O9 0.970281 0.123284 0.723135
O O10 0.048606 0.083566 0.000000
O O11 0.000000 0.000000 0.774962
O O12 0.227450 0.643332 0.336572
O O13 0.357562 0.715114 0.191064
O O14 0.256741 0.644019 0.000000
O O15 0.275390 0.029685 0.000000
O O16 0.004847 0.758462 0.188895
O O17 0.443683 0.284461 0.000000
#
# Coordination Sequence:
#
# PCOD9444004 Si02
#       8
#     4   8   8   8   4   8   4   8
#     4  10  21  46  72  93 137 184 224 288 341 397
#     4  10  24  41  69  97 131 183 221 284 349 405
#     4  10  21  36  57  88 128 173 223 266 329 413
#     4  11  24  42  64  99 142 174 219 291 346 406
#     4  12  27  42  76 104 127 193 235 276 345 415
#     4  10  20  40  66  96 132 169 224 279 340 413
#     4  10  25  48  67 100 140 176 238 283 332 410
#     4  10  21  36  59  90 125 170 214 267 336 409
#
# _framework density 21.286787
#
# number of rings (size 3 to 8) (size 9 to 14) (size 15 to 20)
#    0.000    1.692    2.308    1.615    6.462    2.462 
#    0.000    3.077    0.000    4.615    0.000    0.000 
#    0.000    0.000    0.000    0.000    0.000    0.000 
#
# Total GULP energy -289629.612192 kJ/mol
# GULP energy per Si atom -5569.800234 kJ/mol
# Density = 2.123834 g / cm^3
# Si number density = 21.286787 Si / 1000 Ang^3
#
#
#
# Elastic Constant Matrix: (Units=GPa)
#
#
# Indices 1 2 3 4 5 6 
#
# 1 106.4887 10.0305 35.3159 0.0000 0.0000 0.0000
# 2 10.0305 68.9585 31.0319 0.0000 0.0000 0.0000
# 3 35.3159 31.0319 117.8926 0.0000 0.0000 0.0000
# 4 0.0000 0.0000 0.0000 880.7753 0.0000 0.0000
# 5 0.0000 0.0000 0.0000 0.0000 7.2539 0.0000
# 6 0.0000 0.0000 0.0000 0.0000 0.0000 22.0668
#
#
#
# Elastic Compliance Matrix: (Units=1/GPa)
#
#
# Indices 1 2 3 4 5 6 
#
# 1 0.010427 -0.000126 -0.003090 0.000000 0.000000 0.000000
# 2 -0.000126 0.016452 -0.004293 0.000000 0.000000 0.000000
# 3 -0.003090 -0.004293 0.010538 0.000000 0.000000 0.000000
# 4 0.000000 0.000000 0.000000 0.001135 0.000000 0.000000
# 5 0.000000 0.000000 0.000000 0.000000 0.137856 0.000000
# 6 0.000000 0.000000 0.000000 0.000000 0.000000 0.045317
#
#
# Mechanical properties :
#
#
# Convention : Reuss Voigt Hill
#
# Bulk Modulus (GPa) = 44.64542 49.56626 47.10584
# Shear Modulus (GPa) = 20.47417 196.48330 108.47874
#
# Velocity S-wave (km/s) = 3.10470 9.61786 7.14641
# Velocity P-wave (km/s) = 5.81988 12.11088 9.50117
#
# Compressibility (1/GPa) = 0.02239871
#
# Stress axis : x y z
#
# Youngs Moduli (GPa) = 95.90059 60.78459 94.89472
#
# Poissons Ratio (x) = 0.00766 0.29327
# Poissons Ratio (y) = 0.01208 0.40735
# Poissons Ratio (z) = 0.29638 0.26093
#
# Static dielectric constant tensor:
#      x y z
#    x 1.795740 0.000000 0.000000 
#    y 0.000000 1.764320 0.000000 
#    z 0.000000 0.000000 1.875770 
# 
# From -- ./inp_files/6232.got.cif
#   From: 2010.05.17/outbox.cif.g08.bks.cpg/sg58_4_cif.got.tgz:6232.got - 2010.06.03 14:20:14.
