data_PCOD9444566
_publ_section_title
;
Structure prediction by ZEFSAII (Michael W. Deem and Ramdas Pophale) SiO2 
 PCOD9444566
Probable space group: P N N M
;
_chemical_formula_sum "Si O2"
_cell_formula_units_Z 56
_cell_length_a 11.173257
_cell_length_b 12.121228
_cell_length_c 19.556926
_cell_angle_alpha 90.000000
_cell_angle_beta 90.000000
_cell_angle_gamma 90.000000
_cell_volume 2648.664807
_symmetry_space_group_name_H-M "P N N M"
_symmetry_group_IT_number 58
_symmetry_cell_setting 'orthorhombic'
loop_
_space_group_symop_operation_xyz
x,y,z
-x,-y,z
1/2+x,1/2-y,1/2-z
1/2-x,1/2+y,1/2-z
-x,-y,-z
x,y,-z
1/2-x,1/2+y,1/2+z
1/2+x,1/2-y,1/2+z
loop_
_atom_site_type_symbol
_atom_site_label
_atom_site_fract_x
_atom_site_fract_y
_atom_site_fract_z
Si Si1 0.884330 0.930329 0.228921
Si Si2 0.016471 0.709813 0.812618
Si Si3 0.633052 0.085126 0.577029
Si Si4 0.858046 0.248871 0.421144
Si Si5 0.562474 0.394210 0.116473
Si Si6 0.308706 0.175667 0.425016
Si Si7 0.119926 0.573727 0.314488
O O1 0.886165 0.933504 0.311303
O O2 0.751791 0.970964 0.207944
O O3 0.922241 0.806114 0.206158
O O4 0.000000 0.000000 0.205132
O O5 0.123914 0.740664 0.865098
O O6 0.078624 0.656099 0.746705
O O7 0.946052 0.620580 0.858809
O O8 0.580831 0.101060 0.500000
O O9 0.744568 0.168164 0.579661
O O10 0.666098 0.956644 0.581268
O O11 0.896722 0.257264 0.500000
O O12 0.845374 0.365467 0.384952
O O13 0.955174 0.189122 0.374398
O O14 0.500000 0.500000 0.081003
O O15 0.666105 0.326906 0.080035
O O16 0.345124 0.215090 0.500000
O O17 0.000000 0.500000 0.323912
#
# Coordination Sequence:
#
# PCOD9444566 Si02
#       7
#     8   8   8   8   8   8   8
#     4  11  26  44  67  96 135 174 220 279 334 393
#     4  12  23  41  66  93 129 166 219 263 334 389
#     4  10  21  38  63  95 133 168 206 259 330 397
#     4  11  23  40  65  95 129 174 215 268 334 394
#     4  11  21  37  62  94 133 168 207 261 332 396
#     4  11  22  35  60  99 135 166 205 262 326 398
#     4  12  26  44  69  98 127 176 229 279 324 391
#
# _framework density 21.142728999999999
#
# number of rings (size 3 to 8) (size 9 to 14) (size 15 to 20)
#    0.000    0.857    5.714    2.143    0.000    4.286 
#    0.000    0.000    0.000    3.857    0.000    0.000 
#    0.000    0.000    0.000    0.000    0.000    0.000 
#
# Total GULP energy -312262.059899 kJ/mol
# GULP energy per Si atom -5576.108212 kJ/mol
# Density = 2.109461 g / cm^3
# Si number density = 21.142729 Si / 1000 Ang^3
#
#
#
# Elastic Constant Matrix: (Units=GPa)
#
#
# Indices 1 2 3 4 5 6 
#
# 1 131.6102 18.1663 13.9998 0.0000 0.0000 0.0000
# 2 18.1663 28.8339 17.8434 0.0000 0.0000 0.0000
# 3 13.9998 17.8434 59.3120 0.0000 0.0000 0.0000
# 4 0.0000 0.0000 0.0000 24.9915 0.0000 0.0000
# 5 0.0000 0.0000 0.0000 0.0000 7.6704 0.0000
# 6 0.0000 0.0000 0.0000 0.0000 0.0000 25.6701
#
#
#
# Elastic Compliance Matrix: (Units=1/GPa)
#
#
# Indices 1 2 3 4 5 6 
#
# 1 0.008333 -0.004955 -0.000476 0.000000 0.000000 0.000000
# 2 -0.004955 0.045562 -0.012537 0.000000 0.000000 0.000000
# 3 -0.000476 -0.012537 0.020744 0.000000 0.000000 0.000000
# 4 0.000000 0.000000 0.000000 0.040014 0.000000 0.000000
# 5 0.000000 0.000000 0.000000 0.000000 0.130372 0.000000
# 6 0.000000 0.000000 0.000000 0.000000 0.000000 0.038956
#
#
# Mechanical properties :
#
#
# Convention : Reuss Voigt Hill
#
# Bulk Modulus (GPa) = 25.83879 35.53057 30.68468
# Shear Modulus (GPa) = 15.02325 22.98282 19.00304
#
# Velocity S-wave (km/s) = 2.66853 3.30059 3.00125
# Velocity P-wave (km/s) = 4.66287 5.60061 5.15312
#
# Compressibility (1/GPa) = 0.03870151
#
# Stress axis : x y z
#
# Youngs Moduli (GPa) = 120.00727 21.94823 48.20658
#
# Poissons Ratio (x) = 0.10876 0.02295
# Poissons Ratio (y) = 0.59467 0.60437
# Poissons Ratio (z) = 0.05714 0.27517
#
# Static dielectric constant tensor:
#      x y z
#    x 1.885540 0.000000 0.000000 
#    y 0.000000 2.450810 0.000000 
#    z 0.000000 0.000000 1.774820 
# 
# From -- ./inp_files/29587.got.cif
#   From: 2010.05.17/outbox.cif.g08.bks.cpg/sg58_15_cif.got.tgz:29587.got - 2010.06.03 14:20:14.
