data_PCOD9444318
_publ_section_title
;
Structure prediction by ZEFSAII (Michael W. Deem and Ramdas Pophale) SiO2 
 PCOD9444318
Probable space group: P N N M
;
_chemical_formula_sum "Si O2"
_cell_formula_units_Z 32
_cell_length_a 5.059100
_cell_length_b 8.172736
_cell_length_c 36.726496
_cell_angle_alpha 90.000000
_cell_angle_beta 90.000000
_cell_angle_gamma 90.000000
_cell_volume 1518.518997
_symmetry_space_group_name_H-M "P N N M"
_symmetry_group_IT_number 58
_symmetry_cell_setting 'orthorhombic'
loop_
_space_group_symop_operation_xyz
x,y,z
-x,-y,z
1/2+x,1/2-y,1/2-z
1/2-x,1/2+y,1/2-z
-x,-y,-z
x,y,-z
1/2-x,1/2+y,1/2+z
1/2+x,1/2-y,1/2+z
loop_
_atom_site_type_symbol
_atom_site_label
_atom_site_fract_x
_atom_site_fract_y
_atom_site_fract_z
Si Si1 0.253314 0.615985 0.459377
Si Si2 0.981964 0.301502 0.150235
Si Si3 0.109945 0.817559 0.769053
Si Si4 0.477688 0.304094 0.892367
O O1 0.500000 0.500000 0.449278
O O2 0.309764 0.684972 0.500000
O O3 0.160158 0.745137 0.429363
O O4 0.000000 0.500000 0.462159
O O5 0.892732 0.233664 0.188828
O O6 0.770585 0.249382 0.119285
O O7 0.000000 0.500000 0.152055
O O8 0.274961 0.248025 0.139012
O O9 0.398718 0.795421 0.752133
O O10 0.000000 0.000000 0.764895
O O11 0.500000 0.500000 0.893322
#
# Coordination Sequence:
#
# PCOD9444318 Si02
#       4
#     8   8   8   8
#     4  10  21  37  57  83 116 153 192 238 291 346
#     4  10  21  38  59  86 118 151 192 243 296 349
#     4  12  25  42  64  90 120 158 201 246 299 357
#     4  10  21  37  59  85 115 152 193 240 292 347
#
# _framework density 21.073163999999998
#
# number of rings (size 3 to 8) (size 9 to 14) (size 15 to 20)
#    0.000    1.500    0.000    5.250    0.000    5.500 
#    0.000    0.000    0.000    9.000    0.000    0.000 
#    0.000    0.000    0.000    0.000    0.000    0.000 
#
# Total GULP energy -178723.947696 kJ/mol
# GULP energy per Si atom -5585.123366 kJ/mol
# Density = 2.102520 g / cm^3
# Si number density = 21.073164 Si / 1000 Ang^3
#
#
#
# Elastic Constant Matrix: (Units=GPa)
#
#
# Indices 1 2 3 4 5 6 
#
# 1 119.4059 23.4112 20.3708 0.0000 0.0000 0.0000
# 2 23.4112 26.5476 24.4276 0.0000 0.0000 0.0000
# 3 20.3708 24.4276 114.0589 0.0000 0.0000 0.0000
# 4 0.0000 0.0000 0.0000 45.3044 0.0000 0.0000
# 5 0.0000 0.0000 0.0000 0.0000 39.4322 0.0000
# 6 0.0000 0.0000 0.0000 0.0000 0.0000 24.0255
#
#
#
# Elastic Compliance Matrix: (Units=1/GPa)
#
#
# Indices 1 2 3 4 5 6 
#
# 1 0.010127 -0.009050 0.000129 0.000000 0.000000 0.000000
# 2 -0.009050 0.055000 -0.010163 0.000000 0.000000 0.000000
# 3 0.000129 -0.010163 0.010921 0.000000 0.000000 0.000000
# 4 0.000000 0.000000 0.000000 0.022073 0.000000 0.000000
# 5 0.000000 0.000000 0.000000 0.000000 0.025360 0.000000
# 6 0.000000 0.000000 0.000000 0.000000 0.000000 0.041623
#
#
# Mechanical properties :
#
#
# Convention : Reuss Voigt Hill
#
# Bulk Modulus (GPa) = 26.39803 44.04796 35.22299
# Shear Modulus (GPa) = 23.15920 34.53925 28.84922
#
# Velocity S-wave (km/s) = 3.31870 4.05287 3.70402
# Velocity P-wave (km/s) = 5.21910 6.54590 5.91979
#
# Compressibility (1/GPa) = 0.03788161
#
# Stress axis : x y z
#
# Youngs Moduli (GPa) = 98.74558 18.18179 91.56810
#
# Poissons Ratio (x) = 0.16454 -0.01186
# Poissons Ratio (y) = 0.89362 0.93060
# Poissons Ratio (z) = -0.01279 0.18478
#
# Static dielectric constant tensor:
#      x y z
#    x 1.733010 0.000000 0.000000 
#    y 0.000000 1.758350 0.000000 
#    z 0.000000 0.000000 1.784610 
# 
# From -- ./inp_files/33929.got.cif
#   From: 2010.05.17/outbox.cif.g08.bks.cpg/sg58_17_cif.got.tgz:33929.got - 2010.06.03 14:20:14.
