data_PCOD9444711
_publ_section_title
;
Structure prediction by ZEFSAII (Michael W. Deem and Ramdas Pophale) SiO2 
 PCOD9444711
Probable space group: P N N M
;
_chemical_formula_sum "Si O2"
_cell_formula_units_Z 56
_cell_length_a 16.823204
_cell_length_b 7.752792
_cell_length_c 20.676445
_cell_angle_alpha 90.000000
_cell_angle_beta 90.000000
_cell_angle_gamma 90.000000
_cell_volume 2696.762585
_symmetry_space_group_name_H-M "P N N M"
_symmetry_group_IT_number 58
_symmetry_cell_setting 'orthorhombic'
loop_
_space_group_symop_operation_xyz
x,y,z
-x,-y,z
1/2+x,1/2-y,1/2-z
1/2-x,1/2+y,1/2-z
-x,-y,-z
x,y,-z
1/2-x,1/2+y,1/2+z
1/2+x,1/2-y,1/2+z
loop_
_atom_site_type_symbol
_atom_site_label
_atom_site_fract_x
_atom_site_fract_y
_atom_site_fract_z
Si Si1 0.201892 0.721070 0.701136
Si Si2 0.741310 0.580809 0.071907
Si Si3 0.785745 0.672834 0.573607
Si Si4 0.085140 0.504092 0.885377
Si Si5 0.359485 0.371661 0.666485
Si Si6 0.414306 0.916319 0.166616
Si Si7 0.390990 0.712284 0.715767
O O1 0.167049 0.830042 0.760337
O O2 0.148172 0.549955 0.699493
O O3 0.294902 0.701455 0.717675
O O4 0.203535 0.812854 0.630946
O O5 0.717934 0.380227 0.078380
O O6 0.837383 0.570867 0.078750
O O7 0.720053 0.643652 0.000000
O O8 0.770183 0.622056 0.500000
O O9 0.717429 0.597997 0.620691
O O10 0.871835 0.620115 0.598962
O O11 0.102143 0.699632 0.863142
O O12 0.079883 0.379598 0.823120
O O13 0.000000 0.500000 0.919577
O O14 0.411836 0.542173 0.675210
O O15 0.419025 0.745659 0.211328
O O16 0.500000 0.000000 0.161441
#
# Coordination Sequence:
#
# PCOD9444711 Si02
#       7
#     8   8   8   8   8   8   8
#     4  11  20  37  63  89 121 162 205 263 310 372
#     4   9  21  40  66  91 117 168 225 258 305 382
#     4  10  21  40  62  89 125 169 218 264 308 378
#     4  10  22  38  57  92 133 159 202 260 318 372
#     4  11  21  37  64  90 124 165 214 255 311 375
#     4  12  24  39  61  96 133 158 206 269 322 376
#     4  11  20  37  60  89 122 163 205 250 310 373
#
# _framework density 20.765640999999999
#
# number of rings (size 3 to 8) (size 9 to 14) (size 15 to 20)
#    0.000    1.429    4.286    1.286    2.000    1.714 
#    0.000    2.143    0.000    1.714    0.000    6.000 
#    0.000    0.000    0.000    0.000    0.000    0.000 
#
# Total GULP energy -312640.561657 kJ/mol
# GULP energy per Si atom -5582.867172 kJ/mol
# Density = 2.071838 g / cm^3
# Si number density = 20.765641 Si / 1000 Ang^3
#
#
#
# Elastic Constant Matrix: (Units=GPa)
#
#
# Indices 1 2 3 4 5 6 
#
# 1 84.5719 12.0823 13.9625 0.0000 0.0000 0.0000
# 2 12.0823 73.6448 24.0756 0.0000 0.0000 0.0000
# 3 13.9625 24.0756 122.4786 0.0000 0.0000 0.0000
# 4 0.0000 0.0000 0.0000 20.7987 0.0000 0.0000
# 5 0.0000 0.0000 0.0000 0.0000 -0.3852 0.0000
# 6 0.0000 0.0000 0.0000 0.0000 0.0000 19.2298
#
#
#
# Elastic Compliance Matrix: (Units=1/GPa)
#
#
# Indices 1 2 3 4 5 6 
#
# 1 0.012238 -0.001658 -0.001069 0.000000 0.000000 0.000000
# 2 -0.001658 0.014736 -0.002708 0.000000 0.000000 0.000000
# 3 -0.001069 -0.002708 0.008819 0.000000 0.000000 0.000000
# 4 0.000000 0.000000 0.000000 0.048080 0.000000 0.000000
# 5 0.000000 0.000000 0.000000 0.000000 -2.596181 0.000000
# 6 0.000000 0.000000 0.000000 0.000000 0.000000 0.052003
#
#
# Mechanical properties :
#
#
# Convention : Reuss Voigt Hill
#
# Bulk Modulus (GPa) = 40.12442 42.32622 41.22532
# Shear Modulus (GPa) = -2.04823 23.30033 10.62605
#
# Velocity S-wave (km/s) = -0.99423 3.35335 2.26456
# Velocity P-wave (km/s) = 4.24811 5.95150 5.17044
#
# Compressibility (1/GPa) = 0.02492248
#
# Stress axis : x y z
#
# Youngs Moduli (GPa) = 81.71486 67.86152 113.39404
#
# Poissons Ratio (x) = 0.11253 0.12123
# Poissons Ratio (y) = 0.13550 0.30702
# Poissons Ratio (z) = 0.08736 0.18374
#
# Static dielectric constant tensor:
#      x y z
#    x 1.755870 0.000000 0.000000 
#    y 0.000000 1.810560 0.000000 
#    z 0.000000 0.000000 1.747940 
# 
# From -- ./inp_files/29997.got.cif
#   From: 2010.05.17/outbox.cif.g08.bks.cpg/sg58_15_cif.got.tgz:29997.got - 2010.06.03 14:20:14.
