data_PCOD9444029
_publ_section_title
;
Structure prediction by ZEFSAII (Michael W. Deem and Ramdas Pophale) SiO2 
 PCOD9444029
Probable space group: P N N M
;
_chemical_formula_sum "Si O2"
_cell_formula_units_Z 46
_cell_length_a 13.861631
_cell_length_b 5.119486
_cell_length_c 28.814963
_cell_angle_alpha 90.000000
_cell_angle_beta 90.000000
_cell_angle_gamma 90.000000
_cell_volume 2044.837305
_symmetry_space_group_name_H-M "P N N M"
_symmetry_group_IT_number 58
_symmetry_cell_setting 'orthorhombic'
loop_
_space_group_symop_operation_xyz
x,y,z
-x,-y,z
1/2+x,1/2-y,1/2-z
1/2-x,1/2+y,1/2-z
-x,-y,-z
x,y,-z
1/2-x,1/2+y,1/2+z
1/2+x,1/2-y,1/2+z
loop_
_atom_site_type_symbol
_atom_site_label
_atom_site_fract_x
_atom_site_fract_y
_atom_site_fract_z
Si Si1 0.500000 0.500000 0.183259
Si Si2 0.337492 0.275252 0.361978
Si Si3 0.874680 0.723850 0.919291
Si Si4 0.937148 0.239382 0.229611
Si Si5 0.351331 0.301752 0.052981
Si Si6 0.000000 0.000000 0.000000
Si Si7 0.615558 0.199696 0.108841
O O1 0.422215 0.364517 0.217945
O O2 0.548757 0.286935 0.150891
O O3 0.387638 0.053695 0.393870
O O4 0.224513 0.272575 0.372560
O O5 0.373529 0.554884 0.379739
O O6 0.354259 0.222766 0.307740
O O7 0.765344 0.711401 0.940556
O O8 0.946354 0.819357 0.959343
O O9 0.000000 0.500000 0.232558
O O10 0.000000 0.000000 0.209460
O O11 0.394529 0.085654 0.087311
O O12 0.388734 0.584517 0.068187
O O13 0.374400 0.243315 0.000000
#
# Coordination Sequence:
#
# PCOD9444029 Si02
#       7
#     4   8   8   8   8   2   8
#     4  10  26  45  63 100 120 165 207 282 320 370
#     4  10  22  43  59  92 117 173 201 258 302 381
#     4  10  23  36  61  86 132 157 215 238 312 359
#     4  10  23  40  64  87 124 160 203 264 309 373
#     4  10  20  42  62  92 123 171 203 257 304 385
#     4  12  24  36  56  98 120 180 186 274 284 394
#     4  10  23  40  69  87 131 160 210 262 319 372
#
# _framework density 22.495674999999999
#
# number of rings (size 3 to 8) (size 9 to 14) (size 15 to 20)
#    0.522    1.391    0.870    1.565    6.087    1.391 
#    3.130    2.609    0.000    0.000    0.000    0.000 
#    0.000    0.000    0.000    0.000    0.000    0.000 
#
# Total GULP energy -256569.727779 kJ/mol
# GULP energy per Si atom -5577.602778 kJ/mol
# Density = 2.244447 g / cm^3
# Si number density = 22.495675 Si / 1000 Ang^3
#
#
#
# Elastic Constant Matrix: (Units=GPa)
#
#
# Indices 1 2 3 4 5 6 
#
# 1 37.7091 1.4239 22.7439 0.0000 0.0000 0.0000
# 2 1.4239 112.4416 14.6116 0.0000 0.0000 0.0000
# 3 22.7439 14.6116 142.8777 0.0000 0.0000 0.0000
# 4 0.0000 0.0000 0.0000 52.9224 0.0000 0.0000
# 5 0.0000 0.0000 0.0000 0.0000 13.2063 0.0000
# 6 0.0000 0.0000 0.0000 0.0000 0.0000 22.0175
#
#
#
# Elastic Compliance Matrix: (Units=1/GPa)
#
#
# Indices 1 2 3 4 5 6 
#
# 1 0.029342 0.000239 -0.004695 0.000000 0.000000 0.000000
# 2 0.000239 0.009015 -0.000960 0.000000 0.000000 0.000000
# 3 -0.004695 -0.000960 0.007845 0.000000 0.000000 0.000000
# 4 0.000000 0.000000 0.000000 0.018896 0.000000 0.000000
# 5 0.000000 0.000000 0.000000 0.000000 0.075722 0.000000
# 6 0.000000 0.000000 0.000000 0.000000 0.000000 0.045418
#
#
# Mechanical properties :
#
#
# Convention : Reuss Voigt Hill
#
# Bulk Modulus (GPa) = 28.27385 41.17635 34.72510
# Shear Modulus (GPa) = 23.93956 34.57919 29.25938
#
# Velocity S-wave (km/s) = 3.26572 3.92490 3.61039
# Velocity P-wave (km/s) = 5.17840 6.23568 5.73147
#
# Compressibility (1/GPa) = 0.03536837
#
# Stress axis : x y z
#
# Youngs Moduli (GPa) = 34.08133 110.92347 127.47699
#
# Poissons Ratio (x) = -0.02646 0.59852
# Poissons Ratio (y) = -0.00813 0.12237
# Poissons Ratio (z) = 0.16002 0.10648
#
# Static dielectric constant tensor:
#      x y z
#    x 1.878870 0.000000 0.000000 
#    y 0.000000 1.811780 0.000000 
#    z 0.000000 0.000000 1.789230 
# 
# From -- ./inp_files/32315.got.cif
#   From: 2010.05.17/outbox.cif.g08.bks.cpg/sg58_17_cif.got.tgz:32315.got - 2010.06.03 14:20:14.
