data_PCOD9444504
_publ_section_title
;
Structure prediction by ZEFSAII (Michael W. Deem and Ramdas Pophale) SiO2 
 PCOD9444504
Probable space group: P N N M
;
_chemical_formula_sum "Si O2"
_cell_formula_units_Z 58
_cell_length_a 12.237878
_cell_length_b 29.065088
_cell_length_c 7.975467
_cell_angle_alpha 90.000000
_cell_angle_beta 90.000000
_cell_angle_gamma 90.000000
_cell_volume 2836.833743
_symmetry_space_group_name_H-M "P N N M"
_symmetry_group_IT_number 58
_symmetry_cell_setting 'orthorhombic'
loop_
_space_group_symop_operation_xyz
x,y,z
-x,-y,z
1/2+x,1/2-y,1/2-z
1/2-x,1/2+y,1/2-z
-x,-y,-z
x,y,-z
1/2-x,1/2+y,1/2+z
1/2+x,1/2-y,1/2+z
loop_
_atom_site_type_symbol
_atom_site_label
_atom_site_fract_x
_atom_site_fract_y
_atom_site_fract_z
Si Si1 0.143615 0.979698 0.183856
Si Si2 0.301783 0.159746 0.795476
Si Si3 0.734827 0.101258 0.690687
Si Si4 0.500000 0.500000 0.000000
Si Si5 0.349801 0.579540 0.805036
Si Si6 0.110061 0.228283 0.201993
Si Si7 0.455702 0.352325 0.299626
Si Si8 0.948969 0.670092 0.698122
O O1 0.171272 0.033556 0.200664
O O2 0.243234 0.944378 0.201703
O O3 0.094107 0.970307 0.000000
O O4 0.067867 0.972827 0.346850
O O5 0.251213 0.114183 0.712607
O O6 0.221048 0.201758 0.749084
O O7 0.425753 0.168074 0.742176
O O8 0.295828 0.154892 0.000000
O O9 0.730097 0.086482 0.500000
O O10 0.841081 0.133557 0.720700
O O11 0.628289 0.130761 0.729829
O O12 0.451726 0.609754 0.741943
O O13 0.370177 0.563942 0.000000
O O14 0.099769 0.279703 0.265336
O O15 0.008813 0.195912 0.258096
O O16 0.107533 0.229244 0.000000
O O17 0.441546 0.350718 0.500000
O O18 0.951789 0.663500 0.500000
#
# Coordination Sequence:
#
# PCOD9444504 Si02
#       8
#     8   8   8   2   8   8   8   8
#     4  12  24  41  64  92 136 176 216 269 330 389
#     4   9  21  42  64  88 122 166 218 267 324 387
#     4  12  25  42  60  91 132 170 218 268 324 393
#     4  12  22  40  60 102 130 172 222 264 320 396
#     4  11  21  38  63  96 128 163 215 265 318 387
#     4   9  20  39  62  90 122 160 207 267 324 386
#     4  10  21  38  60  91 126 164 209 255 324 384
#     4  11  24  41  63  90 124 168 219 265 327 390
#
# _framework density 20.445328
#
# number of rings (size 3 to 8) (size 9 to 14) (size 15 to 20)
#    0.000    1.379    1.379    5.172    1.931    3.862 
#    0.000    0.690    0.000    4.138    0.000    0.000 
#    0.000    0.000    0.000    0.000    0.000    0.000 
#
# Total GULP energy -323738.584908 kJ/mol
# GULP energy per Si atom -5581.699740 kJ/mol
# Density = 2.039879 g / cm^3
# Si number density = 20.445328 Si / 1000 Ang^3
#
#
#
# Elastic Constant Matrix: (Units=GPa)
#
#
# Indices 1 2 3 4 5 6 
#
# 1 100.8110 22.9544 14.9887 0.0000 0.0000 0.0000
# 2 22.9544 72.0621 15.4630 0.0000 0.0000 0.0000
# 3 14.9887 15.4630 94.8102 0.0000 0.0000 0.0000
# 4 0.0000 0.0000 0.0000 34.0229 0.0000 0.0000
# 5 0.0000 0.0000 0.0000 0.0000 25.3227 0.0000
# 6 0.0000 0.0000 0.0000 0.0000 0.0000 27.2625
#
#
#
# Elastic Compliance Matrix: (Units=1/GPa)
#
#
# Indices 1 2 3 4 5 6 
#
# 1 0.010823 -0.003192 -0.001190 0.000000 0.000000 0.000000
# 2 -0.003192 0.015322 -0.001994 0.000000 0.000000 0.000000
# 3 -0.001190 -0.001994 0.011061 0.000000 0.000000 0.000000
# 4 0.000000 0.000000 0.000000 0.029392 0.000000 0.000000
# 5 0.000000 0.000000 0.000000 0.000000 0.039490 0.000000
# 6 0.000000 0.000000 0.000000 0.000000 0.000000 0.036680
#
#
# Mechanical properties :
#
#
# Convention : Reuss Voigt Hill
#
# Bulk Modulus (GPa) = 40.89619 41.61061 41.25340
# Shear Modulus (GPa) = 30.54872 31.60678 31.07775
#
# Velocity S-wave (km/s) = 3.86964 3.93608 3.90300
# Velocity P-wave (km/s) = 6.32547 6.40728 6.36651
#
# Compressibility (1/GPa) = 0.02445216
#
# Stress axis : x y z
#
# Youngs Moduli (GPa) = 92.39233 65.26707 90.40911
#
# Poissons Ratio (x) = 0.20835 0.10763
# Poissons Ratio (y) = 0.29494 0.18029
# Poissons Ratio (z) = 0.10999 0.13016
#
# Static dielectric constant tensor:
#      x y z
#    x 1.695920 0.000000 0.000000 
#    y 0.000000 1.681840 0.000000 
#    z 0.000000 0.000000 1.738830 
# 
# From -- ./inp_files/4587.got.cif
#   From: 2010.05.17/outbox.cif.g08.bks.cpg/sg58_3_cif.got.tgz:4587.got - 2010.06.03 14:20:14.
