data_PCOD9444621
_publ_section_title
;
Structure prediction by ZEFSAII (Michael W. Deem and Ramdas Pophale) SiO2 
 PCOD9444621
Probable space group: P N N M
;
_chemical_formula_sum "Si O2"
_cell_formula_units_Z 48
_cell_length_a 15.272003
_cell_length_b 20.823849
_cell_length_c 7.517525
_cell_angle_alpha 90.000000
_cell_angle_beta 90.000000
_cell_angle_gamma 90.000000
_cell_volume 2390.737467
_symmetry_space_group_name_H-M "P N N M"
_symmetry_group_IT_number 58
_symmetry_cell_setting 'orthorhombic'
loop_
_space_group_symop_operation_xyz
x,y,z
-x,-y,z
1/2+x,1/2-y,1/2-z
1/2-x,1/2+y,1/2-z
-x,-y,-z
x,y,-z
1/2-x,1/2+y,1/2+z
1/2+x,1/2-y,1/2+z
loop_
_atom_site_type_symbol
_atom_site_label
_atom_site_fract_x
_atom_site_fract_y
_atom_site_fract_z
Si Si1 0.078183 0.680782 0.700735
Si Si2 0.757952 0.242611 0.282763
Si Si3 0.957635 0.564033 0.794109
Si Si4 0.038175 0.099901 0.000000
Si Si5 0.145907 0.973839 0.000000
Si Si6 0.260405 0.904763 0.284492
Si Si7 0.434621 0.722813 0.296988
O O1 0.098495 0.660115 0.500000
O O2 0.027347 0.621433 0.785236
O O3 0.010192 0.739922 0.698045
O O4 0.166070 0.710263 0.783208
O O5 0.760165 0.245720 0.500000
O O6 0.769185 0.167832 0.236999
O O7 0.661749 0.264624 0.224879
O O8 0.862277 0.586369 0.727782
O O9 0.000000 0.500000 0.711970
O O10 0.940029 0.548930 0.000000
O O11 0.047359 0.148021 0.167912
O O12 0.944265 0.066627 0.000000
O O13 0.114454 0.047349 0.000000
O O14 0.201871 0.954041 0.827046
O O15 0.252784 0.911608 0.500000
O O16 0.435489 0.751021 0.500000
#
# Coordination Sequence:
#
# PCOD9444621 Si02
#       7
#     8   8   8   4   4   8   8
#     4  11  21  33  56  90 117 144 202 256 300 368
#     4   9  18  34  56  81 111 153 198 239 309 364
#     4  10  22  40  58  81 120 165 201 243 314 379
#     4   9  22  38  62  88 117 158 202 256 297 366
#     4  11  22  40  61  94 120 154 219 244 305 386
#     4  10  21  39  61  86 121 163 200 253 308 368
#     4   9  18  37  58  74 111 159 186 239 308 346
#
# _framework density 20.077484999999999
#
# number of rings (size 3 to 8) (size 9 to 14) (size 15 to 20)
#    0.500    1.667    1.667    1.500    1.167    1.667 
#    1.500    2.500    0.000    0.000    0.000    0.000 
#    0.000    0.000    0.000    0.000    0.000    0.000 
#
# Total GULP energy -267635.276679 kJ/mol
# GULP energy per Si atom -5575.734931 kJ/mol
# Density = 2.003179 g / cm^3
# Si number density = 20.077485 Si / 1000 Ang^3
#
#
#
# Elastic Constant Matrix: (Units=GPa)
#
#
# Indices 1 2 3 4 5 6 
#
# 1 67.0574 7.4964 2.4191 0.0000 0.0000 0.0000
# 2 7.4964 97.3391 1.1197 0.0000 0.0000 0.0000
# 3 2.4191 1.1197 55.1457 0.0000 0.0000 0.0000
# 4 0.0000 0.0000 0.0000 1.3268 0.0000 0.0000
# 5 0.0000 0.0000 0.0000 0.0000 -9.2929 0.0000
# 6 0.0000 0.0000 0.0000 0.0000 0.0000 33.6563
#
#
#
# Elastic Compliance Matrix: (Units=1/GPa)
#
#
# Indices 1 2 3 4 5 6 
#
# 1 0.015064 -0.001153 -0.000637 0.000000 0.000000 0.000000
# 2 -0.001153 0.010364 -0.000160 0.000000 0.000000 0.000000
# 3 -0.000637 -0.000160 0.018165 0.000000 0.000000 0.000000
# 4 0.000000 0.000000 0.000000 0.753682 0.000000 0.000000
# 5 0.000000 0.000000 0.000000 0.000000 -0.107609 0.000000
# 6 0.000000 0.000000 0.000000 0.000000 0.000000 0.029712
#
#
# Mechanical properties :
#
#
# Convention : Reuss Voigt Hill
#
# Bulk Modulus (GPa) = 25.19326 26.84586 26.01956
# Shear Modulus (GPa) = 6.78878 19.03850 12.91364
#
# Velocity S-wave (km/s) = 1.84082 3.08271 2.53887
# Velocity P-wave (km/s) = 4.13442 5.10597 4.64566
#
# Compressibility (1/GPa) = 0.03969316
#
# Stress axis : x y z
#
# Youngs Moduli (GPa) = 66.38138 96.48794 55.05096
#
# Poissons Ratio (x) = 0.11123 0.03509
# Poissons Ratio (y) = 0.07653 0.00880
# Poissons Ratio (z) = 0.04231 0.01543
#
# Static dielectric constant tensor:
#      x y z
#    x 1.706150 0.000000 0.000000 
#    y 0.000000 1.695350 0.000000 
#    z 0.000000 0.000000 1.741870 
# 
# From -- ./inp_files/6069.got.cif
#   From: 2010.05.17/outbox.cif.g08.bks.cpg/sg58_4_cif.got.tgz:6069.got - 2010.06.03 14:20:14.
