data_PCOD9444394
_publ_section_title
;
Structure prediction by ZEFSAII (Michael W. Deem and Ramdas Pophale) SiO2 
 PCOD9444394
Probable space group: P N N M
;
_chemical_formula_sum "Si O2"
_cell_formula_units_Z 48
_cell_length_a 23.447449
_cell_length_b 10.914903
_cell_length_c 9.221295
_cell_angle_alpha 90.000000
_cell_angle_beta 90.000000
_cell_angle_gamma 90.000000
_cell_volume 2359.974967
_symmetry_space_group_name_H-M "P N N M"
_symmetry_group_IT_number 58
_symmetry_cell_setting 'orthorhombic'
loop_
_space_group_symop_operation_xyz
x,y,z
-x,-y,z
1/2+x,1/2-y,1/2-z
1/2-x,1/2+y,1/2-z
-x,-y,-z
x,y,-z
1/2-x,1/2+y,1/2+z
1/2+x,1/2-y,1/2+z
loop_
_atom_site_type_symbol
_atom_site_label
_atom_site_fract_x
_atom_site_fract_y
_atom_site_fract_z
Si Si1 0.486333 0.689819 0.833853
Si Si2 0.091083 0.435559 0.332255
Si Si3 0.313727 0.793719 0.327665
Si Si4 0.418796 0.178290 0.328842
Si Si5 0.179251 0.800874 0.669059
Si Si6 0.627165 0.429872 0.170761
O O1 0.448624 0.815016 0.828476
O O2 0.538750 0.716950 0.729926
O O3 0.440206 0.585447 0.795979
O O4 0.506381 0.671792 0.000000
O O5 0.098976 0.469200 0.500000
O O6 0.150058 0.395976 0.256739
O O7 0.065751 0.550073 0.246714
O O8 0.323734 0.804427 0.500000
O O9 0.246425 0.803229 0.300648
O O10 0.337851 0.665188 0.268107
O O11 0.421669 0.168449 0.500000
O O12 0.355862 0.211874 0.272572
O O13 0.171268 0.764985 0.500000
O O14 0.152425 0.935697 0.686934
O O15 0.632552 0.394056 0.000000
#
# Coordination Sequence:
#
# PCOD9444394 Si02
#       6
#     8   8   8   8   8   8
#     4   9  19  38  62  85 113 155 198 240 291 352
#     4  10  21  39  63  88 117 157 198 238 292 355
#     4  10  21  37  60  90 119 150 192 244 295 342
#     4  12  25  37  56  88 122 154 194 249 298 341
#     4  10  23  41  59  84 118 159 199 236 288 354
#     4   9  20  40  63  84 113 157 200 237 287 354
#
# _framework density 20.339198
#
# number of rings (size 3 to 8) (size 9 to 14) (size 15 to 20)
#    0.000    2.000    0.000    4.000    2.333    8.000 
#    0.000    3.333    0.000    0.000    0.000    0.000 
#    0.000    0.000    0.000    0.000    0.000    0.000 
#
# Total GULP energy -268345.676262 kJ/mol
# GULP energy per Si atom -5590.534922 kJ/mol
# Density = 2.029290 g / cm^3
# Si number density = 20.339198 Si / 1000 Ang^3
#
#
#
# Elastic Constant Matrix: (Units=GPa)
#
#
# Indices 1 2 3 4 5 6 
#
# 1 92.0668 9.7879 54.5722 0.0000 0.0000 0.0000
# 2 9.7879 44.7593 26.8774 0.0000 0.0000 0.0000
# 3 54.5722 26.8774 111.3153 0.0000 0.0000 0.0000
# 4 0.0000 0.0000 0.0000 -14.1806 0.0000 0.0000
# 5 0.0000 0.0000 0.0000 0.0000 26.1030 0.0000
# 6 0.0000 0.0000 0.0000 0.0000 0.0000 24.4940
#
#
#
# Elastic Compliance Matrix: (Units=1/GPa)
#
#
# Indices 1 2 3 4 5 6 
#
# 1 0.015382 0.001362 -0.007870 0.000000 0.000000 0.000000
# 2 0.001362 0.026251 -0.007006 0.000000 0.000000 0.000000
# 3 -0.007870 -0.007006 0.014533 0.000000 0.000000 0.000000
# 4 0.000000 0.000000 0.000000 -0.070519 0.000000 0.000000
# 5 0.000000 0.000000 0.000000 0.000000 0.038310 0.000000
# 6 0.000000 0.000000 0.000000 0.000000 0.000000 0.040826
#
#
# Mechanical properties :
#
#
# Convention : Reuss Voigt Hill
#
# Bulk Modulus (GPa) = 34.31910 47.84626 41.08268
# Shear Modulus (GPa) = 49.24972 17.74353 33.49662
#
# Velocity S-wave (km/s) = 4.92613 2.95681 4.06260
# Velocity P-wave (km/s) = 7.01895 5.93567 6.49992
#
# Compressibility (1/GPa) = 0.02913829
#
# Stress axis : x y z
#
# Youngs Moduli (GPa) = 65.01274 38.09382 68.80777
#
# Poissons Ratio (x) = -0.05188 0.54150
# Poissons Ratio (y) = -0.08855 0.48207
# Poissons Ratio (z) = 0.51163 0.26689
#
# Static dielectric constant tensor:
#      x y z
#    x 1.725790 0.000000 0.000000 
#    y 0.000000 1.740070 0.000000 
#    z 0.000000 0.000000 1.676140 
# 
# From -- ./inp_files/9712.got.cif
#   From: 2010.05.17/outbox.cif.g08.bks.cpg/sg58_5_cif.got.tgz:9712.got - 2010.06.03 14:20:14.
