data_PCOD9444372
_publ_section_title
;
Structure prediction by ZEFSAII (Michael W. Deem and Ramdas Pophale) SiO2 
 PCOD9444372
Probable space group: P N N M
;
_chemical_formula_sum "Si O2"
_cell_formula_units_Z 48
_cell_length_a 24.264889
_cell_length_b 12.166078
_cell_length_c 8.824772
_cell_angle_alpha 90.000000
_cell_angle_beta 90.000000
_cell_angle_gamma 90.000000
_cell_volume 2605.147989
_symmetry_space_group_name_H-M "P N N M"
_symmetry_group_IT_number 58
_symmetry_cell_setting 'orthorhombic'
loop_
_space_group_symop_operation_xyz
x,y,z
-x,-y,z
1/2+x,1/2-y,1/2-z
1/2-x,1/2+y,1/2-z
-x,-y,-z
x,y,-z
1/2-x,1/2+y,1/2+z
1/2+x,1/2-y,1/2+z
loop_
_atom_site_type_symbol
_atom_site_label
_atom_site_fract_x
_atom_site_fract_y
_atom_site_fract_z
Si Si1 0.035937 0.771711 0.680625
Si Si2 0.144191 0.634375 0.318132
Si Si3 0.418685 0.723061 0.317419
Si Si4 0.099879 0.971768 0.818210
Si Si5 0.208924 0.835179 0.818530
Si Si6 0.326252 0.899754 0.682212
O O1 0.031968 0.776728 0.500000
O O2 0.084327 0.685557 0.720386
O O3 0.056229 0.889537 0.743093
O O4 0.977313 0.742286 0.750586
O O5 0.148979 0.628560 0.500000
O O6 0.188456 0.720976 0.253531
O O7 0.153459 0.516182 0.245587
O O8 0.422172 0.723584 0.500000
O O9 0.406588 0.597537 0.269273
O O10 0.369850 0.805240 0.273469
O O11 0.160505 0.923371 0.784361
O O12 0.092185 0.966572 0.000000
O O13 0.266637 0.872158 0.749932
O O14 0.212761 0.824769 0.000000
O O15 0.323043 0.903357 0.500000
#
# Coordination Sequence:
#
# PCOD9444372 Si02
#       6
#     8   8   8   8   8   8
#     4  10  21  37  59  87 116 150 193 245 292 338
#     4  10  22  41  61  82 116 156 195 242 295 349
#     4  10  22  38  57  84 119 156 191 236 290 351
#     4   9  19  37  60  85 115 154 192 231 291 354
#     4  10  21  38  62  88 115 152 195 241 296 353
#     4  11  24  39  58  87 119 155 199 243 292 350
#
# _framework density 18.425056000000001
#
# number of rings (size 3 to 8) (size 9 to 14) (size 15 to 20)
#    0.000    2.000    0.000    2.500    2.333    7.333 
#    0.000    3.333    0.000    0.000    0.000    0.000 
#    0.000    0.000    0.000    0.000    0.000    0.000 
#
# Total GULP energy -268197.221162 kJ/mol
# GULP energy per Si atom -5587.442108 kJ/mol
# Density = 1.838312 g / cm^3
# Si number density = 18.425056 Si / 1000 Ang^3
#
#
#
# Elastic Constant Matrix: (Units=GPa)
#
#
# Indices 1 2 3 4 5 6 
#
# 1 101.7592 22.7410 31.2326 0.0000 0.0000 0.0000
# 2 22.7410 29.5343 14.1283 0.0000 0.0000 0.0000
# 3 31.2326 14.1283 33.1581 0.0000 0.0000 0.0000
# 4 0.0000 0.0000 0.0000 15.7954 0.0000 0.0000
# 5 0.0000 0.0000 0.0000 0.0000 35.8843 0.0000
# 6 0.0000 0.0000 0.0000 0.0000 0.0000 12.2236
#
#
#
# Elastic Compliance Matrix: (Units=1/GPa)
#
#
# Indices 1 2 3 4 5 6 
#
# 1 0.014587 -0.005852 -0.011246 0.000000 0.000000 0.000000
# 2 -0.005852 0.044875 -0.013609 0.000000 0.000000 0.000000
# 3 -0.011246 -0.013609 0.046550 0.000000 0.000000 0.000000
# 4 0.000000 0.000000 0.000000 0.063310 0.000000 0.000000
# 5 0.000000 0.000000 0.000000 0.000000 0.027867 0.000000
# 6 0.000000 0.000000 0.000000 0.000000 0.000000 0.081809
#
#
# Mechanical properties :
#
#
# Convention : Reuss Voigt Hill
#
# Bulk Modulus (GPa) = 22.42240 33.40615 27.91427
# Shear Modulus (GPa) = 14.07356 19.20397 16.63876
#
# Velocity S-wave (km/s) = 2.76674 3.23193 3.00834
# Velocity P-wave (km/s) = 4.73312 5.66545 5.22014
#
# Compressibility (1/GPa) = 0.04459826
#
# Stress axis : x y z
#
# Youngs Moduli (GPa) = 68.55596 22.28435 21.48221
#
# Poissons Ratio (x) = 0.13040 0.24159
# Poissons Ratio (y) = 0.40116 0.29234
# Poissons Ratio (z) = 0.77100 0.30326
#
# Static dielectric constant tensor:
#      x y z
#    x 1.613700 0.000000 0.000000 
#    y 0.000000 1.612440 0.000000 
#    z 0.000000 0.000000 1.615480 
# 
# From -- ./inp_files/4258.got.cif
#   From: 2010.05.17/outbox.cif.g08.bks.cpg/sg58_3_cif.got.tgz:4258.got - 2010.06.03 14:20:14.
