data_PCOD9444172
_publ_section_title
;
Structure prediction by ZEFSAII (Michael W. Deem and Ramdas Pophale) SiO2 
 PCOD9444172
Probable space group: P N N M
;
_chemical_formula_sum "Si O2"
_cell_formula_units_Z 48
_cell_length_a 12.150084
_cell_length_b 23.674479
_cell_length_c 7.877050
_cell_angle_alpha 90.000000
_cell_angle_beta 90.000000
_cell_angle_gamma 90.000000
_cell_volume 2265.809081
_symmetry_space_group_name_H-M "P N N M"
_symmetry_group_IT_number 58
_symmetry_cell_setting 'orthorhombic'
loop_
_space_group_symop_operation_xyz
x,y,z
-x,-y,z
1/2+x,1/2-y,1/2-z
1/2-x,1/2+y,1/2-z
-x,-y,-z
x,y,-z
1/2-x,1/2+y,1/2+z
1/2+x,1/2-y,1/2+z
loop_
_atom_site_type_symbol
_atom_site_label
_atom_site_fract_x
_atom_site_fract_y
_atom_site_fract_z
Si Si1 0.938092 0.159668 0.306745
Si Si2 0.309516 0.848091 0.708884
Si Si3 0.716778 0.884299 0.199373
Si Si4 0.419433 0.546272 0.194409
Si Si5 0.988209 0.563449 0.799852
Si Si6 0.643778 0.277241 0.301782
O O1 0.925167 0.180801 0.500000
O O2 0.817475 0.146625 0.239208
O O3 0.006741 0.102193 0.311134
O O4 0.017785 0.202951 0.213332
O O5 0.314076 0.849470 0.500000
O O6 0.389810 0.897613 0.770398
O O7 0.344310 0.785567 0.768160
O O8 0.805916 0.934600 0.222002
O O9 0.602571 0.902664 0.281714
O O10 0.776282 0.827027 0.268834
O O11 0.696742 0.876446 0.000000
O O12 0.500000 0.500000 0.274439
O O13 0.393843 0.527979 0.000000
O O14 0.000000 0.500000 0.727105
O O15 0.964726 0.556425 0.000000
O O16 0.672030 0.273977 0.500000
#
# Coordination Sequence:
#
# PCOD9444172 Si02
#       6
#     8   8   8   8   8   8
#     4   9  18  33  54  79 105 134 176 223 267 318
#     4   9  19  35  56  80 107 141 177 224 276 322
#     4  10  21  36  55  79 112 147 178 220 273 330
#     4   9  18  32  56  83 105 136 180 226 266 314
#     4  10  22  38  59  82 108 145 188 230 273 323
#     4   9  19  36  55  78 109 142 175 218 275 328
#
# _framework density 21.184488000000002
#
# number of rings (size 3 to 8) (size 9 to 14) (size 15 to 20)
#    0.000    2.667    0.000    0.500    4.667    1.333 
#    0.000    1.667    0.000    0.000    0.000    0.000 
#    0.000    0.000    0.000    0.000    0.000    0.000 
#
# Total GULP energy -267613.490609 kJ/mol
# GULP energy per Si atom -5575.281054 kJ/mol
# Density = 2.113627 g / cm^3
# Si number density = 21.184488 Si / 1000 Ang^3
#
#
#
# Elastic Constant Matrix: (Units=GPa)
#
#
# Indices 1 2 3 4 5 6 
#
# 1 124.2276 37.8286 -12.7217 0.0000 0.0000 0.0000
# 2 37.8286 72.0426 4.9855 0.0000 0.0000 0.0000
# 3 -12.7217 4.9855 15.5623 0.0000 0.0000 0.0000
# 4 0.0000 0.0000 0.0000 11.8496 0.0000 0.0000
# 5 0.0000 0.0000 0.0000 0.0000 2.4295 0.0000
# 6 0.0000 0.0000 0.0000 0.0000 0.0000 13.1140
#
#
#
# Elastic Compliance Matrix: (Units=1/GPa)
#
#
# Indices 1 2 3 4 5 6 
#
# 1 0.011248 -0.006691 0.011339 0.000000 0.000000 0.000000
# 2 -0.006691 0.018176 -0.011292 0.000000 0.000000 0.000000
# 3 0.011339 -0.011292 0.077144 0.000000 0.000000 0.000000
# 4 0.000000 0.000000 0.000000 0.084391 0.000000 0.000000
# 5 0.000000 0.000000 0.000000 0.000000 0.411602 0.000000
# 6 0.000000 0.000000 0.000000 0.000000 0.000000 0.076254
#
#
# Mechanical properties :
#
#
# Convention : Reuss Voigt Hill
#
# Bulk Modulus (GPa) = 10.72057 30.22417 20.47237
# Shear Modulus (GPa) = 6.91374 17.59463 12.25419
#
# Velocity S-wave (km/s) = 1.80850 2.88504 2.40771
# Velocity P-wave (km/s) = 3.07123 5.03945 4.17304
#
# Compressibility (1/GPa) = 0.09327865
#
# Stress axis : x y z
#
# Youngs Moduli (GPa) = 88.90168 55.01905 12.96273
#
# Poissons Ratio (x) = 0.36813 -0.14698
# Poissons Ratio (y) = 0.59485 0.14638
# Poissons Ratio (z) = -1.00803 0.62130
#
# Static dielectric constant tensor:
#      x y z
#    x 1.746760 0.000000 0.000000 
#    y 0.000000 1.784870 0.000000 
#    z 0.000000 0.000000 1.797340 
# 
# From -- ./inp_files/4246.got.cif
#   From: 2010.05.17/outbox.cif.g08.bks.cpg/sg58_3_cif.got.tgz:4246.got - 2010.06.03 14:20:14.
