data_PCOD9444044
_publ_section_title
;
Structure prediction by ZEFSAII (Michael W. Deem and Ramdas Pophale) SiO2 
 PCOD9444044
Probable space group: P N N M
;
_chemical_formula_sum "Si O2"
_cell_formula_units_Z 34
_cell_length_a 16.599682
_cell_length_b 5.150709
_cell_length_c 22.107360
_cell_angle_alpha 90.000000
_cell_angle_beta 90.000000
_cell_angle_gamma 90.000000
_cell_volume 1890.182187
_symmetry_space_group_name_H-M "P N N M"
_symmetry_group_IT_number 58
_symmetry_cell_setting 'orthorhombic'
loop_
_space_group_symop_operation_xyz
x,y,z
-x,-y,z
1/2+x,1/2-y,1/2-z
1/2-x,1/2+y,1/2-z
-x,-y,-z
x,y,-z
1/2-x,1/2+y,1/2+z
1/2+x,1/2-y,1/2+z
loop_
_atom_site_type_symbol
_atom_site_label
_atom_site_fract_x
_atom_site_fract_y
_atom_site_fract_z
Si Si1 0.500000 0.000000 0.297572
Si Si2 0.676560 0.979320 0.688635
Si Si3 0.500000 0.500000 0.000000
Si Si4 0.427185 0.796029 0.114954
Si Si5 0.000000 0.000000 0.714910
Si Si6 0.777253 0.478043 0.329341
O O1 0.584982 0.035309 0.330692
O O2 0.485059 0.253615 0.256530
O O3 0.736674 0.198960 0.664358
O O4 0.682680 0.994644 0.762193
O O5 0.708477 0.697879 0.670240
O O6 0.447847 0.652264 0.053169
O O7 0.429214 0.584664 0.169211
O O8 0.344670 0.951988 0.121528
O O9 0.500000 0.000000 0.125666
#
# Coordination Sequence:
#
# PCOD9444044 Si02
#       6
#     4   8   2   8   4   8
#     4  12  20  34  52  79 112 147 192 220 274 328
#     4  10  21  32  49  79 106 146 184 225 263 340
#     4  10  26  36  60  86 104 152 202 246 286 344
#     4  11  22  38  56  78 111 149 192 235 280 338
#     4  11  20  29  56  74 100 158 180 219 265 326
#     4  10  21  33  51  75 109 141 188 222 275 323
#
# _framework density 17.987684000000002
#
# number of rings (size 3 to 8) (size 9 to 14) (size 15 to 20)
#    0.000    1.412    3.529    1.765   13.176    0.000 
#    0.000    0.000    0.000    0.000    0.000    0.000 
#    0.000    5.647    0.000    0.000    0.000    0.000 
#
# Total GULP energy -189300.770054 kJ/mol
# GULP energy per Si atom -5567.669707 kJ/mol
# Density = 1.794674 g / cm^3
# Si number density = 17.987684 Si / 1000 Ang^3
#
#
#
# Elastic Constant Matrix: (Units=GPa)
#
#
# Indices 1 2 3 4 5 6 
#
# 1 97.3059 -1.1560 6.7292 0.0000 0.0000 0.0000
# 2 -1.1560 72.5262 7.2591 0.0000 0.0000 0.0000
# 3 6.7292 7.2591 37.3958 0.0000 0.0000 0.0000
# 4 0.0000 0.0000 0.0000 -8.6677 0.0000 0.0000
# 5 0.0000 0.0000 0.0000 0.0000 -9.2590 0.0000
# 6 0.0000 0.0000 0.0000 0.0000 0.0000 27.2748
#
#
#
# Elastic Compliance Matrix: (Units=1/GPa)
#
#
# Indices 1 2 3 4 5 6 
#
# 1 0.010416 0.000361 -0.001944 0.000000 0.000000 0.000000
# 2 0.000361 0.014074 -0.002797 0.000000 0.000000 0.000000
# 3 -0.001944 -0.002797 0.027634 0.000000 0.000000 0.000000
# 4 0.000000 0.000000 0.000000 -0.115371 0.000000 0.000000
# 5 0.000000 0.000000 0.000000 0.000000 -0.108003 0.000000
# 6 0.000000 0.000000 0.000000 0.000000 0.000000 0.036664
#
#
# Mechanical properties :
#
#
# Convention : Reuss Voigt Hill
#
# Bulk Modulus (GPa) = 23.06155 25.87695 24.46925
# Shear Modulus (GPa) = -44.89464 14.82933 -15.03265
#
# Velocity S-wave (km/s) = -5.00127 2.87438 -2.89402
# Velocity P-wave (km/s) = 4.52788 5.04314 1.57027
#
# Compressibility (1/GPa) = 0.04336222
#
# Stress axis : x y z
#
# Youngs Moduli (GPa) = 96.00977 71.05402 36.18767
#
# Poissons Ratio (x) = -0.02562 0.07036
# Poissons Ratio (y) = -0.03462 0.10121
# Poissons Ratio (z) = 0.18666 0.19873
#
# Static dielectric constant tensor:
#      x y z
#    x 1.674770 0.000000 0.000000 
#    y 0.000000 1.669700 0.000000 
#    z 0.000000 0.000000 1.574960 
# 
# From -- ./inp_files/29843.got.cif
#   From: 2010.05.17/outbox.cif.g08.bks.cpg/sg58_15_cif.got.tgz:29843.got - 2010.06.03 14:20:14.
