data_PCOD9444396
_publ_section_title
;
Structure prediction by ZEFSAII (Michael W. Deem and Ramdas Pophale) SiO2 
 PCOD9444396
Probable space group: P N N M
;
_chemical_formula_sum "Si O2"
_cell_formula_units_Z 58
_cell_length_a 14.336951
_cell_length_b 21.202040
_cell_length_c 9.355449
_cell_angle_alpha 90.000000
_cell_angle_beta 90.000000
_cell_angle_gamma 90.000000
_cell_volume 2843.800237
_symmetry_space_group_name_H-M "P N N M"
_symmetry_group_IT_number 58
_symmetry_cell_setting 'orthorhombic'
loop_
_space_group_symop_operation_xyz
x,y,z
-x,-y,z
1/2+x,1/2-y,1/2-z
1/2-x,1/2+y,1/2-z
-x,-y,-z
x,y,-z
1/2-x,1/2+y,1/2+z
1/2+x,1/2-y,1/2+z
loop_
_atom_site_type_symbol
_atom_site_label
_atom_site_fract_x
_atom_site_fract_y
_atom_site_fract_z
Si Si1 0.169022 0.636984 0.669702
Si Si2 0.694767 0.112454 0.830446
Si Si3 0.023102 0.834507 0.657609
Si Si4 0.825952 0.233484 0.168113
Si Si5 0.124611 0.957959 0.264053
Si Si6 0.000000 0.000000 0.000000
Si Si7 0.493297 0.924151 0.670382
Si Si8 0.164988 0.095046 0.658747
O O1 0.157104 0.638254 0.500000
O O2 0.190310 0.705557 0.735744
O O3 0.258556 0.596868 0.718251
O O4 0.079203 0.608545 0.748687
O O5 0.746741 0.179933 0.810224
O O6 0.770719 0.061484 0.778542
O O7 0.601580 0.102478 0.739723
O O8 0.676211 0.105223 0.000000
O O9 0.027792 0.803831 0.500000
O O10 0.075213 0.794556 0.777723
O O11 0.080296 0.899789 0.652494
O O12 0.916996 0.854736 0.686676
O O13 0.829103 0.248338 0.000000
O O14 0.063146 0.965866 0.123304
O O15 0.123609 0.024946 0.340972
O O16 0.496502 0.911874 0.500000
O O17 0.500000 0.000000 0.690637
O O18 0.204693 0.107908 0.500000
#
# Coordination Sequence:
#
# PCOD9444396 Si02
#       8
#     8   8   8   8   8   2   8   8
#     4  12  27  44  66  90 121 160 210 266 317 378
#     4  10  22  39  64  94 126 167 212 263 315 374
#     4  10  21  37  60  90 126 163 202 244 299 366
#     4  10  23  43  66  91 124 163 206 260 317 378
#     4  11  21  34  61  92 135 166 205 247 302 368
#     4  12  20  32  58  96 142 168 206 252 302 368
#     4  11  25  45  68  94 127 170 218 271 330 389
#     4  11  23  38  59  89 126 163 199 246 307 367
#
# _framework density 20.395243000000001
#
# number of rings (size 3 to 8) (size 9 to 14) (size 15 to 20)
#    0.000    1.241    2.069    3.310    1.931    9.379 
#    0.000    1.379    0.000    0.000    0.000    0.000 
#    0.000    0.000    0.000    0.000    0.000    0.000 
#
# Total GULP energy -323593.895728 kJ/mol
# GULP energy per Si atom -5579.205099 kJ/mol
# Density = 2.034882 g / cm^3
# Si number density = 20.395243 Si / 1000 Ang^3
#
#
#
# Elastic Constant Matrix: (Units=GPa)
#
#
# Indices 1 2 3 4 5 6 
#
# 1 79.2229 0.8634 54.5050 0.0000 0.0000 0.0000
# 2 0.8634 50.1696 27.5380 0.0000 0.0000 0.0000
# 3 54.5050 27.5380 156.4112 0.0000 0.0000 0.0000
# 4 0.0000 0.0000 0.0000 109.3398 0.0000 0.0000
# 5 0.0000 0.0000 0.0000 0.0000 60.4476 0.0000
# 6 0.0000 0.0000 0.0000 0.0000 0.0000 15.3675
#
#
#
# Elastic Compliance Matrix: (Units=1/GPa)
#
#
# Indices 1 2 3 4 5 6 
#
# 1 0.017080 0.003291 -0.006531 0.000000 0.000000 0.000000
# 2 0.003291 0.022699 -0.005143 0.000000 0.000000 0.000000
# 3 -0.006531 -0.005143 0.009575 0.000000 0.000000 0.000000
# 4 0.000000 0.000000 0.000000 0.009146 0.000000 0.000000
# 5 0.000000 0.000000 0.000000 0.000000 0.016543 0.000000
# 6 0.000000 0.000000 0.000000 0.000000 0.000000 0.065072
#
#
# Mechanical properties :
#
#
# Convention : Reuss Voigt Hill
#
# Bulk Modulus (GPa) = 30.68701 50.17959 40.43330
# Shear Modulus (GPa) = 29.80710 50.55747 40.18228
#
# Velocity S-wave (km/s) = 3.82707 4.98424 4.44349
# Velocity P-wave (km/s) = 5.88281 7.60135 6.79662
#
# Compressibility (1/GPa) = 0.03258707
#
# Stress axis : x y z
#
# Youngs Moduli (GPa) = 58.54674 44.05499 104.43886
#
# Poissons Ratio (x) = -0.14499 0.68214
# Poissons Ratio (y) = -0.19269 0.53716
# Poissons Ratio (z) = 0.38240 0.22659
#
# Static dielectric constant tensor:
#      x y z
#    x 1.734450 0.000000 0.000000 
#    y 0.000000 1.797890 0.000000 
#    z 0.000000 0.000000 1.714150 
# 
# From -- ./inp_files/6680.got.cif
#   From: 2010.05.17/outbox.cif.g08.bks.cpg/sg58_4_cif.got.tgz:6680.got - 2010.06.03 14:20:14.
