data_PCOD9444741
_publ_section_title
;
Structure prediction by ZEFSAII (Michael W. Deem and Ramdas Pophale) SiO2 
 PCOD9444741
Probable space group: P N N M
;
_chemical_formula_sum "Si O2"
_cell_formula_units_Z 48
_cell_length_a 19.058066
_cell_length_b 8.420429
_cell_length_c 15.700327
_cell_angle_alpha 90.000000
_cell_angle_beta 90.000000
_cell_angle_gamma 90.000000
_cell_volume 2519.542815
_symmetry_space_group_name_H-M "P N N M"
_symmetry_group_IT_number 58
_symmetry_cell_setting 'orthorhombic'
loop_
_space_group_symop_operation_xyz
x,y,z
-x,-y,z
1/2+x,1/2-y,1/2-z
1/2-x,1/2+y,1/2-z
-x,-y,-z
x,y,-z
1/2-x,1/2+y,1/2+z
1/2+x,1/2-y,1/2+z
loop_
_atom_site_type_symbol
_atom_site_label
_atom_site_fract_x
_atom_site_fract_y
_atom_site_fract_z
Si Si1 0.178171 0.887378 0.286443
Si Si2 0.961568 0.250823 0.000000
Si Si3 0.573703 0.406787 0.099106
Si Si4 0.077543 0.328342 0.739732
Si Si5 0.566710 0.820461 0.688087
Si Si6 0.704455 0.341302 0.667543
Si Si7 0.612989 0.405571 0.500000
O O1 0.126648 0.794049 0.222374
O O2 0.227160 0.767525 0.338379
O O3 0.131186 0.990907 0.350227
O O4 0.221520 0.005214 0.225086
O O5 0.937205 0.338592 0.913763
O O6 0.045708 0.214961 0.000000
O O7 0.922643 0.079637 0.000000
O O8 0.500000 0.500000 0.108063
O O9 0.570768 0.234108 0.143665
O O10 0.590476 0.394304 0.000000
O O11 0.075249 0.513699 0.761993
O O12 0.147542 0.257661 0.778869
O O13 0.009655 0.253316 0.786570
O O14 0.663418 0.384196 0.581458
#
# Coordination Sequence:
#
# PCOD9444741 Si02
#       7
#     8   4   8   8   8   8   4
#     4  11  23  40  67  88 131 175 217 260 324 397
#     4  11  22  38  69 104 130 169 214 275 324 400
#     4  10  21  40  65  92 120 166 224 275 316 373
#     4  10  22  38  63  90 131 165 210 263 327 384
#     4  11  21  39  63  97 126 170 212 267 319 392
#     4  11  23  40  62  91 129 173 208 264 328 394
#     4  11  22  37  66 103 135 160 217 269 336 394
#
# _framework density 19.051075000000001
#
# number of rings (size 3 to 8) (size 9 to 14) (size 15 to 20)
#    0.000    1.333    5.000    1.000    1.167    2.000 
#    0.000    2.500   22.000    0.000    0.000    0.000 
#    0.000    0.000    0.000    0.000    0.000    0.000 
#
# Total GULP energy -267870.820799 kJ/mol
# GULP energy per Si atom -5580.642100 kJ/mol
# Density = 1.900771 g / cm^3
# Si number density = 19.051075 Si / 1000 Ang^3
#
#
#
# Elastic Constant Matrix: (Units=GPa)
#
#
# Indices 1 2 3 4 5 6 
#
# 1 73.2127 25.7674 32.3638 0.0000 0.0000 0.0000
# 2 25.7674 87.8380 52.2776 0.0000 0.0000 0.0000
# 3 32.3638 52.2776 158.7971 0.0000 0.0000 0.0000
# 4 0.0000 0.0000 0.0000 21.6772 0.0000 0.0000
# 5 0.0000 0.0000 0.0000 0.0000 17.2750 0.0000
# 6 0.0000 0.0000 0.0000 0.0000 0.0000 25.1135
#
#
#
# Elastic Compliance Matrix: (Units=1/GPa)
#
#
# Indices 1 2 3 4 5 6 
#
# 1 0.015777 -0.003376 -0.002104 0.000000 0.000000 0.000000
# 2 -0.003376 0.014881 -0.004211 0.000000 0.000000 0.000000
# 3 -0.002104 -0.004211 0.008112 0.000000 0.000000 0.000000
# 4 0.000000 0.000000 0.000000 0.046131 0.000000 0.000000
# 5 0.000000 0.000000 0.000000 0.000000 0.057887 0.000000
# 6 0.000000 0.000000 0.000000 0.000000 0.000000 0.039819
#
#
# Mechanical properties :
#
#
# Convention : Reuss Voigt Hill
#
# Bulk Modulus (GPa) = 51.57650 60.07393 55.82521
# Shear Modulus (GPa) = 23.98618 26.77575 25.38097
#
# Velocity S-wave (km/s) = 3.55215 3.75303 3.65397
# Velocity P-wave (km/s) = 6.62988 7.09802 6.86794
#
# Compressibility (1/GPa) = 0.01938868
#
# Stress axis : x y z
#
# Youngs Moduli (GPa) = 63.38292 67.19920 123.26718
#
# Poissons Ratio (x) = 0.22686 0.25936
# Poissons Ratio (y) = 0.21398 0.51907
# Poissons Ratio (z) = 0.13336 0.28297
#
# Static dielectric constant tensor:
#      x y z
#    x 1.660140 0.000000 0.000000 
#    y 0.000000 1.696430 0.000000 
#    z 0.000000 0.000000 1.643330 
# 
# From -- ./inp_files/19872.got.cif
#   From: 2010.05.17/outbox.cif.g08.bks.cpg/sg58_10_cif.got.tgz:19872.got - 2010.06.03 14:20:14.
