data_PCOD9444145
_publ_section_title
;
Structure prediction by ZEFSAII (Michael W. Deem and Ramdas Pophale) SiO2 
 PCOD9444145
Probable space group: P N N M
;
_chemical_formula_sum "Si O2"
_cell_formula_units_Z 48
_cell_length_a 5.474603
_cell_length_b 16.406025
_cell_length_c 27.351464
_cell_angle_alpha 90.000000
_cell_angle_beta 90.000000
_cell_angle_gamma 90.000000
_cell_volume 2456.612047
_symmetry_space_group_name_H-M "P N N M"
_symmetry_group_IT_number 58
_symmetry_cell_setting 'orthorhombic'
loop_
_space_group_symop_operation_xyz
x,y,z
-x,-y,z
1/2+x,1/2-y,1/2-z
1/2-x,1/2+y,1/2-z
-x,-y,-z
x,y,-z
1/2-x,1/2+y,1/2+z
1/2+x,1/2-y,1/2+z
loop_
_atom_site_type_symbol
_atom_site_label
_atom_site_fract_x
_atom_site_fract_y
_atom_site_fract_z
Si Si1 0.249047 0.052956 0.500000
Si Si2 0.755219 0.793306 0.054852
Si Si3 0.649297 0.627502 0.266584
Si Si4 0.578090 0.276784 0.813362
Si Si5 0.000000 0.500000 0.288516
Si Si6 0.764055 0.861668 0.846149
Si Si7 0.246491 0.195776 0.578293
O O1 0.244494 0.111267 0.548185
O O2 0.500000 0.000000 0.500000
O O3 0.000000 0.000000 0.500000
O O4 0.770092 0.862231 0.096054
O O5 0.498459 0.744756 0.061434
O O6 0.996763 0.738280 0.064184
O O7 0.765181 0.824367 0.000000
O O8 0.477657 0.647342 0.221130
O O9 0.799488 0.710260 0.277302
O O10 0.797690 0.545645 0.257025
O O11 0.511228 0.618883 0.318082
O O12 0.335982 0.228386 0.831848
O O13 0.723654 0.301948 0.862344
O O14 0.913971 0.427642 0.323309
#
# Coordination Sequence:
#
# PCOD9444145 Si02
#       7
#     4   8   8   8   4   8   8
#     4  12  24  42  66  92 132 177 203 257 343 400
#     4  11  20  38  67 100 120 160 217 276 314 370
#     4  11  19  39  62  94 123 168 213 262 326 385
#     4  10  21  35  66  93 119 162 223 270 307 375
#     4  10  24  38  59  88 134 173 204 260 338 404
#     4  10  21  37  61  90 125 165 212 261 324 383
#     4  11  22  40  65  95 126 161 219 270 316 378
#
# _framework density 19.539104999999999
#
# number of rings (size 3 to 8) (size 9 to 14) (size 15 to 20)
#    0.000    1.333    5.000    1.500    0.000    0.000 
#    0.000    2.083    3.667    2.000    0.000    0.000 
#    0.000    0.000    0.000    0.000    0.000    0.000 
#
# Total GULP energy -267584.873124 kJ/mol
# GULP energy per Si atom -5574.684857 kJ/mol
# Density = 1.949463 g / cm^3
# Si number density = 19.539105 Si / 1000 Ang^3
#
#
#
# Elastic Constant Matrix: (Units=GPa)
#
#
# Indices 1 2 3 4 5 6 
#
# 1 85.5987 14.0879 -1.0232 0.0000 0.0000 0.0000
# 2 14.0879 61.1576 14.8757 0.0000 0.0000 0.0000
# 3 -1.0232 14.8757 106.5858 0.0000 0.0000 0.0000
# 4 0.0000 0.0000 0.0000 23.9452 0.0000 0.0000
# 5 0.0000 0.0000 0.0000 0.0000 31.9109 0.0000
# 6 0.0000 0.0000 0.0000 0.0000 0.0000 32.5104
#
#
#
# Elastic Compliance Matrix: (Units=1/GPa)
#
#
# Indices 1 2 3 4 5 6 
#
# 1 0.012171 -0.002932 0.000526 0.000000 0.000000 0.000000
# 2 -0.002932 0.017632 -0.002489 0.000000 0.000000 0.000000
# 3 0.000526 -0.002489 0.009735 0.000000 0.000000 0.000000
# 4 0.000000 0.000000 0.000000 0.041762 0.000000 0.000000
# 5 0.000000 0.000000 0.000000 0.000000 0.031337 0.000000
# 6 0.000000 0.000000 0.000000 0.000000 0.000000 0.030759
#
#
# Mechanical properties :
#
#
# Convention : Reuss Voigt Hill
#
# Bulk Modulus (GPa) = 33.61518 34.35812 33.98665
# Shear Modulus (GPa) = 30.65575 32.70008 31.67792
#
# Velocity S-wave (km/s) = 3.96529 4.09537 4.03085
# Velocity P-wave (km/s) = 6.18110 6.32338 6.25265
#
# Compressibility (1/GPa) = 0.02974847
#
# Stress axis : x y z
#
# Youngs Moduli (GPa) = 82.16123 56.71537 102.72708
#
# Poissons Ratio (x) = 0.16627 -0.05403
# Poissons Ratio (y) = 0.24087 0.25568
# Poissons Ratio (z) = -0.04322 0.14116
#
# Static dielectric constant tensor:
#      x y z
#    x 1.774650 0.000000 0.000000 
#    y 0.000000 -18.857080 0.000000 
#    z 0.000000 0.000000 1.704390 
# 
# From -- ./inp_files/32848.got.cif
#   From: 2010.05.17/outbox.cif.g08.bks.cpg/sg58_17_cif.got.tgz:32848.got - 2010.06.03 14:20:14.
