data_PCOD9444794
_publ_section_title
;
Structure prediction by ZEFSAII (Michael W. Deem and Ramdas Pophale) SiO2 
 PCOD9444794
Probable space group: P N N M
;
_chemical_formula_sum "Si O2"
_cell_formula_units_Z 64
_cell_length_a 31.051201
_cell_length_b 12.254970
_cell_length_c 7.710441
_cell_angle_alpha 90.000000
_cell_angle_beta 90.000000
_cell_angle_gamma 90.000000
_cell_volume 2934.065963
_symmetry_space_group_name_H-M "P N N M"
_symmetry_group_IT_number 58
_symmetry_cell_setting 'orthorhombic'
loop_
_space_group_symop_operation_xyz
x,y,z
-x,-y,z
1/2+x,1/2-y,1/2-z
1/2-x,1/2+y,1/2-z
-x,-y,-z
x,y,-z
1/2-x,1/2+y,1/2+z
1/2+x,1/2-y,1/2+z
loop_
_atom_site_type_symbol
_atom_site_label
_atom_site_fract_x
_atom_site_fract_y
_atom_site_fract_z
Si Si1 0.044120 0.553064 0.209248
Si Si2 0.686915 0.489109 0.296907
Si Si3 0.950307 0.994953 0.712216
Si Si4 0.582962 0.729694 0.205654
Si Si5 0.284871 0.052852 0.711880
Si Si6 0.675802 0.728210 0.699441
Si Si7 0.870416 0.568537 0.203292
Si Si8 0.116878 0.183251 0.299174
O O1 0.047225 0.680117 0.256518
O O2 0.087072 0.491456 0.276370
O O3 0.000000 0.500000 0.273829
O O4 0.044106 0.544129 0.000000
O O5 0.675073 0.486322 0.500000
O O6 0.737928 0.478009 0.276627
O O7 0.675870 0.608193 0.220136
O O8 0.659245 0.392721 0.213376
O O9 0.949494 0.993127 0.500000
O O10 0.922361 0.891283 0.772118
O O11 0.928695 0.108694 0.767260
O O12 0.000000 0.000000 0.765704
O O13 0.626823 0.768535 0.294437
O O14 0.590217 0.725593 0.000000
O O15 0.283668 0.051578 0.500000
O O16 0.295347 0.175781 0.773285
O O17 0.324504 0.975994 0.771311
O O18 0.689573 0.713791 0.500000
O O19 0.875479 0.698598 0.218346
O O20 0.869566 0.540769 0.000000
O O21 0.107294 0.204336 0.500000
#
# Coordination Sequence:
#
# PCOD9444794 Si02
#       8
#     8   8   8   8   8   8   8   8
#     4  10  22  41  63  87 122 163 199 242 301 360
#     4  11  24  40  62  91 121 154 199 249 295 355
#     4   9  20  38  58  85 121 158 193 241 300 348
#     4  11  21  36  63  91 118 152 201 253 294 349
#     4  10  22  41  63  86 118 158 196 244 301 354
#     4  10  21  41  64  85 117 157 196 243 300 356
#     4  10  22  41  61  86 121 158 198 245 297 352
#     4  11  23  40  62  86 121 162 199 241 298 359
#
# _framework density 21.812733000000001
#
# number of rings (size 3 to 8) (size 9 to 14) (size 15 to 20)
#    0.000    1.750    2.500    1.125    3.500    2.250 
#    0.000    0.000    0.000    3.000    0.000    0.000 
#    0.000    0.000    0.000    0.000    0.000    0.000 
#
# Total GULP energy -357513.992616 kJ/mol
# GULP energy per Si atom -5586.156135 kJ/mol
# Density = 2.176309 g / cm^3
# Si number density = 21.812733 Si / 1000 Ang^3
#
#
#
# Elastic Constant Matrix: (Units=GPa)
#
#
# Indices 1 2 3 4 5 6 
#
# 1 102.9277 19.8826 -3.7496 0.0000 0.0000 0.0000
# 2 19.8826 96.0474 -7.5710 0.0000 0.0000 0.0000
# 3 -3.7496 -7.5710 37.1917 0.0000 0.0000 0.0000
# 4 0.0000 0.0000 0.0000 0.5589 0.0000 0.0000
# 5 0.0000 0.0000 0.0000 0.0000 0.5580 0.0000
# 6 0.0000 0.0000 0.0000 0.0000 0.0000 37.1973
#
#
#
# Elastic Compliance Matrix: (Units=1/GPa)
#
#
# Indices 1 2 3 4 5 6 
#
# 1 0.010134 -0.002050 0.000604 0.000000 0.000000 0.000000
# 2 -0.002050 0.010996 0.002032 0.000000 0.000000 0.000000
# 3 0.000604 0.002032 0.027362 0.000000 0.000000 0.000000
# 4 0.000000 0.000000 0.000000 1.789203 0.000000 0.000000
# 5 0.000000 0.000000 0.000000 0.000000 1.792087 0.000000
# 6 0.000000 0.000000 0.000000 0.000000 0.000000 0.026884
#
#
# Mechanical properties :
#
#
# Convention : Reuss Voigt Hill
#
# Bulk Modulus (GPa) = 20.13539 28.14343 24.13941
# Shear Modulus (GPa) = 1.36164 22.83650 12.09907
#
# Velocity S-wave (km/s) = 0.79095 3.23915 2.35772
# Velocity P-wave (km/s) = 3.17572 5.18842 4.30145
#
# Compressibility (1/GPa) = 0.04966379
#
# Stress axis : x y z
#
# Youngs Moduli (GPa) = 98.68166 90.94155 36.54675
#
# Poissons Ratio (x) = 0.18644 -0.02209
# Poissons Ratio (y) = 0.20231 -0.07425
# Poissons Ratio (z) = -0.05963 -0.18477
#
# Static dielectric constant tensor:
#      x y z
#    x 1.810510 0.000000 0.000000 
#    y 0.000000 1.783390 0.000000 
#    z 0.000000 0.000000 1.811840 
# 
# From -- ./inp_files/10974.got.cif
#   From: 2010.05.17/outbox.cif.g08.bks.cpg/sg58_6_cif.got.tgz:10974.got - 2010.06.03 14:20:14.
