data_PCOD9444717
_publ_section_title
;
Structure prediction by ZEFSAII (Michael W. Deem and Ramdas Pophale) SiO2 
 PCOD9444717
Probable space group: P N N M
;
_chemical_formula_sum "Si O2"
_cell_formula_units_Z 48
_cell_length_a 15.303312
_cell_length_b 19.183161
_cell_length_c 8.686336
_cell_angle_alpha 90.000000
_cell_angle_beta 90.000000
_cell_angle_gamma 90.000000
_cell_volume 2550.012028
_symmetry_space_group_name_H-M "P N N M"
_symmetry_group_IT_number 58
_symmetry_cell_setting 'orthorhombic'
loop_
_space_group_symop_operation_xyz
x,y,z
-x,-y,z
1/2+x,1/2-y,1/2-z
1/2-x,1/2+y,1/2-z
-x,-y,-z
x,y,-z
1/2-x,1/2+y,1/2+z
1/2+x,1/2-y,1/2+z
loop_
_atom_site_type_symbol
_atom_site_label
_atom_site_fract_x
_atom_site_fract_y
_atom_site_fract_z
Si Si1 0.749037 0.416623 0.313956
Si Si2 0.508066 0.211966 0.815634
Si Si3 0.307285 0.740264 0.685842
Si Si4 0.362937 0.325562 0.814577
Si Si5 0.058483 0.566008 0.184634
Si Si6 0.903425 0.022799 0.185831
O O1 0.755428 0.418431 0.500000
O O2 0.723667 0.337512 0.270533
O O3 0.842627 0.437406 0.246477
O O4 0.671607 0.468582 0.264885
O O5 0.602148 0.238401 0.761798
O O6 0.435989 0.269209 0.768065
O O7 0.483935 0.137585 0.744209
O O8 0.504827 0.205807 0.000000
O O9 0.317145 0.741123 0.500000
O O10 0.231135 0.794353 0.728335
O O11 0.381493 0.400249 0.743044
O O12 0.365609 0.331291 0.000000
O O13 0.000000 0.500000 0.234633
O O14 0.060513 0.566830 0.000000
O O15 0.904397 0.022571 0.000000
O O16 0.000000 0.000000 0.239092
#
# Coordination Sequence:
#
# PCOD9444717 Si02
#       6
#     8   8   8   8   8   8
#     4  10  21  41  65  90 123 163 203 249 302 357
#     4  11  23  41  64  91 120 158 205 249 300 362
#     4  10  21  40  63  88 122 159 196 248 306 356
#     4  10  22  40  61  87 123 159 196 245 302 356
#     4  11  25  42  61  88 122 162 205 252 308 363
#     4  10  22  39  62  91 122 159 202 246 299 359
#
# _framework density 18.823440999999999
#
# number of rings (size 3 to 8) (size 9 to 14) (size 15 to 20)
#    0.000    1.667    1.667    2.000    2.333    6.333 
#    0.000    0.000    0.000    0.000    0.000    0.000 
#    0.000    0.000    0.000    0.000    0.000    0.000 
#
# Total GULP energy -268288.777122 kJ/mol
# GULP energy per Si atom -5589.349523 kJ/mol
# Density = 1.878060 g / cm^3
# Si number density = 18.823441 Si / 1000 Ang^3
#
#
#
# Elastic Constant Matrix: (Units=GPa)
#
#
# Indices 1 2 3 4 5 6 
#
# 1 145.8248 53.0561 30.9560 0.0000 0.0000 0.0000
# 2 53.0561 126.1648 25.6294 0.0000 0.0000 0.0000
# 3 30.9560 25.6294 16.2192 0.0000 0.0000 0.0000
# 4 0.0000 0.0000 0.0000 26.3147 0.0000 0.0000
# 5 0.0000 0.0000 0.0000 0.0000 53.8441 0.0000
# 6 0.0000 0.0000 0.0000 0.0000 0.0000 39.9604
#
#
#
# Elastic Compliance Matrix: (Units=1/GPa)
#
#
# Indices 1 2 3 4 5 6 
#
# 1 0.011555 -0.000558 -0.021172 0.000000 0.000000 0.000000
# 2 -0.000558 0.011700 -0.017423 0.000000 0.000000 0.000000
# 3 -0.021172 -0.017423 0.129595 0.000000 0.000000 0.000000
# 4 0.000000 0.000000 0.000000 0.038002 0.000000 0.000000
# 5 0.000000 0.000000 0.000000 0.000000 0.018572 0.000000
# 6 0.000000 0.000000 0.000000 0.000000 0.000000 0.025025
#
#
# Mechanical properties :
#
#
# Convention : Reuss Voigt Hill
#
# Bulk Modulus (GPa) = 13.41485 56.38801 34.90143
# Shear Modulus (GPa) = 14.81033 35.92833 25.36933
#
# Velocity S-wave (km/s) = 2.80804 4.37361 3.67516
# Velocity P-wave (km/s) = 4.20186 7.45157 6.04903
#
# Compressibility (1/GPa) = 0.07454423
#
# Stress axis : x y z
#
# Youngs Moduli (GPa) = 86.54206 85.46811 7.71637
#
# Poissons Ratio (x) = 0.04773 0.16337
# Poissons Ratio (y) = 0.04833 0.13444
# Poissons Ratio (z) = 1.83224 1.48909
#
# Static dielectric constant tensor:
#      x y z
#    x 1.613430 0.000000 0.000000 
#    y 0.000000 1.617020 0.000000 
#    z 0.000000 0.000000 1.641620 
# 
# From -- ./inp_files/5848.got.cif
#   From: 2010.05.17/outbox.cif.g08.bks.cpg/sg58_3_cif.got.tgz:5848.got - 2010.06.03 14:20:14.
