data_PCOD9444503
_publ_section_title
;
Structure prediction by ZEFSAII (Michael W. Deem and Ramdas Pophale) SiO2 
 PCOD9444503
Probable space group: P N N M
;
_chemical_formula_sum "Si O2"
_cell_formula_units_Z 64
_cell_length_a 8.575708
_cell_length_b 15.129232
_cell_length_c 24.652459
_cell_angle_alpha 90.000000
_cell_angle_beta 90.000000
_cell_angle_gamma 90.000000
_cell_volume 3198.505581
_symmetry_space_group_name_H-M "P N N M"
_symmetry_group_IT_number 58
_symmetry_cell_setting 'orthorhombic'
loop_
_space_group_symop_operation_xyz
x,y,z
-x,-y,z
1/2+x,1/2-y,1/2-z
1/2-x,1/2+y,1/2-z
-x,-y,-z
x,y,-z
1/2-x,1/2+y,1/2+z
1/2+x,1/2-y,1/2+z
loop_
_atom_site_type_symbol
_atom_site_label
_atom_site_fract_x
_atom_site_fract_y
_atom_site_fract_z
Si Si1 0.622089 0.273005 0.388176
Si Si2 0.178384 0.127837 0.642247
Si Si3 0.680176 0.026336 0.831352
Si Si4 0.832471 0.953170 0.940884
Si Si5 0.184108 0.482478 0.212694
Si Si6 0.143179 0.811661 0.316224
Si Si7 0.548380 0.898712 0.564698
Si Si8 0.154837 0.793125 0.192985
O O1 0.646727 0.348162 0.432778
O O2 0.776634 0.263122 0.351944
O O3 0.565155 0.177826 0.411376
O O4 0.488094 0.306499 0.347683
O O5 0.214619 0.036190 0.670647
O O6 0.277503 0.123549 0.586722
O O7 0.264693 0.201446 0.678389
O O8 0.996826 0.149161 0.647845
O O9 0.721351 0.129680 0.821926
O O10 0.500000 0.000000 0.832617
O O11 0.751284 0.990905 0.886974
O O12 0.740199 0.990220 0.773126
O O13 0.756921 0.970812 0.000000
O O14 0.000000 0.000000 0.941887
O O15 0.220444 0.381680 0.198100
O O16 0.000000 0.500000 0.208700
O O17 0.093190 0.788766 0.254796
O O18 0.543467 0.894121 0.500000
O O19 0.500000 0.000000 0.580423
#
# Coordination Sequence:
#
# PCOD9444503 Si02
#       8
#     8   8   8   8   8   8   8   8
#     4  11  22  40  64  89 127 165 211 253 309 386
#     4  11  22  36  61  90 125 156 200 256 310 361
#     4  10  23  39  62  88 124 161 209 260 316 366
#     4  11  24  42  65  89 120 167 221 267 309 366
#     4  10  21  38  60  90 126 166 197 245 313 393
#     4  11  23  35  59  95 128 157 201 251 312 373
#     4  10  22  43  68  88 117 164 213 253 307 374
#     4  10  22  38  56  92 122 170 201 243 310 380
#
# _framework density 20.009345
#
# number of rings (size 3 to 8) (size 9 to 14) (size 15 to 20)
#    0.000    1.500    1.250    4.125    5.250    1.250 
#    0.000    1.250    0.000    3.000    0.000    0.000 
#    0.000    0.000    0.000    0.000    0.000    0.000 
#
# Total GULP energy -356967.280040 kJ/mol
# GULP energy per Si atom -5577.613751 kJ/mol
# Density = 1.996380 g / cm^3
# Si number density = 20.009345 Si / 1000 Ang^3
#
#
#
# Elastic Constant Matrix: (Units=GPa)
#
#
# Indices 1 2 3 4 5 6 
#
# 1 49.9336 -9.3531 14.8789 0.0000 0.0000 0.0000
# 2 -9.3531 55.9049 17.0610 0.0000 0.0000 0.0000
# 3 14.8789 17.0610 124.9516 0.0000 0.0000 0.0000
# 4 0.0000 0.0000 0.0000 -80.1722 0.0000 0.0000
# 5 0.0000 0.0000 0.0000 0.0000 -45.9864 0.0000
# 6 0.0000 0.0000 0.0000 0.0000 0.0000 29.4107
#
#
#
# Elastic Compliance Matrix: (Units=1/GPa)
#
#
# Indices 1 2 3 4 5 6 
#
# 1 0.021861 0.004646 -0.003238 0.000000 0.000000 0.000000
# 2 0.004646 0.019652 -0.003237 0.000000 0.000000 0.000000
# 3 -0.003238 -0.003237 0.008831 0.000000 0.000000 0.000000
# 4 0.000000 0.000000 0.000000 -0.012473 0.000000 0.000000
# 5 0.000000 0.000000 0.000000 0.000000 -0.021746 0.000000
# 6 0.000000 0.000000 0.000000 0.000000 0.000000 0.034001
#
#
# Mechanical properties :
#
#
# Convention : Reuss Voigt Hill
#
# Bulk Modulus (GPa) = 21.41907 30.66265 26.04086
# Shear Modulus (GPa) = 72.10175 -5.46935 33.31620
#
# Velocity S-wave (km/s) = 6.00935 -1.65509 4.08491
# Velocity P-wave (km/s) = 7.67316 3.42126 5.94064
#
# Compressibility (1/GPa) = 0.04668737
#
# Stress axis : x y z
#
# Youngs Moduli (GPa) = 45.74266 50.88423 113.24349
#
# Poissons Ratio (x) = -0.23638 0.36663
# Poissons Ratio (y) = -0.21250 0.36652
# Poissons Ratio (z) = 0.14809 0.16469
#
# Static dielectric constant tensor:
#      x y z
#    x 1.718710 0.000000 0.000000 
#    y 0.000000 1.704210 0.000000 
#    z 0.000000 0.000000 1.717400 
# 
# From -- ./inp_files/31648.got.cif
#   From: 2010.05.17/outbox.cif.g08.bks.cpg/sg58_16_cif.got.tgz:31648.got - 2010.06.03 14:20:14.
