data_PCOD9444980
_publ_section_title
;
Structure prediction by ZEFSAII (Michael W. Deem and Ramdas Pophale) SiO2 
 PCOD9444980
Probable space group: P N N M
;
_chemical_formula_sum "Si O2"
_cell_formula_units_Z 58
_cell_length_a 25.592159
_cell_length_b 14.763317
_cell_length_c 8.037055
_cell_angle_alpha 90.000000
_cell_angle_beta 90.000000
_cell_angle_gamma 90.000000
_cell_volume 3036.601559
_symmetry_space_group_name_H-M "P N N M"
_symmetry_group_IT_number 58
_symmetry_cell_setting 'orthorhombic'
loop_
_space_group_symop_operation_xyz
x,y,z
-x,-y,z
1/2+x,1/2-y,1/2-z
1/2-x,1/2+y,1/2-z
-x,-y,-z
x,y,-z
1/2-x,1/2+y,1/2+z
1/2+x,1/2-y,1/2+z
loop_
_atom_site_type_symbol
_atom_site_label
_atom_site_fract_x
_atom_site_fract_y
_atom_site_fract_z
Si Si1 0.151549 0.935799 0.188619
Si Si2 0.770727 0.547259 0.201019
Si Si3 0.203231 0.255558 0.195104
Si Si4 0.615111 0.380157 0.188553
Si Si5 0.000000 0.000000 0.000000
Si Si6 0.995915 0.143532 0.698240
Si Si7 0.102665 0.755276 0.688422
Si Si8 0.302848 0.149044 0.692665
O O1 0.210590 0.955096 0.243707
O O2 0.126370 0.856795 0.296764
O O3 0.121602 0.031152 0.198793
O O4 0.151471 0.902193 0.000000
O O5 0.795223 0.641775 0.261285
O O6 0.797797 0.454011 0.254966
O O7 0.771824 0.550921 0.000000
O O8 0.160933 0.190853 0.279374
O O9 0.260905 0.212832 0.216088
O O10 0.190450 0.257003 0.000000
O O11 0.557813 0.338620 0.210747
O O12 0.619690 0.414393 0.000000
O O13 0.014996 0.926570 0.848356
O O14 0.986796 0.115025 0.500000
O O15 0.957997 0.228800 0.727669
O O16 0.107630 0.723354 0.500000
O O17 0.139595 0.690060 0.792934
O O18 0.286477 0.149225 0.500000
#
# Coordination Sequence:
#
# PCOD9444980 Si02
#       8
#     8   8   8   8   2   8   8   8
#     4  12  23  32  54  86 117 153 197 237 284 356
#     4  10  22  39  56  81 120 156 190 241 299 349
#     4  11  22  37  59  86 116 155 198 242 297 356
#     4  11  23  40  58  81 120 160 198 247 298 350
#     4  12  22  36  68  86 128 158 214 240 304 360
#     4  10  25  41  57  87 124 164 203 251 304 361
#     4  11  23  40  58  81 120 160 198 247 298 350
#     4  11  22  37  59  86 116 155 198 242 297 356
#
# _framework density 19.100299
#
# number of rings (size 3 to 8) (size 9 to 14) (size 15 to 20)
#    0.000    1.103    2.759    3.931    5.793    3.310 
#    0.000    0.000    0.000    0.828    0.000    5.793 
#    0.000    0.000    0.000    0.000    0.000    0.000 
#
# Total GULP energy -323379.776721 kJ/mol
# GULP energy per Si atom -5575.513392 kJ/mol
# Density = 1.905683 g / cm^3
# Si number density = 19.100299 Si / 1000 Ang^3
#
#
#
# Elastic Constant Matrix: (Units=GPa)
#
#
# Indices 1 2 3 4 5 6 
#
# 1 56.7888 7.1630 3.3342 0.0000 0.0000 0.0000
# 2 7.1630 68.0314 3.7325 0.0000 0.0000 0.0000
# 3 3.3342 3.7325 54.9559 0.0000 0.0000 0.0000
# 4 0.0000 0.0000 0.0000 24.4809 0.0000 0.0000
# 5 0.0000 0.0000 0.0000 0.0000 15.3958 0.0000
# 6 0.0000 0.0000 0.0000 0.0000 0.0000 23.6918
#
#
#
# Elastic Compliance Matrix: (Units=1/GPa)
#
#
# Indices 1 2 3 4 5 6 
#
# 1 0.017897 -0.001832 -0.000961 0.000000 0.000000 0.000000
# 2 -0.001832 0.014942 -0.000904 0.000000 0.000000 0.000000
# 3 -0.000961 -0.000904 0.018316 0.000000 0.000000 0.000000
# 4 0.000000 0.000000 0.000000 0.040848 0.000000 0.000000
# 5 0.000000 0.000000 0.000000 0.000000 0.064953 0.000000
# 6 0.000000 0.000000 0.000000 0.000000 0.000000 0.042209
#
#
# Mechanical properties :
#
#
# Convention : Reuss Voigt Hill
#
# Bulk Modulus (GPa) = 22.85143 23.13727 22.99435
# Shear Modulus (GPa) = 22.60968 23.75012 23.17990
#
# Velocity S-wave (km/s) = 3.44428 3.53007 3.48744
# Velocity P-wave (km/s) = 5.27326 5.36238 5.31801
#
# Compressibility (1/GPa) = 0.04376093
#
# Stress axis : x y z
#
# Youngs Moduli (GPa) = 55.87656 66.92763 54.59670
#
# Poissons Ratio (x) = 0.12258 0.05249
# Poissons Ratio (y) = 0.10234 0.04934
# Poissons Ratio (z) = 0.05372 0.06048
#
# Static dielectric constant tensor:
#      x y z
#    x 1.678190 0.000000 0.000000 
#    y 0.000000 1.653960 0.000000 
#    z 0.000000 0.000000 1.668800 
# 
# From -- ./inp_files/9902.got.cif
#   From: 2010.05.17/outbox.cif.g08.bks.cpg/sg58_5_cif.got.tgz:9902.got - 2010.06.03 14:20:14.
