data_PCOD9444748
_publ_section_title
;
Structure prediction by ZEFSAII (Michael W. Deem and Ramdas Pophale) SiO2 
 PCOD9444748
Probable space group: P N N M
;
_chemical_formula_sum "Si O2"
_cell_formula_units_Z 56
_cell_length_a 9.535783
_cell_length_b 19.321721
_cell_length_c 13.424747
_cell_angle_alpha 90.000000
_cell_angle_beta 90.000000
_cell_angle_gamma 90.000000
_cell_volume 2473.479277
_symmetry_space_group_name_H-M "P N N M"
_symmetry_group_IT_number 58
_symmetry_cell_setting 'orthorhombic'
loop_
_space_group_symop_operation_xyz
x,y,z
-x,-y,z
1/2+x,1/2-y,1/2-z
1/2-x,1/2+y,1/2-z
-x,-y,-z
x,y,-z
1/2-x,1/2+y,1/2+z
1/2+x,1/2-y,1/2+z
loop_
_atom_site_type_symbol
_atom_site_label
_atom_site_fract_x
_atom_site_fract_y
_atom_site_fract_z
Si Si1 0.806164 0.224706 0.120861
Si Si2 0.782103 0.059993 0.112863
Si Si3 0.614355 0.268639 0.305036
Si Si4 0.741950 0.143795 0.385491
Si Si5 0.466519 0.581138 0.890674
Si Si6 0.788390 0.914491 0.789326
Si Si7 0.474567 0.925641 0.235483
O O1 0.816499 0.140782 0.130768
O O2 0.677246 0.251720 0.192773
O O3 0.953535 0.251603 0.168387
O O4 0.794057 0.239400 0.000000
O O5 0.616830 0.060812 0.137447
O O6 0.829538 0.991449 0.173744
O O7 0.817607 0.044658 0.000000
O O8 0.718826 0.225078 0.375026
O O9 0.629441 0.349364 0.332244
O O10 0.726683 0.120755 0.500000
O O11 0.623011 0.114571 0.312487
O O12 0.894857 0.118981 0.350186
O O13 0.500000 0.500000 0.895539
O O14 0.330189 0.587930 0.825686
O O15 0.442687 0.609530 0.000000
O O16 0.624671 0.898688 0.796284
O O17 0.500000 0.000000 0.284938
#
# Coordination Sequence:
#
# PCOD9444748 Si02
#       7
#     8   8   8   8   8   8   8
#     4  11  26  49  76 105 142 192 244 294 360 432
#     4  10  23  46  72  98 137 184 232 290 349 414
#     4  12  25  43  72 106 144 186 232 300 360 429
#     4  11  23  42  65  93 139 185 228 286 358 425
#     4  10  22  40  65  97 132 176 227 282 345 418
#     4  11  25  38  69 103 137 175 231 288 347 418
#     4  10  21  40  65  96 129 175 228 282 345 409
#
# _framework density 22.640173000000001
#
# number of rings (size 3 to 8) (size 9 to 14) (size 15 to 20)
#    0.000    1.286    1.429    3.857    2.000    5.143 
#    0.000    2.857    0.000    0.000    0.000    0.000 
#    0.000    0.000    0.000    0.000    0.000    0.000 
#
# Total GULP energy -312274.056826 kJ/mol
# GULP energy per Si atom -5576.322443 kJ/mol
# Density = 2.258864 g / cm^3
# Si number density = 22.640173 Si / 1000 Ang^3
#
#
#
# Elastic Constant Matrix: (Units=GPa)
#
#
# Indices 1 2 3 4 5 6 
#
# 1 93.6236 8.6495 31.1031 0.0000 0.0000 0.0000
# 2 8.6495 88.5893 14.8132 0.0000 0.0000 0.0000
# 3 31.1031 14.8132 103.6196 0.0000 0.0000 0.0000
# 4 0.0000 0.0000 0.0000 94.0008 0.0000 0.0000
# 5 0.0000 0.0000 0.0000 0.0000 3.2299 0.0000
# 6 0.0000 0.0000 0.0000 0.0000 0.0000 35.6186
#
#
#
# Elastic Compliance Matrix: (Units=1/GPa)
#
#
# Indices 1 2 3 4 5 6 
#
# 1 0.011893 -0.000578 -0.003487 0.000000 0.000000 0.000000
# 2 -0.000578 0.011593 -0.001484 0.000000 0.000000 0.000000
# 3 -0.003487 -0.001484 0.010910 0.000000 0.000000 0.000000
# 4 0.000000 0.000000 0.000000 0.010638 0.000000 0.000000
# 5 0.000000 0.000000 0.000000 0.000000 0.309609 0.000000
# 6 0.000000 0.000000 0.000000 0.000000 0.000000 0.028075
#
#
# Mechanical properties :
#
#
# Convention : Reuss Voigt Hill
#
# Bulk Modulus (GPa) = 42.92390 43.88489 43.40440
# Shear Modulus (GPa) = 12.45077 41.98764 27.21920
#
# Velocity S-wave (km/s) = 2.34763 4.31114 3.47111
# Velocity P-wave (km/s) = 5.13311 6.64883 5.93952
#
# Compressibility (1/GPa) = 0.02329704
#
# Stress axis : x y z
#
# Youngs Moduli (GPa) = 84.08326 86.26204 91.66290
#
# Poissons Ratio (x) = 0.04987 0.31965
# Poissons Ratio (y) = 0.04861 0.13600
# Poissons Ratio (z) = 0.29322 0.12799
#
# Static dielectric constant tensor:
#      x y z
#    x 1.853670 0.000000 0.000000 
#    y 0.000000 2.002320 0.000000 
#    z 0.000000 0.000000 1.865030 
# 
# From -- ./inp_files/20096.got.cif
#   From: 2010.05.17/outbox.cif.g08.bks.cpg/sg58_11_cif.got.tgz:20096.got - 2010.06.03 14:20:14.
