data_PCOD9444370
_publ_section_title
;
Structure prediction by ZEFSAII (Michael W. Deem and Ramdas Pophale) SiO2 
 PCOD9444370
Probable space group: P N N M
;
_chemical_formula_sum "Si O2"
_cell_formula_units_Z 48
_cell_length_a 28.267074
_cell_length_b 9.643524
_cell_length_c 7.698621
_cell_angle_alpha 90.000000
_cell_angle_beta 90.000000
_cell_angle_gamma 90.000000
_cell_volume 2098.599483
_symmetry_space_group_name_H-M "P N N M"
_symmetry_group_IT_number 58
_symmetry_cell_setting 'orthorhombic'
loop_
_space_group_symop_operation_xyz
x,y,z
-x,-y,z
1/2+x,1/2-y,1/2-z
1/2-x,1/2+y,1/2-z
-x,-y,-z
x,y,-z
1/2-x,1/2+y,1/2+z
1/2+x,1/2-y,1/2+z
loop_
_atom_site_type_symbol
_atom_site_label
_atom_site_fract_x
_atom_site_fract_y
_atom_site_fract_z
Si Si1 0.989367 0.849007 0.209240
Si Si2 0.119550 0.183133 0.292822
Si Si3 0.145933 0.485548 0.795044
Si Si4 0.190299 0.967801 0.700085
Si Si5 0.730529 0.822125 0.800579
Si Si6 0.455417 0.091723 0.288100
O O1 0.935825 0.804878 0.249766
O O2 0.029804 0.744164 0.269051
O O3 0.992195 0.851174 0.000000
O O4 0.000000 0.000000 0.279561
O O5 0.124470 0.181317 0.500000
O O6 0.146354 0.320109 0.226989
O O7 0.143292 0.040600 0.223723
O O8 0.186562 0.572123 0.703511
O O9 0.094847 0.536755 0.728758
O O10 0.150112 0.516163 0.000000
O O11 0.179863 0.930472 0.500000
O O12 0.213106 0.826416 0.774686
O O13 0.228227 0.092676 0.706484
O O14 0.746226 0.798980 0.000000
O O15 0.453966 0.085950 0.500000
O O16 0.500000 0.000000 0.233345
#
# Coordination Sequence:
#
# PCOD9444370 Si02
#       6
#     8   8   8   8   8   8
#     4  10  21  37  59  86 119 159 207 252 297 357
#     4  11  23  40  61  88 124 162 202 250 303 356
#     4  11  22  38  63  90 121 158 200 246 298 355
#     4  10  24  44  63  87 122 158 195 241 297 360
#     4  11  24  42  64  91 120 151 194 245 296 354
#     4   9  17  34  57  84 117 154 198 246 288 341
#
# _framework density 22.872395999999998
#
# number of rings (size 3 to 8) (size 9 to 14) (size 15 to 20)
#    0.000    1.667    1.667    2.500    2.333    5.667 
#    0.000    2.500    0.000    0.000    0.000    0.000 
#    0.000    0.000    0.000    0.000    0.000    0.000 
#
# Total GULP energy -268232.189922 kJ/mol
# GULP energy per Si atom -5588.170623 kJ/mol
# Density = 2.282034 g / cm^3
# Si number density = 22.872396 Si / 1000 Ang^3
#
#
#
# Elastic Constant Matrix: (Units=GPa)
#
#
# Indices 1 2 3 4 5 6 
#
# 1 55.9094 0.8704 -13.3461 0.0000 0.0000 0.0000
# 2 0.8704 113.1521 -6.7541 0.0000 0.0000 0.0000
# 3 -13.3461 -6.7541 50.7633 0.0000 0.0000 0.0000
# 4 0.0000 0.0000 0.0000 13.7398 0.0000 0.0000
# 5 0.0000 0.0000 0.0000 0.0000 26.0422 0.0000
# 6 0.0000 0.0000 0.0000 0.0000 0.0000 43.1956
#
#
#
# Elastic Compliance Matrix: (Units=1/GPa)
#
#
# Indices 1 2 3 4 5 6 
#
# 1 0.019086 0.000154 0.005038 0.000000 0.000000 0.000000
# 2 0.000154 0.008910 0.001226 0.000000 0.000000 0.000000
# 3 0.005038 0.001226 0.021187 0.000000 0.000000 0.000000
# 4 0.000000 0.000000 0.000000 0.072782 0.000000 0.000000
# 5 0.000000 0.000000 0.000000 0.000000 0.038399 0.000000
# 6 0.000000 0.000000 0.000000 0.000000 0.000000 0.023151
#
#
# Mechanical properties :
#
#
# Convention : Reuss Voigt Hill
#
# Bulk Modulus (GPa) = 16.12390 20.15168 18.13779
# Shear Modulus (GPa) = 26.13000 32.53248 29.33124
#
# Velocity S-wave (km/s) = 3.38364 3.77549 3.58493
# Velocity P-wave (km/s) = 4.72548 5.27593 5.00827
#
# Compressibility (1/GPa) = 0.06201973
#
# Stress axis : x y z
#
# Youngs Moduli (GPa) = 52.39326 112.23783 47.19865
#
# Poissons Ratio (x) = -0.01728 -0.23781
# Poissons Ratio (y) = -0.00806 -0.05786
# Poissons Ratio (z) = -0.26398 -0.13759
#
# Static dielectric constant tensor:
#      x y z
#    x 1.832860 0.000000 0.000000 
#    y 0.000000 1.881230 0.000000 
#    z 0.000000 0.000000 1.847300 
# 
# From -- ./inp_files/10752.got.cif
#   From: 2010.05.17/outbox.cif.g08.bks.cpg/sg58_6_cif.got.tgz:10752.got - 2010.06.03 14:20:14.
