data_PCOD9444218
_publ_section_title
;
Structure prediction by ZEFSAII (Michael W. Deem and Ramdas Pophale) SiO2 
 PCOD9444218
Probable space group: P N N M
;
_chemical_formula_sum "Si O2"
_cell_formula_units_Z 32
_cell_length_a 5.100933
_cell_length_b 14.387425
_cell_length_c 21.754385
_cell_angle_alpha 90.000000
_cell_angle_beta 90.000000
_cell_angle_gamma 90.000000
_cell_volume 1596.538891
_symmetry_space_group_name_H-M "P N N M"
_symmetry_group_IT_number 58
_symmetry_cell_setting 'orthorhombic'
loop_
_space_group_symop_operation_xyz
x,y,z
-x,-y,z
1/2+x,1/2-y,1/2-z
1/2-x,1/2+y,1/2-z
-x,-y,-z
x,y,-z
1/2-x,1/2+y,1/2+z
1/2+x,1/2-y,1/2+z
loop_
_atom_site_type_symbol
_atom_site_label
_atom_site_fract_x
_atom_site_fract_y
_atom_site_fract_z
Si Si1 0.602472 0.239212 0.147764
Si Si2 0.257667 0.562330 0.179618
Si Si3 0.390820 0.650110 0.689808
Si Si4 0.848456 0.403223 0.567594
O O1 0.723537 0.340941 0.142575
O O2 0.319525 0.234816 0.181749
O O3 0.544112 0.181636 0.085785
O O4 0.810625 0.181910 0.188329
O O5 0.500000 0.500000 0.159672
O O6 0.307741 0.593105 0.250593
O O7 0.000000 0.500000 0.174559
O O8 0.344555 0.596519 0.625667
O O9 0.730863 0.388990 0.500000
O O10 0.000000 0.500000 0.567494
#
# Coordination Sequence:
#
# PCOD9444218 Si02
#       4
#     8   8   8   8
#     4  10  22  38  58  86 121 153 192 239 293 347
#     4  12  23  36  60  87 120 156 195 240 291 349
#     4  10  21  36  58  85 119 153 186 241 286 351
#     4   9  21  39  61  89 118 153 194 238 294 353
#
# _framework density 20.043358000000001
#
# number of rings (size 3 to 8) (size 9 to 14) (size 15 to 20)
#    1.500    0.250    0.000    5.250    3.500    1.000 
#    0.000    2.500    0.000    1.500    0.000    0.000 
#    0.000    0.000    0.000    0.000    0.000    0.000 
#
# Total GULP energy -178320.528211 kJ/mol
# GULP energy per Si atom -5572.516507 kJ/mol
# Density = 1.999774 g / cm^3
# Si number density = 20.043358 Si / 1000 Ang^3
#
#
#
# Elastic Constant Matrix: (Units=GPa)
#
#
# Indices 1 2 3 4 5 6 
#
# 1 75.4403 11.9487 -11.4384 0.0000 0.0000 0.0000
# 2 11.9487 109.9498 29.3423 0.0000 0.0000 0.0000
# 3 -11.4384 29.3423 71.6010 0.0000 0.0000 0.0000
# 4 0.0000 0.0000 0.0000 8.7283 0.0000 0.0000
# 5 0.0000 0.0000 0.0000 0.0000 14.0206 0.0000
# 6 0.0000 0.0000 0.0000 0.0000 0.0000 38.3374
#
#
#
# Elastic Compliance Matrix: (Units=1/GPa)
#
#
# Indices 1 2 3 4 5 6 
#
# 1 0.014127 -0.002400 0.003240 0.000000 0.000000 0.000000
# 2 -0.002400 0.010620 -0.004735 0.000000 0.000000 0.000000
# 3 0.003240 -0.004735 0.016424 0.000000 0.000000 0.000000
# 4 0.000000 0.000000 0.000000 0.114570 0.000000 0.000000
# 5 0.000000 0.000000 0.000000 0.000000 0.071323 0.000000
# 6 0.000000 0.000000 0.000000 0.000000 0.000000 0.026084
#
#
# Mechanical properties :
#
#
# Convention : Reuss Voigt Hill
#
# Bulk Modulus (GPa) = 29.95712 35.18847 32.57279
# Shear Modulus (GPa) = 18.37791 27.35984 22.86888
#
# Velocity S-wave (km/s) = 3.03133 3.69864 3.38149
# Velocity P-wave (km/s) = 5.21829 5.98617 5.61537
#
# Compressibility (1/GPa) = 0.03338105
#
# Stress axis : x y z
#
# Youngs Moduli (GPa) = 70.78672 94.16551 60.88468
#
# Poissons Ratio (x) = 0.22600 -0.19729
# Poissons Ratio (y) = 0.16989 0.28831
# Poissons Ratio (z) = -0.22937 0.44591
#
# Static dielectric constant tensor:
#      x y z
#    x 1.748510 0.000000 0.000000 
#    y 0.000000 1.739360 0.000000 
#    z 0.000000 0.000000 1.699190 
# 
# From -- ./inp_files/30867.got.cif
#   From: 2010.05.17/outbox.cif.g08.bks.cpg/sg58_16_cif.got.tgz:30867.got - 2010.06.03 14:20:14.
