data_PCOD9444815
_publ_section_title
;
Structure prediction by ZEFSAII (Michael W. Deem and Ramdas Pophale) SiO2 
 PCOD9444815
Probable space group: P N N M
;
_chemical_formula_sum "Si O2"
_cell_formula_units_Z 40
_cell_length_a 15.846944
_cell_length_b 8.713177
_cell_length_c 12.812488
_cell_angle_alpha 90.000000
_cell_angle_beta 90.000000
_cell_angle_gamma 90.000000
_cell_volume 1769.112827
_symmetry_space_group_name_H-M "P N N M"
_symmetry_group_IT_number 58
_symmetry_cell_setting 'orthorhombic'
loop_
_space_group_symop_operation_xyz
x,y,z
-x,-y,z
1/2+x,1/2-y,1/2-z
1/2-x,1/2+y,1/2-z
-x,-y,-z
x,y,-z
1/2-x,1/2+y,1/2+z
1/2+x,1/2-y,1/2+z
loop_
_atom_site_type_symbol
_atom_site_label
_atom_site_fract_x
_atom_site_fract_y
_atom_site_fract_z
Si Si1 0.485704 0.828738 0.724746
Si Si2 0.359600 0.415984 0.500000
Si Si3 0.919858 0.888920 0.387070
Si Si4 0.753836 0.574316 0.879718
Si Si5 0.176512 0.739647 0.797715
Si Si6 0.951742 0.766957 0.000000
O O1 0.423343 0.732942 0.795919
O O2 0.577409 0.747972 0.729982
O O3 0.450398 0.826568 0.607074
O O4 0.500000 0.000000 0.762261
O O5 0.312421 0.353419 0.603002
O O6 0.384078 0.594924 0.500000
O O7 0.453036 0.338257 0.500000
O O8 0.923821 0.809998 0.500000
O O9 0.837232 0.991319 0.383760
O O10 0.000000 0.000000 0.378943
O O11 0.810533 0.435607 0.834947
O O12 0.736720 0.711211 0.797812
O O13 0.776422 0.614411 0.000000
#
# Coordination Sequence:
#
# PCOD9444815 Si02
#       6
#     8   4   8   8   8   4
#     4  11  23  38  62  97 130 162 212 264 318 376
#     4   9  18  38  64  90 121 159 213 256 312 386
#     4  10  21  41  67  90 119 167 218 262 310 374
#     4  11  24  44  66  92 130 171 217 263 324 387
#     4  11  23  42  63  91 131 169 208 268 322 387
#     4   9  19  34  62  94 124 160 198 257 320 377
#
# _framework density 22.610201
#
# number of rings (size 3 to 8) (size 9 to 14) (size 15 to 20)
#    0.000    1.600    3.000    1.500    5.600    0.400 
#    1.800    0.000    0.000    0.000    0.000    0.000 
#    0.000    0.000    0.000    0.000    0.000    0.000 
#
# Total GULP energy -223702.088937 kJ/mol
# GULP energy per Si atom -5592.552223 kJ/mol
# Density = 2.255874 g / cm^3
# Si number density = 22.610201 Si / 1000 Ang^3
#
#
#
# Elastic Constant Matrix: (Units=GPa)
#
#
# Indices 1 2 3 4 5 6 
#
# 1 58.7125 9.4793 28.6184 0.0000 0.0000 0.0000
# 2 9.4793 68.2292 46.9896 0.0000 0.0000 0.0000
# 3 28.6184 46.9896 149.4248 0.0000 0.0000 0.0000
# 4 0.0000 0.0000 0.0000 -635.2730 0.0000 0.0000
# 5 0.0000 0.0000 0.0000 0.0000 32.0683 0.0000
# 6 0.0000 0.0000 0.0000 0.0000 0.0000 39.2688
#
#
#
# Elastic Compliance Matrix: (Units=1/GPa)
#
#
# Indices 1 2 3 4 5 6 
#
# 1 0.018787 -0.000169 -0.003545 0.000000 0.000000 0.000000
# 2 -0.000169 0.018710 -0.005851 0.000000 0.000000 0.000000
# 3 -0.003545 -0.005851 0.009211 0.000000 0.000000 0.000000
# 4 0.000000 0.000000 0.000000 -0.001574 0.000000 0.000000
# 5 0.000000 0.000000 0.000000 0.000000 0.031183 0.000000
# 6 0.000000 0.000000 0.000000 0.000000 0.000000 0.025466
#
#
# Mechanical properties :
#
#
# Convention : Reuss Voigt Hill
#
# Bulk Modulus (GPa) = 36.26049 49.61568 42.93809
# Shear Modulus (GPa) = 38.43005 -100.03523 -30.80259
#
# Velocity S-wave (km/s) = 4.12719 -6.65879 -3.69498
# Velocity P-wave (km/s) = 6.22765 6.09325 0.90992
#
# Compressibility (1/GPa) = 0.02757823
#
# Stress axis : x y z
#
# Youngs Moduli (GPa) = 53.22713 53.44806 108.56111
#
# Poissons Ratio (x) = 0.00901 0.38487
# Poissons Ratio (y) = 0.00897 0.63523
# Poissons Ratio (z) = 0.18870 0.31274
#
# Static dielectric constant tensor:
#      x y z
#    x 1.876660 0.000000 0.000000 
#    y 0.000000 1.781620 0.000000 
#    z 0.000000 0.000000 1.855170 
# 
# From -- ./inp_files/16908.got.cif
#   From: 2010.05.17/outbox.cif.g08.bks.cpg/sg58_9_cif.got.tgz:16908.got - 2010.06.03 14:20:14.
