data_PCOD9444231
_publ_section_title
;
Structure prediction by ZEFSAII (Michael W. Deem and Ramdas Pophale) SiO2 
 PCOD9444231
Probable space group: P N N M
;
_chemical_formula_sum "Si O2"
_cell_formula_units_Z 32
_cell_length_a 18.882263
_cell_length_b 4.956025
_cell_length_c 17.625600
_cell_angle_alpha 90.000000
_cell_angle_beta 90.000000
_cell_angle_gamma 90.000000
_cell_volume 1649.420700
_symmetry_space_group_name_H-M "P N N M"
_symmetry_group_IT_number 58
_symmetry_cell_setting 'orthorhombic'
loop_
_space_group_symop_operation_xyz
x,y,z
-x,-y,z
1/2+x,1/2-y,1/2-z
1/2-x,1/2+y,1/2-z
-x,-y,-z
x,y,-z
1/2-x,1/2+y,1/2+z
1/2+x,1/2-y,1/2+z
loop_
_atom_site_type_symbol
_atom_site_label
_atom_site_fract_x
_atom_site_fract_y
_atom_site_fract_z
Si Si1 0.349518 0.034759 0.500000
Si Si2 0.954507 0.240587 0.127804
Si Si3 0.152756 0.926485 0.751940
Si Si4 0.252010 0.024894 0.000000
Si Si5 0.302220 0.932151 0.162398
O O1 0.397153 0.118645 0.427894
O O2 0.282712 0.230802 0.500000
O O3 0.313561 0.738902 0.500000
O O4 0.915212 0.076470 0.194612
O O5 0.000000 0.500000 0.153662
O O6 0.000000 0.000000 0.088971
O O7 0.221284 0.946089 0.806902
O O8 0.154308 0.638434 0.712856
O O9 0.165982 0.143826 0.685717
O O10 0.297903 0.031357 0.076323
#
# Coordination Sequence:
#
# PCOD9444231 Si02
#       5
#     4   8   8   4   8
#     4  12  24  37  56  88 130 161 204 229 280 369
#     4  12  24  39  58  84 123 170 206 237 284 351
#     4  10  21  37  57  83 113 154 201 248 287 346
#     4  12  22  37  62  90 120 161 188 247 308 367
#     4  10  21  36  59  83 115 149 197 247 306 346
#
# _framework density 19.400749000000001
#
# number of rings (size 3 to 8) (size 9 to 14) (size 15 to 20)
#    0.000    1.000    2.500    5.250    7.000    0.000 
#    0.000    0.000    0.000    0.000    0.000   17.500 
#    0.000    0.000    0.000    0.000    0.000    0.000 
#
# Total GULP energy -178511.081115 kJ/mol
# GULP energy per Si atom -5578.471285 kJ/mol
# Density = 1.935659 g / cm^3
# Si number density = 19.400749 Si / 1000 Ang^3
#
#
#
# Elastic Constant Matrix: (Units=GPa)
#
#
# Indices 1 2 3 4 5 6 
#
# 1 42.6591 8.3192 24.5816 0.0000 0.0000 0.0000
# 2 8.3192 68.5401 -15.1878 0.0000 0.0000 0.0000
# 3 24.5816 -15.1878 81.2545 0.0000 0.0000 0.0000
# 4 0.0000 0.0000 0.0000 7.1226 0.0000 0.0000
# 5 0.0000 0.0000 0.0000 0.0000 -80.3690 0.0000
# 6 0.0000 0.0000 0.0000 0.0000 0.0000 19.6263
#
#
#
# Elastic Compliance Matrix: (Units=1/GPa)
#
#
# Indices 1 2 3 4 5 6 
#
# 1 0.030596 -0.006014 -0.010380 0.000000 0.000000 0.000000
# 2 -0.006014 0.016402 0.004885 0.000000 0.000000 0.000000
# 3 -0.010380 0.004885 0.016360 0.000000 0.000000 0.000000
# 4 0.000000 0.000000 0.000000 0.140398 0.000000 0.000000
# 5 0.000000 0.000000 0.000000 0.000000 -0.012443 0.000000
# 6 0.000000 0.000000 0.000000 0.000000 0.000000 0.050952
#
#
# Mechanical properties :
#
#
# Convention : Reuss Voigt Hill
#
# Bulk Modulus (GPa) = 24.78846 25.31995 25.05421
# Shear Modulus (GPa) = 17.93848 0.92535 9.43191
#
# Velocity S-wave (km/s) = 3.04407 0.69138 2.20730
# Velocity P-wave (km/s) = 5.01597 3.70360 4.40889
#
# Compressibility (1/GPa) = 0.04034135
#
# Stress axis : x y z
#
# Youngs Moduli (GPa) = 32.68422 60.96649 61.12325
#
# Poissons Ratio (x) = 0.36664 0.63447
# Poissons Ratio (y) = 0.19656 -0.29860
# Poissons Ratio (z) = 0.33927 -0.29783
#
# Static dielectric constant tensor:
#      x y z
#    x 1.793920 0.000000 0.000000 
#    y 0.000000 1.668430 0.000000 
#    z 0.000000 0.000000 1.745170 
# 
# From -- ./inp_files/18330.got.cif
#   From: 2010.05.17/outbox.cif.g08.bks.cpg/sg58_10_cif.got.tgz:18330.got - 2010.06.03 14:20:14.
