data_PCOD9444985
_publ_section_title
;
Structure prediction by ZEFSAII (Michael W. Deem and Ramdas Pophale) SiO2 
 PCOD9444985
Probable space group: P N N M
;
_chemical_formula_sum "Si O2"
_cell_formula_units_Z 40
_cell_length_a 5.063387
_cell_length_b 18.473177
_cell_length_c 19.461058
_cell_angle_alpha 90.000000
_cell_angle_beta 90.000000
_cell_angle_gamma 90.000000
_cell_volume 1820.325951
_symmetry_space_group_name_H-M "P N N M"
_symmetry_group_IT_number 58
_symmetry_cell_setting 'orthorhombic'
loop_
_space_group_symop_operation_xyz
x,y,z
-x,-y,z
1/2+x,1/2-y,1/2-z
1/2-x,1/2+y,1/2-z
-x,-y,-z
x,y,-z
1/2-x,1/2+y,1/2+z
1/2+x,1/2-y,1/2+z
loop_
_atom_site_type_symbol
_atom_site_label
_atom_site_fract_x
_atom_site_fract_y
_atom_site_fract_z
Si Si1 0.356234 0.642455 0.358279
Si Si2 0.252035 0.552963 0.925457
Si Si3 0.876639 0.576025 0.579073
Si Si4 0.584678 0.916171 0.719417
Si Si5 0.221395 0.276823 0.785965
O O1 0.626392 0.603692 0.378853
O O2 0.249003 0.608815 0.286173
O O3 0.383294 0.728565 0.348906
O O4 0.124067 0.628790 0.412329
O O5 0.500000 0.500000 0.922568
O O6 0.234550 0.594232 0.853280
O O7 0.000000 0.500000 0.926104
O O8 0.257946 0.592060 0.000000
O O9 0.795451 0.567410 0.500000
O O10 0.000000 0.500000 0.603305
O O11 0.336255 0.861526 0.713484
O O12 0.500000 0.000000 0.725955
O O13 0.522451 0.254103 0.773067
#
# Coordination Sequence:
#
# PCOD9444985 Si02
#       5
#     8   8   8   8   8
#     4  11  22  39  62  90 124 163 206 249 305 371
#     4   9  19  35  54  81 117 148 179 233 295 340
#     4  11  24  41  62  90 126 164 205 258 310 358
#     4  10  22  39  65  93 117 155 209 253 295 360
#     4  10  22  39  58  87 127 158 190 251 312 351
#
# _framework density 21.974087000000001
#
# number of rings (size 3 to 8) (size 9 to 14) (size 15 to 20)
#    0.000    1.800    0.000    4.200    0.000   14.400 
#    0.000    2.000    0.000    4.800    0.000    0.000 
#    0.000    0.000    0.000    0.000    0.000    0.000 
#
# Total GULP energy -223297.449853 kJ/mol
# GULP energy per Si atom -5582.436246 kJ/mol
# Density = 2.192407 g / cm^3
# Si number density = 21.974087 Si / 1000 Ang^3
#
#
#
# Elastic Constant Matrix: (Units=GPa)
#
#
# Indices 1 2 3 4 5 6 
#
# 1 108.5760 15.3846 6.8891 0.0000 0.0000 0.0000
# 2 15.3846 119.3235 6.1562 0.0000 0.0000 0.0000
# 3 6.8891 6.1562 92.4543 0.0000 0.0000 0.0000
# 4 0.0000 0.0000 0.0000 11.7866 0.0000 0.0000
# 5 0.0000 0.0000 0.0000 0.0000 15.0633 0.0000
# 6 0.0000 0.0000 0.0000 0.0000 0.0000 30.1491
#
#
#
# Elastic Compliance Matrix: (Units=1/GPa)
#
#
# Indices 1 2 3 4 5 6 
#
# 1 0.009417 -0.001182 -0.000623 0.000000 0.000000 0.000000
# 2 -0.001182 0.008558 -0.000482 0.000000 0.000000 0.000000
# 3 -0.000623 -0.000482 0.010895 0.000000 0.000000 0.000000
# 4 0.000000 0.000000 0.000000 0.084842 0.000000 0.000000
# 5 0.000000 0.000000 0.000000 0.000000 0.066386 0.000000
# 6 0.000000 0.000000 0.000000 0.000000 0.000000 0.033169
#
#
# Mechanical properties :
#
#
# Convention : Reuss Voigt Hill
#
# Bulk Modulus (GPa) = 41.15891 41.91262 41.53577
# Shear Modulus (GPa) = 22.12990 30.86140 26.49565
#
# Velocity S-wave (km/s) = 3.17691 3.75166 3.47618
# Velocity P-wave (km/s) = 5.67700 6.15481 5.92073
#
# Compressibility (1/GPa) = 0.02429607
#
# Stress axis : x y z
#
# Youngs Moduli (GPa) = 106.18917 116.85193 91.78814
#
# Poissons Ratio (x) = 0.13812 0.05718
# Poissons Ratio (y) = 0.12552 0.04422
# Poissons Ratio (z) = 0.06616 0.05629
#
# Static dielectric constant tensor:
#      x y z
#    x 1.809770 0.000000 0.000000 
#    y 0.000000 1.873260 0.000000 
#    z 0.000000 0.000000 1.882930 
# 
# From -- ./inp_files/28074.got.cif
#   From: 2010.05.17/outbox.cif.g08.bks.cpg/sg58_15_cif.got.tgz:28074.got - 2010.06.03 14:20:14.
