data_PCOD9444058
_publ_section_title
;
Structure prediction by ZEFSAII (Michael W. Deem and Ramdas Pophale) SiO2 
 PCOD9444058
Probable space group: P N N M
;
_chemical_formula_sum "Si O2"
_cell_formula_units_Z 56
_cell_length_a 14.396323
_cell_length_b 9.359608
_cell_length_c 25.049046
_cell_angle_alpha 90.000000
_cell_angle_beta 90.000000
_cell_angle_gamma 90.000000
_cell_volume 3375.207149
_symmetry_space_group_name_H-M "P N N M"
_symmetry_group_IT_number 58
_symmetry_cell_setting 'orthorhombic'
loop_
_space_group_symop_operation_xyz
x,y,z
-x,-y,z
1/2+x,1/2-y,1/2-z
1/2-x,1/2+y,1/2-z
-x,-y,-z
x,y,-z
1/2-x,1/2+y,1/2+z
1/2+x,1/2-y,1/2+z
loop_
_atom_site_type_symbol
_atom_site_label
_atom_site_fract_x
_atom_site_fract_y
_atom_site_fract_z
Si Si1 0.997443 0.339866 0.758218
Si Si2 0.224483 0.680252 0.351553
Si Si3 0.593491 0.305389 0.062510
Si Si4 0.625915 0.634331 0.938264
Si Si5 0.192006 0.825947 0.242019
Si Si6 0.362711 0.875293 0.164947
Si Si7 0.406520 0.579944 0.314435
O O1 0.044265 0.344833 0.699268
O O2 0.059467 0.227581 0.789915
O O3 0.000000 0.500000 0.779269
O O4 0.892824 0.284225 0.763771
O O5 0.188114 0.769296 0.400863
O O6 0.226938 0.788675 0.301102
O O7 0.157563 0.544520 0.340160
O O8 0.326691 0.612063 0.357005
O O9 0.481901 0.319920 0.067879
O O10 0.631409 0.465145 0.073675
O O11 0.629874 0.196471 0.106976
O O12 0.613009 0.269689 0.000000
O O13 0.650358 0.653373 0.000000
O O14 0.275872 0.815153 0.199825
O O15 0.143956 0.979915 0.230396
O O16 0.500000 0.500000 0.332879
#
# Coordination Sequence:
#
# PCOD9444058 Si02
#       7
#     8   8   8   8   8   8   8
#     4  11  20  33  50  74 109 137 177 217 257 311
#     4  11  20  34  53  77 107 141 180 224 262 320
#     4   9  20  37  53  74 106 142 176 217 271 325
#     4   9  20  36  54  76 102 139 183 219 264 326
#     4  10  21  34  49  76 108 141 176 211 268 323
#     4  11  22  33  50  78 109 139 177 219 261 313
#     4   9  21  36  50  71 108 150 173 217 272 324
#
# _framework density 16.591573
#
# number of rings (size 3 to 8) (size 9 to 14) (size 15 to 20)
#    0.000    2.000    2.857    1.714    2.000    1.714 
#    0.000    1.429    0.000    0.429    0.000    3.000 
#    0.000   21.714    0.000    0.000    0.000    0.000 
#
# Total GULP energy -312093.708590 kJ/mol
# GULP energy per Si atom -5573.101939 kJ/mol
# Density = 1.655381 g / cm^3
# Si number density = 16.591573 Si / 1000 Ang^3
#
#
#
# Elastic Constant Matrix: (Units=GPa)
#
#
# Indices 1 2 3 4 5 6 
#
# 1 89.2306 46.4507 41.7506 0.0000 0.0000 0.0000
# 2 46.4507 103.7635 61.9930 0.0000 0.0000 0.0000
# 3 41.7506 61.9930 85.3806 0.0000 0.0000 0.0000
# 4 0.0000 0.0000 0.0000 27.9043 0.0000 0.0000
# 5 0.0000 0.0000 0.0000 0.0000 24.9940 0.0000
# 6 0.0000 0.0000 0.0000 0.0000 0.0000 20.8670
#
#
#
# Elastic Compliance Matrix: (Units=1/GPa)
#
#
# Indices 1 2 3 4 5 6 
#
# 1 0.015532 -0.004266 -0.004498 0.000000 0.000000 0.000000
# 2 -0.004266 0.018192 -0.011123 0.000000 0.000000 0.000000
# 3 -0.004498 -0.011123 0.021988 0.000000 0.000000 0.000000
# 4 0.000000 0.000000 0.000000 0.035837 0.000000 0.000000
# 5 0.000000 0.000000 0.000000 0.000000 0.040010 0.000000
# 6 0.000000 0.000000 0.000000 0.000000 0.000000 0.047923
#
#
# Mechanical properties :
#
#
# Convention : Reuss Voigt Hill
#
# Bulk Modulus (GPa) = 62.73967 64.30705 63.52336
# Shear Modulus (GPa) = 22.26499 23.29842 22.78170
#
# Velocity S-wave (km/s) = 3.66723 3.75137 3.70954
# Velocity P-wave (km/s) = 7.47179 7.58991 7.53108
#
# Compressibility (1/GPa) = 0.01593888
#
# Stress axis : x y z
#
# Youngs Moduli (GPa) = 64.38278 54.96786 45.47964
#
# Poissons Ratio (x) = 0.23449 0.20455
# Poissons Ratio (y) = 0.27466 0.50587
# Poissons Ratio (z) = 0.28957 0.61141
#
# Static dielectric constant tensor:
#      x y z
#    x 1.585550 0.000000 0.000000 
#    y 0.000000 1.575970 0.000000 
#    z 0.000000 0.000000 1.528840 
# 
# From -- ./inp_files/28971.got.cif
#   From: 2010.05.17/outbox.cif.g08.bks.cpg/sg58_15_cif.got.tgz:28971.got - 2010.06.03 14:20:14.
