data_PCOD9444202
_publ_section_title
;
Structure prediction by ZEFSAII (Michael W. Deem and Ramdas Pophale) SiO2 
 PCOD9444202
Probable space group: P N N M
;
_chemical_formula_sum "Si O2"
_cell_formula_units_Z 64
_cell_length_a 24.820932
_cell_length_b 10.238694
_cell_length_c 13.649803
_cell_angle_alpha 90.000000
_cell_angle_beta 90.000000
_cell_angle_gamma 90.000000
_cell_volume 3468.878047
_symmetry_space_group_name_H-M "P N N M"
_symmetry_group_IT_number 58
_symmetry_cell_setting 'orthorhombic'
loop_
_space_group_symop_operation_xyz
x,y,z
-x,-y,z
1/2+x,1/2-y,1/2-z
1/2-x,1/2+y,1/2-z
-x,-y,-z
x,y,-z
1/2-x,1/2+y,1/2+z
1/2+x,1/2-y,1/2+z
loop_
_atom_site_type_symbol
_atom_site_label
_atom_site_fract_x
_atom_site_fract_y
_atom_site_fract_z
Si Si1 0.475990 0.140602 0.805561
Si Si2 0.790066 0.576332 0.385385
Si Si3 0.144578 0.692595 0.382930
Si Si4 0.187885 0.932695 0.748262
Si Si5 0.961929 0.886858 0.616717
Si Si6 0.589098 0.487161 0.613798
Si Si7 0.499358 0.282149 0.386854
Si Si8 0.339323 0.648380 0.884527
O O1 0.415162 0.160868 0.842705
O O2 0.512048 0.250136 0.857227
O O3 0.483060 0.172408 0.690341
O O4 0.500000 0.000000 0.828866
O O5 0.773414 0.582443 0.500000
O O6 0.819368 0.437638 0.370756
O O7 0.739754 0.595384 0.314048
O O8 0.830040 0.698378 0.368209
O O9 0.141773 0.723554 0.500000
O O10 0.168932 0.812516 0.320369
O O11 0.139711 0.975296 0.820830
O O12 0.199197 0.056721 0.678384
O O13 0.962023 0.901107 0.500000
O O14 0.899747 0.893203 0.644441
O O15 0.000000 0.000000 0.659744
O O16 0.605331 0.472730 0.500000
O O17 0.546341 0.605798 0.618451
O O18 0.555270 0.356306 0.640029
O O19 0.502974 0.239090 0.500000
O O20 0.332307 0.623752 0.000000
#
# Coordination Sequence:
#
# PCOD9444202 Si02
#       8
#     8   8   8   8   8   8   8   8
#     4  12  23  35  57  87 119 159 192 223 280 353
#     4  10  23  41  58  79 113 152 189 231 286 342
#     4  11  24  40  57  84 120 152 184 233 287 338
#     4  12  20  36  62  87 107 142 198 242 280 332
#     4  10  21  36  57  85 116 151 192 234 279 338
#     4   9  18  33  58  85 110 142 188 245 288 326
#     4   9  19  36  54  81 117 149 185 235 290 330
#     4  10  21  37  56  82 116 150 184 234 287 332
#
# _framework density 18.449770000000001
#
# number of rings (size 3 to 8) (size 9 to 14) (size 15 to 20)
#    0.000    1.625    1.250    4.875    1.750    3.250 
#    0.000    0.000    0.000    0.750    0.000    0.000 
#    0.000    0.000    0.000    0.000    0.000    0.000 
#
# Total GULP energy -357400.821765 kJ/mol
# GULP energy per Si atom -5584.387840 kJ/mol
# Density = 1.840778 g / cm^3
# Si number density = 18.449770 Si / 1000 Ang^3
#
#
#
# Elastic Constant Matrix: (Units=GPa)
#
#
# Indices 1 2 3 4 5 6 
#
# 1 51.5961 13.9740 48.4702 0.0000 0.0000 0.0000
# 2 13.9740 87.9015 33.8472 0.0000 0.0000 0.0000
# 3 48.4702 33.8472 93.5291 0.0000 0.0000 0.0000
# 4 0.0000 0.0000 0.0000 143.1864 0.0000 0.0000
# 5 0.0000 0.0000 0.0000 0.0000 30.1833 0.0000
# 6 0.0000 0.0000 0.0000 0.0000 0.0000 23.3960
#
#
#
# Elastic Compliance Matrix: (Units=1/GPa)
#
#
# Indices 1 2 3 4 5 6 
#
# 1 0.038010 0.001792 -0.020347 0.000000 0.000000 0.000000
# 2 0.001792 0.013303 -0.005743 0.000000 0.000000 0.000000
# 3 -0.020347 -0.005743 0.023315 0.000000 0.000000 0.000000
# 4 0.000000 0.000000 0.000000 0.006984 0.000000 0.000000
# 5 0.000000 0.000000 0.000000 0.000000 0.033131 0.000000
# 6 0.000000 0.000000 0.000000 0.000000 0.000000 0.042742
#
#
# Mechanical properties :
#
#
# Convention : Reuss Voigt Hill
#
# Bulk Modulus (GPa) = 38.41373 47.28997 42.85185
# Shear Modulus (GPa) = 23.28211 48.46882 35.87546
#
# Velocity S-wave (km/s) = 3.55620 5.13105 4.41443
# Velocity P-wave (km/s) = 6.14231 7.79686 7.01851
#
# Compressibility (1/GPa) = 0.02603236
#
# Stress axis : x y z
#
# Youngs Moduli (GPa) = 26.30886 75.17205 42.89157
#
# Poissons Ratio (x) = -0.13472 0.87270
# Poissons Ratio (y) = -0.04715 0.24632
# Poissons Ratio (z) = 0.53530 0.43170
#
# Static dielectric constant tensor:
#      x y z
#    x 1.577940 0.000000 0.000000 
#    y 0.000000 1.614630 0.000000 
#    z 0.000000 0.000000 1.667220 
# 
# From -- ./inp_files/23539.got.cif
#   From: 2010.05.17/outbox.cif.g08.bks.cpg/sg58_12_cif.got.tgz:23539.got - 2010.06.03 14:20:14.
