data_PCOD9444926
_publ_section_title
;
Structure prediction by ZEFSAII (Michael W. Deem and Ramdas Pophale) SiO2 
 PCOD9444926
Probable space group: P N N M
;
_chemical_formula_sum "Si O2"
_cell_formula_units_Z 52
_cell_length_a 10.047211
_cell_length_b 15.415461
_cell_length_c 15.288786
_cell_angle_alpha 90.000000
_cell_angle_beta 90.000000
_cell_angle_gamma 90.000000
_cell_volume 2367.963706
_symmetry_space_group_name_H-M "P N N M"
_symmetry_group_IT_number 58
_symmetry_cell_setting 'orthorhombic'
loop_
_space_group_symop_operation_xyz
x,y,z
-x,-y,z
1/2+x,1/2-y,1/2-z
1/2-x,1/2+y,1/2-z
-x,-y,-z
x,y,-z
1/2-x,1/2+y,1/2+z
1/2+x,1/2-y,1/2+z
loop_
_atom_site_type_symbol
_atom_site_label
_atom_site_fract_x
_atom_site_fract_y
_atom_site_fract_z
Si Si1 0.967991 0.408039 0.401656
Si Si2 0.180021 0.879554 0.281857
Si Si3 0.204709 0.702460 0.178985
Si Si4 0.000000 0.000000 0.821626
Si Si5 0.318472 0.645477 0.364446
Si Si6 0.581382 0.161164 0.601495
Si Si7 0.528406 0.279756 0.900138
O O1 0.028278 0.411299 0.500000
O O2 0.810659 0.395414 0.408034
O O3 0.000000 0.500000 0.358128
O O4 0.016346 0.317676 0.360455
O O5 0.191334 0.802714 0.210020
O O6 0.315114 0.890450 0.336818
O O7 0.121490 0.964191 0.236534
O O8 0.066775 0.842976 0.347181
O O9 0.270443 0.657449 0.263936
O O10 0.318518 0.694964 0.106321
O O11 0.064315 0.666952 0.145268
O O12 0.058384 0.081107 0.873372
O O13 0.358089 0.740760 0.396628
O O14 0.576308 0.132541 0.500000
O O15 0.481966 0.275677 0.000000
#
# Coordination Sequence:
#
# PCOD9444926 Si02
#       7
#     8   8   8   4   8   8   8
#     4  10  22  37  58  90 125 164 206 251 311 379
#     4  11  22  40  66  87 123 169 215 255 304 377
#     4  11  21  39  63  93 119 161 209 255 309 369
#     4  12  24  42  60  98 124 162 222 258 318 366
#     4  11  23  38  63  88 126 164 204 264 308 376
#     4  11  22  40  65  94 124 163 209 263 323 374
#     4  11  21  39  62  87 121 166 210 254 304 374
#
# _framework density 21.959796000000001
#
# number of rings (size 3 to 8) (size 9 to 14) (size 15 to 20)
#    0.000    1.077    6.154    2.308    2.154    0.000 
#    0.000    3.077    0.000    0.923    0.000    0.000 
#    0.000    0.000    0.000    0.000    0.000    0.000 
#
# Total GULP energy -290537.863236 kJ/mol
# GULP energy per Si atom -5587.266601 kJ/mol
# Density = 2.190981 g / cm^3
# Si number density = 21.959796 Si / 1000 Ang^3
#
#
#
# Elastic Constant Matrix: (Units=GPa)
#
#
# Indices 1 2 3 4 5 6 
#
# 1 117.6922 -15.6403 4.7954 0.0000 0.0000 0.0000
# 2 -15.6403 29.6843 -18.9646 0.0000 0.0000 0.0000
# 3 4.7954 -18.9646 53.3224 0.0000 0.0000 0.0000
# 4 0.0000 0.0000 0.0000 10.2734 0.0000 0.0000
# 5 0.0000 0.0000 0.0000 0.0000 27.6784 0.0000
# 6 0.0000 0.0000 0.0000 0.0000 0.0000 34.7551
#
#
#
# Elastic Compliance Matrix: (Units=1/GPa)
#
#
# Indices 1 2 3 4 5 6 
#
# 1 0.009192 0.005584 0.001159 0.000000 0.000000 0.000000
# 2 0.005584 0.046985 0.016209 0.000000 0.000000 0.000000
# 3 0.001159 0.016209 0.024414 0.000000 0.000000 0.000000
# 4 0.000000 0.000000 0.000000 0.097339 0.000000 0.000000
# 5 0.000000 0.000000 0.000000 0.000000 0.036129 0.000000
# 6 0.000000 0.000000 0.000000 0.000000 0.000000 0.028773
#
#
# Mechanical properties :
#
#
# Convention : Reuss Voigt Hill
#
# Bulk Modulus (GPa) = 7.90555 15.67553 11.79054
# Shear Modulus (GPa) = 20.91234 29.90863 25.41048
#
# Velocity S-wave (km/s) = 3.08929 3.69449 3.40536
# Velocity P-wave (km/s) = 4.04138 5.03516 4.56539
#
# Compressibility (1/GPa) = 0.12649333
#
# Stress axis : x y z
#
# Youngs Moduli (GPa) = 108.79608 21.28339 40.95956
#
# Poissons Ratio (x) = -0.11884 -0.04748
# Poissons Ratio (y) = -0.60746 -0.66389
# Poissons Ratio (z) = -0.12612 -0.34497
#
# Static dielectric constant tensor:
#      x y z
#    x 1.804170 0.000000 0.000000 
#    y 0.000000 1.931570 0.000000 
#    z 0.000000 0.000000 1.879390 
# 
# From -- ./inp_files/25485.got.cif
#   From: 2010.05.17/outbox.cif.g08.bks.cpg/sg58_13_cif.got.tgz:25485.got - 2010.06.03 14:20:14.
