data_PCOD9444527
_publ_section_title
;
Structure prediction by ZEFSAII (Michael W. Deem and Ramdas Pophale) SiO2 
 PCOD9444527
Probable space group: P N N M
;
_chemical_formula_sum "Si O2"
_cell_formula_units_Z 58
_cell_length_a 22.467467
_cell_length_b 14.414560
_cell_length_c 7.612845
_cell_angle_alpha 90.000000
_cell_angle_beta 90.000000
_cell_angle_gamma 90.000000
_cell_volume 2465.485713
_symmetry_space_group_name_H-M "P N N M"
_symmetry_group_IT_number 58
_symmetry_cell_setting 'orthorhombic'
loop_
_space_group_symop_operation_xyz
x,y,z
-x,-y,z
1/2+x,1/2-y,1/2-z
1/2-x,1/2+y,1/2-z
-x,-y,-z
x,y,-z
1/2-x,1/2+y,1/2+z
1/2+x,1/2-y,1/2+z
loop_
_atom_site_type_symbol
_atom_site_label
_atom_site_fract_x
_atom_site_fract_y
_atom_site_fract_z
Si Si1 0.283450 0.630799 0.205350
Si Si2 0.290230 0.289437 0.199648
Si Si3 0.590911 0.458653 0.712043
Si Si4 0.529571 0.644389 0.712245
Si Si5 0.217402 0.453706 0.785633
Si Si6 0.000000 0.500000 0.500000
Si Si7 0.915975 0.535178 0.801505
Si Si8 0.902676 0.324136 0.292661
O O1 0.268661 0.725709 0.301218
O O2 0.347792 0.585468 0.226228
O O3 0.235606 0.555824 0.272392
O O4 0.273170 0.648128 0.000000
O O5 0.267694 0.384067 0.282989
O O6 0.344069 0.229872 0.276356
O O7 0.309527 0.308367 0.000000
O O8 0.591725 0.459560 0.500000
O O9 0.576941 0.564562 0.768883
O O10 0.534677 0.395325 0.766466
O O11 0.530356 0.646722 0.500000
O O12 0.546693 0.746144 0.775893
O O13 0.149555 0.430728 0.744615
O O14 0.220726 0.452567 0.000000
O O15 0.035979 0.443220 0.655113
O O16 0.910991 0.422225 0.800698
O O17 0.929731 0.566282 0.000000
O O18 0.897611 0.349717 0.500000
#
# Coordination Sequence:
#
# PCOD9444527 Si02
#       8
#     8   8   8   8   8   2   8   8
#     4  11  21  36  58  89 123 155 197 253 315 381
#     4  10  21  38  61  89 122 161 207 262 325 386
#     4   9  19  37  56  83 120 164 205 253 311 387
#     4   9  19  36  59  83 118 162 211 252 310 385
#     4   9  20  40  64  89 124 170 210 258 332 402
#     4  12  26  48  68 102 124 166 234 274 320 398
#     4  11  23  45  71  91 131 175 217 276 335 385
#     4  11  21  37  63  96 125 161 214 274 321 388
#
# _framework density 23.524777
#
# number of rings (size 3 to 8) (size 9 to 14) (size 15 to 20)
#    0.000    1.931    2.069    2.690    0.000    2.759 
#    4.966    1.379    0.000    0.000    0.000    0.000 
#    0.000    0.000    0.000    0.000    0.000    0.000 
#
# Total GULP energy -323664.968918 kJ/mol
# GULP energy per Si atom -5580.430499 kJ/mol
# Density = 2.347123 g / cm^3
# Si number density = 23.524777 Si / 1000 Ang^3
#
#
#
# Elastic Constant Matrix: (Units=GPa)
#
#
# Indices 1 2 3 4 5 6 
#
# 1 64.4461 -16.4158 13.6436 0.0000 0.0000 0.0000
# 2 -16.4158 54.4100 -7.1389 0.0000 0.0000 0.0000
# 3 13.6436 -7.1389 91.4936 0.0000 0.0000 0.0000
# 4 0.0000 0.0000 0.0000 6.9755 0.0000 0.0000
# 5 0.0000 0.0000 0.0000 0.0000 -38.4219 0.0000
# 6 0.0000 0.0000 0.0000 0.0000 0.0000 30.0544
#
#
#
# Elastic Compliance Matrix: (Units=1/GPa)
#
#
# Indices 1 2 3 4 5 6 
#
# 1 0.017231 0.004912 -0.002186 0.000000 0.000000 0.000000
# 2 0.004912 0.019969 0.000826 0.000000 0.000000 0.000000
# 3 -0.002186 0.000826 0.011320 0.000000 0.000000 0.000000
# 4 0.000000 0.000000 0.000000 0.143359 0.000000 0.000000
# 5 0.000000 0.000000 0.000000 0.000000 -0.026027 0.000000
# 6 0.000000 0.000000 0.000000 0.000000 0.000000 0.033273
#
#
# Mechanical properties :
#
#
# Convention : Reuss Voigt Hill
#
# Bulk Modulus (GPa) = 17.97829 21.16973 19.57401
# Shear Modulus (GPa) = 23.74580 14.40566 19.07573
#
# Velocity S-wave (km/s) = 3.18055 2.47728 2.85068
# Velocity P-wave (km/s) = 4.59855 4.14741 4.37879
#
# Compressibility (1/GPa) = 0.05562263
#
# Stress axis : x y z
#
# Youngs Moduli (GPa) = 58.03556 50.07711 88.33790
#
# Poissons Ratio (x) = -0.24597 0.19313
# Poissons Ratio (y) = -0.28506 -0.07294
# Poissons Ratio (z) = 0.12688 -0.04135
#
# Static dielectric constant tensor:
#      x y z
#    x 1.952050 0.000000 0.000000 
#    y 0.000000 1.876450 0.000000 
#    z 0.000000 0.000000 1.902990 
# 
# From -- ./inp_files/9890.got.cif
#   From: 2010.05.17/outbox.cif.g08.bks.cpg/sg58_5_cif.got.tgz:9890.got - 2010.06.03 14:20:14.
