data_PCOD9444427
_publ_section_title
;
Structure prediction by ZEFSAII (Michael W. Deem and Ramdas Pophale) SiO2 
 PCOD9444427
Probable space group: P N N M
;
_chemical_formula_sum "Si O2"
_cell_formula_units_Z 64
_cell_length_a 31.336499
_cell_length_b 12.210499
_cell_length_c 7.694124
_cell_angle_alpha 90.000000
_cell_angle_beta 90.000000
_cell_angle_gamma 90.000000
_cell_volume 2944.035672
_symmetry_space_group_name_H-M "P N N M"
_symmetry_group_IT_number 58
_symmetry_cell_setting 'orthorhombic'
loop_
_space_group_symop_operation_xyz
x,y,z
-x,-y,z
1/2+x,1/2-y,1/2-z
1/2-x,1/2+y,1/2-z
-x,-y,-z
x,y,-z
1/2-x,1/2+y,1/2+z
1/2+x,1/2-y,1/2+z
loop_
_atom_site_type_symbol
_atom_site_label
_atom_site_fract_x
_atom_site_fract_y
_atom_site_fract_z
Si Si1 0.215472 0.052154 0.211560
Si Si2 0.129713 0.934505 0.200261
Si Si3 0.381205 0.189766 0.802972
Si Si4 0.950891 0.488797 0.790016
Si Si5 0.456160 0.553388 0.713443
Si Si6 0.187610 0.512816 0.201934
Si Si7 0.422197 0.775371 0.289317
Si Si8 0.827544 0.729847 0.788980
O O1 0.261805 0.025515 0.283676
O O2 0.204523 0.176305 0.265719
O O3 0.175593 0.976084 0.270454
O O4 0.218464 0.046305 0.000000
O O5 0.124906 0.803274 0.202001
O O6 0.086541 0.989746 0.273085
O O7 0.130920 0.972645 0.000000
O O8 0.340502 0.109361 0.782845
O O9 0.422865 0.116265 0.760718
O O10 0.384583 0.226116 0.000000
O O11 0.929070 0.601396 0.727680
O O12 0.000000 0.500000 0.732430
O O13 0.951243 0.488058 0.000000
O O14 0.500000 0.500000 0.772754
O O15 0.456199 0.549962 0.500000
O O16 0.454152 0.680695 0.766235
O O17 0.178392 0.392666 0.277239
O O18 0.174171 0.512348 0.000000
O O19 0.424371 0.781174 0.500000
O O20 0.375196 0.734719 0.243625
O O21 0.824699 0.725023 0.000000
#
# Coordination Sequence:
#
# PCOD9444427 Si02
#       8
#     8   8   8   8   8   8   8   8
#     4  10  21  38  60  89 121 154 191 240 303 363
#     4  10  21  38  60  87 122 158 199 246 295 354
#     4  12  26  42  59  82 121 165 203 245 299 353
#     4  10  21  37  63  94 120 152 197 246 296 355
#     4   9  17  29  54  91 122 150 190 242 292 342
#     4  11  23  40  62  88 117 153 199 247 296 355
#     4   9  15  30  55  85 117 147 185 238 291 339
#     4   9  17  34  59  82 112 150 189 239 296 350
#
# _framework density 21.738866000000002
#
# number of rings (size 3 to 8) (size 9 to 14) (size 15 to 20)
#    0.000    2.000    2.500    1.500    3.500    0.750 
#    0.000    0.625    0.000    1.125    0.000    0.000 
#    0.000    0.000    0.000    0.000    0.000    0.000 
#
# Total GULP energy -357227.222612 kJ/mol
# GULP energy per Si atom -5581.675353 kJ/mol
# Density = 2.168939 g / cm^3
# Si number density = 21.738866 Si / 1000 Ang^3
#
#
#
# Elastic Constant Matrix: (Units=GPa)
#
#
# Indices 1 2 3 4 5 6 
#
# 1 97.2787 16.6379 -5.7497 0.0000 0.0000 0.0000
# 2 16.6379 91.0696 -12.1024 0.0000 0.0000 0.0000
# 3 -5.7497 -12.1024 38.7800 0.0000 0.0000 0.0000
# 4 0.0000 0.0000 0.0000 -11.5624 0.0000 0.0000
# 5 0.0000 0.0000 0.0000 0.0000 13.0551 0.0000
# 6 0.0000 0.0000 0.0000 0.0000 0.0000 38.1392
#
#
#
# Elastic Compliance Matrix: (Units=1/GPa)
#
#
# Indices 1 2 3 4 5 6 
#
# 1 0.010649 -0.001811 0.001014 0.000000 0.000000 0.000000
# 2 -0.001811 0.011764 0.003403 0.000000 0.000000 0.000000
# 3 0.001014 0.003403 0.026999 0.000000 0.000000 0.000000
# 4 0.000000 0.000000 0.000000 -0.086487 0.000000 0.000000
# 5 0.000000 0.000000 0.000000 0.000000 0.076599 0.000000
# 6 0.000000 0.000000 0.000000 0.000000 0.000000 0.026220
#
#
# Mechanical properties :
#
#
# Convention : Reuss Voigt Hill
#
# Bulk Modulus (GPa) = 18.30730 24.96664 21.63697
# Shear Modulus (GPa) = 63.50057 23.14921 43.32489
#
# Velocity S-wave (km/s) = 5.41055 3.26678 4.46911
# Velocity P-wave (km/s) = 6.88998 5.07335 6.05024
#
# Compressibility (1/GPa) = 0.05462302
#
# Stress axis : x y z
#
# Youngs Moduli (GPa) = 93.90220 85.00774 37.03881
#
# Poissons Ratio (x) = 0.15394 -0.03755
# Poissons Ratio (y) = 0.17004 -0.12603
# Poissons Ratio (z) = -0.09520 -0.28926
#
# Static dielectric constant tensor:
#      x y z
#    x 1.807540 0.000000 0.000000 
#    y 0.000000 1.773770 0.000000 
#    z 0.000000 0.000000 1.825760 
# 
# From -- ./inp_files/11062.got.cif
#   From: 2010.05.17/outbox.cif.g08.bks.cpg/sg58_6_cif.got.tgz:11062.got - 2010.06.03 14:20:14.
