data_PCOD9444358
_publ_section_title
;
Structure prediction by ZEFSAII (Michael W. Deem and Ramdas Pophale) SiO2 
 PCOD9444358
Probable space group: P N N M
;
_chemical_formula_sum "Si O2"
_cell_formula_units_Z 36
_cell_length_a 9.548110
_cell_length_b 11.098890
_cell_length_c 17.983100
_cell_angle_alpha 90.000000
_cell_angle_beta 90.000000
_cell_angle_gamma 90.000000
_cell_volume 1905.730656
_symmetry_space_group_name_H-M "P N N M"
_symmetry_group_IT_number 58
_symmetry_cell_setting 'orthorhombic'
loop_
_space_group_symop_operation_xyz
x,y,z
-x,-y,z
1/2+x,1/2-y,1/2-z
1/2-x,1/2+y,1/2-z
-x,-y,-z
x,y,-z
1/2-x,1/2+y,1/2+z
1/2+x,1/2-y,1/2+z
loop_
_atom_site_type_symbol
_atom_site_label
_atom_site_fract_x
_atom_site_fract_y
_atom_site_fract_z
Si Si1 0.000000 0.500000 0.756264
Si Si2 0.310937 0.535339 0.500000
Si Si3 0.891732 0.679939 0.500000
Si Si4 0.703371 0.115751 0.623472
Si Si5 0.985163 0.741134 0.000000
Si Si6 0.381942 0.154332 0.125244
Si Si7 0.262431 0.578164 0.000000
O O1 0.114684 0.433611 0.807557
O O2 0.082276 0.590610 0.702086
O O3 0.251931 0.397387 0.500000
O O4 0.457339 0.613887 0.500000
O O5 0.234112 0.587637 0.425762
O O6 0.884052 0.824505 0.500000
O O7 0.980856 0.648781 0.426881
O O8 0.595395 0.188803 0.571464
O O9 0.826661 0.210457 0.639521
O O10 0.757563 0.006258 0.572192
O O11 0.128765 0.667140 0.000000
#
# Coordination Sequence:
#
# PCOD9444358 Si02
#       7
#     4   4   4   8   4   8   4
#     4  12  20  38  60  84 124 158 188 236 316 366
#     4   9  17  37  61  81 107 148 200 239 273 340
#     4  11  20  36  61  86 115 152 198 251 293 341
#     4  10  21  37  59  83 110 151 199 241 290 354
#     4   9  17  37  61  81 107 148 200 239 273 340
#     4  10  21  37  59  83 110 151 199 241 290 354
#     4  11  20  36  61  86 115 152 198 251 293 341
#
# _framework density 18.890391999999999
#
# number of rings (size 3 to 8) (size 9 to 14) (size 15 to 20)
#    0.000    1.778    4.444    3.333    0.000    4.000 
#    0.000    0.000    0.000    0.000    0.000    0.000 
#    0.000    0.000    0.000    0.000    0.000    0.000 
#
# Total GULP energy -200540.471461 kJ/mol
# GULP energy per Si atom -5570.568652 kJ/mol
# Density = 1.884740 g / cm^3
# Si number density = 18.890392 Si / 1000 Ang^3
#
#
#
# Elastic Constant Matrix: (Units=GPa)
#
#
# Indices 1 2 3 4 5 6 
#
# 1 46.5217 21.3976 32.0999 0.0000 0.0000 0.0000
# 2 21.3976 153.5149 61.8075 0.0000 0.0000 0.0000
# 3 32.0999 61.8075 139.4641 0.0000 0.0000 0.0000
# 4 0.0000 0.0000 0.0000 -0.0294 0.0000 0.0000
# 5 0.0000 0.0000 0.0000 0.0000 -0.6233 0.0000
# 6 0.0000 0.0000 0.0000 0.0000 0.0000 30.8893
#
#
#
# Elastic Compliance Matrix: (Units=1/GPa)
#
#
# Indices 1 2 3 4 5 6 
#
# 1 0.025823 -0.001468 -0.005293 0.000000 0.000000 0.000000
# 2 -0.001468 0.008012 -0.003213 0.000000 0.000000 0.000000
# 3 -0.005293 -0.003213 0.009812 0.000000 0.000000 0.000000
# 4 0.000000 0.000000 0.000000-34.039845 0.000000 0.000000
# 5 0.000000 0.000000 0.000000 0.000000 -1.604277 0.000000
# 6 0.000000 0.000000 0.000000 0.000000 0.000000 0.032374
#
#
# Mechanical properties :
#
#
# Convention : Reuss Voigt Hill
#
# Bulk Modulus (GPa) = 42.19523 63.34560 52.77042
# Shear Modulus (GPa) = -0.14069 20.99371 10.42651
#
# Velocity S-wave (km/s) = -0.27320 3.33730 2.35191
# Velocity P-wave (km/s) = 4.72079 6.96104 5.94735
#
# Compressibility (1/GPa) = 0.02369936
#
# Stress axis : x y z
#
# Youngs Moduli (GPa) = 38.72563 124.80889 101.91181
#
# Poissons Ratio (x) = 0.18326 0.53940
# Poissons Ratio (y) = 0.05686 0.32743
# Poissons Ratio (z) = 0.20497 0.40100
#
# Static dielectric constant tensor:
#      x y z
#    x 1.704680 0.000000 0.000000 
#    y 0.000000 1.692660 0.000000 
#    z 0.000000 0.000000 1.555340 
# 
# From -- ./inp_files/26052.got.cif
#   From: 2010.05.17/outbox.cif.g08.bks.cpg/sg58_14_cif.got.tgz:26052.got - 2010.06.03 14:20:14.
