data_PCOD9444287
_publ_section_title
;
Structure prediction by ZEFSAII (Michael W. Deem and Ramdas Pophale) SiO2 
 PCOD9444287
Probable space group: P N N M
;
_chemical_formula_sum "Si O2"
_cell_formula_units_Z 32
_cell_length_a 5.139889
_cell_length_b 9.889681
_cell_length_c 29.217983
_cell_angle_alpha 90.000000
_cell_angle_beta 90.000000
_cell_angle_gamma 90.000000
_cell_volume 1485.204497
_symmetry_space_group_name_H-M "P N N M"
_symmetry_group_IT_number 58
_symmetry_cell_setting 'orthorhombic'
loop_
_space_group_symop_operation_xyz
x,y,z
-x,-y,z
1/2+x,1/2-y,1/2-z
1/2-x,1/2+y,1/2-z
-x,-y,-z
x,y,-z
1/2-x,1/2+y,1/2+z
1/2+x,1/2-y,1/2+z
loop_
_atom_site_type_symbol
_atom_site_label
_atom_site_fract_x
_atom_site_fract_y
_atom_site_fract_z
Si Si1 0.748666 0.916803 0.337954
Si Si2 0.247586 0.596924 0.449764
Si Si3 0.430044 0.657787 0.356878
Si Si4 0.329129 0.178667 0.240965
O O1 0.671004 0.762268 0.351197
O O2 0.752055 0.918708 0.282308
O O3 0.500000 0.000000 0.353732
O O4 0.000000 0.000000 0.353722
O O5 0.500000 0.500000 0.452367
O O6 0.221086 0.663672 0.500000
O O7 0.286546 0.687793 0.404858
O O8 0.000000 0.500000 0.443011
O O9 0.500000 0.500000 0.358967
O O10 0.251516 0.662984 0.311540
O O11 0.637137 0.197288 0.245200
#
# Coordination Sequence:
#
# PCOD9444287 Si02
#       4
#     8   8   8   8
#     4  11  23  39  55  79 120 159 189 234 299 358
#     4   9  19  35  56  85 117 145 184 246 306 346
#     4  10  22  37  61  87 112 150 200 244 286 350
#     4  10  21  37  55  81 115 151 193 237 284 344
#
# _framework density 21.545853999999999
#
# number of rings (size 3 to 8) (size 9 to 14) (size 15 to 20)
#    0.000    2.000    0.000    3.750    0.000   17.000 
#    0.000    0.000    0.000    1.500    0.000    0.000 
#    0.000    0.000    0.000    0.000    0.000    0.000 
#
# Total GULP energy -178198.360001 kJ/mol
# GULP energy per Si atom -5568.698750 kJ/mol
# Density = 2.149681 g / cm^3
# Si number density = 21.545854 Si / 1000 Ang^3
#
#
#
# Elastic Constant Matrix: (Units=GPa)
#
#
# Indices 1 2 3 4 5 6 
#
# 1 128.5517 52.8316 23.4399 0.0000 0.0000 0.0000
# 2 52.8316 113.0708 29.1906 0.0000 0.0000 0.0000
# 3 23.4399 29.1906 188.8784 0.0000 0.0000 0.0000
# 4 0.0000 0.0000 0.0000 20.7616 0.0000 0.0000
# 5 0.0000 0.0000 0.0000 0.0000 -9.2205 0.0000
# 6 0.0000 0.0000 0.0000 0.0000 0.0000 29.8674
#
#
#
# Elastic Compliance Matrix: (Units=1/GPa)
#
#
# Indices 1 2 3 4 5 6 
#
# 1 0.009677 -0.004387 -0.000523 0.000000 0.000000 0.000000
# 2 -0.004387 0.011200 -0.001187 0.000000 0.000000 0.000000
# 3 -0.000523 -0.001187 0.005543 0.000000 0.000000 0.000000
# 4 0.000000 0.000000 0.000000 0.048166 0.000000 0.000000
# 5 0.000000 0.000000 0.000000 0.000000 -0.108454 0.000000
# 6 0.000000 0.000000 0.000000 0.000000 0.000000 0.033481
#
#
# Mechanical properties :
#
#
# Convention : Reuss Voigt Hill
#
# Bulk Modulus (GPa) = 70.28627 71.26947 70.77787
# Shear Modulus (GPa) = 302.15679 29.95094 166.05387
#
# Velocity S-wave (km/s) = 11.85510 3.73245 8.78848
# Velocity P-wave (km/s) = 14.83522 7.19199 11.65780
#
# Compressibility (1/GPa) = 0.01422753
#
# Stress axis : x y z
#
# Youngs Moduli (GPa) = 103.33670 89.28633 180.41766
#
# Poissons Ratio (x) = 0.39166 0.09436
# Poissons Ratio (y) = 0.45329 0.21407
# Poissons Ratio (z) = 0.05405 0.10594
#
# Static dielectric constant tensor:
#      x y z
#    x 1.813420 0.000000 0.000000 
#    y 0.000000 1.868380 0.000000 
#    z 0.000000 0.000000 1.873500 
# 
# From -- ./inp_files/33999.got.cif
#   From: 2010.05.17/outbox.cif.g08.bks.cpg/sg58_17_cif.got.tgz:33999.got - 2010.06.03 14:20:14.
