data_PCOD9444317
_publ_section_title
;
Structure prediction by ZEFSAII (Michael W. Deem and Ramdas Pophale) SiO2 
 PCOD9444317
Probable space group: P N N M
;
_chemical_formula_sum "Si O2"
_cell_formula_units_Z 40
_cell_length_a 11.861220
_cell_length_b 7.959007
_cell_length_c 20.919482
_cell_angle_alpha 90.000000
_cell_angle_beta 90.000000
_cell_angle_gamma 90.000000
_cell_volume 1974.873010
_symmetry_space_group_name_H-M "P N N M"
_symmetry_group_IT_number 58
_symmetry_cell_setting 'orthorhombic'
loop_
_space_group_symop_operation_xyz
x,y,z
-x,-y,z
1/2+x,1/2-y,1/2-z
1/2-x,1/2+y,1/2-z
-x,-y,-z
x,y,-z
1/2-x,1/2+y,1/2+z
1/2+x,1/2-y,1/2+z
loop_
_atom_site_type_symbol
_atom_site_label
_atom_site_fract_x
_atom_site_fract_y
_atom_site_fract_z
Si Si1 0.565161 0.329509 0.637369
Si Si2 0.244980 0.475854 0.301795
Si Si3 0.355346 0.122589 0.317506
Si Si4 0.624719 0.924087 0.071864
Si Si5 0.257532 0.891087 0.572599
O O1 0.500000 0.500000 0.617491
O O2 0.650831 0.391708 0.693016
O O3 0.476992 0.187528 0.659314
O O4 0.642350 0.245300 0.583255
O O5 0.296819 0.294088 0.295572
O O6 0.156848 0.511296 0.245852
O O7 0.189962 0.487498 0.371320
O O8 0.286288 0.030613 0.374373
O O9 0.645146 0.723213 0.082959
O O10 0.500000 0.000000 0.073371
O O11 0.669021 0.954888 0.000000
O O12 0.257372 0.955629 0.500000
#
# Coordination Sequence:
#
# PCOD9444317 Si02
#       5
#     8   8   8   8   8
#     4   9  20  37  57  83 112 145 190 241 293 350
#     4  10  21  37  58  84 114 151 192 237 288 345
#     4  11  22  37  57  83 116 150 192 238 287 346
#     4   9  19  37  59  82 110 147 189 233 285 340
#     4  10  21  37  57  83 115 150 191 237 287 347
#
# _framework density 20.254466000000001
#
# number of rings (size 3 to 8) (size 9 to 14) (size 15 to 20)
#    0.000    2.200    0.000    3.000    0.000    6.000 
#    0.000    7.000    0.000    3.600    0.000    0.000 
#    0.000    0.000    0.000    0.000    0.000    0.000 
#
# Total GULP energy -222899.592259 kJ/mol
# GULP energy per Si atom -5572.489806 kJ/mol
# Density = 2.020837 g / cm^3
# Si number density = 20.254466 Si / 1000 Ang^3
#
#
#
# Elastic Constant Matrix: (Units=GPa)
#
#
# Indices 1 2 3 4 5 6 
#
# 1 81.9824 38.8829 31.6961 0.0000 0.0000 0.0000
# 2 38.8829 80.1754 23.5669 0.0000 0.0000 0.0000
# 3 31.6961 23.5669 68.0974 0.0000 0.0000 0.0000
# 4 0.0000 0.0000 0.0000 31.0726 0.0000 0.0000
# 5 0.0000 0.0000 0.0000 0.0000 37.5263 0.0000
# 6 0.0000 0.0000 0.0000 0.0000 0.0000 30.8238
#
#
#
# Elastic Compliance Matrix: (Units=1/GPa)
#
#
# Indices 1 2 3 4 5 6 
#
# 1 0.017727 -0.006871 -0.005873 0.000000 0.000000 0.000000
# 2 -0.006871 0.016548 -0.002529 0.000000 0.000000 0.000000
# 3 -0.005873 -0.002529 0.018294 0.000000 0.000000 0.000000
# 4 0.000000 0.000000 0.000000 0.032183 0.000000 0.000000
# 5 0.000000 0.000000 0.000000 0.000000 0.026648 0.000000
# 6 0.000000 0.000000 0.000000 0.000000 0.000000 0.032442
#
#
# Mechanical properties :
#
#
# Convention : Reuss Voigt Hill
#
# Bulk Modulus (GPa) = 45.40693 46.50523 45.95608
# Shear Modulus (GPa) = 27.51344 28.95851 28.23598
#
# Velocity S-wave (km/s) = 3.68963 3.78528 3.73776
# Velocity P-wave (km/s) = 6.37323 6.48959 6.43168
#
# Compressibility (1/GPa) = 0.02202307
#
# Stress axis : x y z
#
# Youngs Moduli (GPa) = 56.41046 60.42976 54.66332
#
# Poissons Ratio (x) = 0.41520 0.32106
# Poissons Ratio (y) = 0.38758 0.13824
# Poissons Ratio (z) = 0.33132 0.15282
#
# Static dielectric constant tensor:
#      x y z
#    x 1.763370 0.000000 0.000000 
#    y 0.000000 1.758880 0.000000 
#    z 0.000000 0.000000 1.678360 
# 
# From -- ./inp_files/25933.got.cif
#   From: 2010.05.17/outbox.cif.g08.bks.cpg/sg58_13_cif.got.tgz:25933.got - 2010.06.03 14:20:14.
