data_PCOD9444143
_publ_section_title
;
Structure prediction by ZEFSAII (Michael W. Deem and Ramdas Pophale) SiO2 
 PCOD9444143
Probable space group: P N N M
;
_chemical_formula_sum "Si O2"
_cell_formula_units_Z 64
_cell_length_a 19.746419
_cell_length_b 8.636898
_cell_length_c 18.776004
_cell_angle_alpha 90.000000
_cell_angle_beta 90.000000
_cell_angle_gamma 90.000000
_cell_volume 3202.206302
_symmetry_space_group_name_H-M "P N N M"
_symmetry_group_IT_number 58
_symmetry_cell_setting 'orthorhombic'
loop_
_space_group_symop_operation_xyz
x,y,z
-x,-y,z
1/2+x,1/2-y,1/2-z
1/2-x,1/2+y,1/2-z
-x,-y,-z
x,y,-z
1/2-x,1/2+y,1/2+z
1/2+x,1/2-y,1/2+z
loop_
_atom_site_type_symbol
_atom_site_label
_atom_site_fract_x
_atom_site_fract_y
_atom_site_fract_z
Si Si1 0.240285 0.207023 0.188134
Si Si2 0.104588 0.673134 0.110093
Si Si3 0.479296 0.677858 0.792998
Si Si4 0.657799 0.207880 0.172986
Si Si5 0.888157 0.364113 0.720065
Si Si6 0.030118 0.172263 0.124363
Si Si7 0.774767 0.087227 0.917153
Si Si8 0.658051 0.155089 0.575735
O O1 0.201573 0.214156 0.263311
O O2 0.320069 0.225930 0.198406
O O3 0.209896 0.342420 0.140333
O O4 0.225242 0.052789 0.140876
O O5 0.105846 0.650224 0.195189
O O6 0.158692 0.806258 0.091320
O O7 0.123330 0.510781 0.076660
O O8 0.028622 0.721782 0.092372
O O9 0.500000 0.500000 0.797979
O O10 0.411629 0.701334 0.838227
O O11 0.542457 0.790949 0.809985
O O12 0.461398 0.705245 0.709014
O O13 0.708513 0.183959 0.107368
O O14 0.629283 0.039712 0.198425
O O15 0.100891 0.214269 0.088639
O O16 0.000000 0.000000 0.117385
O O17 0.769557 0.039526 0.000000
O O18 0.691926 0.181697 0.500000
#
# Coordination Sequence:
#
# PCOD9444143 Si02
#       8
#     8   8   8   8   8   8   8   8
#     4  11  22  39  62  90 116 162 206 249 298 361
#     4  11  21  36  58  83 118 162 200 246 303 364
#     4  10  21  35  61  93 120 150 199 262 310 357
#     4  11  21  39  65  88 120 161 206 252 307 361
#     4  10  21  36  61  90 120 152 201 258 303 355
#     4  10  21  36  55  81 118 161 206 245 298 359
#     4  11  25  41  61  91 129 165 203 256 315 371
#     4  12  24  37  55  83 122 161 201 247 299 358
#
# _framework density 19.986218999999998
#
# number of rings (size 3 to 8) (size 9 to 14) (size 15 to 20)
#    0.000    1.250    3.750    2.250    3.500    4.750 
#    0.000    0.000    0.000    7.125    0.000    0.000 
#    0.000    0.000    0.000    0.000    0.000    0.000 
#
# Total GULP energy -357504.871927 kJ/mol
# GULP energy per Si atom -5586.013624 kJ/mol
# Density = 1.994073 g / cm^3
# Si number density = 19.986219 Si / 1000 Ang^3
#
#
#
# Elastic Constant Matrix: (Units=GPa)
#
#
# Indices 1 2 3 4 5 6 
#
# 1 81.0559 -3.7627 4.2238 0.0000 0.0000 0.0000
# 2 -3.7627 32.3379 2.6542 0.0000 0.0000 0.0000
# 3 4.2238 2.6542 39.3780 0.0000 0.0000 0.0000
# 4 0.0000 0.0000 0.0000 -101.9043 0.0000 0.0000
# 5 0.0000 0.0000 0.0000 0.0000 7.3083 0.0000
# 6 0.0000 0.0000 0.0000 0.0000 0.0000 36.2729
#
#
#
# Elastic Compliance Matrix: (Units=1/GPa)
#
#
# Indices 1 2 3 4 5 6 
#
# 1 0.012485 0.001571 -0.001445 0.000000 0.000000 0.000000
# 2 0.001571 0.031293 -0.002278 0.000000 0.000000 0.000000
# 3 -0.001445 -0.002278 0.025703 0.000000 0.000000 0.000000
# 4 0.000000 0.000000 0.000000 -0.009813 0.000000 0.000000
# 5 0.000000 0.000000 0.000000 0.000000 0.136830 0.000000
# 6 0.000000 0.000000 0.000000 0.000000 0.000000 0.027569
#
#
# Mechanical properties :
#
#
# Convention : Reuss Voigt Hill
#
# Bulk Modulus (GPa) = 15.34238 17.66693 16.50466
# Shear Modulus (GPa) = 19.99218 -1.68752 9.15233
#
# Velocity S-wave (km/s) = 3.16618 -0.91988 2.14226
# Velocity P-wave (km/s) = 4.58905 2.78038 3.79407
#
# Compressibility (1/GPa) = 0.06517894
#
# Stress axis : x y z
#
# Youngs Moduli (GPa) = 80.09343 31.95578 38.90526
#
# Poissons Ratio (x) = -0.05021 0.05622
# Poissons Ratio (y) = -0.12586 0.08862
# Poissons Ratio (z) = 0.11575 0.07279
#
# Static dielectric constant tensor:
#      x y z
#    x 1.706950 0.000000 0.000000 
#    y 0.000000 1.761000 0.000000 
#    z 0.000000 0.000000 1.744350 
# 
# From -- ./inp_files/30265.got.cif
#   From: 2010.05.17/outbox.cif.g08.bks.cpg/sg58_16_cif.got.tgz:30265.got - 2010.06.03 14:20:14.
