data_PCOD9444007
_publ_section_title
;
Structure prediction by ZEFSAII (Michael W. Deem and Ramdas Pophale) SiO2 
 PCOD9444007
Probable space group: P N N M
;
_chemical_formula_sum "Si O2"
_cell_formula_units_Z 40
_cell_length_a 12.600336
_cell_length_b 18.618923
_cell_length_c 9.030384
_cell_angle_alpha 90.000000
_cell_angle_beta 90.000000
_cell_angle_gamma 90.000000
_cell_volume 2118.570401
_symmetry_space_group_name_H-M "P N N M"
_symmetry_group_IT_number 58
_symmetry_cell_setting 'orthorhombic'
loop_
_space_group_symop_operation_xyz
x,y,z
-x,-y,z
1/2+x,1/2-y,1/2-z
1/2-x,1/2+y,1/2-z
-x,-y,-z
x,y,-z
1/2-x,1/2+y,1/2+z
1/2+x,1/2-y,1/2+z
loop_
_atom_site_type_symbol
_atom_site_label
_atom_site_fract_x
_atom_site_fract_y
_atom_site_fract_z
Si Si1 0.392981 0.297028 0.176407
Si Si2 0.307120 0.892085 0.676564
Si Si3 0.722744 0.954327 0.176221
Si Si4 0.441274 0.575027 0.176374
Si Si5 0.949168 0.352792 0.176042
O O1 0.278482 0.330872 0.212864
O O2 0.479904 0.358962 0.205705
O O3 0.417829 0.225541 0.265626
O O4 0.395076 0.281502 0.000000
O O5 0.296366 0.906969 0.500000
O O6 0.426964 0.867756 0.706343
O O7 0.281314 0.964471 0.763780
O O8 0.832130 0.920142 0.235227
O O9 0.624107 0.911065 0.243674
O O10 0.719094 0.952749 0.000000
O O11 0.500000 0.500000 0.212892
O O12 0.418527 0.573443 0.000000
O O13 0.932800 0.358006 0.000000
#
# Coordination Sequence:
#
# PCOD9444007 Si02
#       5
#     8   8   8   8   8
#     4  10  22  41  65  93 126 162 204 259 316 374
#     4  10  22  44  67  89 123 166 210 257 314 374
#     4  12  25  40  64  95 128 163 211 262 309 369
#     4  10  20  40  67  92 123 164 207 253 313 375
#     4  11  25  42  64  92 127 168 210 257 316 377
#
# _framework density 18.880655999999998
#
# number of rings (size 3 to 8) (size 9 to 14) (size 15 to 20)
#    0.000    1.400    2.000    3.000    2.800    6.000 
#    0.000    0.000    0.000    0.000    0.000    0.000 
#    0.000    0.000    0.000    0.000    0.000    0.000 
#
# Total GULP energy -223716.563099 kJ/mol
# GULP energy per Si atom -5592.914077 kJ/mol
# Density = 1.883768 g / cm^3
# Si number density = 18.880656 Si / 1000 Ang^3
#
#
#
# Elastic Constant Matrix: (Units=GPa)
#
#
# Indices 1 2 3 4 5 6 
#
# 1 126.8834 6.9957 58.0616 0.0000 0.0000 0.0000
# 2 6.9957 21.9459 15.1860 0.0000 0.0000 0.0000
# 3 58.0616 15.1860 51.4889 0.0000 0.0000 0.0000
# 4 0.0000 0.0000 0.0000 35.8231 0.0000 0.0000
# 5 0.0000 0.0000 0.0000 0.0000 15.6229 0.0000
# 6 0.0000 0.0000 0.0000 0.0000 0.0000 12.5157
#
#
#
# Elastic Compliance Matrix: (Units=1/GPa)
#
#
# Indices 1 2 3 4 5 6 
#
# 1 0.018006 0.010441 -0.023384 0.000000 0.000000 0.000000
# 2 0.010441 0.063306 -0.030446 0.000000 0.000000 0.000000
# 3 -0.023384 -0.030446 0.054771 0.000000 0.000000 0.000000
# 4 0.000000 0.000000 0.000000 0.027915 0.000000 0.000000
# 5 0.000000 0.000000 0.000000 0.000000 0.064009 0.000000
# 6 0.000000 0.000000 0.000000 0.000000 0.000000 0.079900
#
#
# Mechanical properties :
#
#
# Convention : Reuss Voigt Hill
#
# Bulk Modulus (GPa) = 20.28165 40.08944 30.18554
# Shear Modulus (GPa) = 12.16197 20.79732 16.47964
#
# Velocity S-wave (km/s) = 2.54076 3.32251 2.95758
# Velocity P-wave (km/s) = 4.40144 5.99983 5.26168
#
# Compressibility (1/GPa) = 0.04930565
#
# Stress axis : x y z
#
# Youngs Moduli (GPa) = 55.53648 15.79637 18.25799
#
# Poissons Ratio (x) = -0.16494 0.42695
# Poissons Ratio (y) = -0.57988 0.55587
# Poissons Ratio (z) = 1.29868 0.48093
#
# Static dielectric constant tensor:
#      x y z
#    x 1.640710 0.000000 0.000000 
#    y 0.000000 1.618000 0.000000 
#    z 0.000000 0.000000 1.627670 
# 
# From -- ./inp_files/3775.got.cif
#   From: 2010.05.17/outbox.cif.g08.bks.cpg/sg58_2_cif.got.tgz:3775.got - 2010.06.03 14:20:14.
