data_PCOD9444797
_publ_section_title
;
Structure prediction by ZEFSAII (Michael W. Deem and Ramdas Pophale) SiO2 
 PCOD9444797
Probable space group: P N N M
;
_chemical_formula_sum "Si O2"
_cell_formula_units_Z 56
_cell_length_a 19.563291
_cell_length_b 8.234062
_cell_length_c 18.532540
_cell_angle_alpha 90.000000
_cell_angle_beta 90.000000
_cell_angle_gamma 90.000000
_cell_volume 2985.320711
_symmetry_space_group_name_H-M "P N N M"
_symmetry_group_IT_number 58
_symmetry_cell_setting 'orthorhombic'
loop_
_space_group_symop_operation_xyz
x,y,z
-x,-y,z
1/2+x,1/2-y,1/2-z
1/2-x,1/2+y,1/2-z
-x,-y,-z
x,y,-z
1/2-x,1/2+y,1/2+z
1/2+x,1/2-y,1/2+z
loop_
_atom_site_type_symbol
_atom_site_label
_atom_site_fract_x
_atom_site_fract_y
_atom_site_fract_z
Si Si1 0.961035 0.237630 0.920036
Si Si2 0.425010 0.918578 0.914350
Si Si3 0.414114 0.656553 0.794765
Si Si4 0.204136 0.318902 0.209514
Si Si5 0.330598 0.106666 0.807467
Si Si6 0.106056 0.404383 0.920159
Si Si7 0.056996 0.812461 0.235961
O O1 0.923229 0.412316 0.916104
O O2 0.938558 0.141829 0.848586
O O3 0.040916 0.284461 0.914822
O O4 0.947765 0.166837 0.000000
O O5 0.418018 0.747381 0.871577
O O6 0.500000 0.000000 0.902093
O O7 0.367871 0.034085 0.877585
O O8 0.415776 0.900935 0.000000
O O9 0.343905 0.695313 0.754320
O O10 0.426058 0.464420 0.787762
O O11 0.478620 0.733997 0.751716
O O12 0.275868 0.248416 0.183710
O O13 0.209975 0.466828 0.265186
O O14 0.160194 0.372940 0.141205
O O15 0.391727 0.169979 0.756336
O O16 0.136015 0.383041 0.000000
#
# Coordination Sequence:
#
# PCOD9444797 Si02
#       7
#     8   8   8   8   8   8   8
#     4   9  17  31  56  89 121 156 195 234 284 353
#     4  10  21  41  64  89 119 161 213 265 324 378
#     4  10  22  35  60  88 119 157 202 252 308 359
#     4  11  21  37  55  85 117 158 197 250 300 368
#     4  11  23  36  63  87 122 158 208 257 310 371
#     4   9  17  30  54  85 117 153 191 231 286 355
#     4  11  19  36  57  91 120 156 203 255 293 364
#
# _framework density 18.758454
#
# number of rings (size 3 to 8) (size 9 to 14) (size 15 to 20)
#    0.000    1.857    4.286    1.714    0.000    0.571 
#    0.000    4.286    0.000   13.714    0.000    0.000 
#    0.000    0.000    0.000    0.000    0.000    0.000 
#
# Total GULP energy -312268.903456 kJ/mol
# GULP energy per Si atom -5576.230419 kJ/mol
# Density = 1.871576 g / cm^3
# Si number density = 18.758454 Si / 1000 Ang^3
#
#
#
# Elastic Constant Matrix: (Units=GPa)
#
#
# Indices 1 2 3 4 5 6 
#
# 1 75.9590 17.9352 36.3618 0.0000 0.0000 0.0000
# 2 17.9352 50.6931 29.9345 0.0000 0.0000 0.0000
# 3 36.3618 29.9345 151.4437 0.0000 0.0000 0.0000
# 4 0.0000 0.0000 0.0000 13.2535 0.0000 0.0000
# 5 0.0000 0.0000 0.0000 0.0000 13.0516 0.0000
# 6 0.0000 0.0000 0.0000 0.0000 0.0000 22.3863
#
#
#
# Elastic Compliance Matrix: (Units=1/GPa)
#
#
# Indices 1 2 3 4 5 6 
#
# 1 0.015468 -0.003713 -0.002980 0.000000 0.000000 0.000000
# 2 -0.003713 0.023225 -0.003699 0.000000 0.000000 0.000000
# 3 -0.002980 -0.003699 0.008050 0.000000 0.000000 0.000000
# 4 0.000000 0.000000 0.000000 0.075452 0.000000 0.000000
# 5 0.000000 0.000000 0.000000 0.000000 0.076619 0.000000
# 6 0.000000 0.000000 0.000000 0.000000 0.000000 0.044670
#
#
# Mechanical properties :
#
#
# Convention : Reuss Voigt Hill
#
# Bulk Modulus (GPa) = 38.52320 49.61767 44.07043
# Shear Modulus (GPa) = 18.32037 22.66258 20.49147
#
# Velocity S-wave (km/s) = 3.12852 3.47958 3.30871
# Velocity P-wave (km/s) = 5.79925 6.53082 6.17587
#
# Compressibility (1/GPa) = 0.02595839
#
# Stress axis : x y z
#
# Youngs Moduli (GPa) = 64.64861 43.05797 124.22683
#
# Poissons Ratio (x) = 0.15987 0.37020
# Poissons Ratio (y) = 0.24004 0.45953
# Poissons Ratio (z) = 0.19266 0.15928
#
# Static dielectric constant tensor:
#      x y z
#    x 1.639500 0.000000 0.000000 
#    y 0.000000 1.701930 0.000000 
#    z 0.000000 0.000000 1.641770 
# 
# From -- ./inp_files/27498.got.cif
#   From: 2010.05.17/outbox.cif.g08.bks.cpg/sg58_14_cif.got.tgz:27498.got - 2010.06.03 14:20:14.
