data_PCOD9444032
_publ_section_title
;
Structure prediction by ZEFSAII (Michael W. Deem and Ramdas Pophale) SiO2 
 PCOD9444032
Probable space group: P N N M
;
_chemical_formula_sum "Si O2"
_cell_formula_units_Z 56
_cell_length_a 9.086255
_cell_length_b 16.373345
_cell_length_c 19.263241
_cell_angle_alpha 90.000000
_cell_angle_beta 90.000000
_cell_angle_gamma 90.000000
_cell_volume 2865.838362
_symmetry_space_group_name_H-M "P N N M"
_symmetry_group_IT_number 58
_symmetry_cell_setting 'orthorhombic'
loop_
_space_group_symop_operation_xyz
x,y,z
-x,-y,z
1/2+x,1/2-y,1/2-z
1/2-x,1/2+y,1/2-z
-x,-y,-z
x,y,-z
1/2-x,1/2+y,1/2+z
1/2+x,1/2-y,1/2+z
loop_
_atom_site_type_symbol
_atom_site_label
_atom_site_fract_x
_atom_site_fract_y
_atom_site_fract_z
Si Si1 0.541272 0.595286 0.419655
Si Si2 0.368497 0.654394 0.711825
Si Si3 0.077044 0.411604 0.813332
Si Si4 0.040414 0.714774 0.297481
Si Si5 0.835018 0.981781 0.323331
Si Si6 0.148240 0.639581 0.081484
Si Si7 0.178982 0.308174 0.418887
O O1 0.500000 0.500000 0.416547
O O2 0.518483 0.622959 0.500000
O O3 0.441806 0.639655 0.362552
O O4 0.712355 0.615779 0.403150
O O5 0.480545 0.703150 0.761586
O O6 0.335173 0.569194 0.751363
O O7 0.215785 0.703906 0.704504
O O8 0.027597 0.356346 0.750324
O O9 0.247020 0.433824 0.816133
O O10 0.000000 0.500000 0.806406
O O11 0.009433 0.370000 0.881804
O O12 0.963841 0.702205 0.371684
O O13 0.752840 0.925125 0.379485
O O14 0.000000 0.000000 0.344242
O O15 0.218126 0.728563 0.093085
O O16 0.140033 0.623648 0.000000
O O17 0.139909 0.311177 0.500000
#
# Coordination Sequence:
#
# PCOD9444032 Si02
#       7
#     8   8   8   8   8   8   8
#     4  10  23  42  64  93 129 169 210 255 315 372
#     4  12  24  39  62  93 123 165 206 259 308 375
#     4  10  21  38  58  90 120 158 204 248 302 364
#     4  12  23  39  64  91 123 163 211 254 316 372
#     4  11  24  39  58  93 127 157 201 260 311 357
#     4  10  20  42  65  87 123 167 206 247 310 375
#     4  10  22  41  64  91 127 165 206 261 315 369
#
# _framework density 19.540528999999999
#
# number of rings (size 3 to 8) (size 9 to 14) (size 15 to 20)
#    0.000    1.286    4.286    2.143    6.000    3.429 
#    0.000    0.000    0.000    3.000    0.000    0.000 
#    0.000    0.000    0.000    0.000    0.000    0.000 
#
# Total GULP energy -312881.348269 kJ/mol
# GULP energy per Si atom -5587.166933 kJ/mol
# Density = 1.949605 g / cm^3
# Si number density = 19.540529 Si / 1000 Ang^3
#
#
#
# Elastic Constant Matrix: (Units=GPa)
#
#
# Indices 1 2 3 4 5 6 
#
# 1 110.0912 13.5406 40.5921 0.0000 0.0000 0.0000
# 2 13.5406 29.4479 16.9539 0.0000 0.0000 0.0000
# 3 40.5921 16.9539 98.4972 0.0000 0.0000 0.0000
# 4 0.0000 0.0000 0.0000 17.5512 0.0000 0.0000
# 5 0.0000 0.0000 0.0000 0.0000 131.6505 0.0000
# 6 0.0000 0.0000 0.0000 0.0000 0.0000 21.9306
#
#
#
# Elastic Compliance Matrix: (Units=1/GPa)
#
#
# Indices 1 2 3 4 5 6 
#
# 1 0.010900 -0.002693 -0.004029 0.000000 0.000000 0.000000
# 2 -0.002693 0.038359 -0.005493 0.000000 0.000000 0.000000
# 3 -0.004029 -0.005493 0.012758 0.000000 0.000000 0.000000
# 4 0.000000 0.000000 0.000000 0.056976 0.000000 0.000000
# 5 0.000000 0.000000 0.000000 0.000000 0.007596 0.000000
# 6 0.000000 0.000000 0.000000 0.000000 0.000000 0.045598
#
#
# Mechanical properties :
#
#
# Convention : Reuss Voigt Hill
#
# Bulk Modulus (GPa) = 26.60357 42.24549 34.42453
# Shear Modulus (GPa) = 23.90684 45.35644 34.63164
#
# Velocity S-wave (km/s) = 3.50158 4.82306 4.21443
# Velocity P-wave (km/s) = 5.47651 7.25825 6.42940
#
# Compressibility (1/GPa) = 0.03758894
#
# Stress axis : x y z
#
# Youngs Moduli (GPa) = 91.74359 26.06963 78.38065
#
# Poissons Ratio (x) = 0.07020 0.31576
# Poissons Ratio (y) = 0.24703 0.43053
# Poissons Ratio (z) = 0.36959 0.14320
#
# Static dielectric constant tensor:
#      x y z
#    x 1.690020 0.000000 0.000000 
#    y 0.000000 1.715310 0.000000 
#    z 0.000000 0.000000 1.669090 
# 
# From -- ./inp_files/29051.got.cif
#   From: 2010.05.17/outbox.cif.g08.bks.cpg/sg58_15_cif.got.tgz:29051.got - 2010.06.03 14:20:14.
