data_PCOD9444955
_publ_section_title
;
Structure prediction by ZEFSAII (Michael W. Deem and Ramdas Pophale) SiO2 
 PCOD9444955
Probable space group: P N N M
;
_chemical_formula_sum "Si O2"
_cell_formula_units_Z 48
_cell_length_a 6.064050
_cell_length_b 27.446283
_cell_length_c 14.031437
_cell_angle_alpha 90.000000
_cell_angle_beta 90.000000
_cell_angle_gamma 90.000000
_cell_volume 2335.331091
_symmetry_space_group_name_H-M "P N N M"
_symmetry_group_IT_number 58
_symmetry_cell_setting 'orthorhombic'
loop_
_space_group_symop_operation_xyz
x,y,z
-x,-y,z
1/2+x,1/2-y,1/2-z
1/2-x,1/2+y,1/2-z
-x,-y,-z
x,y,-z
1/2-x,1/2+y,1/2+z
1/2+x,1/2-y,1/2+z
loop_
_atom_site_type_symbol
_atom_site_label
_atom_site_fract_x
_atom_site_fract_y
_atom_site_fract_z
Si Si1 0.259877 0.130728 0.180726
Si Si2 0.962277 0.717969 0.609364
Si Si3 0.119003 0.801922 0.744338
Si Si4 0.749675 0.513570 0.889975
Si Si5 0.581349 0.555633 0.392118
Si Si6 0.353432 0.899567 0.715431
O O1 0.428537 0.164608 0.122304
O O2 0.122145 0.093156 0.117795
O O3 0.388970 0.100592 0.261309
O O4 0.100827 0.168567 0.233381
O O5 0.959857 0.731551 0.500000
O O6 0.720456 0.715865 0.655838
O O7 0.089476 0.757696 0.672732
O O8 0.285135 0.843364 0.707742
O O9 0.500000 0.500000 0.852632
O O10 0.765787 0.571347 0.874469
O O11 0.000000 0.500000 0.850423
O O12 0.751045 0.497545 0.000000
O O13 0.500000 0.500000 0.378412
O O14 0.674105 0.559159 0.500000
O O15 0.742568 0.574127 0.308154
#
# Coordination Sequence:
#
# PCOD9444955 Si02
#       6
#     8   8   8   8   8   8
#     4  10  22  39  61  88 126 166 204 267 321 392
#     4  11  22  40  66  87 118 164 205 263 336 393
#     4  10  22  41  58  91 123 153 214 268 313 407
#     4  10  23  42  67  97 131 173 223 274 331 401
#     4  10  22  38  58  92 129 164 212 262 316 389
#     4  10  23  37  64  88 125 167 211 264 327 382
#
# _framework density 20.553829
#
# number of rings (size 3 to 8) (size 9 to 14) (size 15 to 20)
#    0.000    1.833    1.667    1.000    7.000    8.000 
#    0.000    2.500    0.000    0.000    0.000    0.000 
#    0.000    0.000    0.000    0.000    0.000    0.000 
#
# Total GULP energy -267416.885970 kJ/mol
# GULP energy per Si atom -5571.185124 kJ/mol
# Density = 2.050705 g / cm^3
# Si number density = 20.553829 Si / 1000 Ang^3
#
#
#
# Elastic Constant Matrix: (Units=GPa)
#
#
# Indices 1 2 3 4 5 6 
#
# 1 92.7947 19.2982 23.9206 0.0000 0.0000 0.0000
# 2 19.2982 97.7494 26.0900 0.0000 0.0000 0.0000
# 3 23.9206 26.0900 59.1694 0.0000 0.0000 0.0000
# 4 0.0000 0.0000 0.0000 10.3482 0.0000 0.0000
# 5 0.0000 0.0000 0.0000 0.0000 6.7048 0.0000
# 6 0.0000 0.0000 0.0000 0.0000 0.0000 26.2726
#
#
#
# Elastic Compliance Matrix: (Units=1/GPa)
#
#
# Indices 1 2 3 4 5 6 
#
# 1 0.012160 -0.001234 -0.004372 0.000000 0.000000 0.000000
# 2 -0.001234 0.011720 -0.004669 0.000000 0.000000 0.000000
# 3 -0.004372 -0.004669 0.020727 0.000000 0.000000 0.000000
# 4 0.000000 0.000000 0.000000 0.096635 0.000000 0.000000
# 5 0.000000 0.000000 0.000000 0.000000 0.149147 0.000000
# 6 0.000000 0.000000 0.000000 0.000000 0.000000 0.038063
#
#
# Mechanical properties :
#
#
# Convention : Reuss Voigt Hill
#
# Bulk Modulus (GPa) = 41.56724 43.14788 42.35756
# Shear Modulus (GPa) = 14.00479 20.69209 17.34844
#
# Velocity S-wave (km/s) = 2.61314 3.17634 2.90840
# Velocity P-wave (km/s) = 5.41961 5.87285 5.65078
#
# Compressibility (1/GPa) = 0.02405741
#
# Stress axis : x y z
#
# Youngs Moduli (GPa) = 82.23642 85.32413 48.24663
#
# Poissons Ratio (x) = 0.10527 0.21093
# Poissons Ratio (y) = 0.10146 0.22526
# Poissons Ratio (z) = 0.35953 0.39838
#
# Static dielectric constant tensor:
#      x y z
#    x 1.796360 0.000000 0.000000 
#    y 0.000000 1.755670 0.000000 
#    z 0.000000 0.000000 1.733610 
# 
# From -- ./inp_files/18585.got.cif
#   From: 2010.05.17/outbox.cif.g08.bks.cpg/sg58_10_cif.got.tgz:18585.got - 2010.06.03 14:20:14.
