data_PCOD9444028
_publ_section_title
;
Structure prediction by ZEFSAII (Michael W. Deem and Ramdas Pophale) SiO2 
 PCOD9444028
Probable space group: P N N M
;
_chemical_formula_sum "Si O2"
_cell_formula_units_Z 40
_cell_length_a 7.761892
_cell_length_b 9.438117
_cell_length_c 22.455777
_cell_angle_alpha 90.000000
_cell_angle_beta 90.000000
_cell_angle_gamma 90.000000
_cell_volume 1645.057336
_symmetry_space_group_name_H-M "P N N M"
_symmetry_group_IT_number 58
_symmetry_cell_setting 'orthorhombic'
loop_
_space_group_symop_operation_xyz
x,y,z
-x,-y,z
1/2+x,1/2-y,1/2-z
1/2-x,1/2+y,1/2-z
-x,-y,-z
x,y,-z
1/2-x,1/2+y,1/2+z
1/2+x,1/2-y,1/2+z
loop_
_atom_site_type_symbol
_atom_site_label
_atom_site_fract_x
_atom_site_fract_y
_atom_site_fract_z
Si Si1 0.785919 0.042158 0.000000
Si Si2 0.777220 0.062615 0.434270
Si Si3 0.433416 0.257146 0.832272
Si Si4 0.552814 0.339794 0.703227
Si Si5 0.583529 0.781402 0.588467
Si Si6 0.000000 0.500000 0.593837
O O1 0.886582 0.138640 0.051303
O O2 0.663201 0.970060 0.051843
O O3 0.850907 0.089252 0.500000
O O4 0.888343 0.123619 0.380551
O O5 0.596286 0.147156 0.431208
O O6 0.728760 0.897579 0.426414
O O7 0.521774 0.308051 0.772274
O O8 0.250178 0.189285 0.813328
O O9 0.537722 0.134854 0.865632
O O10 0.500000 0.500000 0.691424
O O11 0.438345 0.244603 0.658694
#
# Coordination Sequence:
#
# PCOD9444028 Si02
#       6
#     4   8   8   8   8   4
#     4  11  22  41  70  98 136 189 222 283 361 409
#     4  10  20  41  72 108 132 179 231 275 359 418
#     4  11  28  46  72  98 145 185 238 299 344 427
#     4  11  27  46  71 107 135 191 241 282 358 426
#     4  10  20  42  73  98 141 175 223 294 340 422
#     4  11  28  46  64  98 142 187 234 294 361 406
#
# _framework density 24.315261
#
# number of rings (size 3 to 8) (size 9 to 14) (size 15 to 20)
#    0.000    1.400    2.000    1.800   11.200    1.600 
#    0.000    3.500    0.000    0.000    0.000    0.000 
#    0.000    0.000    0.000    0.000    0.000    0.000 
#
# Total GULP energy -223239.464796 kJ/mol
# GULP energy per Si atom -5580.986620 kJ/mol
# Density = 2.425992 g / cm^3
# Si number density = 24.315261 Si / 1000 Ang^3
#
#
#
# Elastic Constant Matrix: (Units=GPa)
#
#
# Indices 1 2 3 4 5 6 
#
# 1 75.3866 11.8477 22.2206 0.0000 0.0000 0.0000
# 2 11.8477 75.2591 37.3029 0.0000 0.0000 0.0000
# 3 22.2206 37.3029 218.9833 0.0000 0.0000 0.0000
# 4 0.0000 0.0000 0.0000 323.7293 0.0000 0.0000
# 5 0.0000 0.0000 0.0000 0.0000 82.3735 0.0000
# 6 0.0000 0.0000 0.0000 0.0000 0.0000 40.4287
#
#
#
# Elastic Compliance Matrix: (Units=1/GPa)
#
#
# Indices 1 2 3 4 5 6 
#
# 1 0.013853 -0.001621 -0.001130 0.000000 0.000000 0.000000
# 2 -0.001621 0.014702 -0.002340 0.000000 0.000000 0.000000
# 3 -0.001130 -0.002340 0.005080 0.000000 0.000000 0.000000
# 4 0.000000 0.000000 0.000000 0.003089 0.000000 0.000000
# 5 0.000000 0.000000 0.000000 0.000000 0.012140 0.000000
# 6 0.000000 0.000000 0.000000 0.000000 0.000000 0.024735
#
#
# Mechanical properties :
#
#
# Convention : Reuss Voigt Hill
#
# Bulk Modulus (GPa) = 42.63671 56.93016 49.78343
# Shear Modulus (GPa) = 54.58663 109.19016 81.88840
#
# Velocity S-wave (km/s) = 4.74323 6.70847 5.80955
# Velocity P-wave (km/s) = 6.89715 9.13613 8.09443
#
# Compressibility (1/GPa) = 0.02345397
#
# Stress axis : x y z
#
# Youngs Moduli (GPa) = 72.18849 68.01580 196.85856
#
# Poissons Ratio (x) = 0.11025 0.22236
# Poissons Ratio (y) = 0.11701 0.46066
# Poissons Ratio (z) = 0.08154 0.15916
#
# Static dielectric constant tensor:
#      x y z
#    x 2.009280 0.000000 0.000000 
#    y 0.000000 1.926790 0.000000 
#    z 0.000000 0.000000 1.874640 
# 
# From -- ./inp_files/31312.got.cif
#   From: 2010.05.17/outbox.cif.g08.bks.cpg/sg58_16_cif.got.tgz:31312.got - 2010.06.03 14:20:14.
