data_PCOD9444252
_publ_section_title
;
Structure prediction by ZEFSAII (Michael W. Deem and Ramdas Pophale) SiO2 
 PCOD9444252
Probable space group: P N N M
;
_chemical_formula_sum "Si O2"
_cell_formula_units_Z 58
_cell_length_a 23.342663
_cell_length_b 14.411873
_cell_length_c 7.503069
_cell_angle_alpha 90.000000
_cell_angle_beta 90.000000
_cell_angle_gamma 90.000000
_cell_volume 2524.118657
_symmetry_space_group_name_H-M "P N N M"
_symmetry_group_IT_number 58
_symmetry_cell_setting 'orthorhombic'
loop_
_space_group_symop_operation_xyz
x,y,z
-x,-y,z
1/2+x,1/2-y,1/2-z
1/2-x,1/2+y,1/2-z
-x,-y,-z
x,y,-z
1/2-x,1/2+y,1/2+z
1/2+x,1/2-y,1/2+z
loop_
_atom_site_type_symbol
_atom_site_label
_atom_site_fract_x
_atom_site_fract_y
_atom_site_fract_z
Si Si1 0.000000 0.000000 0.500000
Si Si2 0.409583 0.878692 0.216278
Si Si3 0.745551 0.438590 0.783704
Si Si4 0.524056 0.777869 0.796473
Si Si5 0.305690 0.747202 0.782304
Si Si6 0.075103 0.910839 0.203538
Si Si7 0.875022 0.411505 0.793395
Si Si8 0.199932 0.862205 0.203202
O O1 0.048111 0.981372 0.342244
O O2 0.470920 0.838344 0.272833
O O3 0.359771 0.807804 0.274982
O O4 0.396796 0.982588 0.279018
O O5 0.409405 0.882960 0.000000
O O6 0.699411 0.360310 0.734124
O O7 0.809686 0.410070 0.726997
O O8 0.729386 0.537413 0.706478
O O9 0.746558 0.446766 0.000000
O O10 0.535971 0.681459 0.700678
O O11 0.580122 0.842342 0.795186
O O12 0.509982 0.750500 0.000000
O O13 0.246849 0.794081 0.716565
O O14 0.305680 0.751724 0.000000
O O15 0.136603 0.875440 0.276118
O O16 0.081638 0.945839 0.000000
O O17 0.873809 0.383982 0.000000
O O18 0.190920 0.829936 0.000000
#
# Coordination Sequence:
#
# PCOD9444252 Si02
#       8
#     2   8   8   8   8   8   8   8
#     4  12  26  48  72  98 134 180 226 270 348 392
#     4  10  21  38  61  89 127 170 218 277 335 404
#     4  10  21  36  60  93 124 169 219 270 336 403
#     4  11  23  40  63  96 129 173 230 279 339 407
#     4   9  18  37  61  87 125 168 209 268 338 399
#     4  11  25  46  71 101 134 177 229 287 332 406
#     4  11  22  37  59  92 134 176 221 275 336 405
#     4  10  21  40  66  93 127 167 214 270 337 393
#
# _framework density 22.978316
#
# number of rings (size 3 to 8) (size 9 to 14) (size 15 to 20)
#    0.000    1.655    2.069    2.276    0.966    6.621 
#    2.483    1.379    0.000    0.000    0.000    0.000 
#    0.000    0.000    0.000    0.000    0.000    0.000 
#
# Total GULP energy -323791.954540 kJ/mol
# GULP energy per Si atom -5582.619906 kJ/mol
# Density = 2.292602 g / cm^3
# Si number density = 22.978316 Si / 1000 Ang^3
#
#
#
# Elastic Constant Matrix: (Units=GPa)
#
#
# Indices 1 2 3 4 5 6 
#
# 1 84.1835 6.9275 13.3098 0.0000 0.0000 0.0000
# 2 6.9275 25.1583 1.5194 0.0000 0.0000 0.0000
# 3 13.3098 1.5194 85.6388 0.0000 0.0000 0.0000
# 4 0.0000 0.0000 0.0000 -55.9439 0.0000 0.0000
# 5 0.0000 0.0000 0.0000 0.0000 13.2089 0.0000
# 6 0.0000 0.0000 0.0000 0.0000 0.0000 22.4042
#
#
#
# Elastic Compliance Matrix: (Units=1/GPa)
#
#
# Indices 1 2 3 4 5 6 
#
# 1 0.012448 -0.003314 -0.001876 0.000000 0.000000 0.000000
# 2 -0.003314 0.040673 -0.000207 0.000000 0.000000 0.000000
# 3 -0.001876 -0.000207 0.011972 0.000000 0.000000 0.000000
# 4 0.000000 0.000000 0.000000 -0.017875 0.000000 0.000000
# 5 0.000000 0.000000 0.000000 0.000000 0.075706 0.000000
# 6 0.000000 0.000000 0.000000 0.000000 0.000000 0.044634
#
#
# Mechanical properties :
#
#
# Convention : Reuss Voigt Hill
#
# Bulk Modulus (GPa) = 18.41616 26.49934 22.45775
# Shear Modulus (GPa) = 25.45138 7.48211 16.46674
#
# Velocity S-wave (km/s) = 3.33171 1.80644 2.67988
# Velocity P-wave (km/s) = 4.77832 3.98853 4.40118
#
# Compressibility (1/GPa) = 0.05430014
#
# Stress axis : x y z
#
# Youngs Moduli (GPa) = 80.33333 24.58612 83.52718
#
# Poissons Ratio (x) = 0.08149 0.15668
# Poissons Ratio (y) = 0.26626 0.01725
# Poissons Ratio (z) = 0.15069 0.00508
#
# Static dielectric constant tensor:
#      x y z
#    x 1.841080 0.000000 0.000000 
#    y 0.000000 1.821070 0.000000 
#    z 0.000000 0.000000 1.916240 
# 
# From -- ./inp_files/9872.got.cif
#   From: 2010.05.17/outbox.cif.g08.bks.cpg/sg58_5_cif.got.tgz:9872.got - 2010.06.03 14:20:14.
