data_PCOD9444973
_publ_section_title
;
Structure prediction by ZEFSAII (Michael W. Deem and Ramdas Pophale) SiO2 
 PCOD9444973
Probable space group: P N N M
;
_chemical_formula_sum "Si O2"
_cell_formula_units_Z 44
_cell_length_a 26.763231
_cell_length_b 5.210864
_cell_length_c 14.063524
_cell_angle_alpha 90.000000
_cell_angle_beta 90.000000
_cell_angle_gamma 90.000000
_cell_volume 1961.292826
_symmetry_space_group_name_H-M "P N N M"
_symmetry_group_IT_number 58
_symmetry_cell_setting 'orthorhombic'
loop_
_space_group_symop_operation_xyz
x,y,z
-x,-y,z
1/2+x,1/2-y,1/2-z
1/2-x,1/2+y,1/2-z
-x,-y,-z
x,y,-z
1/2-x,1/2+y,1/2+z
1/2+x,1/2-y,1/2+z
loop_
_atom_site_type_symbol
_atom_site_label
_atom_site_fract_x
_atom_site_fract_y
_atom_site_fract_z
Si Si1 0.763687 0.048291 0.798881
Si Si2 0.869345 0.326152 0.172343
Si Si3 0.736916 0.626287 0.500000
Si Si4 0.442299 0.900972 0.203188
Si Si5 0.035424 0.249247 0.500000
Si Si6 0.942972 0.913162 0.897081
Si Si7 0.328432 0.873635 0.500000
O O1 0.736579 0.253080 0.731021
O O2 0.819325 0.165364 0.806836
O O3 0.736967 0.074040 0.900835
O O4 0.899167 0.395702 0.269034
O O5 0.907050 0.155570 0.111004
O O6 0.854463 0.557870 0.100710
O O7 0.716562 0.915698 0.500000
O O8 0.691941 0.415096 0.500000
O O9 0.435401 0.768814 0.100417
O O10 0.438183 0.727518 0.296767
O O11 0.500000 0.000000 0.204092
O O12 0.000000 0.500000 0.500000
O O13 0.000000 0.000000 0.500000
O O14 0.934252 0.782127 0.000000
O O15 0.000000 0.000000 0.899255
#
# Coordination Sequence:
#
# PCOD9444973 Si02
#       7
#     8   8   4   8   4   8   4
#     4  11  25  45  69 100 131 178 234 288 339 413
#     4  11  24  39  66  99 140 181 222 278 352 421
#     4  10  22  44  70  95 132 176 224 277 344 418
#     4  11  24  40  65  95 133 186 233 285 337 408
#     4  10  24  46  68  89 125 184 245 277 318 400
#     4  11  23  38  62 105 150 183 224 281 350 425
#     4  10  22  38  64 102 135 184 217 252 340 446
#
# _framework density 22.434183000000001
#
# number of rings (size 3 to 8) (size 9 to 14) (size 15 to 20)
#    0.000    1.273    2.727    2.727   11.455    0.364 
#    0.000    1.818    0.000    0.000    0.000    0.000 
#    0.000    0.000    0.000    0.000    0.000    0.000 
#
# Total GULP energy -245599.259403 kJ/mol
# GULP energy per Si atom -5581.801350 kJ/mol
# Density = 2.238312 g / cm^3
# Si number density = 22.434183 Si / 1000 Ang^3
#
#
#
# Elastic Constant Matrix: (Units=GPa)
#
#
# Indices 1 2 3 4 5 6 
#
# 1 65.1905 7.6359 2.4816 0.0000 0.0000 0.0000
# 2 7.6359 64.7892 22.4699 0.0000 0.0000 0.0000
# 3 2.4816 22.4699 181.8221 0.0000 0.0000 0.0000
# 4 0.0000 0.0000 0.0000 42.0129 0.0000 0.0000
# 5 0.0000 0.0000 0.0000 0.0000 -7.9185 0.0000
# 6 0.0000 0.0000 0.0000 0.0000 0.0000 40.7532
#
#
#
# Elastic Compliance Matrix: (Units=1/GPa)
#
#
# Indices 1 2 3 4 5 6 
#
# 1 0.015554 -0.001838 0.000015 0.000000 0.000000 0.000000
# 2 -0.001838 0.016343 -0.001995 0.000000 0.000000 0.000000
# 3 0.000015 -0.001995 0.005746 0.000000 0.000000 0.000000
# 4 0.000000 0.000000 0.000000 0.023802 0.000000 0.000000
# 5 0.000000 0.000000 0.000000 0.000000 -0.126286 0.000000
# 6 0.000000 0.000000 0.000000 0.000000 0.000000 0.024538
#
#
# Mechanical properties :
#
#
# Convention : Reuss Voigt Hill
#
# Bulk Modulus (GPa) = 33.32499 41.88629 37.60564
# Shear Modulus (GPa) = -220.61733 33.58381 -93.51676
#
# Velocity S-wave (km/s) = -9.92740 3.87330 -6.46339
# Velocity P-wave (km/s) = 10.79433 6.22210 6.23711
#
# Compressibility (1/GPa) = 0.03000751
#
# Stress axis : x y z
#
# Youngs Moduli (GPa) = 64.29044 61.18785 174.02877
#
# Poissons Ratio (x) = 0.11249 -0.00259
# Poissons Ratio (y) = 0.11819 0.34712
# Poissons Ratio (z) = -0.00096 0.12205
#
# Static dielectric constant tensor:
#      x y z
#    x 1.802140 0.000000 0.000000 
#    y 0.000000 1.893940 0.000000 
#    z 0.000000 0.000000 1.884880 
# 
# From -- ./inp_files/23636.got.cif
#   From: 2010.05.17/outbox.cif.g08.bks.cpg/sg58_12_cif.got.tgz:23636.got - 2010.06.03 14:20:14.
