data_PCOD9444776
_publ_section_title
;
Structure prediction by ZEFSAII (Michael W. Deem and Ramdas Pophale) SiO2 
 PCOD9444776
Probable space group: P N N M
;
_chemical_formula_sum "Si O2"
_cell_formula_units_Z 48
_cell_length_a 8.553032
_cell_length_b 9.463743
_cell_length_c 27.892397
_cell_angle_alpha 90.000000
_cell_angle_beta 90.000000
_cell_angle_gamma 90.000000
_cell_volume 2257.713724
_symmetry_space_group_name_H-M "P N N M"
_symmetry_group_IT_number 58
_symmetry_cell_setting 'orthorhombic'
loop_
_space_group_symop_operation_xyz
x,y,z
-x,-y,z
1/2+x,1/2-y,1/2-z
1/2-x,1/2+y,1/2-z
-x,-y,-z
x,y,-z
1/2-x,1/2+y,1/2+z
1/2+x,1/2-y,1/2+z
loop_
_atom_site_type_symbol
_atom_site_label
_atom_site_fract_x
_atom_site_fract_y
_atom_site_fract_z
Si Si1 0.888321 0.380503 0.288038
Si Si2 0.100538 0.788235 0.864612
Si Si3 0.697253 0.670821 0.945940
Si Si4 0.500000 0.000000 0.415354
Si Si5 0.500000 0.500000 0.871140
Si Si6 0.276256 0.571482 0.615206
Si Si7 0.162806 0.170875 0.294040
O O1 0.850529 0.414906 0.342993
O O2 0.734824 0.376354 0.255839
O O3 0.000000 0.500000 0.266528
O O4 0.994643 0.241686 0.286948
O O5 0.206348 0.773974 0.817287
O O6 0.070866 0.632705 0.885859
O O7 0.929867 0.857205 0.860511
O O8 0.190772 0.907327 0.896014
O O9 0.853402 0.572859 0.942403
O O10 0.574798 0.615294 0.906437
O O11 0.739759 0.829866 0.929890
O O12 0.636727 0.664546 0.000000
O O13 0.367069 0.555783 0.835212
#
# Coordination Sequence:
#
# PCOD9444776 Si02
#       7
#     8   8   8   4   4   8   8
#     4  12  26  41  64  93 134 177 227 275 341 408
#     4  10  21  41  68  93 133 175 222 271 344 400
#     4  11  23  43  70 100 134 179 228 287 350 411
#     4  10  21  40  68 102 130 174 220 280 345 414
#     4  12  25  42  68  98 138 176 231 290 344 410
#     4  10  22  43  66  96 134 180 219 285 334 412
#     4  12  26  41  65  96 132 181 227 280 335 412
#
# _framework density 21.260444
#
# number of rings (size 3 to 8) (size 9 to 14) (size 15 to 20)
#    0.000    1.000    5.000    1.500    3.500    1.333 
#    0.000    7.500    0.000    1.500    0.000    0.000 
#    0.000    0.000    0.000    0.000    0.000    0.000 
#
# Total GULP energy -267851.177279 kJ/mol
# GULP energy per Si atom -5580.232860 kJ/mol
# Density = 2.121205 g / cm^3
# Si number density = 21.260444 Si / 1000 Ang^3
#
#
#
# Elastic Constant Matrix: (Units=GPa)
#
#
# Indices 1 2 3 4 5 6 
#
# 1 54.9930 15.9902 23.0041 0.0000 0.0000 0.0000
# 2 15.9902 125.9348 41.2130 0.0000 0.0000 0.0000
# 3 23.0041 41.2130 98.4621 0.0000 0.0000 0.0000
# 4 0.0000 0.0000 0.0000 11.2937 0.0000 0.0000
# 5 0.0000 0.0000 0.0000 0.0000 4.0910 0.0000
# 6 0.0000 0.0000 0.0000 0.0000 0.0000 30.0725
#
#
#
# Elastic Compliance Matrix: (Units=1/GPa)
#
#
# Indices 1 2 3 4 5 6 
#
# 1 0.020306 -0.001189 -0.004247 0.000000 0.000000 0.000000
# 2 -0.001189 0.009271 -0.003603 0.000000 0.000000 0.000000
# 3 -0.004247 -0.003603 0.012656 0.000000 0.000000 0.000000
# 4 0.000000 0.000000 0.000000 0.088545 0.000000 0.000000
# 5 0.000000 0.000000 0.000000 0.000000 0.244438 0.000000
# 6 0.000000 0.000000 0.000000 0.000000 0.000000 0.033253
#
#
# Mechanical properties :
#
#
# Convention : Reuss Voigt Hill
#
# Bulk Modulus (GPa) = 41.39559 48.86717 45.13138
# Shear Modulus (GPa) = 11.50492 22.37029 16.93760
#
# Velocity S-wave (km/s) = 2.32877 3.24729 2.82560
# Velocity P-wave (km/s) = 5.17145 6.09054 5.64972
#
# Compressibility (1/GPa) = 0.02415716
#
# Stress axis : x y z
#
# Youngs Moduli (GPa) = 49.24610 107.86884 79.01189
#
# Poissons Ratio (x) = 0.12821 0.33554
# Poissons Ratio (y) = 0.05853 0.28465
# Poissons Ratio (z) = 0.20913 0.38861
#
# Static dielectric constant tensor:
#      x y z
#    x 1.815510 0.000000 0.000000 
#    y 0.000000 1.892430 0.000000 
#    z 0.000000 0.000000 1.722570 
# 
# From -- ./inp_files/34648.got.cif
#   From: 2010.05.17/outbox.cif.g08.bks.cpg/sg58_18_cif.got.tgz:34648.got - 2010.06.03 14:20:14.
