data_PCOD9444217
_publ_section_title
;
Structure prediction by ZEFSAII (Michael W. Deem and Ramdas Pophale) SiO2 
 PCOD9444217
Probable space group: P N N M
;
_chemical_formula_sum "Si O2"
_cell_formula_units_Z 58
_cell_length_a 28.222286
_cell_length_b 12.338586
_cell_length_c 7.656798
_cell_angle_alpha 90.000000
_cell_angle_beta 90.000000
_cell_angle_gamma 90.000000
_cell_volume 2666.273958
_symmetry_space_group_name_H-M "P N N M"
_symmetry_group_IT_number 58
_symmetry_cell_setting 'orthorhombic'
loop_
_space_group_symop_operation_xyz
x,y,z
-x,-y,z
1/2+x,1/2-y,1/2-z
1/2-x,1/2+y,1/2-z
-x,-y,-z
x,y,-z
1/2-x,1/2+y,1/2+z
1/2+x,1/2-y,1/2+z
loop_
_atom_site_type_symbol
_atom_site_label
_atom_site_fract_x
_atom_site_fract_y
_atom_site_fract_z
Si Si1 0.500833 0.158836 0.699781
Si Si2 0.785517 0.085502 0.210805
Si Si3 0.000000 0.500000 0.500000
Si Si4 0.122740 0.046078 0.791156
Si Si5 0.657082 0.788297 0.712568
Si Si6 0.107615 0.289369 0.787007
Si Si7 0.178601 0.472030 0.793309
Si Si8 0.937199 0.156288 0.699865
O O1 0.496655 0.120670 0.500000
O O2 0.555584 0.167598 0.757016
O O3 0.478432 0.278833 0.704078
O O4 0.478553 0.080406 0.843934
O O5 0.800192 0.207487 0.262672
O O6 0.734037 0.050506 0.270970
O O7 0.828351 0.008282 0.274040
O O8 0.785494 0.081818 0.000000
O O9 0.114912 0.166909 0.723095
O O10 0.080059 0.962335 0.757349
O O11 0.127407 0.053208 0.000000
O O12 0.654596 0.788510 0.500000
O O13 0.609196 0.731992 0.776599
O O14 0.664738 0.909862 0.776819
O O15 0.147171 0.373242 0.722878
O O16 0.109255 0.285628 0.000000
O O17 0.168622 0.476413 0.000000
O O18 0.951246 0.149533 0.500000
#
# Coordination Sequence:
#
# PCOD9444217 Si02
#       8
#     8   8   2   8   8   8   8   8
#     4  11  24  44  68  94 132 174 216 269 332 377
#     4   9  19  35  55  83 116 159 203 252 314 379
#     4  12  26  44  64 100 132 168 222 264 310 406
#     4   9  19  40  64  85 123 166 213 258 315 389
#     4   9  20  38  58  82 117 159 205 251 312 386
#     4   9  21  40  62  90 120 168 216 258 320 389
#     4  10  21  36  58  84 116 153 205 258 309 381
#     4  11  22  39  62  96 124 157 214 267 316 384
#
# _framework density 21.753204
#
# number of rings (size 3 to 8) (size 9 to 14) (size 15 to 20)
#    0.000    2.207    0.690    2.276    3.862    3.310 
#    2.483    2.759    0.000    0.000    0.000    0.000 
#    0.000    0.000    0.000    0.000    0.000    0.000 
#
# Total GULP energy -323460.037919 kJ/mol
# GULP energy per Si atom -5576.897206 kJ/mol
# Density = 2.170369 g / cm^3
# Si number density = 21.753204 Si / 1000 Ang^3
#
#
#
# Elastic Constant Matrix: (Units=GPa)
#
#
# Indices 1 2 3 4 5 6 
#
# 1 31.0633 10.9340 11.0603 0.0000 0.0000 0.0000
# 2 10.9340 139.8891 24.4252 0.0000 0.0000 0.0000
# 3 11.0603 24.4252 62.5111 0.0000 0.0000 0.0000
# 4 0.0000 0.0000 0.0000 -0.7411 0.0000 0.0000
# 5 0.0000 0.0000 0.0000 0.0000 21.0445 0.0000
# 6 0.0000 0.0000 0.0000 0.0000 0.0000 16.4406
#
#
#
# Elastic Compliance Matrix: (Units=1/GPa)
#
#
# Indices 1 2 3 4 5 6 
#
# 1 0.034757 -0.001763 -0.005461 0.000000 0.000000 0.000000
# 2 -0.001763 0.007761 -0.002721 0.000000 0.000000 0.000000
# 3 -0.005461 -0.002721 0.018026 0.000000 0.000000 0.000000
# 4 0.000000 0.000000 0.000000 -1.349388 0.000000 0.000000
# 5 0.000000 0.000000 0.000000 0.000000 0.047518 0.000000
# 6 0.000000 0.000000 0.000000 0.000000 0.000000 0.060825
#
#
# Mechanical properties :
#
#
# Convention : Reuss Voigt Hill
#
# Bulk Modulus (GPa) = 24.59673 36.25582 30.42627
# Shear Modulus (GPa) = -4.35898 19.81842 7.72972
#
# Velocity S-wave (km/s) = -1.41710 3.02165 1.88708
# Velocity P-wave (km/s) = 2.94179 5.37372 4.33192
#
# Compressibility (1/GPa) = 0.04065581
#
# Stress axis : x y z
#
# Youngs Moduli (GPa) = 28.77092 128.84314 55.47425
#
# Poissons Ratio (x) = 0.22718 0.30293
# Poissons Ratio (y) = 0.05073 0.15093
# Poissons Ratio (z) = 0.15711 0.35054
#
# Static dielectric constant tensor:
#      x y z
#    x 1.767340 0.000000 0.000000 
#    y 0.000000 1.823890 0.000000 
#    z 0.000000 0.000000 1.867480 
# 
# From -- ./inp_files/4454.got.cif
#   From: 2010.05.17/outbox.cif.g08.bks.cpg/sg58_3_cif.got.tgz:4454.got - 2010.06.03 14:20:14.
