data_PCOD9444956
_publ_section_title
;
Structure prediction by ZEFSAII (Michael W. Deem and Ramdas Pophale) SiO2 
 PCOD9444956
Probable space group: P N N M
;
_chemical_formula_sum "Si O2"
_cell_formula_units_Z 58
_cell_length_a 12.362579
_cell_length_b 30.095662
_cell_length_c 7.595117
_cell_angle_alpha 90.000000
_cell_angle_beta 90.000000
_cell_angle_gamma 90.000000
_cell_volume 2825.839224
_symmetry_space_group_name_H-M "P N N M"
_symmetry_group_IT_number 58
_symmetry_cell_setting 'orthorhombic'
loop_
_space_group_symop_operation_xyz
x,y,z
-x,-y,z
1/2+x,1/2-y,1/2-z
1/2-x,1/2+y,1/2-z
-x,-y,-z
x,y,-z
1/2-x,1/2+y,1/2+z
1/2+x,1/2-y,1/2+z
loop_
_atom_site_type_symbol
_atom_site_label
_atom_site_fract_x
_atom_site_fract_y
_atom_site_fract_z
Si Si1 0.490091 0.138388 0.287404
Si Si2 0.500000 0.000000 0.500000
Si Si3 0.286388 0.078292 0.207079
Si Si4 0.845573 0.280324 0.787509
Si Si5 0.644948 0.341496 0.289793
Si Si6 0.340388 0.980676 0.205111
Si Si7 0.591218 0.683327 0.289895
Si Si8 0.771901 0.611129 0.789430
O O1 0.491539 0.138560 0.500000
O O2 0.402652 0.101551 0.231313
O O3 0.439149 0.185388 0.228519
O O4 0.611166 0.129062 0.224713
O O5 0.436246 0.972163 0.343402
O O6 0.199845 0.113277 0.282758
O O7 0.292388 0.027821 0.272490
O O8 0.264740 0.074448 0.000000
O O9 0.731414 0.302159 0.736858
O O10 0.865831 0.230670 0.721195
O O11 0.847728 0.279814 0.000000
O O12 0.634903 0.347734 0.500000
O O13 0.527073 0.329579 0.219002
O O14 0.260973 0.938855 0.218157
O O15 0.373709 0.985326 0.000000
O O16 0.578896 0.689028 0.500000
O O17 0.677231 0.644562 0.260583
O O18 0.774822 0.609070 0.000000
#
# Coordination Sequence:
#
# PCOD9444956 Si02
#       8
#     8   2   8   8   8   8   8   8
#     4   9  19  33  54  81 114 150 187 237 296 356
#     4  12  22  36  60  94 126 164 206 252 308 380
#     4   9  19  35  58  86 113 152 199 246 298 361
#     4   9  19  36  56  84 113 148 194 243 302 363
#     4   9  19  38  61  84 112 152 203 249 300 364
#     4  11  23  38  59  88 128 166 207 256 313 370
#     4  10  22  38  59  81 115 157 198 246 305 364
#     4  11  23  38  57  86 123 161 202 249 305 372
#
# _framework density 20.524875999999999
#
# number of rings (size 3 to 8) (size 9 to 14) (size 15 to 20)
#    0.000    2.207    0.690    1.448    4.828    3.310 
#    0.000    0.690    0.000    4.138    0.000    0.000 
#    0.000    0.000    0.000    0.000    0.000    0.000 
#
# Total GULP energy -323276.719585 kJ/mol
# GULP energy per Si atom -5573.736545 kJ/mol
# Density = 2.047816 g / cm^3
# Si number density = 20.524876 Si / 1000 Ang^3
#
#
#
# Elastic Constant Matrix: (Units=GPa)
#
#
# Indices 1 2 3 4 5 6 
#
# 1 119.6558 75.8220 -8.9139 0.0000 0.0000 0.0000
# 2 75.8220 162.0558 0.7015 0.0000 0.0000 0.0000
# 3 -8.9139 0.7015 65.9427 0.0000 0.0000 0.0000
# 4 0.0000 0.0000 0.0000 15.8693 0.0000 0.0000
# 5 0.0000 0.0000 0.0000 0.0000 5.9280 0.0000
# 6 0.0000 0.0000 0.0000 0.0000 0.0000 20.5033
#
#
#
# Elastic Compliance Matrix: (Units=1/GPa)
#
#
# Indices 1 2 3 4 5 6 
#
# 1 0.012065 -0.005652 0.001691 0.000000 0.000000 0.000000
# 2 -0.005652 0.008819 -0.000858 0.000000 0.000000 0.000000
# 3 0.001691 -0.000858 0.015402 0.000000 0.000000 0.000000
# 4 0.000000 0.000000 0.000000 0.063015 0.000000 0.000000
# 5 0.000000 0.000000 0.000000 0.000000 0.168692 0.000000
# 6 0.000000 0.000000 0.000000 0.000000 0.000000 0.048773
#
#
# Mechanical properties :
#
#
# Convention : Reuss Voigt Hill
#
# Bulk Modulus (GPa) = 37.52602 53.65261 45.58931
# Shear Modulus (GPa) = 14.91262 27.12975 21.02118
#
# Velocity S-wave (km/s) = 2.69841 3.63960 3.20375
# Velocity P-wave (km/s) = 5.29447 6.62263 5.99544
#
# Compressibility (1/GPa) = 0.02664817
#
# Stress axis : x y z
#
# Youngs Moduli (GPa) = 82.88516 113.39213 64.92495
#
# Poissons Ratio (x) = 0.64091 -0.10979
# Poissons Ratio (y) = 0.46848 0.05570
# Poissons Ratio (z) = -0.14016 0.09727
#
# Static dielectric constant tensor:
#      x y z
#    x 1.723330 0.000000 0.000000 
#    y 0.000000 1.782270 0.000000 
#    z 0.000000 0.000000 1.762220 
# 
# From -- ./inp_files/4569.got.cif
#   From: 2010.05.17/outbox.cif.g08.bks.cpg/sg58_3_cif.got.tgz:4569.got - 2010.06.03 14:20:14.
