data_PCOD9444089
_publ_section_title
;
Structure prediction by ZEFSAII (Michael W. Deem and Ramdas Pophale) SiO2 
 PCOD9444089
Probable space group: P N N M
;
_chemical_formula_sum "Si O2"
_cell_formula_units_Z 40
_cell_length_a 30.060879
_cell_length_b 7.449720
_cell_length_c 9.209657
_cell_angle_alpha 90.000000
_cell_angle_beta 90.000000
_cell_angle_gamma 90.000000
_cell_volume 2062.457848
_symmetry_space_group_name_H-M "P N N M"
_symmetry_group_IT_number 58
_symmetry_cell_setting 'orthorhombic'
loop_
_space_group_symop_operation_xyz
x,y,z
-x,-y,z
1/2+x,1/2-y,1/2-z
1/2-x,1/2+y,1/2-z
-x,-y,-z
x,y,-z
1/2-x,1/2+y,1/2+z
1/2+x,1/2-y,1/2+z
loop_
_atom_site_type_symbol
_atom_site_label
_atom_site_fract_x
_atom_site_fract_y
_atom_site_fract_z
Si Si1 0.714394 0.722530 0.664049
Si Si2 0.548327 0.058617 0.176401
Si Si3 0.109089 0.132760 0.326418
Si Si4 0.696487 0.297799 0.663950
Si Si5 0.126088 0.716255 0.674361
O O1 0.720330 0.790817 0.500000
O O2 0.701978 0.513189 0.656566
O O3 0.760050 0.732533 0.752223
O O4 0.673032 0.815014 0.745812
O O5 0.564968 0.257935 0.216181
O O6 0.500000 0.000000 0.231236
O O7 0.587210 0.919840 0.218104
O O8 0.546310 0.053254 0.000000
O O9 0.114582 0.149289 0.500000
O O10 0.150973 0.228061 0.250816
O O11 0.110213 0.920817 0.293831
O O12 0.694397 0.227535 0.500000
O O13 0.133008 0.702347 0.500000
#
# Coordination Sequence:
#
# PCOD9444089 Si02
#       5
#     8   8   8   8   8
#     4  10  21  35  52  76 106 140 177 218 266 319
#     4   9  18  32  53  81 107 135 177 225 270 317
#     4   9  18  33  52  75 106 140 175 219 267 315
#     4  10  21  35  52  76 106 140 177 218 266 319
#     4   9  18  33  52  75 106 140 175 219 267 315
#
# _framework density 19.394335999999999
#
# number of rings (size 3 to 8) (size 9 to 14) (size 15 to 20)
#    0.000    2.600    0.000    1.200    2.800    3.200 
#    0.000    4.000    0.000    2.400    0.000    5.600 
#    0.000    0.000    0.000    0.000    0.000    0.000 
#
# Total GULP energy -223170.507071 kJ/mol
# GULP energy per Si atom -5579.262677 kJ/mol
# Density = 1.935019 g / cm^3
# Si number density = 19.394336 Si / 1000 Ang^3
#
#
#
# Elastic Constant Matrix: (Units=GPa)
#
#
# Indices 1 2 3 4 5 6 
#
# 1 63.4264 3.6365 8.6837 0.0000 0.0000 0.0000
# 2 3.6365 39.3374 10.6717 0.0000 0.0000 0.0000
# 3 8.6837 10.6717 34.8701 0.0000 0.0000 0.0000
# 4 0.0000 0.0000 0.0000 13.7242 0.0000 0.0000
# 5 0.0000 0.0000 0.0000 0.0000 22.2917 0.0000
# 6 0.0000 0.0000 0.0000 0.0000 0.0000 31.0939
#
#
#
# Elastic Compliance Matrix: (Units=1/GPa)
#
#
# Indices 1 2 3 4 5 6 
#
# 1 0.016330 -0.000443 -0.003931 0.000000 0.000000 0.000000
# 2 -0.000443 0.027735 -0.008378 0.000000 0.000000 0.000000
# 3 -0.003931 -0.008378 0.032221 0.000000 0.000000 0.000000
# 4 0.000000 0.000000 0.000000 0.072864 0.000000 0.000000
# 5 0.000000 0.000000 0.000000 0.000000 0.044860 0.000000
# 6 0.000000 0.000000 0.000000 0.000000 0.000000 0.032161
#
#
# Mechanical properties :
#
#
# Convention : Reuss Voigt Hill
#
# Bulk Modulus (GPa) = 19.69208 20.40195 20.04702
# Shear Modulus (GPa) = 18.61500 21.06476 19.83988
#
# Velocity S-wave (km/s) = 3.10145 3.29922 3.20186
# Velocity P-wave (km/s) = 4.79593 5.00555 4.90186
#
# Compressibility (1/GPa) = 0.05078183
#
# Stress axis : x y z
#
# Youngs Moduli (GPa) = 61.23729 36.05581 31.03594
#
# Poissons Ratio (x) = 0.01598 0.12200
# Poissons Ratio (y) = 0.02714 0.26001
# Poissons Ratio (z) = 0.24072 0.30206
#
# Static dielectric constant tensor:
#      x y z
#    x 1.652270 0.000000 0.000000 
#    y 0.000000 1.728160 0.000000 
#    z 0.000000 0.000000 1.672860 
# 
# From -- ./inp_files/2428.got.cif
#   From: 2010.05.17/outbox.cif.g08.bks.cpg/sg58_2_cif.got.tgz:2428.got - 2010.06.03 14:20:14.
