data_PCOD9444037
_publ_section_title
;
Structure prediction by ZEFSAII (Michael W. Deem and Ramdas Pophale) SiO2 
 PCOD9444037
Probable space group: P N N M
;
_chemical_formula_sum "Si O2"
_cell_formula_units_Z 48
_cell_length_a 12.639515
_cell_length_b 9.127271
_cell_length_c 16.997471
_cell_angle_alpha 90.000000
_cell_angle_beta 90.000000
_cell_angle_gamma 90.000000
_cell_volume 1960.900982
_symmetry_space_group_name_H-M "P N N M"
_symmetry_group_IT_number 58
_symmetry_cell_setting 'orthorhombic'
loop_
_space_group_symop_operation_xyz
x,y,z
-x,-y,z
1/2+x,1/2-y,1/2-z
1/2-x,1/2+y,1/2-z
-x,-y,-z
x,y,-z
1/2-x,1/2+y,1/2+z
1/2+x,1/2-y,1/2+z
loop_
_atom_site_type_symbol
_atom_site_label
_atom_site_fract_x
_atom_site_fract_y
_atom_site_fract_z
Si Si1 0.841556 0.842895 0.861694
Si Si2 0.880087 0.435533 0.000000
Si Si3 0.494330 0.672980 0.500000
Si Si4 0.319901 0.924140 0.091509
Si Si5 0.922263 0.836769 0.691242
Si Si6 0.748997 0.528162 0.847545
Si Si7 0.590885 0.895352 0.220458
O O1 0.926943 0.785094 0.923471
O O2 0.894665 0.877906 0.780135
O O3 0.764601 0.703941 0.843179
O O4 0.791492 0.991818 0.896693
O O5 0.813805 0.479730 0.924123
O O6 0.000000 0.500000 0.000000
O O7 0.897286 0.260818 0.000000
O O8 0.500000 0.500000 0.500000
O O9 0.349529 0.788412 0.148070
O O10 0.390772 0.049858 0.131540
O O11 0.339729 0.894431 0.000000
O O12 0.873422 0.977097 0.645995
O O13 0.035014 0.759815 0.707499
O O14 0.808568 0.441401 0.774819
O O15 0.500000 0.000000 0.257113
#
# Coordination Sequence:
#
# PCOD9444037 Si02
#       7
#     8   4   4   8   8   8   8
#     4  12  21  45  66  97 141 180 223 288 353 415
#     4  12  24  42  66  99 130 185 223 282 353 421
#     4  12  28  42  68 103 140 173 231 284 359 417
#     4  11  24  42  68  97 138 180 236 293 344 412
#     4  11  24  41  70 100 130 187 234 284 349 420
#     4  12  23  41  69  98 137 179 231 285 348 426
#     4  10  20  42  67  93 129 173 234 276 345 413
#
# _framework density 24.478543999999999
#
# number of rings (size 3 to 8) (size 9 to 14) (size 15 to 20)
#    0.000    0.667    7.500    1.500    3.500    3.000 
#    0.000    0.833    0.000    1.000    0.000    0.000 
#    0.000    0.000    0.000    0.000    0.000    0.000 
#
# Total GULP energy -267685.287280 kJ/mol
# GULP energy per Si atom -5576.776818 kJ/mol
# Density = 2.442283 g / cm^3
# Si number density = 24.478544 Si / 1000 Ang^3
#
#
#
# Elastic Constant Matrix: (Units=GPa)
#
#
# Indices 1 2 3 4 5 6 
#
# 1 49.8701 14.9316 13.8443 0.0000 0.0000 0.0000
# 2 14.9316 140.2259 6.1144 0.0000 0.0000 0.0000
# 3 13.8443 6.1144 147.8708 0.0000 0.0000 0.0000
# 4 0.0000 0.0000 0.0000 44.6629 0.0000 0.0000
# 5 0.0000 0.0000 0.0000 0.0000 91.6632 0.0000
# 6 0.0000 0.0000 0.0000 0.0000 0.0000 57.6105
#
#
#
# Elastic Compliance Matrix: (Units=1/GPa)
#
#
# Indices 1 2 3 4 5 6 
#
# 1 0.021231 -0.002178 -0.001898 0.000000 0.000000 0.000000
# 2 -0.002178 0.007368 -0.000101 0.000000 0.000000 0.000000
# 3 -0.001898 -0.000101 0.006944 0.000000 0.000000 0.000000
# 4 0.000000 0.000000 0.000000 0.022390 0.000000 0.000000
# 5 0.000000 0.000000 0.000000 0.000000 0.010909 0.000000
# 6 0.000000 0.000000 0.000000 0.000000 0.000000 0.017358
#
#
# Mechanical properties :
#
#
# Convention : Reuss Voigt Hill
#
# Bulk Modulus (GPa) = 36.77772 45.30525 41.04149
# Shear Modulus (GPa) = 48.25473 58.99245 53.62359
#
# Velocity S-wave (km/s) = 4.44476 4.91447 4.68550
# Velocity P-wave (km/s) = 6.43415 7.12397 6.78783
#
# Compressibility (1/GPa) = 0.02719037
#
# Stress axis : x y z
#
# Youngs Moduli (GPa) = 47.10090 135.72829 143.99897
#
# Poissons Ratio (x) = 0.29561 0.27326
# Poissons Ratio (y) = 0.10258 0.01451
# Poissons Ratio (z) = 0.08938 0.01367
#
# Static dielectric constant tensor:
#      x y z
#    x 2.170400 0.000000 0.000000 
#    y 0.000000 2.022790 0.000000 
#    z 0.000000 0.000000 1.861150 
# 
# From -- ./inp_files/26829.got.cif
#   From: 2010.05.17/outbox.cif.g08.bks.cpg/sg58_14_cif.got.tgz:26829.got - 2010.06.03 14:20:14.
