data_PCOD9444633
_publ_section_title
;
Structure prediction by ZEFSAII (Michael W. Deem and Ramdas Pophale) SiO2 
 PCOD9444633
Probable space group: P N N M
;
_chemical_formula_sum "Si O2"
_cell_formula_units_Z 48
_cell_length_a 12.166364
_cell_length_b 23.454459
_cell_length_c 8.245205
_cell_angle_alpha 90.000000
_cell_angle_beta 90.000000
_cell_angle_gamma 90.000000
_cell_volume 2352.814477
_symmetry_space_group_name_H-M "P N N M"
_symmetry_group_IT_number 58
_symmetry_cell_setting 'orthorhombic'
loop_
_space_group_symop_operation_xyz
x,y,z
-x,-y,z
1/2+x,1/2-y,1/2-z
1/2-x,1/2+y,1/2-z
-x,-y,-z
x,y,-z
1/2-x,1/2+y,1/2+z
1/2+x,1/2-y,1/2+z
loop_
_atom_site_type_symbol
_atom_site_label
_atom_site_fract_x
_atom_site_fract_y
_atom_site_fract_z
Si Si1 0.769093 0.120814 0.804969
Si Si2 0.002644 0.933484 0.198830
Si Si3 0.928378 0.333682 0.819562
Si Si4 0.949982 0.561913 0.690902
Si Si5 0.686807 0.348990 0.688519
Si Si6 0.125555 0.270227 0.311498
O O1 0.678697 0.071405 0.774380
O O2 0.711111 0.180345 0.751808
O O3 0.887773 0.100344 0.744854
O O4 0.778577 0.126593 0.000000
O O5 0.894913 0.898171 0.250075
O O6 0.004488 0.932908 0.000000
O O7 0.000000 0.000000 0.247700
O O8 0.802684 0.342193 0.775685
O O9 0.984534 0.394985 0.802662
O O10 0.002776 0.294975 0.703619
O O11 0.939257 0.310223 0.000000
O O12 0.965002 0.578308 0.500000
O O13 0.000000 0.500000 0.710392
O O14 0.708605 0.360867 0.500000
O O15 0.631694 0.287375 0.710733
O O16 0.150462 0.258423 0.500000
#
# Coordination Sequence:
#
# PCOD9444633 Si02
#       6
#     8   8   8   8   8   8
#     4   8  16  32  54  83 116 149 187 236 294 355
#     4   9  19  34  56  87 120 155 197 243 293 360
#     4  11  23  39  58  83 120 157 200 249 299 357
#     4   9  18  33  59  88 115 149 193 246 302 361
#     4  11  23  37  60  91 121 154 199 248 304 368
#     4  10  21  39  62  88 119 153 197 250 309 367
#
# _framework density 20.401098999999999
#
# number of rings (size 3 to 8) (size 9 to 14) (size 15 to 20)
#    0.000    2.333    0.000    3.500    4.667    0.333 
#    0.000    0.000    0.000    3.000    0.000    0.000 
#    0.000    0.000    0.000    0.000    0.000    0.000 
#
# Total GULP energy -267746.158243 kJ/mol
# GULP energy per Si atom -5578.044963 kJ/mol
# Density = 2.035466 g / cm^3
# Si number density = 20.401099 Si / 1000 Ang^3
#
#
#
# Elastic Constant Matrix: (Units=GPa)
#
#
# Indices 1 2 3 4 5 6 
#
# 1 112.0256 40.1083 0.7433 0.0000 0.0000 0.0000
# 2 40.1083 63.7756 -1.1407 0.0000 0.0000 0.0000
# 3 0.7433 -1.1407 18.4620 0.0000 0.0000 0.0000
# 4 0.0000 0.0000 0.0000 19.6839 0.0000 0.0000
# 5 0.0000 0.0000 0.0000 0.0000 21.7862 0.0000
# 6 0.0000 0.0000 0.0000 0.0000 0.0000 13.4535
#
#
#
# Elastic Compliance Matrix: (Units=1/GPa)
#
#
# Indices 1 2 3 4 5 6 
#
# 1 0.011536 -0.007271 -0.000914 0.000000 0.000000 0.000000
# 2 -0.007271 0.020280 0.001546 0.000000 0.000000 0.000000
# 3 -0.000914 0.001546 0.054298 0.000000 0.000000 0.000000
# 4 0.000000 0.000000 0.000000 0.050803 0.000000 0.000000
# 5 0.000000 0.000000 0.000000 0.000000 0.045901 0.000000
# 6 0.000000 0.000000 0.000000 0.000000 0.000000 0.074330
#
#
# Mechanical properties :
#
#
# Convention : Reuss Voigt Hill
#
# Bulk Modulus (GPa) = 13.72952 30.40944 22.06948
# Shear Modulus (GPa) = 16.96615 21.28819 19.12717
#
# Velocity S-wave (km/s) = 2.88693 3.23380 3.06528
# Velocity P-wave (km/s) = 4.22574 5.37415 4.83417
#
# Compressibility (1/GPa) = 0.07283576
#
# Stress axis : x y z
#
# Youngs Moduli (GPa) = 86.68585 49.30845 18.41702
#
# Poissons Ratio (x) = 0.35853 0.01683
# Poissons Ratio (y) = 0.63031 -0.02847
# Poissons Ratio (z) = 0.07921 -0.07622
#
# Static dielectric constant tensor:
#      x y z
#    x 1.749700 0.000000 0.000000 
#    y 0.000000 1.732060 0.000000 
#    z 0.000000 0.000000 1.712680 
# 
# From -- ./inp_files/4225.got.cif
#   From: 2010.05.17/outbox.cif.g08.bks.cpg/sg58_3_cif.got.tgz:4225.got - 2010.06.03 14:20:14.
