data_PCOD9444342
_publ_section_title
;
Structure prediction by ZEFSAII (Michael W. Deem and Ramdas Pophale) SiO2 
 PCOD9444342
Probable space group: P N N M
;
_chemical_formula_sum "Si O2"
_cell_formula_units_Z 64
_cell_length_a 15.030872
_cell_length_b 26.460837
_cell_length_c 8.629191
_cell_angle_alpha 90.000000
_cell_angle_beta 90.000000
_cell_angle_gamma 90.000000
_cell_volume 3432.083425
_symmetry_space_group_name_H-M "P N N M"
_symmetry_group_IT_number 58
_symmetry_cell_setting 'orthorhombic'
loop_
_space_group_symop_operation_xyz
x,y,z
-x,-y,z
1/2+x,1/2-y,1/2-z
1/2-x,1/2+y,1/2-z
-x,-y,-z
x,y,-z
1/2-x,1/2+y,1/2+z
1/2+x,1/2-y,1/2+z
loop_
_atom_site_type_symbol
_atom_site_label
_atom_site_fract_x
_atom_site_fract_y
_atom_site_fract_z
Si Si1 0.638291 0.632965 0.815009
Si Si2 0.995054 0.669671 0.816857
Si Si3 0.998597 0.781479 0.686150
Si Si4 0.663287 0.889581 0.185462
Si Si5 0.103316 0.499558 0.311604
Si Si6 0.853703 0.864964 0.315449
Si Si7 0.328247 0.890544 0.185452
Si Si8 0.995305 0.941446 0.815000
O O1 0.584686 0.684220 0.774943
O O2 0.739610 0.631374 0.762027
O O3 0.584618 0.587646 0.733924
O O4 0.631420 0.626912 0.000000
O O5 0.998234 0.728290 0.770378
O O6 0.913535 0.642430 0.730690
O O7 0.085513 0.642706 0.763182
O O8 0.983442 0.664059 0.000000
O O9 0.998410 0.773575 0.500000
O O10 0.912496 0.815676 0.725782
O O11 0.650633 0.948294 0.233915
O O12 0.759350 0.869073 0.233053
O O13 0.652593 0.887189 0.000000
O O14 0.101862 0.498360 0.500000
O O15 0.152006 0.448242 0.261765
O O16 0.000000 0.500000 0.260401
O O17 0.841236 0.864837 0.500000
O O18 0.914635 0.912366 0.266897
O O19 0.317480 0.890692 0.000000
O O20 0.983415 0.937915 0.000000
O O21 0.000000 0.000000 0.771425
#
# Coordination Sequence:
#
# PCOD9444342 Si02
#       8
#     8   8   8   8   8   8   8   8
#     4  10  22  40  61  89 122 154 196 252 305 351
#     4  12  25  40  61  90 120 152 201 255 303 352
#     4   9  21  43  65  83 115 159 199 244 303 362
#     4  11  22  39  63  89 121 161 202 242 295 361
#     4   9  18  36  60  85 116 157 200 240 283 347
#     4  10  22  40  61  89 122 154 196 252 305 351
#     4  11  22  39  63  89 121 161 202 242 295 361
#     4  10  21  37  58  85 118 161 206 242 289 359
#
# _framework density 18.647566000000001
#
# number of rings (size 3 to 8) (size 9 to 14) (size 15 to 20)
#    0.000    1.750    1.250    3.750    1.750    5.000 
#    0.000    2.500    0.000    0.000    0.000    0.000 
#    0.000    0.000    0.000    0.000    0.000    0.000 
#
# Total GULP energy -357599.683869 kJ/mol
# GULP energy per Si atom -5587.495060 kJ/mol
# Density = 1.860512 g / cm^3
# Si number density = 18.647566 Si / 1000 Ang^3
#
#
#
# Elastic Constant Matrix: (Units=GPa)
#
#
# Indices 1 2 3 4 5 6 
#
# 1 86.0538 20.4324 -12.2692 0.0000 0.0000 0.0000
# 2 20.4324 115.2510 15.6703 0.0000 0.0000 0.0000
# 3 -12.2692 15.6703 21.8165 0.0000 0.0000 0.0000
# 4 0.0000 0.0000 0.0000 27.7283 0.0000 0.0000
# 5 0.0000 0.0000 0.0000 0.0000 41.7152 0.0000
# 6 0.0000 0.0000 0.0000 0.0000 0.0000 -5.9304
#
#
#
# Elastic Compliance Matrix: (Units=1/GPa)
#
#
# Indices 1 2 3 4 5 6 
#
# 1 0.014098 -0.003965 0.010776 0.000000 0.000000 0.000000
# 2 -0.003965 0.010731 -0.009937 0.000000 0.000000 0.000000
# 3 0.010776 -0.009937 0.059035 0.000000 0.000000 0.000000
# 4 0.000000 0.000000 0.000000 0.036064 0.000000 0.000000
# 5 0.000000 0.000000 0.000000 0.000000 0.023972 0.000000
# 6 0.000000 0.000000 0.000000 0.000000 0.000000 -0.168621
#
#
# Mechanical properties :
#
#
# Convention : Reuss Voigt Hill
#
# Bulk Modulus (GPa) = 12.88445 30.08760 21.48602
# Shear Modulus (GPa) = 675.58423 25.98847 350.78635
#
# Velocity S-wave (km/s) = 19.05459 3.73723 13.73034
# Velocity P-wave (km/s) = 22.15914 5.89851 16.21450
#
# Compressibility (1/GPa) = 0.07761296
#
# Stress axis : x y z
#
# Youngs Moduli (GPa) = 70.92974 93.19023 16.93914
#
# Poissons Ratio (x) = 0.36947 -0.18254
# Poissons Ratio (y) = 0.28121 0.16833
# Poissons Ratio (z) = -0.76437 0.92606
#
# Static dielectric constant tensor:
#      x y z
#    x 1.636680 0.000000 0.000000 
#    y 0.000000 1.627440 0.000000 
#    z 0.000000 0.000000 1.627370 
# 
# From -- ./inp_files/6948.got.cif
#   From: 2010.05.17/outbox.cif.g08.bks.cpg/sg58_4_cif.got.tgz:6948.got - 2010.06.03 14:20:14.
