data_PCOD9444555
_publ_section_title
;
Structure prediction by ZEFSAII (Michael W. Deem and Ramdas Pophale) SiO2 
 PCOD9444555
Probable space group: P N N M
;
_chemical_formula_sum "Si O2"
_cell_formula_units_Z 34
_cell_length_a 8.987651
_cell_length_b 17.297176
_cell_length_c 10.119456
_cell_angle_alpha 90.000000
_cell_angle_beta 90.000000
_cell_angle_gamma 90.000000
_cell_volume 1573.180559
_symmetry_space_group_name_H-M "P N N M"
_symmetry_group_IT_number 58
_symmetry_cell_setting 'orthorhombic'
loop_
_space_group_symop_operation_xyz
x,y,z
-x,-y,z
1/2+x,1/2-y,1/2-z
1/2-x,1/2+y,1/2-z
-x,-y,-z
x,y,-z
1/2-x,1/2+y,1/2+z
1/2+x,1/2-y,1/2+z
loop_
_atom_site_type_symbol
_atom_site_label
_atom_site_fract_x
_atom_site_fract_y
_atom_site_fract_z
Si Si1 0.991938 0.586329 0.288717
Si Si2 0.981598 0.791309 0.000000
Si Si3 0.677491 0.187051 0.000000
Si Si4 0.659294 0.396139 0.710343
Si Si5 0.341613 0.625690 0.000000
Si Si6 0.495807 0.891820 0.500000
Si Si7 0.000000 0.000000 0.000000
O O1 0.162952 0.613736 0.281891
O O2 0.931002 0.579823 0.138690
O O3 0.000000 0.500000 0.345383
O O4 0.897516 0.645681 0.374701
O O5 0.902965 0.822605 0.869201
O O6 0.146000 0.828744 0.000000
O O7 0.985326 0.700372 0.000000
O O8 0.659776 0.280006 0.000000
O O9 0.595077 0.399908 0.858586
O O10 0.612484 0.466443 0.616391
O O11 0.172732 0.592795 0.000000
#
# Coordination Sequence:
#
# PCOD9444555 Si02
#       7
#     8   4   4   8   4   4   2
#     4  11  23  38  62  88 120 160 201 244 300 354
#     4  10  21  38  63  88 118 157 199 248 299 353
#     4  11  22  36  62  91 116 151 207 244 298 357
#     4  10  22  39  62  84 122 157 198 242 303 349
#     4   9  20  40  60  88 118 156 195 254 297 348
#     4   9  20  41  61  86 120 155 201 254 296 350
#     4  10  22  36  62  82 116 152 196 224 294 360
#
# _framework density 21.612268
#
# number of rings (size 3 to 8) (size 9 to 14) (size 15 to 20)
#    0.000    1.882    0.000    3.529    6.588    0.471 
#    0.000    3.529    0.000    0.000    0.000    0.000 
#    0.000    0.000    0.000    0.000    0.000    0.000 
#
# Total GULP energy -189356.698738 kJ/mol
# GULP energy per Si atom -5569.314669 kJ/mol
# Density = 2.156308 g / cm^3
# Si number density = 21.612268 Si / 1000 Ang^3
#
#
#
# Elastic Constant Matrix: (Units=GPa)
#
#
# Indices 1 2 3 4 5 6 
#
# 1 54.5050 17.8681 30.9274 0.0000 0.0000 0.0000
# 2 17.8681 43.0923 31.2741 0.0000 0.0000 0.0000
# 3 30.9274 31.2741 215.0634 0.0000 0.0000 0.0000
# 4 0.0000 0.0000 0.0000 65.0725 0.0000 0.0000
# 5 0.0000 0.0000 0.0000 0.0000 -29.4909 0.0000
# 6 0.0000 0.0000 0.0000 0.0000 0.0000 21.9092
#
#
#
# Elastic Compliance Matrix: (Units=1/GPa)
#
#
# Indices 1 2 3 4 5 6 
#
# 1 0.022017 -0.007637 -0.002056 0.000000 0.000000 0.000000
# 2 -0.007637 0.028593 -0.003060 0.000000 0.000000 0.000000
# 3 -0.002056 -0.003060 0.005390 0.000000 0.000000 0.000000
# 4 0.000000 0.000000 0.000000 0.015367 0.000000 0.000000
# 5 0.000000 0.000000 0.000000 0.000000 -0.033909 0.000000
# 6 0.000000 0.000000 0.000000 0.000000 0.000000 0.045643
#
#
# Mechanical properties :
#
#
# Convention : Reuss Voigt Hill
#
# Bulk Modulus (GPa) = 32.79187 52.53331 42.66259
# Shear Modulus (GPa) = 42.09715 27.00425 34.55070
#
# Velocity S-wave (km/s) = 4.41822 3.53864 4.00266
# Velocity P-wave (km/s) = 6.42131 6.40749 6.41441
#
# Compressibility (1/GPa) = 0.03049536
#
# Stress axis : x y z
#
# Youngs Moduli (GPa) = 45.41931 34.97309 185.51755
#
# Poissons Ratio (x) = 0.26711 0.38134
# Poissons Ratio (y) = 0.34689 0.56763
# Poissons Ratio (z) = 0.09336 0.10701
#
# Static dielectric constant tensor:
#      x y z
#    x 1.753200 0.000000 0.000000 
#    y 0.000000 1.820030 0.000000 
#    z 0.000000 0.000000 1.815260 
# 
# From -- ./inp_files/2339.got.cif
#   From: 2010.05.17/outbox.cif.g08.bks.cpg/sg58_2_cif.got.tgz:2339.got - 2010.06.03 14:20:14.
