data_PCOD9444560
_publ_section_title
;
Structure prediction by ZEFSAII (Michael W. Deem and Ramdas Pophale) SiO2 
 PCOD9444560
Probable space group: P N N M
;
_chemical_formula_sum "Si O2"
_cell_formula_units_Z 64
_cell_length_a 15.900960
_cell_length_b 12.149386
_cell_length_c 14.764613
_cell_angle_alpha 90.000000
_cell_angle_beta 90.000000
_cell_angle_gamma 90.000000
_cell_volume 2852.329827
_symmetry_space_group_name_H-M "P N N M"
_symmetry_group_IT_number 58
_symmetry_cell_setting 'orthorhombic'
loop_
_space_group_symop_operation_xyz
x,y,z
-x,-y,z
1/2+x,1/2-y,1/2-z
1/2-x,1/2+y,1/2-z
-x,-y,-z
x,y,-z
1/2-x,1/2+y,1/2+z
1/2+x,1/2-y,1/2+z
loop_
_atom_site_type_symbol
_atom_site_label
_atom_site_fract_x
_atom_site_fract_y
_atom_site_fract_z
Si Si1 0.408437 0.959821 0.865733
Si Si2 0.902697 0.020894 0.101451
Si Si3 0.697847 0.247168 0.102685
Si Si4 0.088770 0.451302 0.848933
Si Si5 0.275584 0.501623 0.897612
Si Si6 0.835061 0.172241 0.752518
Si Si7 0.144382 0.211368 0.103517
Si Si8 0.340471 0.184336 0.097668
O O1 0.408265 0.968998 0.757971
O O2 0.342931 0.052418 0.898422
O O3 0.500000 0.000000 0.897725
O O4 0.379875 0.837895 0.892504
O O5 0.891304 0.121037 0.169117
O O6 0.867796 0.908440 0.145879
O O7 0.865807 0.038305 0.000000
O O8 0.000000 0.000000 0.091221
O O9 0.684395 0.377469 0.111834
O O10 0.756370 0.215571 0.188236
O O11 0.734022 0.233661 0.000000
O O12 0.173473 0.505493 0.889695
O O13 0.099119 0.319897 0.861749
O O14 0.000000 0.500000 0.883420
O O15 0.307773 0.422856 0.817930
O O16 0.294575 0.461505 0.000000
O O17 0.878271 0.264623 0.689244
O O18 0.244635 0.226626 0.101756
O O19 0.114933 0.198055 0.000000
O O20 0.377441 0.216691 0.000000
#
# Coordination Sequence:
#
# PCOD9444560 Si02
#       8
#     8   8   8   8   8   8   8   8
#     4  11  24  42  66  97 134 171 220 279 335 390
#     4  10  24  43  65  96 132 172 220 276 338 396
#     4  11  24  41  66  97 129 169 216 277 337 389
#     4  11  23  39  64 101 137 172 221 271 336 403
#     4  11  24  42  65  97 136 175 219 274 331 391
#     4  12  23  40  69  94 128 173 222 271 321 397
#     4  10  21  38  63  92 128 173 218 266 324 404
#     4  11  23  41  66  94 127 175 225 266 323 396
#
# _framework density 22.437798000000001
#
# number of rings (size 3 to 8) (size 9 to 14) (size 15 to 20)
#    0.000    1.125    2.500    3.000    3.500    6.000 
#    0.000    2.500    0.000    0.750    0.000    0.000 
#    0.000    0.000    0.000    0.000    0.000    0.000 
#
# Total GULP energy -357363.121625 kJ/mol
# GULP energy per Si atom -5583.798775 kJ/mol
# Density = 2.238673 g / cm^3
# Si number density = 22.437798 Si / 1000 Ang^3
#
#
#
# Elastic Constant Matrix: (Units=GPa)
#
#
# Indices 1 2 3 4 5 6 
#
# 1 18.5477 3.1579 -4.5453 0.0000 0.0000 0.0000
# 2 3.1579 94.0777 29.1689 0.0000 0.0000 0.0000
# 3 -4.5453 29.1689 143.6384 0.0000 0.0000 0.0000
# 4 0.0000 0.0000 0.0000 44.9248 0.0000 0.0000
# 5 0.0000 0.0000 0.0000 0.0000 25.5992 0.0000
# 6 0.0000 0.0000 0.0000 0.0000 0.0000 19.5581
#
#
#
# Elastic Compliance Matrix: (Units=1/GPa)
#
#
# Indices 1 2 3 4 5 6 
#
# 1 0.054900 -0.002541 0.002253 0.000000 0.000000 0.000000
# 2 -0.002541 0.011461 -0.002408 0.000000 0.000000 0.000000
# 3 0.002253 -0.002408 0.007522 0.000000 0.000000 0.000000
# 4 0.000000 0.000000 0.000000 0.022259 0.000000 0.000000
# 5 0.000000 0.000000 0.000000 0.000000 0.039064 0.000000
# 6 0.000000 0.000000 0.000000 0.000000 0.000000 0.051130
#
#
# Mechanical properties :
#
#
# Convention : Reuss Voigt Hill
#
# Bulk Modulus (GPa) = 14.60034 34.64741 24.62387
# Shear Modulus (GPa) = 23.30361 33.24858 28.27610
#
# Velocity S-wave (km/s) = 3.22621 3.85361 3.55378
# Velocity P-wave (km/s) = 4.51653 5.93931 5.27610
#
# Compressibility (1/GPa) = 0.06849154
#
# Stress axis : x y z
#
# Youngs Moduli (GPa) = 18.21494 87.24939 132.93961
#
# Poissons Ratio (x) = 0.22174 -0.29956
# Poissons Ratio (y) = 0.04629 0.32011
# Poissons Ratio (z) = -0.04105 0.21009
#
# Static dielectric constant tensor:
#      x y z
#    x 1.839940 0.000000 0.000000 
#    y 0.000000 1.648530 0.000000 
#    z 0.000000 0.000000 1.862120 
# 
# From -- ./inp_files/22970.got.cif
#   From: 2010.05.17/outbox.cif.g08.bks.cpg/sg58_12_cif.got.tgz:22970.got - 2010.06.03 14:20:14.
