data_PCOD9444126
_publ_section_title
;
Structure prediction by ZEFSAII (Michael W. Deem and Ramdas Pophale) SiO2 
 PCOD9444126
Probable space group: P N N M
;
_chemical_formula_sum "Si O2"
_cell_formula_units_Z 58
_cell_length_a 27.875098
_cell_length_b 12.257138
_cell_length_c 7.383192
_cell_angle_alpha 90.000000
_cell_angle_beta 90.000000
_cell_angle_gamma 90.000000
_cell_volume 2522.607259
_symmetry_space_group_name_H-M "P N N M"
_symmetry_group_IT_number 58
_symmetry_cell_setting 'orthorhombic'
loop_
_space_group_symop_operation_xyz
x,y,z
-x,-y,z
1/2+x,1/2-y,1/2-z
1/2-x,1/2+y,1/2-z
-x,-y,-z
x,y,-z
1/2-x,1/2+y,1/2+z
1/2+x,1/2-y,1/2+z
loop_
_atom_site_type_symbol
_atom_site_label
_atom_site_fract_x
_atom_site_fract_y
_atom_site_fract_z
Si Si1 0.498291 0.829719 0.280774
Si Si2 0.559404 0.373168 0.703340
Si Si3 0.891693 0.310468 0.781935
Si Si4 0.182735 0.500449 0.710732
Si Si5 0.000000 0.500000 0.500000
Si Si6 0.149582 0.270449 0.709661
Si Si7 0.122133 0.936562 0.778336
Si Si8 0.214188 0.076635 0.219082
O O1 0.492076 0.841238 0.500000
O O2 0.479984 0.709888 0.223627
O O3 0.554167 0.838773 0.228887
O O4 0.474876 0.923275 0.160567
O O5 0.543061 0.399031 0.500000
O O6 0.607365 0.297949 0.697229
O O7 0.578311 0.486144 0.785500
O O8 0.854147 0.400235 0.720264
O O9 0.880432 0.187942 0.719860
O O10 0.890626 0.309507 0.000000
O O11 0.191720 0.473539 0.500000
O O12 0.160243 0.389523 0.787512
O O13 0.234023 0.538352 0.785711
O O14 0.134794 0.278642 0.500000
O O15 0.197209 0.196113 0.720380
O O16 0.171912 0.993811 0.725240
O O17 0.120338 0.938502 0.000000
O O18 0.214989 0.079290 0.000000
#
# Coordination Sequence:
#
# PCOD9444126 Si02
#       8
#     8   8   8   8   2   8   8   8
#     4  10  24  41  63  96 124 164 216 252 313 378
#     4   9  19  38  62  86 117 157 201 248 296 368
#     4  10  22  38  59  90 121 154 200 251 303 374
#     4  10  23  37  55  80 117 157 195 243 304 368
#     4  12  26  40  68  84 132 176 194 268 302 366
#     4  10  21  35  57  85 113 146 197 247 299 364
#     4   8  16  35  63  85 113 155 198 249 308 356
#     4   9  19  38  58  81 111 153 200 244 301 367
#
# _framework density 22.992084999999999
#
# number of rings (size 3 to 8) (size 9 to 14) (size 15 to 20)
#    0.000    2.483    0.000    1.448    5.793    2.207 
#    0.000    5.517    0.000    0.828    0.000    0.000 
#    0.000    0.000    0.000    0.000    0.000    0.000 
#
# Total GULP energy -323450.789985 kJ/mol
# GULP energy per Si atom -5576.737758 kJ/mol
# Density = 2.293975 g / cm^3
# Si number density = 22.992085 Si / 1000 Ang^3
#
#
#
# Elastic Constant Matrix: (Units=GPa)
#
#
# Indices 1 2 3 4 5 6 
#
# 1 58.6991 28.1045 1.8500 0.0000 0.0000 0.0000
# 2 28.1045 164.7858 5.1469 0.0000 0.0000 0.0000
# 3 1.8500 5.1469 93.8587 0.0000 0.0000 0.0000
# 4 0.0000 0.0000 0.0000 -50.3497 0.0000 0.0000
# 5 0.0000 0.0000 0.0000 0.0000 11.6262 0.0000
# 6 0.0000 0.0000 0.0000 0.0000 0.0000 22.7502
#
#
#
# Elastic Compliance Matrix: (Units=1/GPa)
#
#
# Indices 1 2 3 4 5 6 
#
# 1 0.018554 -0.003158 -0.000193 0.000000 0.000000 0.000000
# 2 -0.003158 0.006617 -0.000301 0.000000 0.000000 0.000000
# 3 -0.000193 -0.000301 0.010675 0.000000 0.000000 0.000000
# 4 0.000000 0.000000 0.000000 -0.019861 0.000000 0.000000
# 5 0.000000 0.000000 0.000000 0.000000 0.086013 0.000000
# 6 0.000000 0.000000 0.000000 0.000000 0.000000 0.043956
#
#
# Mechanical properties :
#
#
# Convention : Reuss Voigt Hill
#
# Bulk Modulus (GPa) = 35.03562 43.06070 39.04816
# Shear Modulus (GPa) = 30.71817 15.62149 23.16983
#
# Velocity S-wave (km/s) = 3.65914 2.60941 3.17792
# Velocity P-wave (km/s) = 5.75531 5.27711 5.52139
#
# Compressibility (1/GPa) = 0.02854238
#
# Stress axis : x y z
#
# Youngs Moduli (GPa) = 53.89573 151.13609 93.68046
#
# Poissons Ratio (x) = 0.47736 0.01804
# Poissons Ratio (y) = 0.17023 0.02816
# Poissons Ratio (z) = 0.01038 0.04543
#
# Static dielectric constant tensor:
#      x y z
#    x 1.858910 0.000000 0.000000 
#    y 0.000000 1.878340 0.000000 
#    z 0.000000 0.000000 1.873670 
# 
# From -- ./inp_files/4577.got.cif
#   From: 2010.05.17/outbox.cif.g08.bks.cpg/sg58_3_cif.got.tgz:4577.got - 2010.06.03 14:20:14.
