data_PCOD9444511
_publ_section_title
;
Structure prediction by ZEFSAII (Michael W. Deem and Ramdas Pophale) SiO2 
 PCOD9444511
Probable space group: P N N M
;
_chemical_formula_sum "Si O2"
_cell_formula_units_Z 56
_cell_length_a 9.713750
_cell_length_b 21.672444
_cell_length_c 14.123830
_cell_angle_alpha 90.000000
_cell_angle_beta 90.000000
_cell_angle_gamma 90.000000
_cell_volume 2973.358619
_symmetry_space_group_name_H-M "P N N M"
_symmetry_group_IT_number 58
_symmetry_cell_setting 'orthorhombic'
loop_
_space_group_symop_operation_xyz
x,y,z
-x,-y,z
1/2+x,1/2-y,1/2-z
1/2-x,1/2+y,1/2-z
-x,-y,-z
x,y,-z
1/2-x,1/2+y,1/2+z
1/2+x,1/2-y,1/2+z
loop_
_atom_site_type_symbol
_atom_site_label
_atom_site_fract_x
_atom_site_fract_y
_atom_site_fract_z
Si Si1 0.225522 0.037936 0.205629
Si Si2 0.714605 0.273119 0.611836
Si Si3 0.662199 0.008908 0.390209
Si Si4 0.941141 0.371259 0.613073
Si Si5 0.681705 0.637453 0.890321
Si Si6 0.502559 0.359827 0.709446
Si Si7 0.253901 0.904151 0.887525
O O1 0.352165 0.075232 0.160814
O O2 0.090049 0.078223 0.188256
O O3 0.251488 0.031606 0.317256
O O4 0.226521 0.970075 0.161207
O O5 0.681501 0.285255 0.500000
O O6 0.859902 0.307755 0.631726
O O7 0.734678 0.200652 0.624464
O O8 0.602123 0.304038 0.679856
O O9 0.682891 0.992365 0.500000
O O10 0.718412 0.078608 0.376971
O O11 0.500000 0.000000 0.369021
O O12 0.937796 0.380676 0.500000
O O13 0.098879 0.376945 0.643321
O O14 0.556814 0.637287 0.815729
O O15 0.634464 0.636580 0.000000
O O16 0.368408 0.359761 0.643812
O O17 0.255011 0.912593 0.000000
#
# Coordination Sequence:
#
# PCOD9444511 Si02
#       7
#     8   8   8   8   8   8   8
#     4  11  21  35  55  83 120 155 189 239 295 355
#     4   9  20  41  63  84 117 155 195 242 297 356
#     4  10  21  38  61  86 114 154 202 245 289 344
#     4   9  19  35  58  86 116 156 194 232 291 362
#     4  10  22  41  63  84 116 160 201 246 299 350
#     4  11  23  37  57  89 116 151 196 240 301 353
#     4  11  21  33  55  87 122 155 193 240 292 355
#
# _framework density 18.833921
#
# number of rings (size 3 to 8) (size 9 to 14) (size 15 to 20)
#    0.000    1.857    1.429    2.571    0.000    5.143 
#    2.571    1.429    0.000    0.857    0.000    0.000 
#    0.000    0.000    0.000    0.000    0.000    0.000 
#
# Total GULP energy -312601.254501 kJ/mol
# GULP energy per Si atom -5582.165259 kJ/mol
# Density = 1.879105 g / cm^3
# Si number density = 18.833921 Si / 1000 Ang^3
#
#
#
# Elastic Constant Matrix: (Units=GPa)
#
#
# Indices 1 2 3 4 5 6 
#
# 1 135.8458 33.9932 44.9781 0.0000 0.0000 0.0000
# 2 33.9932 38.9665 2.5031 0.0000 0.0000 0.0000
# 3 44.9781 2.5031 52.7596 0.0000 0.0000 0.0000
# 4 0.0000 0.0000 0.0000 6.9893 0.0000 0.0000
# 5 0.0000 0.0000 0.0000 0.0000 35.9828 0.0000
# 6 0.0000 0.0000 0.0000 0.0000 0.0000 10.7665
#
#
#
# Elastic Compliance Matrix: (Units=1/GPa)
#
#
# Indices 1 2 3 4 5 6 
#
# 1 0.014011 -0.011490 -0.011399 0.000000 0.000000 0.000000
# 2 -0.011490 0.035165 0.008127 0.000000 0.000000 0.000000
# 3 -0.011399 0.008127 0.028286 0.000000 0.000000 0.000000
# 4 0.000000 0.000000 0.000000 0.143076 0.000000 0.000000
# 5 0.000000 0.000000 0.000000 0.000000 0.027791 0.000000
# 6 0.000000 0.000000 0.000000 0.000000 0.000000 0.092881
#
#
# Mechanical properties :
#
#
# Convention : Reuss Voigt Hill
#
# Bulk Modulus (GPa) = 20.86062 43.39120 32.12591
# Shear Modulus (GPa) = 12.92946 20.48754 16.70850
#
# Velocity S-wave (km/s) = 2.62295 3.30176 2.98174
# Velocity P-wave (km/s) = 4.50259 6.13387 5.38041
#
# Compressibility (1/GPa) = 0.04793721
#
# Stress axis : x y z
#
# Youngs Moduli (GPa) = 71.37370 28.43760 35.35291
#
# Poissons Ratio (x) = 0.32676 0.40299
# Poissons Ratio (y) = 0.82010 -0.28732
# Poissons Ratio (z) = 0.81360 -0.23112
#
# Static dielectric constant tensor:
#      x y z
#    x 1.645250 0.000000 0.000000 
#    y 0.000000 1.630540 0.000000 
#    z 0.000000 0.000000 1.667850 
# 
# From -- ./inp_files/20128.got.cif
#   From: 2010.05.17/outbox.cif.g08.bks.cpg/sg58_11_cif.got.tgz:20128.got - 2010.06.03 14:20:14.
