data_PCOD9444634
_publ_section_title
;
Structure prediction by ZEFSAII (Michael W. Deem and Ramdas Pophale) SiO2 
 PCOD9444634
Probable space group: P N N M
;
_chemical_formula_sum "Si O2"
_cell_formula_units_Z 48
_cell_length_a 9.401504
_cell_length_b 28.723693
_cell_length_c 9.389802
_cell_angle_alpha 90.000000
_cell_angle_beta 90.000000
_cell_angle_gamma 90.000000
_cell_volume 2535.677669
_symmetry_space_group_name_H-M "P N N M"
_symmetry_group_IT_number 58
_symmetry_cell_setting 'orthorhombic'
loop_
_space_group_symop_operation_xyz
x,y,z
-x,-y,z
1/2+x,1/2-y,1/2-z
1/2-x,1/2+y,1/2-z
-x,-y,-z
x,y,-z
1/2-x,1/2+y,1/2+z
1/2+x,1/2-y,1/2+z
loop_
_atom_site_type_symbol
_atom_site_label
_atom_site_fract_x
_atom_site_fract_y
_atom_site_fract_z
Si Si1 0.709372 0.717692 0.168890
Si Si2 0.999938 0.696307 0.330086
Si Si3 0.335173 0.012957 0.662273
Si Si4 0.888152 0.042383 0.164497
Si Si5 0.000787 0.131710 0.330895
Si Si6 0.323746 0.121666 0.329705
O O1 0.620230 0.764480 0.196908
O O2 0.602040 0.674959 0.198715
O O3 0.851673 0.712202 0.260370
O O4 0.744799 0.716448 0.000000
O O5 0.984068 0.691060 0.500000
O O6 0.057507 0.649425 0.256601
O O7 0.279042 0.009100 0.500000
O O8 0.319364 0.066823 0.705932
O O9 0.500000 0.000000 0.661106
O O10 0.251785 0.977617 0.761475
O O11 0.948632 0.086806 0.246120
O O12 0.863691 0.053971 0.000000
O O13 0.000000 0.000000 0.172693
O O14 0.994564 0.121782 0.500000
O O15 0.166255 0.141482 0.297903
O O16 0.350327 0.125599 0.500000
#
# Coordination Sequence:
#
# PCOD9444634 Si02
#       6
#     8   8   8   8   8   8
#     4  10  23  42  63  89 119 155 197 242 290 354
#     4  11  24  41  64  92 123 156 194 243 302 356
#     4  10  22  39  61  87 117 161 210 249 291 353
#     4  11  23  38  58  88 124 158 196 249 305 354
#     4  10  21  39  64  87 114 158 208 246 288 354
#     4  10  21  39  62  88 121 160 202 250 297 350
#
# _framework density 18.929849000000001
#
# number of rings (size 3 to 8) (size 9 to 14) (size 15 to 20)
#    0.000    1.667    1.667    2.000    2.333    5.667 
#    0.000    0.000    0.000    0.000    0.000    0.000 
#    0.000    0.000    0.000    0.000    0.000    0.000 
#
# Total GULP energy -268236.766993 kJ/mol
# GULP energy per Si atom -5588.265979 kJ/mol
# Density = 1.888676 g / cm^3
# Si number density = 18.929849 Si / 1000 Ang^3
#
#
#
# Elastic Constant Matrix: (Units=GPa)
#
#
# Indices 1 2 3 4 5 6 
#
# 1 87.0992 8.9744 36.1084 0.0000 0.0000 0.0000
# 2 8.9744 51.8816 24.3321 0.0000 0.0000 0.0000
# 3 36.1084 24.3321 39.7501 0.0000 0.0000 0.0000
# 4 0.0000 0.0000 0.0000 23.5767 0.0000 0.0000
# 5 0.0000 0.0000 0.0000 0.0000 97.3345 0.0000
# 6 0.0000 0.0000 0.0000 0.0000 0.0000 29.1065
#
#
#
# Elastic Compliance Matrix: (Units=1/GPa)
#
#
# Indices 1 2 3 4 5 6 
#
# 1 0.020145 0.007151 -0.022677 0.000000 0.000000 0.000000
# 2 0.007151 0.029574 -0.024599 0.000000 0.000000 0.000000
# 3 -0.022677 -0.024599 0.060814 0.000000 0.000000 0.000000
# 4 0.000000 0.000000 0.000000 0.042415 0.000000 0.000000
# 5 0.000000 0.000000 0.000000 0.000000 0.010274 0.000000
# 6 0.000000 0.000000 0.000000 0.000000 0.000000 0.034357
#
#
# Mechanical properties :
#
#
# Convention : Reuss Voigt Hill
#
# Bulk Modulus (GPa) = 33.02095 35.28450 34.15273
# Shear Modulus (GPa) = 17.36574 37.29128 27.32851
#
# Velocity S-wave (km/s) = 3.03210 4.44325 3.80369
# Velocity P-wave (km/s) = 5.45343 6.70846 6.11324
#
# Compressibility (1/GPa) = 0.03028380
#
# Stress axis : x y z
#
# Youngs Moduli (GPa) = 49.63899 33.81312 16.44362
#
# Poissons Ratio (x) = -0.24178 0.37289
# Poissons Ratio (y) = -0.35495 0.40449
# Poissons Ratio (z) = 1.12565 0.83176
#
# Static dielectric constant tensor:
#      x y z
#    x 1.645130 0.000000 0.000000 
#    y 0.000000 1.637700 0.000000 
#    z 0.000000 0.000000 1.634270 
# 
# From -- ./inp_files/2958.got.cif
#   From: 2010.05.17/outbox.cif.g08.bks.cpg/sg58_2_cif.got.tgz:2958.got - 2010.06.03 14:20:14.
