data_PCOD9444251
_publ_section_title
;
Structure prediction by ZEFSAII (Michael W. Deem and Ramdas Pophale) SiO2 
 PCOD9444251
Probable space group: P N N M
;
_chemical_formula_sum "Si O2"
_cell_formula_units_Z 36
_cell_length_a 4.933699
_cell_length_b 13.967910
_cell_length_c 20.518880
_cell_angle_alpha 90.000000
_cell_angle_beta 90.000000
_cell_angle_gamma 90.000000
_cell_volume 1414.027090
_symmetry_space_group_name_H-M "P N N M"
_symmetry_group_IT_number 58
_symmetry_cell_setting 'orthorhombic'
loop_
_space_group_symop_operation_xyz
x,y,z
-x,-y,z
1/2+x,1/2-y,1/2-z
1/2-x,1/2+y,1/2-z
-x,-y,-z
x,y,-z
1/2-x,1/2+y,1/2+z
1/2+x,1/2-y,1/2+z
loop_
_atom_site_type_symbol
_atom_site_label
_atom_site_fract_x
_atom_site_fract_y
_atom_site_fract_z
Si Si1 0.758837 0.812836 0.736151
Si Si2 0.948921 0.263267 0.425946
Si Si3 0.622045 0.093445 0.637408
Si Si4 0.577425 0.603471 0.425135
Si Si5 0.000000 0.000000 0.746985
O O1 0.524234 0.751952 0.769908
O O2 0.626544 0.847318 0.668453
O O3 0.847066 0.907814 0.775779
O O4 0.043787 0.241818 0.500000
O O5 0.826228 0.163790 0.398977
O O6 0.688531 0.332141 0.427451
O O7 0.184940 0.330786 0.395646
O O8 0.500000 0.000000 0.601410
O O9 0.781166 0.050287 0.699521
O O10 0.500000 0.500000 0.396528
O O11 0.669167 0.582377 0.500000
#
# Coordination Sequence:
#
# PCOD9444251 Si02
#       5
#     8   8   8   8   4
#     4  11  22  40  68  96 121 163 212 264 319 390
#     4  10  21  36  60  92 128 171 217 263 313 377
#     4  10  23  39  64  94 132 170 217 257 320 393
#     4   9  18  34  57  83 114 161 218 267 313 366
#     4  10  22  42  65  98 124 170 215 252 326 398
#
# _framework density 25.459201
#
# number of rings (size 3 to 8) (size 9 to 14) (size 15 to 20)
#    0.000    2.000    2.222    0.667    6.222    3.111 
#    0.000    0.556    2.444    5.333    0.000    0.000 
#    0.000    0.000    0.000    0.111    0.000    0.444 
#
# Total GULP energy -201281.366186 kJ/mol
# GULP energy per Si atom -5591.149061 kJ/mol
# Density = 2.540125 g / cm^3
# Si number density = 25.459201 Si / 1000 Ang^3
#
#
#
# Elastic Constant Matrix: (Units=GPa)
#
#
# Indices 1 2 3 4 5 6 
#
# 1 167.6536 96.1643 10.4830 0.0000 0.0000 0.0000
# 2 96.1643 244.5374 52.0603 0.0000 0.0000 0.0000
# 3 10.4830 52.0603 41.1639 0.0000 0.0000 0.0000
# 4 0.0000 0.0000 0.0000 26.5638 0.0000 0.0000
# 5 0.0000 0.0000 0.0000 0.0000 11.3252 0.0000
# 6 0.0000 0.0000 0.0000 0.0000 0.0000 70.4518
#
#
#
# Elastic Compliance Matrix: (Units=1/GPa)
#
#
# Indices 1 2 3 4 5 6 
#
# 1 0.007904 -0.003667 0.002625 0.000000 0.000000 0.000000
# 2 -0.003667 0.007297 -0.008295 0.000000 0.000000 0.000000
# 3 0.002625 -0.008295 0.034116 0.000000 0.000000 0.000000
# 4 0.000000 0.000000 0.000000 0.037645 0.000000 0.000000
# 5 0.000000 0.000000 0.000000 0.000000 0.088299 0.000000
# 6 0.000000 0.000000 0.000000 0.000000 0.000000 0.014194
#
#
# Mechanical properties :
#
#
# Convention : Reuss Voigt Hill
#
# Bulk Modulus (GPa) = 32.63463 85.64111 59.13787
# Shear Modulus (GPa) = 22.89963 41.31130 32.10547
#
# Velocity S-wave (km/s) = 3.00236 4.03258 3.55499
# Velocity P-wave (km/s) = 4.98649 7.44271 6.33478
#
# Compressibility (1/GPa) = 0.03064230
#
# Stress axis : x y z
#
# Youngs Moduli (GPa) = 126.51936 137.03472 29.31198
#
# Poissons Ratio (x) = 0.50251 -0.07694
# Poissons Ratio (y) = 0.46395 0.24315
# Poissons Ratio (z) = -0.33210 1.13674
#
# Static dielectric constant tensor:
#      x y z
#    x 2.018390 0.000000 0.000000 
#    y 0.000000 2.042550 0.000000 
#    z 0.000000 0.000000 2.137240 
# 
# From -- ./inp_files/34089.got.cif
#   From: 2010.05.17/outbox.cif.g08.bks.cpg/sg58_18_cif.got.tgz:34089.got - 2010.06.03 14:20:14.
