data_PCOD9444577
_publ_section_title
;
Structure prediction by ZEFSAII (Michael W. Deem and Ramdas Pophale) SiO2 
 PCOD9444577
Probable space group: P N N M
;
_chemical_formula_sum "Si O2"
_cell_formula_units_Z 40
_cell_length_a 5.654101
_cell_length_b 17.346602
_cell_length_c 19.086602
_cell_angle_alpha 90.000000
_cell_angle_beta 90.000000
_cell_angle_gamma 90.000000
_cell_volume 1872.003230
_symmetry_space_group_name_H-M "P N N M"
_symmetry_group_IT_number 58
_symmetry_cell_setting 'orthorhombic'
loop_
_space_group_symop_operation_xyz
x,y,z
-x,-y,z
1/2+x,1/2-y,1/2-z
1/2-x,1/2+y,1/2-z
-x,-y,-z
x,y,-z
1/2-x,1/2+y,1/2+z
1/2+x,1/2-y,1/2+z
loop_
_atom_site_type_symbol
_atom_site_label
_atom_site_fract_x
_atom_site_fract_y
_atom_site_fract_z
Si Si1 0.867602 0.830444 0.688905
Si Si2 0.747563 0.044691 0.917296
Si Si3 0.250721 0.276969 0.922347
Si Si4 0.569874 0.679579 0.664957
Si Si5 0.378438 0.082308 0.575386
O O1 0.679422 0.760647 0.691321
O O2 0.774360 0.901531 0.643427
O O3 0.071689 0.795705 0.639819
O O4 0.944094 0.852990 0.766259
O O5 0.748932 0.119569 0.867806
O O6 0.500000 0.000000 0.905132
O O7 0.751230 0.065032 0.000000
O O8 0.000000 0.000000 0.903753
O O9 0.105935 0.202312 0.897923
O O10 0.071091 0.349266 0.925789
O O11 0.356412 0.266631 0.000000
O O12 0.246805 0.086828 0.500000
O O13 0.500000 0.000000 0.578876
#
# Coordination Sequence:
#
# PCOD9444577 Si02
#       5
#     8   8   8   8   8
#     4  11  22  39  63  93 128 173 217 269 339 405
#     4  10  24  46  70  99 134 179 234 288 348 416
#     4  10  21  38  64  93 120 167 220 266 328 399
#     4  11  23  41  63  93 131 170 218 284 340 404
#     4   9  20  40  63  92 129 166 215 271 325 402
#
# _framework density 21.367486
#
# number of rings (size 3 to 8) (size 9 to 14) (size 15 to 20)
#    0.000    1.800    2.000    1.200    2.800    3.200 
#    3.600    3.000    0.000    0.000    0.000    0.000 
#    0.000    0.000    0.000    0.000    0.000    0.000 
#
# Total GULP energy -223325.689936 kJ/mol
# GULP energy per Si atom -5583.142248 kJ/mol
# Density = 2.131885 g / cm^3
# Si number density = 21.367486 Si / 1000 Ang^3
#
#
#
# Elastic Constant Matrix: (Units=GPa)
#
#
# Indices 1 2 3 4 5 6 
#
# 1 52.7103 17.9541 26.3862 0.0000 0.0000 0.0000
# 2 17.9541 67.1674 69.8726 0.0000 0.0000 0.0000
# 3 26.3862 69.8726 114.9878 0.0000 0.0000 0.0000
# 4 0.0000 0.0000 0.0000 15.1593 0.0000 0.0000
# 5 0.0000 0.0000 0.0000 0.0000 32.4028 0.0000
# 6 0.0000 0.0000 0.0000 0.0000 0.0000 26.0404
#
#
#
# Elastic Compliance Matrix: (Units=1/GPa)
#
#
# Indices 1 2 3 4 5 6 
#
# 1 0.021502 -0.001671 -0.003919 0.000000 0.000000 0.000000
# 2 -0.001671 0.040601 -0.024288 0.000000 0.000000 0.000000
# 3 -0.003919 -0.024288 0.024354 0.000000 0.000000 0.000000
# 4 0.000000 0.000000 0.000000 0.065966 0.000000 0.000000
# 5 0.000000 0.000000 0.000000 0.000000 0.030862 0.000000
# 6 0.000000 0.000000 0.000000 0.000000 0.000000 0.038402
#
#
# Mechanical properties :
#
#
# Convention : Reuss Voigt Hill
#
# Bulk Modulus (GPa) = 37.44977 51.47681 44.46329
# Shear Modulus (GPa) = 17.22102 22.76401 19.99251
#
# Velocity S-wave (km/s) = 2.84200 3.26752 3.06216
# Velocity P-wave (km/s) = 5.32295 6.19509 5.77551
#
# Compressibility (1/GPa) = 0.02670244
#
# Stress axis : x y z
#
# Youngs Moduli (GPa) = 46.50622 24.63011 41.06067
#
# Poissons Ratio (x) = 0.04116 0.16090
# Poissons Ratio (y) = 0.07772 0.99727
# Poissons Ratio (z) = 0.18224 0.59821
#
# Static dielectric constant tensor:
#      x y z
#    x 1.922860 0.000000 0.000000 
#    y 0.000000 1.766630 0.000000 
#    z 0.000000 0.000000 1.776090 
# 
# From -- ./inp_files/24162.got.cif
#   From: 2010.05.17/outbox.cif.g08.bks.cpg/sg58_13_cif.got.tgz:24162.got - 2010.06.03 14:20:14.
