data_PCOD9444575
_publ_section_title
;
Structure prediction by ZEFSAII (Michael W. Deem and Ramdas Pophale) SiO2 
 PCOD9444575
Probable space group: P N N M
;
_chemical_formula_sum "Si O2"
_cell_formula_units_Z 34
_cell_length_a 9.401108
_cell_length_b 18.654264
_cell_length_c 8.971050
_cell_angle_alpha 90.000000
_cell_angle_beta 90.000000
_cell_angle_gamma 90.000000
_cell_volume 1573.259771
_symmetry_space_group_name_H-M "P N N M"
_symmetry_group_IT_number 58
_symmetry_cell_setting 'orthorhombic'
loop_
_space_group_symop_operation_xyz
x,y,z
-x,-y,z
1/2+x,1/2-y,1/2-z
1/2-x,1/2+y,1/2-z
-x,-y,-z
x,y,-z
1/2-x,1/2+y,1/2+z
1/2+x,1/2-y,1/2+z
loop_
_atom_site_type_symbol
_atom_site_label
_atom_site_fract_x
_atom_site_fract_y
_atom_site_fract_z
Si Si1 0.160552 0.382144 0.663425
Si Si2 0.488339 0.237540 0.323245
Si Si3 0.803152 0.841127 0.320067
Si Si4 0.830391 0.002165 0.669638
Si Si5 0.000000 0.500000 0.500000
O O1 0.200736 0.350368 0.500000
O O2 0.099281 0.323619 0.772889
O O3 0.282690 0.431609 0.730503
O O4 0.039061 0.439807 0.626184
O O5 0.489500 0.246584 0.500000
O O6 0.332542 0.208152 0.277248
O O7 0.551766 0.307944 0.244863
O O8 0.812449 0.842175 0.500000
O O9 0.782875 0.923818 0.272096
O O10 0.775835 0.011477 0.500000
O O11 0.000000 0.000000 0.664051
#
# Coordination Sequence:
#
# PCOD9444575 Si02
#       5
#     8   8   8   8   2
#     4  10  21  38  64  91 126 160 210 258 314 380
#     4  11  24  42  67  94 129 170 216 266 323 382
#     4  10  24  43  63  95 132 170 215 267 318 387
#     4  10  22  41  66  95 130 167 214 265 325 381
#     4   8  20  36  60  92 120 156 208 256 310 380
#
# _framework density 21.611179
#
# number of rings (size 3 to 8) (size 9 to 14) (size 15 to 20)
#    0.706    1.176    0.000    2.824    3.294    3.294 
#    0.000    4.706    0.000    0.000    0.000    0.000 
#    0.000    0.000    0.000    0.000    0.000    0.000 
#
# Total GULP energy -189275.628350 kJ/mol
# GULP energy per Si atom -5566.930246 kJ/mol
# Density = 2.156199 g / cm^3
# Si number density = 21.611179 Si / 1000 Ang^3
#
#
#
# Elastic Constant Matrix: (Units=GPa)
#
#
# Indices 1 2 3 4 5 6 
#
# 1 80.9040 36.9193 28.6709 0.0000 0.0000 0.0000
# 2 36.9193 62.1919 5.4121 0.0000 0.0000 0.0000
# 3 28.6709 5.4121 25.5318 0.0000 0.0000 0.0000
# 4 0.0000 0.0000 0.0000 26.6162 0.0000 0.0000
# 5 0.0000 0.0000 0.0000 0.0000 11.3461 0.0000
# 6 0.0000 0.0000 0.0000 0.0000 0.0000 51.8360
#
#
#
# Elastic Compliance Matrix: (Units=1/GPa)
#
#
# Indices 1 2 3 4 5 6 
#
# 1 0.030188 -0.015252 -0.030666 0.000000 0.000000 0.000000
# 2 -0.015252 0.024087 0.012021 0.000000 0.000000 0.000000
# 3 -0.030666 0.012021 0.071055 0.000000 0.000000 0.000000
# 4 0.000000 0.000000 0.000000 0.037571 0.000000 0.000000
# 5 0.000000 0.000000 0.000000 0.000000 0.088136 0.000000
# 6 0.000000 0.000000 0.000000 0.000000 0.000000 0.019292
#
#
# Mechanical properties :
#
#
# Convention : Reuss Voigt Hill
#
# Bulk Modulus (GPa) = 17.38032 34.51468 25.94750
# Shear Modulus (GPa) = 13.99376 24.46803 19.23090
#
# Velocity S-wave (km/s) = 2.54741 3.36846 2.98629
# Velocity P-wave (km/s) = 4.08805 5.57979 4.89113
#
# Compressibility (1/GPa) = 0.05753633
#
# Stress axis : x y z
#
# Youngs Moduli (GPa) = 33.12583 41.51575 14.07354
#
# Poissons Ratio (x) = 0.63320 0.43158
# Poissons Ratio (y) = 0.50523 -0.16918
# Poissons Ratio (z) = 1.01585 -0.49907
#
# Static dielectric constant tensor:
#      x y z
#    x 1.810300 0.000000 0.000000 
#    y 0.000000 1.783380 0.000000 
#    z 0.000000 0.000000 1.762900 
# 
# From -- ./inp_files/2270.got.cif
#   From: 2010.05.17/outbox.cif.g08.bks.cpg/sg58_2_cif.got.tgz:2270.got - 2010.06.03 14:20:14.
