data_PCOD9444256
_publ_section_title
;
Structure prediction by ZEFSAII (Michael W. Deem and Ramdas Pophale) SiO2 
 PCOD9444256
Probable space group: P N N M
;
_chemical_formula_sum "Si O2"
_cell_formula_units_Z 64
_cell_length_a 11.433793
_cell_length_b 15.342265
_cell_length_c 19.569300
_cell_angle_alpha 90.000000
_cell_angle_beta 90.000000
_cell_angle_gamma 90.000000
_cell_volume 3432.852128
_symmetry_space_group_name_H-M "P N N M"
_symmetry_group_IT_number 58
_symmetry_cell_setting 'orthorhombic'
loop_
_space_group_symop_operation_xyz
x,y,z
-x,-y,z
1/2+x,1/2-y,1/2-z
1/2-x,1/2+y,1/2-z
-x,-y,-z
x,y,-z
1/2-x,1/2+y,1/2+z
1/2+x,1/2-y,1/2+z
loop_
_atom_site_type_symbol
_atom_site_label
_atom_site_fract_x
_atom_site_fract_y
_atom_site_fract_z
Si Si1 0.794801 0.348187 0.282259
Si Si2 0.866557 0.787931 0.579331
Si Si3 0.629891 0.778246 0.923252
Si Si4 0.675427 0.128303 0.574287
Si Si5 0.132257 0.011399 0.391621
Si Si6 0.630996 0.516451 0.268987
Si Si7 0.284274 0.820361 0.205126
Si Si8 0.481382 0.897519 0.294999
O O1 0.851488 0.338112 0.357247
O O2 0.712202 0.432794 0.283837
O O3 0.732168 0.258945 0.258935
O O4 0.894219 0.357878 0.224439
O O5 0.833841 0.776498 0.500000
O O6 0.841107 0.886513 0.602380
O O7 0.806270 0.721703 0.631537
O O8 0.006464 0.771612 0.584553
O O9 0.735938 0.709508 0.921099
O O10 0.629392 0.818318 0.000000
O O11 0.617013 0.129107 0.500000
O O12 0.582866 0.129534 0.635330
O O13 0.762835 0.045328 0.577876
O O14 0.126996 0.979629 0.313384
O O15 0.000000 0.000000 0.420416
O O16 0.500000 0.500000 0.294428
O O17 0.681360 0.608571 0.293960
O O18 0.395662 0.872999 0.233016
O O19 0.500000 0.000000 0.298545
#
# Coordination Sequence:
#
# PCOD9444256 Si02
#       8
#     8   8   8   8   8   8   8   8
#     4  12  23  41  68  91 127 173 209 272 316 380
#     4  11  23  38  60  95 133 170 215 270 329 382
#     4  10  21  36  60  95 128 165 210 261 322 381
#     4  11  22  37  57  90 137 174 205 255 324 402
#     4  11  19  34  60  96 132 168 212 264 324 394
#     4  11  25  41  65  97 126 162 221 270 324 387
#     4  12  24  41  65  95 126 170 212 269 321 385
#     4  12  24  41  61  93 128 166 216 262 313 382
#
# _framework density 18.643388999999999
#
# number of rings (size 3 to 8) (size 9 to 14) (size 15 to 20)
#    0.000    0.750    7.500    0.375    3.500    0.750 
#    0.000    1.250    0.000    3.750    0.000    0.000 
#    0.000    0.000    0.000    0.000    0.000    0.000 
#
# Total GULP energy -357356.645419 kJ/mol
# GULP energy per Si atom -5583.697585 kJ/mol
# Density = 1.860096 g / cm^3
# Si number density = 18.643389 Si / 1000 Ang^3
#
#
#
# Elastic Constant Matrix: (Units=GPa)
#
#
# Indices 1 2 3 4 5 6 
#
# 1 68.7760 28.4442 48.5668 0.0000 0.0000 0.0000
# 2 28.4442 71.1278 44.1849 0.0000 0.0000 0.0000
# 3 48.5668 44.1849 118.1353 0.0000 0.0000 0.0000
# 4 0.0000 0.0000 0.0000 20.4598 0.0000 0.0000
# 5 0.0000 0.0000 0.0000 0.0000 50.7225 0.0000
# 6 0.0000 0.0000 0.0000 0.0000 0.0000 27.8667
#
#
#
# Elastic Compliance Matrix: (Units=1/GPa)
#
#
# Indices 1 2 3 4 5 6 
#
# 1 0.021334 -0.004016 -0.007268 0.000000 0.000000 0.000000
# 2 -0.004016 0.019070 -0.005482 0.000000 0.000000 0.000000
# 3 -0.007268 -0.005482 0.013503 0.000000 0.000000 0.000000
# 4 0.000000 0.000000 0.000000 0.048876 0.000000 0.000000
# 5 0.000000 0.000000 0.000000 0.000000 0.019715 0.000000
# 6 0.000000 0.000000 0.000000 0.000000 0.000000 0.035885
#
#
# Mechanical properties :
#
#
# Convention : Reuss Voigt Hill
#
# Bulk Modulus (GPa) = 49.07996 55.60342 52.34169
# Shear Modulus (GPa) = 25.16257 28.93268 27.04762
#
# Velocity S-wave (km/s) = 3.67778 3.94369 3.81305
# Velocity P-wave (km/s) = 6.66465 7.11522 6.89362
#
# Compressibility (1/GPa) = 0.02037492
#
# Stress axis : x y z
#
# Youngs Moduli (GPa) = 46.87446 52.43705 74.05647
#
# Poissons Ratio (x) = 0.21060 0.53827
# Poissons Ratio (y) = 0.18826 0.40595
# Poissons Ratio (z) = 0.34070 0.28744
#
# Static dielectric constant tensor:
#      x y z
#    x 1.659540 0.000000 0.000000 
#    y 0.000000 1.658280 0.000000 
#    z 0.000000 0.000000 1.652310 
# 
# From -- ./inp_files/26404.got.cif
#   From: 2010.05.17/outbox.cif.g08.bks.cpg/sg58_14_cif.got.tgz:26404.got - 2010.06.03 14:20:14.
