data_PCOD9444488
_publ_section_title
;
Structure prediction by ZEFSAII (Michael W. Deem and Ramdas Pophale) SiO2 
 PCOD9444488
Probable space group: P N N M
;
_chemical_formula_sum "Si O2"
_cell_formula_units_Z 40
_cell_length_a 20.433783
_cell_length_b 10.608527
_cell_length_c 9.412308
_cell_angle_alpha 90.000000
_cell_angle_beta 90.000000
_cell_angle_gamma 90.000000
_cell_volume 2040.328017
_symmetry_space_group_name_H-M "P N N M"
_symmetry_group_IT_number 58
_symmetry_cell_setting 'orthorhombic'
loop_
_space_group_symop_operation_xyz
x,y,z
-x,-y,z
1/2+x,1/2-y,1/2-z
1/2-x,1/2+y,1/2-z
-x,-y,-z
x,y,-z
1/2-x,1/2+y,1/2+z
1/2+x,1/2-y,1/2+z
loop_
_atom_site_type_symbol
_atom_site_label
_atom_site_fract_x
_atom_site_fract_y
_atom_site_fract_z
Si Si1 0.406427 0.103136 0.332793
Si Si2 0.784356 0.300641 0.669948
Si Si3 0.933954 0.932305 0.331534
Si Si4 0.790906 0.018644 0.332016
Si Si5 0.558349 0.177957 0.333734
O O1 0.388977 0.115945 0.500000
O O2 0.356277 0.174968 0.233478
O O3 0.480623 0.151755 0.317288
O O4 0.406833 0.953982 0.297370
O O5 0.784396 0.312012 0.500000
O O6 0.739854 0.406733 0.741594
O O7 0.764403 0.157119 0.705372
O O8 0.941909 0.911386 0.500000
O O9 0.869260 0.015723 0.310897
O O10 0.923326 0.798541 0.257018
O O11 0.000000 0.000000 0.278153
O O12 0.778468 0.996812 0.500000
O O13 0.571136 0.202559 0.500000
#
# Coordination Sequence:
#
# PCOD9444488 Si02
#       5
#     8   8   8   8   8
#     4   9  19  37  59  85 122 158 191 244 301 350
#     4  11  24  41  63  88 117 159 206 248 297 359
#     4  10  21  38  60  85 119 156 195 249 305 353
#     4  10  24  43  61  87 124 161 199 249 304 358
#     4   9  19  35  58  88 119 155 196 240 296 356
#
# _framework density 19.604690000000002
#
# number of rings (size 3 to 8) (size 9 to 14) (size 15 to 20)
#    0.000    2.200    0.000    3.000    2.800    6.000 
#    0.000    2.000    0.000    0.000    0.000    0.000 
#    0.000    0.000    0.000    0.000    0.000    0.000 
#
# Total GULP energy -223449.704893 kJ/mol
# GULP energy per Si atom -5586.242622 kJ/mol
# Density = 1.956007 g / cm^3
# Si number density = 19.604690 Si / 1000 Ang^3
#
#
#
# Elastic Constant Matrix: (Units=GPa)
#
#
# Indices 1 2 3 4 5 6 
#
# 1 34.4423 35.0674 31.1410 0.0000 0.0000 0.0000
# 2 35.0674 147.8903 67.8060 0.0000 0.0000 0.0000
# 3 31.1410 67.8060 48.2434 0.0000 0.0000 0.0000
# 4 0.0000 0.0000 0.0000 33.2963 0.0000 0.0000
# 5 0.0000 0.0000 0.0000 0.0000 41.2563 0.0000
# 6 0.0000 0.0000 0.0000 0.0000 0.0000 24.2918
#
#
#
# Elastic Compliance Matrix: (Units=1/GPa)
#
#
# Indices 1 2 3 4 5 6 
#
# 1 0.077513 0.012825 -0.068060 0.000000 0.000000 0.000000
# 2 0.012825 0.021137 -0.037987 0.000000 0.000000 0.000000
# 3 -0.068060 -0.037987 0.118052 0.000000 0.000000 0.000000
# 4 0.000000 0.000000 0.000000 0.030033 0.000000 0.000000
# 5 0.000000 0.000000 0.000000 0.000000 0.024239 0.000000
# 6 0.000000 0.000000 0.000000 0.000000 0.000000 0.041166
#
#
# Mechanical properties :
#
#
# Convention : Reuss Voigt Hill
#
# Bulk Modulus (GPa) = 33.04941 55.40054 44.22498
# Shear Modulus (GPa) = 9.82955 26.20633 18.01794
#
# Velocity S-wave (km/s) = 2.24160 3.66011 3.03489
# Velocity P-wave (km/s) = 4.85739 6.79574 5.90662
#
# Compressibility (1/GPa) = 0.03025773
#
# Stress axis : x y z
#
# Youngs Moduli (GPa) = 12.90114 47.30942 8.47085
#
# Poissons Ratio (x) = -0.60675 0.57653
# Poissons Ratio (y) = -0.16546 0.32178
# Poissons Ratio (z) = 0.87805 1.79716
#
# Static dielectric constant tensor:
#      x y z
#    x 1.719750 0.000000 0.000000 
#    y 0.000000 1.676080 0.000000 
#    z 0.000000 0.000000 1.640990 
# 
# From -- ./inp_files/7447.got.cif
#   From: 2010.05.17/outbox.cif.g08.bks.cpg/sg58_4_cif.got.tgz:7447.got - 2010.06.03 14:20:14.
