data_PCOD9444793
_publ_section_title
;
Structure prediction by ZEFSAII (Michael W. Deem and Ramdas Pophale) SiO2 
 PCOD9444793
Probable space group: P N N M
;
_chemical_formula_sum "Si O2"
_cell_formula_units_Z 64
_cell_length_a 12.099210
_cell_length_b 31.671749
_cell_length_c 8.059681
_cell_angle_alpha 90.000000
_cell_angle_beta 90.000000
_cell_angle_gamma 90.000000
_cell_volume 3088.495084
_symmetry_space_group_name_H-M "P N N M"
_symmetry_group_IT_number 58
_symmetry_cell_setting 'orthorhombic'
loop_
_space_group_symop_operation_xyz
x,y,z
-x,-y,z
1/2+x,1/2-y,1/2-z
1/2-x,1/2+y,1/2-z
-x,-y,-z
x,y,-z
1/2-x,1/2+y,1/2+z
1/2+x,1/2-y,1/2+z
loop_
_atom_site_type_symbol
_atom_site_label
_atom_site_fract_x
_atom_site_fract_y
_atom_site_fract_z
Si Si1 0.241785 0.802450 0.297933
Si Si2 0.715795 0.457364 0.298964
Si Si3 0.007440 0.839698 0.196497
Si Si4 0.342058 0.125784 0.803323
Si Si5 0.786758 0.792643 0.201967
Si Si6 0.735657 0.048142 0.192607
Si Si7 0.477249 0.433660 0.190306
Si Si8 0.909126 0.625527 0.194117
O O1 0.238774 0.803550 0.500000
O O2 0.125896 0.819830 0.232887
O O3 0.261095 0.754550 0.240847
O O4 0.338364 0.834446 0.243236
O O5 0.717984 0.457636 0.500000
O O6 0.775720 0.414916 0.237084
O O7 0.775735 0.500282 0.243204
O O8 0.587875 0.457302 0.246297
O O9 0.997236 0.884021 0.289338
O O10 0.909511 0.808128 0.245728
O O11 0.995589 0.848519 0.000000
O O12 0.295859 0.170492 0.738548
O O13 0.472109 0.121313 0.777366
O O14 0.319314 0.126173 0.000000
O O15 0.780827 0.791020 0.000000
O O16 0.866287 0.057847 0.207194
O O17 0.665763 0.083997 0.282795
O O18 0.702781 0.049640 0.000000
O O19 0.452433 0.443809 0.000000
O O20 0.929521 0.632129 0.000000
#
# Coordination Sequence:
#
# PCOD9444793 Si02
#       8
#     8   8   8   8   8   8   8   8
#     4  10  22  40  60  88 124 158 194 245 303 352
#     4  10  22  41  64  90 118 155 203 251 295 353
#     4  11  21  38  65  91 119 160 204 246 293 353
#     4  10  21  41  64  85 116 157 203 247 295 353
#     4   9  20  39  63  88 119 157 197 247 297 349
#     4  11  23  40  64  89 117 156 204 249 294 356
#     4  12  23  37  60  92 128 159 191 245 306 360
#     4  11  24  40  59  86 125 160 196 247 302 357
#
# _framework density 20.722065000000001
#
# number of rings (size 3 to 8) (size 9 to 14) (size 15 to 20)
#    0.000    1.500    2.500    2.625    1.750    4.000 
#    0.000    3.750    0.000    0.000    0.000    0.000 
#    0.000    0.000    0.000    0.000    0.000    0.000 
#
# Total GULP energy -357736.824356 kJ/mol
# GULP energy per Si atom -5589.637881 kJ/mol
# Density = 2.067490 g / cm^3
# Si number density = 20.722065 Si / 1000 Ang^3
#
#
#
# Elastic Constant Matrix: (Units=GPa)
#
#
# Indices 1 2 3 4 5 6 
#
# 1 90.6743 28.3345 -10.0522 0.0000 0.0000 0.0000
# 2 28.3345 121.3869 3.5058 0.0000 0.0000 0.0000
# 3 -10.0522 3.5058 18.2539 0.0000 0.0000 0.0000
# 4 0.0000 0.0000 0.0000 19.6187 0.0000 0.0000
# 5 0.0000 0.0000 0.0000 0.0000 -4.0576 0.0000
# 6 0.0000 0.0000 0.0000 0.0000 0.0000 11.9215
#
#
#
# Elastic Compliance Matrix: (Units=1/GPa)
#
#
# Indices 1 2 3 4 5 6 
#
# 1 0.012895 -0.003233 0.007722 0.000000 0.000000 0.000000
# 2 -0.003233 0.009095 -0.003527 0.000000 0.000000 0.000000
# 3 0.007722 -0.003527 0.059712 0.000000 0.000000 0.000000
# 4 0.000000 0.000000 0.000000 0.050972 0.000000 0.000000
# 5 0.000000 0.000000 0.000000 0.000000 -0.246450 0.000000
# 6 0.000000 0.000000 0.000000 0.000000 0.000000 0.083882
#
#
# Mechanical properties :
#
#
# Convention : Reuss Voigt Hill
#
# Bulk Modulus (GPa) = 11.95804 30.43236 21.19520
# Shear Modulus (GPa) = -1268.24340 19.39830 -624.42255
#
# Velocity S-wave (km/s) = -24.76599 3.06292 -17.37776
# Velocity P-wave (km/s) = 28.49601 5.21790 19.80904
#
# Compressibility (1/GPa) = 0.08362571
#
# Stress axis : x y z
#
# Youngs Moduli (GPa) = 77.55065 109.95494 16.74692
#
# Poissons Ratio (x) = 0.35548 -0.12932
# Poissons Ratio (y) = 0.25072 0.05907
# Poissons Ratio (z) = -0.59884 0.38781
#
# Static dielectric constant tensor:
#      x y z
#    x 1.687800 0.000000 0.000000 
#    y 0.000000 1.753750 0.000000 
#    z 0.000000 0.000000 1.738750 
# 
# From -- ./inp_files/4780.got.cif
#   From: 2010.05.17/outbox.cif.g08.bks.cpg/sg58_3_cif.got.tgz:4780.got - 2010.06.03 14:20:14.
