data_PCOD9444567
_publ_section_title
;
Structure prediction by ZEFSAII (Michael W. Deem and Ramdas Pophale) SiO2 
 PCOD9444567
Probable space group: P N N M
;
_chemical_formula_sum "Si O2"
_cell_formula_units_Z 56
_cell_length_a 18.943817
_cell_length_b 9.339569
_cell_length_c 14.343920
_cell_angle_alpha 90.000000
_cell_angle_beta 90.000000
_cell_angle_gamma 90.000000
_cell_volume 2537.827967
_symmetry_space_group_name_H-M "P N N M"
_symmetry_group_IT_number 58
_symmetry_cell_setting 'orthorhombic'
loop_
_space_group_symop_operation_xyz
x,y,z
-x,-y,z
1/2+x,1/2-y,1/2-z
1/2-x,1/2+y,1/2-z
-x,-y,-z
x,y,-z
1/2-x,1/2+y,1/2+z
1/2+x,1/2-y,1/2+z
loop_
_atom_site_type_symbol
_atom_site_label
_atom_site_fract_x
_atom_site_fract_y
_atom_site_fract_z
Si Si1 0.424722 0.320751 0.107374
Si Si2 0.967847 0.648726 0.739157
Si Si3 0.268067 0.182595 0.901799
Si Si4 0.841671 0.069282 0.236676
Si Si5 0.064948 0.110607 0.892537
Si Si6 0.341293 0.883592 0.898108
Si Si7 0.251942 0.678631 0.793754
O O1 0.480866 0.220942 0.160681
O O2 0.347604 0.246359 0.099891
O O3 0.403758 0.439770 0.184694
O O4 0.445071 0.357528 0.000000
O O5 0.952035 0.760259 0.821444
O O6 0.897665 0.605770 0.682958
O O7 0.000000 0.500000 0.774749
O O8 0.226549 0.229257 0.810905
O O9 0.286459 0.014439 0.896636
O O10 0.235299 0.221499 0.000000
O O11 0.822170 0.232711 0.204771
O O12 0.870481 0.982783 0.148428
O O13 0.774447 0.986775 0.283637
O O14 0.075111 0.155229 0.000000
O O15 0.000000 0.000000 0.890555
O O16 0.297256 0.741779 0.876854
O O17 0.375316 0.882472 0.000000
#
# Coordination Sequence:
#
# PCOD9444567 Si02
#       7
#     8   8   8   8   8   8   8
#     4  10  21  38  63  95 134 171 207 262 333 390
#     4  12  23  40  70 101 130 165 217 275 331 395
#     4   9  19  37  60  86 122 166 209 255 314 382
#     4  11  23  42  66  95 131 173 220 273 329 386
#     4  11  25  47  69  93 129 179 230 272 332 400
#     4  11  22  36  59  95 131 165 207 259 318 395
#     4  11  22  39  63  92 127 169 217 267 319 388
#
# _framework density 22.066115
#
# number of rings (size 3 to 8) (size 9 to 14) (size 15 to 20)
#    0.000    1.286    5.714    0.429    0.000    2.571 
#    0.000    0.714    0.000    0.857    0.000    0.000 
#    0.000    0.000    0.000    0.000    0.000    0.000 
#
# Total GULP energy -311737.384186 kJ/mol
# GULP energy per Si atom -5566.739003 kJ/mol
# Density = 2.201589 g / cm^3
# Si number density = 22.066115 Si / 1000 Ang^3
#
#
#
# Elastic Constant Matrix: (Units=GPa)
#
#
# Indices 1 2 3 4 5 6 
#
# 1 71.3315 23.2871 22.7980 0.0000 0.0000 0.0000
# 2 23.2871 73.4308 41.3880 0.0000 0.0000 0.0000
# 3 22.7980 41.3880 126.1051 0.0000 0.0000 0.0000
# 4 0.0000 0.0000 0.0000 23.3874 0.0000 0.0000
# 5 0.0000 0.0000 0.0000 0.0000 21.4567 0.0000
# 6 0.0000 0.0000 0.0000 0.0000 0.0000 32.1104
#
#
#
# Elastic Compliance Matrix: (Units=1/GPa)
#
#
# Indices 1 2 3 4 5 6 
#
# 1 0.015864 -0.004189 -0.001493 0.000000 0.000000 0.000000
# 2 -0.004189 0.017816 -0.005090 0.000000 0.000000 0.000000
# 3 -0.001493 -0.005090 0.009870 0.000000 0.000000 0.000000
# 4 0.000000 0.000000 0.000000 0.042758 0.000000 0.000000
# 5 0.000000 0.000000 0.000000 0.000000 0.046606 0.000000
# 6 0.000000 0.000000 0.000000 0.000000 0.000000 0.031143
#
#
# Mechanical properties :
#
#
# Convention : Reuss Voigt Hill
#
# Bulk Modulus (GPa) = 45.44322 49.53483 47.48903
# Shear Modulus (GPa) = 25.91541 27.61718 26.76629
#
# Velocity S-wave (km/s) = 3.43073 3.54158 3.48660
# Velocity P-wave (km/s) = 6.02761 6.26266 6.14626
#
# Compressibility (1/GPa) = 0.02200548
#
# Stress axis : x y z
#
# Youngs Moduli (GPa) = 63.03612 56.13065 101.31439
#
# Poissons Ratio (x) = 0.23516 0.15126
# Poissons Ratio (y) = 0.26409 0.51566
# Poissons Ratio (z) = 0.09411 0.28569
#
# Static dielectric constant tensor:
#      x y z
#    x 1.910860 0.000000 0.000000 
#    y 0.000000 1.884040 0.000000 
#    z 0.000000 0.000000 1.840580 
# 
# From -- ./inp_files/23268.got.cif
#   From: 2010.05.17/outbox.cif.g08.bks.cpg/sg58_12_cif.got.tgz:23268.got - 2010.06.03 14:20:14.
