data_PCOD9444849
_publ_section_title
;
Structure prediction by ZEFSAII (Michael W. Deem and Ramdas Pophale) SiO2 
 PCOD9444849
Probable space group: P N N M
;
_chemical_formula_sum "Si O2"
_cell_formula_units_Z 48
_cell_length_a 8.654560
_cell_length_b 15.054646
_cell_length_c 17.447340
_cell_angle_alpha 90.000000
_cell_angle_beta 90.000000
_cell_angle_gamma 90.000000
_cell_volume 2273.237257
_symmetry_space_group_name_H-M "P N N M"
_symmetry_group_IT_number 58
_symmetry_cell_setting 'orthorhombic'
loop_
_space_group_symop_operation_xyz
x,y,z
-x,-y,z
1/2+x,1/2-y,1/2-z
1/2-x,1/2+y,1/2-z
-x,-y,-z
x,y,-z
1/2-x,1/2+y,1/2+z
1/2+x,1/2-y,1/2+z
loop_
_atom_site_type_symbol
_atom_site_label
_atom_site_fract_x
_atom_site_fract_y
_atom_site_fract_z
Si Si1 0.177038 0.985903 0.228815
Si Si2 0.130550 0.877147 0.500000
Si Si3 0.361159 0.803466 0.252279
Si Si4 0.157509 0.544064 0.413336
Si Si5 0.881641 0.260378 0.363923
Si Si6 0.270765 0.575639 0.000000
Si Si7 0.602991 0.915143 0.347818
O O1 0.246987 0.886179 0.232561
O O2 0.205386 0.018380 0.142570
O O3 0.279441 0.045997 0.285121
O O4 0.000000 0.000000 0.251086
O O5 0.151695 0.819949 0.422400
O O6 0.950463 0.901653 0.500000
O O7 0.230571 0.967257 0.500000
O O8 0.252835 0.738412 0.300178
O O9 0.453857 0.761189 0.180846
O O10 0.492963 0.843460 0.308069
O O11 0.179752 0.512986 0.500000
O O12 0.128737 0.648546 0.410292
O O13 0.000000 0.500000 0.381290
O O14 0.191021 0.613284 0.924038
O O15 0.500000 0.000000 0.370309
#
# Coordination Sequence:
#
# PCOD9444849 Si02
#       7
#     8   4   8   8   8   4   8
#     4  11  23  41  70  98 129 180 234 279 339 417
#     4  11  26  42  67 106 139 183 224 288 354 411
#     4  11  26  41  70  99 138 179 228 287 344 408
#     4  11  22  45  73  95 132 182 230 280 343 414
#     4  12  25  45  66 103 138 181 230 283 350 405
#     4  11  25  42  70 100 141 182 233 275 345 421
#     4  10  21  42  66  96 130 177 227 278 335 411
#
# _framework density 21.115262000000001
#
# number of rings (size 3 to 8) (size 9 to 14) (size 15 to 20)
#    0.000    1.000    4.167    2.750    9.333    1.000 
#    0.000    0.000    0.000    0.000    0.000    0.000 
#    0.000    0.000    0.000    0.000    0.000    0.000 
#
# Total GULP energy -268438.639166 kJ/mol
# GULP energy per Si atom -5592.471649 kJ/mol
# Density = 2.106720 g / cm^3
# Si number density = 21.115262 Si / 1000 Ang^3
#
#
#
# Elastic Constant Matrix: (Units=GPa)
#
#
# Indices 1 2 3 4 5 6 
#
# 1 106.4867 4.5615 24.2056 0.0000 0.0000 0.0000
# 2 4.5615 45.1621 -1.3525 0.0000 0.0000 0.0000
# 3 24.2056 -1.3525 80.4888 0.0000 0.0000 0.0000
# 4 0.0000 0.0000 0.0000 42.2804 0.0000 0.0000
# 5 0.0000 0.0000 0.0000 0.0000 -31.6502 0.0000
# 6 0.0000 0.0000 0.0000 0.0000 0.0000 24.8238
#
#
#
# Elastic Compliance Matrix: (Units=1/GPa)
#
#
# Indices 1 2 3 4 5 6 
#
# 1 0.010136 -0.001116 -0.003067 0.000000 0.000000 0.000000
# 2 -0.001116 0.022276 0.000710 0.000000 0.000000 0.000000
# 3 -0.003067 0.000710 0.013358 0.000000 0.000000 0.000000
# 4 0.000000 0.000000 0.000000 0.023652 0.000000 0.000000
# 5 0.000000 0.000000 0.000000 0.000000 -0.031595 0.000000
# 6 0.000000 0.000000 0.000000 0.000000 0.000000 0.040284
#
#
# Mechanical properties :
#
#
# Convention : Reuss Voigt Hill
#
# Bulk Modulus (GPa) = 25.75651 31.88520 28.82085
# Shear Modulus (GPa) = 51.02155 20.73899 35.88027
#
# Velocity S-wave (km/s) = 4.92096 3.13738 4.12668
# Velocity P-wave (km/s) = 6.67175 5.31578 6.03199
#
# Compressibility (1/GPa) = 0.03882514
#
# Stress axis : x y z
#
# Youngs Moduli (GPa) = 98.66046 44.89062 74.85959
#
# Poissons Ratio (x) = 0.05008 0.22959
# Poissons Ratio (y) = 0.11006 -0.05314
# Poissons Ratio (z) = 0.30258 -0.03186
#
# Static dielectric constant tensor:
#      x y z
#    x 1.760570 0.000000 0.000000 
#    y 0.000000 1.774210 0.000000 
#    z 0.000000 0.000000 1.756750 
# 
# From -- ./inp_files/25327.got.cif
#   From: 2010.05.17/outbox.cif.g08.bks.cpg/sg58_13_cif.got.tgz:25327.got - 2010.06.03 14:20:14.
