data_PCOD9444090
_publ_section_title
;
Structure prediction by ZEFSAII (Michael W. Deem and Ramdas Pophale) SiO2 
 PCOD9444090
Probable space group: P N N M
;
_chemical_formula_sum "Si O2"
_cell_formula_units_Z 64
_cell_length_a 21.944519
_cell_length_b 17.272252
_cell_length_c 9.709006
_cell_angle_alpha 90.000000
_cell_angle_beta 90.000000
_cell_angle_gamma 90.000000
_cell_volume 3680.016799
_symmetry_space_group_name_H-M "P N N M"
_symmetry_group_IT_number 58
_symmetry_cell_setting 'orthorhombic'
loop_
_space_group_symop_operation_xyz
x,y,z
-x,-y,z
1/2+x,1/2-y,1/2-z
1/2-x,1/2+y,1/2-z
-x,-y,-z
x,y,-z
1/2-x,1/2+y,1/2+z
1/2+x,1/2-y,1/2+z
loop_
_atom_site_type_symbol
_atom_site_label
_atom_site_fract_x
_atom_site_fract_y
_atom_site_fract_z
Si Si1 0.513617 0.416240 0.158042
Si Si2 0.687448 0.770272 0.662128
Si Si3 0.421384 0.696639 0.351493
Si Si4 0.625574 0.081272 0.837132
Si Si5 0.385194 0.071181 0.657818
Si Si6 0.200007 0.293101 0.162020
Si Si7 0.501341 0.163103 0.751388
Si Si8 0.412422 0.288339 0.148309
O O1 0.500000 0.500000 0.219061
O O2 0.562440 0.364729 0.236255
O O3 0.452461 0.365111 0.158515
O O4 0.533237 0.426825 0.000000
O O5 0.698642 0.757289 0.500000
O O6 0.663207 0.858765 0.678143
O O7 0.743891 0.744818 0.756262
O O8 0.631279 0.720817 0.722352
O O9 0.430424 0.659808 0.500000
O O10 0.354211 0.730375 0.338687
O O11 0.465885 0.771201 0.340456
O O12 0.672189 0.134935 0.749342
O O13 0.557289 0.117032 0.819178
O O14 0.624540 0.996972 0.766834
O O15 0.640178 0.079708 0.000000
O O16 0.379609 0.042836 0.500000
O O17 0.453089 0.107149 0.677089
O O18 0.212519 0.312323 0.000000
O O19 0.459108 0.215903 0.849064
O O20 0.379738 0.287316 0.000000
#
# Coordination Sequence:
#
# PCOD9444090 Si02
#       8
#     8   8   8   8   8   8   8   8
#     4   9  18  32  50  75 106 137 168 206 255 307
#     4  10  21  37  56  76 100 134 176 217 256 302
#     4   9  18  32  52  78 102 130 170 212 255 304
#     4  11  22  34  52  80 111 139 171 212 256 305
#     4  10  21  35  52  77 109 142 173 209 257 309
#     4  10  21  38  58  76  99 134 176 218 261 309
#     4   9  18  31  52  78 108 140 171 206 250 305
#     4   9  17  31  52  75 101 135 173 211 252 303
#
# _framework density 17.391224000000001
#
# number of rings (size 3 to 8) (size 9 to 14) (size 15 to 20)
#    0.000    2.375    0.000    2.250    0.000   12.250 
#    0.000    1.250    0.000    4.500    0.000    0.000 
#    0.000    0.000    0.000    0.000    0.000    0.000 
#
# Total GULP energy -356503.672529 kJ/mol
# GULP energy per Si atom -5570.369883 kJ/mol
# Density = 1.735164 g / cm^3
# Si number density = 17.391224 Si / 1000 Ang^3
#
#
#
# Elastic Constant Matrix: (Units=GPa)
#
#
# Indices 1 2 3 4 5 6 
#
# 1 80.1644 22.3715 48.8542 0.0000 0.0000 0.0000
# 2 22.3715 76.4069 49.3117 0.0000 0.0000 0.0000
# 3 48.8542 49.3117 135.9942 0.0000 0.0000 0.0000
# 4 0.0000 0.0000 0.0000 28.6628 0.0000 0.0000
# 5 0.0000 0.0000 0.0000 0.0000 16.7772 0.0000
# 6 0.0000 0.0000 0.0000 0.0000 0.0000 10.6401
#
#
#
# Elastic Compliance Matrix: (Units=1/GPa)
#
#
# Indices 1 2 3 4 5 6 
#
# 1 0.016066 -0.001278 -0.005308 0.000000 0.000000 0.000000
# 2 -0.001278 0.017188 -0.005773 0.000000 0.000000 0.000000
# 3 -0.005308 -0.005773 0.011353 0.000000 0.000000 0.000000
# 4 0.000000 0.000000 0.000000 0.034888 0.000000 0.000000
# 5 0.000000 0.000000 0.000000 0.000000 0.059605 0.000000
# 6 0.000000 0.000000 0.000000 0.000000 0.000000 0.093984
#
#
# Mechanical properties :
#
#
# Convention : Reuss Voigt Hill
#
# Bulk Modulus (GPa) = 50.28052 59.29337 54.78694
# Shear Modulus (GPa) = 18.90840 22.68457 20.79648
#
# Velocity S-wave (km/s) = 3.30091 3.61552 3.46179
# Velocity P-wave (km/s) = 6.59562 7.18312 6.89563
#
# Compressibility (1/GPa) = 0.01988842
#
# Stress axis : x y z
#
# Youngs Moduli (GPa) = 62.24368 58.18006 88.07928
#
# Poissons Ratio (x) = 0.07438 0.46752
# Poissons Ratio (y) = 0.07957 0.50850
# Poissons Ratio (z) = 0.33038 0.33588
#
# Static dielectric constant tensor:
#      x y z
#    x 1.587790 0.000000 0.000000 
#    y 0.000000 1.570310 0.000000 
#    z 0.000000 0.000000 1.603910 
# 
# From -- ./inp_files/9301.got.cif
#   From: 2010.05.17/outbox.cif.g08.bks.cpg/sg58_5_cif.got.tgz:9301.got - 2010.06.03 14:20:14.
