data_PCOD9444877
_publ_section_title
;
Structure prediction by ZEFSAII (Michael W. Deem and Ramdas Pophale) SiO2 
 PCOD9444877
Probable space group: P N N M
;
_chemical_formula_sum "Si O2"
_cell_formula_units_Z 44
_cell_length_a 19.073813
_cell_length_b 8.297036
_cell_length_c 14.140167
_cell_angle_alpha 90.000000
_cell_angle_beta 90.000000
_cell_angle_gamma 90.000000
_cell_volume 2237.767868
_symmetry_space_group_name_H-M "P N N M"
_symmetry_group_IT_number 58
_symmetry_cell_setting 'orthorhombic'
loop_
_space_group_symop_operation_xyz
x,y,z
-x,-y,z
1/2+x,1/2-y,1/2-z
1/2-x,1/2+y,1/2-z
-x,-y,-z
x,y,-z
1/2-x,1/2+y,1/2+z
1/2+x,1/2-y,1/2+z
loop_
_atom_site_type_symbol
_atom_site_label
_atom_site_fract_x
_atom_site_fract_y
_atom_site_fract_z
Si Si1 0.301598 0.620717 0.500000
Si Si2 0.943957 0.798594 0.500000
Si Si3 0.270261 0.844944 0.667873
Si Si4 0.344242 0.159135 0.292088
Si Si5 0.804285 0.962114 0.500000
Si Si6 0.679529 0.737538 0.500000
Si Si7 0.361270 0.039421 0.000000
Si Si8 0.540785 0.830952 0.843895
O O1 0.310215 0.722924 0.596380
O O2 0.339123 0.450086 0.500000
O O3 0.220552 0.563799 0.500000
O O4 0.887245 0.938835 0.500000
O O5 0.897843 0.634466 0.500000
O O6 0.991403 0.785642 0.594318
O O7 0.219809 0.757349 0.743153
O O8 0.322814 0.970229 0.718924
O O9 0.221864 0.945179 0.593609
O O10 0.347208 0.186737 0.403610
O O11 0.418819 0.214801 0.250499
O O12 0.761765 0.792855 0.500000
O O13 0.393105 0.129261 0.910322
O O14 0.500000 0.000000 0.830889
#
# Coordination Sequence:
#
# PCOD9444877 Si02
#       8
#     4   4   8   8   4   4   4   8
#     4  11  17  35  57  87 107 148 174 239 306 329
#     4   9  17  32  58  91 116 148 177 222 286 354
#     4  10  22  32  58  82 119 149 181 243 289 343
#     4  11  21  38  51  85 112 151 200 228 284 335
#     4   9  19  36  54  94 116 140 182 228 303 351
#     4  10  22  34  58  79 116 151 184 250 275 335
#     4   9  15  29  54  82 115 136 178 219 278 347
#     4   9  19  32  55  83 114 155 187 224 272 352
#
# _framework density 19.662451000000001
#
# number of rings (size 3 to 8) (size 9 to 14) (size 15 to 20)
#    0.000    2.182    2.727    2.727    0.000    1.455 
#    0.000    2.273    0.000    0.000    0.000    3.818 
#    0.000    0.000    0.000    0.000    0.000    0.000 
#
# Total GULP energy -245272.693837 kJ/mol
# GULP energy per Si atom -5574.379405 kJ/mol
# Density = 1.961770 g / cm^3
# Si number density = 19.662451 Si / 1000 Ang^3
#
#
#
# Elastic Constant Matrix: (Units=GPa)
#
#
# Indices 1 2 3 4 5 6 
#
# 1 49.2363 1.6913 21.5180 0.0000 0.0000 0.0000
# 2 1.6913 70.0869 4.9212 0.0000 0.0000 0.0000
# 3 21.5180 4.9212 95.4872 0.0000 0.0000 0.0000
# 4 0.0000 0.0000 0.0000 10.2491 0.0000 0.0000
# 5 0.0000 0.0000 0.0000 0.0000 -3.2925 0.0000
# 6 0.0000 0.0000 0.0000 0.0000 0.0000 21.1796
#
#
#
# Elastic Compliance Matrix: (Units=1/GPa)
#
#
# Indices 1 2 3 4 5 6 
#
# 1 0.022532 -0.000188 -0.005068 0.000000 0.000000 0.000000
# 2 -0.000188 0.014321 -0.000696 0.000000 0.000000 0.000000
# 3 -0.005068 -0.000696 0.011650 0.000000 0.000000 0.000000
# 4 0.000000 0.000000 0.000000 0.097570 0.000000 0.000000
# 5 0.000000 0.000000 0.000000 0.000000 -0.303720 0.000000
# 6 0.000000 0.000000 0.000000 0.000000 0.000000 0.047215
#
#
# Mechanical properties :
#
#
# Convention : Reuss Voigt Hill
#
# Bulk Modulus (GPa) = 27.32199 30.11903 28.72051
# Shear Modulus (GPa) = -57.91839 18.07255 -19.92292
#
# Velocity S-wave (km/s) = -5.43326 3.03502 -3.18661
# Velocity P-wave (km/s) = 5.04328 5.25672 1.04843
#
# Compressibility (1/GPa) = 0.03660055
#
# Stress axis : x y z
#
# Youngs Moduli (GPa) = 44.38231 69.82560 85.83326
#
# Poissons Ratio (x) = 0.01312 0.43498
# Poissons Ratio (y) = 0.00834 0.05972
# Poissons Ratio (z) = 0.22492 0.04858
#
# Static dielectric constant tensor:
#      x y z
#    x 1.687770 0.000000 0.000000 
#    y 0.000000 1.761900 0.000000 
#    z 0.000000 0.000000 1.824090 
# 
# From -- ./inp_files/22732.got.cif
#   From: 2010.05.17/outbox.cif.g08.bks.cpg/sg58_12_cif.got.tgz:22732.got - 2010.06.03 14:20:14.
