data_PCOD9444694
_publ_section_title
;
Structure prediction by ZEFSAII (Michael W. Deem and Ramdas Pophale) SiO2 
 PCOD9444694
Probable space group: P N N M
;
_chemical_formula_sum "Si O2"
_cell_formula_units_Z 44
_cell_length_a 16.536288
_cell_length_b 14.438005
_cell_length_c 7.427916
_cell_angle_alpha 90.000000
_cell_angle_beta 90.000000
_cell_angle_gamma 90.000000
_cell_volume 1773.422438
_symmetry_space_group_name_H-M "P N N M"
_symmetry_group_IT_number 58
_symmetry_cell_setting 'orthorhombic'
loop_
_space_group_symop_operation_xyz
x,y,z
-x,-y,z
1/2+x,1/2-y,1/2-z
1/2-x,1/2+y,1/2-z
-x,-y,-z
x,y,-z
1/2-x,1/2+y,1/2+z
1/2+x,1/2-y,1/2+z
loop_
_atom_site_type_symbol
_atom_site_label
_atom_site_fract_x
_atom_site_fract_y
_atom_site_fract_z
Si Si1 0.063263 0.069639 0.294250
Si Si2 0.445247 0.273456 0.284365
Si Si3 0.847037 0.559520 0.500000
Si Si4 0.096168 0.569236 0.786788
Si Si5 0.734376 0.652047 0.196950
Si Si6 0.223636 0.145730 0.284740
O O1 0.075274 0.037178 0.500000
O O2 0.151421 0.082251 0.214662
O O3 0.019297 0.168578 0.292943
O O4 0.000000 0.000000 0.206226
O O5 0.448808 0.275953 0.500000
O O6 0.447325 0.165522 0.232325
O O7 0.360337 0.323264 0.232319
O O8 0.908247 0.518587 0.659300
O O9 0.782313 0.595740 0.344822
O O10 0.189851 0.600676 0.757644
O O11 0.083050 0.552162 0.000000
O O12 0.775763 0.753464 0.198911
O O13 0.740989 0.607769 0.000000
O O14 0.212712 0.159582 0.500000
#
# Coordination Sequence:
#
# PCOD9444694 Si02
#       6
#     8   8   4   8   8   8
#     4  10  22  36  59  91 127 162 197 245 301 360
#     4  10  21  40  57  86 125 165 200 241 301 370
#     4  12  22  36  62  96 110 156 200 270 284 354
#     4   9  21  38  61  87 122 157 200 249 300 354
#     4  11  22  37  62  87 122 160 202 248 300 352
#     4   9  19  39  57  86 127 166 198 239 302 369
#
# _framework density 24.810783000000001
#
# number of rings (size 3 to 8) (size 9 to 14) (size 15 to 20)
#    0.000    2.000    1.818    2.182    8.909    1.091 
#    0.000    0.000    0.000    2.182    0.000    3.818 
#    0.000    0.000    0.000    0.000    0.000    0.000 
#
# Total GULP energy -245152.308244 kJ/mol
# GULP energy per Si atom -5571.643369 kJ/mol
# Density = 2.475431 g / cm^3
# Si number density = 24.810783 Si / 1000 Ang^3
#
#
#
# Elastic Constant Matrix: (Units=GPa)
#
#
# Indices 1 2 3 4 5 6 
#
# 1 82.2626 36.0067 -12.6088 0.0000 0.0000 0.0000
# 2 36.0067 71.6508 21.1021 0.0000 0.0000 0.0000
# 3 -12.6088 21.1021 114.8078 0.0000 0.0000 0.0000
# 4 0.0000 0.0000 0.0000 19.1552 0.0000 0.0000
# 5 0.0000 0.0000 0.0000 0.0000 -0.0647 0.0000
# 6 0.0000 0.0000 0.0000 0.0000 0.0000 46.6109
#
#
#
# Elastic Compliance Matrix: (Units=1/GPa)
#
#
# Indices 1 2 3 4 5 6 
#
# 1 0.016890 -0.009551 0.003611 0.000000 0.000000 0.000000
# 2 -0.009551 0.020156 -0.004754 0.000000 0.000000 0.000000
# 3 0.003611 -0.004754 0.009980 0.000000 0.000000 0.000000
# 4 0.000000 0.000000 0.000000 0.052205 0.000000 0.000000
# 5 0.000000 0.000000 0.000000 0.000000-15.456046 0.000000
# 6 0.000000 0.000000 0.000000 0.000000 0.000000 0.021454
#
#
# Mechanical properties :
#
#
# Convention : Reuss Voigt Hill
#
# Bulk Modulus (GPa) = 39.00434 39.74682 39.37558
# Shear Modulus (GPa) = -0.32668 28.08835 13.88083
#
# Velocity S-wave (km/s) = -0.36326 3.36832 2.36787
# Velocity P-wave (km/s) = 3.94701 5.58410 4.83535
#
# Compressibility (1/GPa) = 0.02563817
#
# Stress axis : x y z
#
# Youngs Moduli (GPa) = 59.20593 49.61202 100.19540
#
# Poissons Ratio (x) = 0.47385 -0.36176
# Poissons Ratio (y) = 0.56549 0.47631
# Poissons Ratio (z) = -0.21376 0.23584
#
# Static dielectric constant tensor:
#      x y z
#    x 2.019480 0.000000 0.000000 
#    y 0.000000 2.039320 0.000000 
#    z 0.000000 0.000000 1.913570 
# 
# From -- ./inp_files/7622.got.cif
#   From: 2010.05.17/outbox.cif.g08.bks.cpg/sg58_4_cif.got.tgz:7622.got - 2010.06.03 14:20:14.
