data_PCOD9444986
_publ_section_title
;
Structure prediction by ZEFSAII (Michael W. Deem and Ramdas Pophale) SiO2 
 PCOD9444986
Probable space group: P N N M
;
_chemical_formula_sum "Si O2"
_cell_formula_units_Z 58
_cell_length_a 19.921254
_cell_length_b 18.164056
_cell_length_c 7.816057
_cell_angle_alpha 90.000000
_cell_angle_beta 90.000000
_cell_angle_gamma 90.000000
_cell_volume 2828.246269
_symmetry_space_group_name_H-M "P N N M"
_symmetry_group_IT_number 58
_symmetry_cell_setting 'orthorhombic'
loop_
_space_group_symop_operation_xyz
x,y,z
-x,-y,z
1/2+x,1/2-y,1/2-z
1/2-x,1/2+y,1/2-z
-x,-y,-z
x,y,-z
1/2-x,1/2+y,1/2+z
1/2+x,1/2-y,1/2+z
loop_
_atom_site_type_symbol
_atom_site_label
_atom_site_fract_x
_atom_site_fract_y
_atom_site_fract_z
Si Si1 0.874335 0.030586 0.198297
Si Si2 0.288934 0.760924 0.291604
Si Si3 0.886136 0.866260 0.199257
Si Si4 0.000000 0.500000 0.500000
Si Si5 0.271446 0.922523 0.698758
Si Si6 0.368277 0.048050 0.189411
Si Si7 0.034695 0.835574 0.699238
Si Si8 0.861089 0.286191 0.709069
O O1 0.797795 0.057679 0.209223
O O2 0.922610 0.089562 0.286269
O O3 0.878206 0.948218 0.273866
O O4 0.896012 0.027945 0.000000
O O5 0.293409 0.759973 0.500000
O O6 0.339283 0.698141 0.226635
O O7 0.301855 0.845033 0.237220
O O8 0.212634 0.741868 0.243637
O O9 0.963513 0.843531 0.210766
O O10 0.866339 0.873742 0.000000
O O11 0.057118 0.520579 0.353848
O O12 0.252956 0.912365 0.500000
O O13 0.324726 0.987755 0.714827
O O14 0.369947 0.129682 0.265523
O O15 0.334380 0.055495 0.000000
O O16 0.020614 0.820946 0.500000
O O17 0.081519 0.769820 0.768494
O O18 0.864656 0.285342 0.500000
#
# Coordination Sequence:
#
# PCOD9444986 Si02
#       8
#     8   8   8   2   8   8   8   8
#     4  11  22  38  61  85 116 158 202 242 288 357
#     4   9  18  35  57  81 112 150 195 237 287 355
#     4  10  22  39  59  84 114 155 199 238 289 359
#     4   8  20  36  58  88 112 144 206 252 280 348
#     4  11  21  36  60  89 120 151 193 256 304 343
#     4   9  19  37  60  84 114 156 198 242 290 354
#     4  11  22  37  59  88 120 156 193 241 301 351
#     4   9  17  35  60  80 109 157 198 230 293 358
#
# _framework density 20.507408000000002
#
# number of rings (size 3 to 8) (size 9 to 14) (size 15 to 20)
#    0.414    1.655    1.379    2.483    0.000    6.069 
#    0.000    2.414    0.000    0.000    0.000    0.000 
#    0.000    0.000    0.000    0.000    0.000    0.000 
#
# Total GULP energy -323124.508287 kJ/mol
# GULP energy per Si atom -5571.112212 kJ/mol
# Density = 2.046073 g / cm^3
# Si number density = 20.507408 Si / 1000 Ang^3
#
#
#
# Elastic Constant Matrix: (Units=GPa)
#
#
# Indices 1 2 3 4 5 6 
#
# 1 65.5752 47.0971 -12.1754 0.0000 0.0000 0.0000
# 2 47.0971 128.4507 -7.2470 0.0000 0.0000 0.0000
# 3 -12.1754 -7.2470 24.7873 0.0000 0.0000 0.0000
# 4 0.0000 0.0000 0.0000 4.3558 0.0000 0.0000
# 5 0.0000 0.0000 0.0000 0.0000 36.9907 0.0000
# 6 0.0000 0.0000 0.0000 0.0000 0.0000 17.4082
#
#
#
# Elastic Compliance Matrix: (Units=1/GPa)
#
#
# Indices 1 2 3 4 5 6 
#
# 1 0.022426 -0.007729 0.008756 0.000000 0.000000 0.000000
# 2 -0.007729 0.010579 -0.000703 0.000000 0.000000 0.000000
# 3 0.008756 -0.000703 0.044439 0.000000 0.000000 0.000000
# 4 0.000000 0.000000 0.000000 0.229578 0.000000 0.000000
# 5 0.000000 0.000000 0.000000 0.000000 0.027034 0.000000
# 6 0.000000 0.000000 0.000000 0.000000 0.000000 0.057444
#
#
# Mechanical properties :
#
#
# Convention : Reuss Voigt Hill
#
# Bulk Modulus (GPa) = 12.80540 30.46252 21.63396
# Shear Modulus (GPa) = 11.99378 24.49349 18.24364
#
# Velocity S-wave (km/s) = 2.42099 3.45972 2.98587
# Velocity P-wave (km/s) = 3.75137 5.55393 4.73914
#
# Compressibility (1/GPa) = 0.07809205
#
# Stress axis : x y z
#
# Youngs Moduli (GPa) = 44.59060 94.52532 22.50298
#
# Poissons Ratio (x) = 0.73056 -0.19704
# Poissons Ratio (y) = 0.34463 0.01583
# Poissons Ratio (z) = -0.39044 0.06648
#
# Static dielectric constant tensor:
#      x y z
#    x 1.666840 0.000000 0.000000 
#    y 0.000000 1.757580 0.000000 
#    z 0.000000 0.000000 1.772860 
# 
# From -- ./inp_files/8041.got.cif
#   From: 2010.05.17/outbox.cif.g08.bks.cpg/sg58_5_cif.got.tgz:8041.got - 2010.06.03 14:20:14.
