data_PCOD9444703
_publ_section_title
;
Structure prediction by ZEFSAII (Michael W. Deem and Ramdas Pophale) SiO2 
 PCOD9444703
Probable space group: P N N M
;
_chemical_formula_sum "Si O2"
_cell_formula_units_Z 40
_cell_length_a 18.317895
_cell_length_b 13.698133
_cell_length_c 8.819136
_cell_angle_alpha 90.000000
_cell_angle_beta 90.000000
_cell_angle_gamma 90.000000
_cell_volume 2212.906089
_symmetry_space_group_name_H-M "P N N M"
_symmetry_group_IT_number 58
_symmetry_cell_setting 'orthorhombic'
loop_
_space_group_symop_operation_xyz
x,y,z
-x,-y,z
1/2+x,1/2-y,1/2-z
1/2-x,1/2+y,1/2-z
-x,-y,-z
x,y,-z
1/2-x,1/2+y,1/2+z
1/2+x,1/2-y,1/2+z
loop_
_atom_site_type_symbol
_atom_site_label
_atom_site_fract_x
_atom_site_fract_y
_atom_site_fract_z
Si Si1 0.040034 0.899602 0.681432
Si Si2 0.370955 0.115494 0.181426
Si Si3 0.684394 0.683481 0.319338
Si Si4 0.329784 0.908427 0.680001
Si Si5 0.968677 0.692556 0.320116
O O1 0.055007 0.899676 0.500000
O O2 0.115606 0.882276 0.767746
O O3 0.989298 0.805211 0.710839
O O4 0.000000 0.000000 0.720942
O O5 0.330417 0.210301 0.246911
O O6 0.457324 0.131918 0.211735
O O7 0.342877 0.016992 0.256526
O O8 0.361908 0.111872 0.000000
O O9 0.686737 0.691135 0.500000
O O10 0.758654 0.638276 0.256262
O O11 0.320889 0.910560 0.500000
O O12 0.400827 0.846072 0.726324
O O13 0.952786 0.682525 0.500000
#
# Coordination Sequence:
#
# PCOD9444703 Si02
#       5
#     8   8   8   8   8
#     4   9  19  38  62  85 114 152 191 234 285 338
#     4  10  21  40  62  83 112 147 186 235 290 342
#     4  11  23  39  58  83 117 152 190 235 283 336
#     4  12  24  37  57  85 117 152 192 235 282 337
#     4   9  19  36  58  84 114 148 188 235 286 339
#
# _framework density 18.075779000000001
#
# number of rings (size 3 to 8) (size 9 to 14) (size 15 to 20)
#    0.000    1.800    0.000    6.000    0.000    8.400 
#    0.000    6.000    0.000    0.000    0.000    0.000 
#    0.000    0.000    0.000    0.000    0.000    0.000 
#
# Total GULP energy -223555.887536 kJ/mol
# GULP energy per Si atom -5588.897188 kJ/mol
# Density = 1.803464 g / cm^3
# Si number density = 18.075779 Si / 1000 Ang^3
#
#
#
# Elastic Constant Matrix: (Units=GPa)
#
#
# Indices 1 2 3 4 5 6 
#
# 1 113.0692 72.0018 64.2006 0.0000 0.0000 0.0000
# 2 72.0018 81.7931 41.7151 0.0000 0.0000 0.0000
# 3 64.2006 41.7151 88.9085 0.0000 0.0000 0.0000
# 4 0.0000 0.0000 0.0000 32.3477 0.0000 0.0000
# 5 0.0000 0.0000 0.0000 0.0000 35.9985 0.0000
# 6 0.0000 0.0000 0.0000 0.0000 0.0000 19.9583
#
#
#
# Elastic Compliance Matrix: (Units=1/GPa)
#
#
# Indices 1 2 3 4 5 6 
#
# 1 0.025959 -0.017473 -0.010547 0.000000 0.000000 0.000000
# 2 -0.017473 0.027832 -0.000442 0.000000 0.000000 0.000000
# 3 -0.010547 -0.000442 0.019071 0.000000 0.000000 0.000000
# 4 0.000000 0.000000 0.000000 0.030914 0.000000 0.000000
# 5 0.000000 0.000000 0.000000 0.000000 0.027779 0.000000
# 6 0.000000 0.000000 0.000000 0.000000 0.000000 0.050105
#
#
# Mechanical properties :
#
#
# Convention : Reuss Voigt Hill
#
# Bulk Modulus (GPa) = 62.73750 71.06730 66.90240
# Shear Modulus (GPa) = 20.50056 24.71778 22.60917
#
# Velocity S-wave (km/s) = 3.37136 3.70192 3.54050
# Velocity P-wave (km/s) = 7.06669 7.59434 7.33526
#
# Compressibility (1/GPa) = 0.01593943
#
# Stress axis : x y z
#
# Youngs Moduli (GPa) = 38.52197 35.92959 52.43609
#
# Poissons Ratio (x) = 0.62778 0.55305
# Poissons Ratio (y) = 0.67308 0.02316
# Poissons Ratio (z) = 0.40630 0.01587
#
# Static dielectric constant tensor:
#      x y z
#    x 1.587630 0.000000 0.000000 
#    y 0.000000 1.603680 0.000000 
#    z 0.000000 0.000000 1.601630 
# 
# From -- ./inp_files/3781.got.cif
#   From: 2010.05.17/outbox.cif.g08.bks.cpg/sg58_2_cif.got.tgz:3781.got - 2010.06.03 14:20:14.
