data_PCOD9444059
_publ_section_title
;
Structure prediction by ZEFSAII (Michael W. Deem and Ramdas Pophale) SiO2 
 PCOD9444059
Probable space group: P N N M
;
_chemical_formula_sum "Si O2"
_cell_formula_units_Z 64
_cell_length_a 11.746683
_cell_length_b 33.045329
_cell_length_c 7.415115
_cell_angle_alpha 90.000000
_cell_angle_beta 90.000000
_cell_angle_gamma 90.000000
_cell_volume 2878.347467
_symmetry_space_group_name_H-M "P N N M"
_symmetry_group_IT_number 58
_symmetry_cell_setting 'orthorhombic'
loop_
_space_group_symop_operation_xyz
x,y,z
-x,-y,z
1/2+x,1/2-y,1/2-z
1/2-x,1/2+y,1/2-z
-x,-y,-z
x,y,-z
1/2-x,1/2+y,1/2+z
1/2+x,1/2-y,1/2+z
loop_
_atom_site_type_symbol
_atom_site_label
_atom_site_fract_x
_atom_site_fract_y
_atom_site_fract_z
Si Si1 0.130006 0.494141 0.295431
Si Si2 0.638788 0.656385 0.780919
Si Si3 0.235110 0.680424 0.211677
Si Si4 0.282327 0.770759 0.282767
Si Si5 0.881149 0.979981 0.208827
Si Si6 0.092625 0.114149 0.719695
Si Si7 0.486429 0.827594 0.719827
Si Si8 0.847162 0.598132 0.217601
O O1 0.123366 0.510881 0.500000
O O2 0.252349 0.510435 0.216818
O O3 0.147732 0.446027 0.296941
O O4 0.000000 0.500000 0.217548
O O5 0.674777 0.701611 0.722280
O O6 0.520850 0.637570 0.720945
O O7 0.737408 0.624640 0.730762
O O8 0.636970 0.657538 0.000000
O O9 0.289286 0.724570 0.226052
O O10 0.305696 0.642884 0.284004
O O11 0.109396 0.683505 0.288492
O O12 0.222715 0.671707 0.000000
O O13 0.280550 0.770662 0.500000
O O14 0.391110 0.796186 0.220133
O O15 0.898706 0.931842 0.218241
O O16 0.875569 0.993836 0.000000
O O17 0.000000 0.000000 0.283307
O O18 0.091401 0.112862 0.500000
O O19 0.482968 0.825907 0.500000
O O20 0.452333 0.873199 0.767893
O O21 0.845023 0.593734 0.000000
#
# Coordination Sequence:
#
# PCOD9444059 Si02
#       8
#     8   8   8   8   8   8   8   8
#     4  10  22  37  53  77 111 141 166 212 271 316
#     4   8  16  33  54  78 105 135 171 217 263 302
#     4  10  21  34  50  76 110 138 167 217 268 303
#     4   9  18  34  55  74  99 141 182 210 251 312
#     4  10  22  40  59  80 109 143 177 216 267 326
#     4  10  21  35  55  81 110 138 171 220 271 312
#     4   8  17  34  52  73 105 138 168 212 263 306
#     4   9  17  33  58  78  97 133 180 215 249 308
#
# _framework density 22.23498
#
# number of rings (size 3 to 8) (size 9 to 14) (size 15 to 20)
#    0.000    2.750    0.000    2.250    3.500    1.500 
#    0.000    3.750    0.000    0.000    0.000    0.000 
#    0.000    0.000    0.000    0.000    0.000    0.000 
#
# Total GULP energy -356885.552538 kJ/mol
# GULP energy per Si atom -5576.336758 kJ/mol
# Density = 2.218437 g / cm^3
# Si number density = 22.234980 Si / 1000 Ang^3
#
#
#
# Elastic Constant Matrix: (Units=GPa)
#
#
# Indices 1 2 3 4 5 6 
#
# 1 144.9921 59.1783 5.1684 0.0000 0.0000 0.0000
# 2 59.1783 130.5162 -13.1887 0.0000 0.0000 0.0000
# 3 5.1684 -13.1887 69.5198 0.0000 0.0000 0.0000
# 4 0.0000 0.0000 0.0000 22.3017 0.0000 0.0000
# 5 0.0000 0.0000 0.0000 0.0000 -6.0650 0.0000
# 6 0.0000 0.0000 0.0000 0.0000 0.0000 22.0535
#
#
#
# Elastic Compliance Matrix: (Units=1/GPa)
#
#
# Indices 1 2 3 4 5 6 
#
# 1 0.008596 -0.004039 -0.001405 0.000000 0.000000 0.000000
# 2 -0.004039 0.009710 0.002142 0.000000 0.000000 0.000000
# 3 -0.001405 0.002142 0.014895 0.000000 0.000000 0.000000
# 4 0.000000 0.000000 0.000000 0.044840 0.000000 0.000000
# 5 0.000000 0.000000 0.000000 0.000000 -0.164879 0.000000
# 6 0.000000 0.000000 0.000000 0.000000 0.000000 0.045344
#
#
# Mechanical properties :
#
#
# Convention : Reuss Voigt Hill
#
# Bulk Modulus (GPa) = 37.59951 49.70488 43.65219
# Shear Modulus (GPa) = -192.12709 27.24939 -82.43885
#
# Velocity S-wave (km/s) = -9.30565 3.50454 -6.09563
# Velocity P-wave (km/s) = 9.92539 6.22725 5.46511
#
# Compressibility (1/GPa) = 0.02659609
#
# Stress axis : x y z
#
# Youngs Moduli (GPa) = 116.33699 102.98728 67.13527
#
# Poissons Ratio (x) = 0.41601 0.09435
# Poissons Ratio (y) = 0.46994 -0.14383
# Poissons Ratio (z) = 0.16350 -0.22064
#
# Static dielectric constant tensor:
#      x y z
#    x 1.858380 0.000000 0.000000 
#    y 0.000000 1.742960 0.000000 
#    z 0.000000 0.000000 1.921700 
# 
# From -- ./inp_files/4808.got.cif
#   From: 2010.05.17/outbox.cif.g08.bks.cpg/sg58_3_cif.got.tgz:4808.got - 2010.06.03 14:20:14.
