data_PCOD9444486
_publ_section_title
;
Structure prediction by ZEFSAII (Michael W. Deem and Ramdas Pophale) SiO2 
 PCOD9444486
Probable space group: P N N M
;
_chemical_formula_sum "Si O2"
_cell_formula_units_Z 48
_cell_length_a 28.822205
_cell_length_b 10.516077
_cell_length_c 8.682163
_cell_angle_alpha 90.000000
_cell_angle_beta 90.000000
_cell_angle_gamma 90.000000
_cell_volume 2631.533453
_symmetry_space_group_name_H-M "P N N M"
_symmetry_group_IT_number 58
_symmetry_cell_setting 'orthorhombic'
loop_
_space_group_symop_operation_xyz
x,y,z
-x,-y,z
1/2+x,1/2-y,1/2-z
1/2-x,1/2+y,1/2-z
-x,-y,-z
x,y,-z
1/2-x,1/2+y,1/2+z
1/2+x,1/2-y,1/2+z
loop_
_atom_site_type_symbol
_atom_site_label
_atom_site_fract_x
_atom_site_fract_y
_atom_site_fract_z
Si Si1 0.642188 0.244346 0.815690
Si Si2 0.692809 0.506489 0.185747
Si Si3 0.301065 0.993087 0.685623
Si Si4 0.142093 0.747184 0.815770
Si Si5 0.950734 0.643567 0.816225
Si Si6 0.449922 0.140587 0.816321
O O1 0.667587 0.375042 0.771811
O O2 0.673197 0.125268 0.762499
O O3 0.591972 0.228635 0.738895
O O4 0.637084 0.240911 0.000000
O O5 0.747023 0.502550 0.229227
O O6 0.667510 0.626014 0.261021
O O7 0.690569 0.518628 0.000000
O O8 0.304169 0.979242 0.500000
O O9 0.326741 0.124330 0.726837
O O10 0.092141 0.728405 0.737964
O O11 0.136719 0.747455 0.000000
O O12 0.941973 0.500139 0.754573
O O13 0.000114 0.684226 0.746385
O O14 0.953451 0.639629 0.000000
O O15 0.451303 0.130271 0.000000
#
# Coordination Sequence:
#
# PCOD9444486 Si02
#       6
#     8   8   8   8   8   8
#     4  11  22  38  60  87 118 156 198 244 293 347
#     4  10  23  40  57  83 120 159 198 242 292 347
#     4  10  21  38  60  85 116 154 199 247 291 344
#     4  11  22  38  60  88 120 156 195 242 294 348
#     4  11  21  36  59  88 119 151 190 241 291 346
#     4  11  21  36  60  89 117 150 192 240 289 346
#
# _framework density 18.240316
#
# number of rings (size 3 to 8) (size 9 to 14) (size 15 to 20)
#    0.000    1.333    1.667    6.000    0.000    4.000 
#    0.000    0.833    0.000    5.000    0.000    0.000 
#    0.000    0.000    0.000    0.000    0.000    0.000 
#
# Total GULP energy -268369.206753 kJ/mol
# GULP energy per Si atom -5591.025141 kJ/mol
# Density = 1.819880 g / cm^3
# Si number density = 18.240316 Si / 1000 Ang^3
#
#
#
# Elastic Constant Matrix: (Units=GPa)
#
#
# Indices 1 2 3 4 5 6 
#
# 1 169.1731 75.2455 65.2149 0.0000 0.0000 0.0000
# 2 75.2455 124.9732 54.9542 0.0000 0.0000 0.0000
# 3 65.2149 54.9542 88.3467 0.0000 0.0000 0.0000
# 4 0.0000 0.0000 0.0000 30.6955 0.0000 0.0000
# 5 0.0000 0.0000 0.0000 0.0000 33.3776 0.0000
# 6 0.0000 0.0000 0.0000 0.0000 0.0000 -0.9315
#
#
#
# Elastic Compliance Matrix: (Units=1/GPa)
#
#
# Indices 1 2 3 4 5 6 
#
# 1 0.009278 -0.003544 -0.004644 0.000000 0.000000 0.000000
# 2 -0.003544 0.012368 -0.005077 0.000000 0.000000 0.000000
# 3 -0.004644 -0.005077 0.017905 0.000000 0.000000 0.000000
# 4 0.000000 0.000000 0.000000 0.032578 0.000000 0.000000
# 5 0.000000 0.000000 0.000000 0.000000 0.029960 0.000000
# 6 0.000000 0.000000 0.000000 0.000000 0.000000 -1.073506
#
#
# Mechanical properties :
#
#
# Convention : Reuss Voigt Hill
#
# Bulk Modulus (GPa) = 76.80152 85.92467 81.36310
# Shear Modulus (GPa) = -5.31606 25.10020 9.89207
#
# Velocity S-wave (km/s) = -1.70903 3.71358 2.33130
# Velocity P-wave (km/s) = 6.18889 8.09919 7.20761
#
# Compressibility (1/GPa) = 0.01302058
#
# Stress axis : x y z
#
# Youngs Moduli (GPa) = 107.78639 80.85317 55.84904
#
# Poissons Ratio (x) = 0.28653 0.25937
# Poissons Ratio (y) = 0.38198 0.28356
# Poissons Ratio (z) = 0.50057 0.41052
#
# Static dielectric constant tensor:
#      x y z
#    x 1.620820 0.000000 0.000000 
#    y 0.000000 1.589500 0.000000 
#    z 0.000000 0.000000 1.612310 
# 
# From -- ./inp_files/10335.got.cif
#   From: 2010.05.17/outbox.cif.g08.bks.cpg/sg58_6_cif.got.tgz:10335.got - 2010.06.03 14:20:14.
