data_PCOD9444896
_publ_section_title
;
Structure prediction by ZEFSAII (Michael W. Deem and Ramdas Pophale) SiO2 
 PCOD9444896
Probable space group: P N N M
;
_chemical_formula_sum "Si O2"
_cell_formula_units_Z 64
_cell_length_a 8.945620
_cell_length_b 26.119456
_cell_length_c 13.853277
_cell_angle_alpha 90.000000
_cell_angle_beta 90.000000
_cell_angle_gamma 90.000000
_cell_volume 3236.883669
_symmetry_space_group_name_H-M "P N N M"
_symmetry_group_IT_number 58
_symmetry_cell_setting 'orthorhombic'
loop_
_space_group_symop_operation_xyz
x,y,z
-x,-y,z
1/2+x,1/2-y,1/2-z
1/2-x,1/2+y,1/2-z
-x,-y,-z
x,y,-z
1/2-x,1/2+y,1/2+z
1/2+x,1/2-y,1/2+z
loop_
_atom_site_type_symbol
_atom_site_label
_atom_site_fract_x
_atom_site_fract_y
_atom_site_fract_z
Si Si1 0.663666 0.766700 0.108707
Si Si2 0.834636 0.439974 0.389164
Si Si3 0.294464 0.908554 0.387302
Si Si4 0.587564 0.350016 0.608996
Si Si5 0.599108 0.947734 0.388281
Si Si6 0.822340 0.997592 0.262379
Si Si7 0.074738 0.358786 0.612572
Si Si8 0.336389 0.328442 0.759510
O O1 0.541931 0.811887 0.112988
O O2 0.647829 0.728829 0.199328
O O3 0.819708 0.797251 0.112540
O O4 0.651056 0.743415 0.000000
O O5 0.858372 0.452724 0.500000
O O6 0.702084 0.397554 0.383241
O O7 0.774176 0.489345 0.333744
O O8 0.983658 0.409950 0.355947
O O9 0.278220 0.921563 0.500000
O O10 0.473395 0.905010 0.369230
O O11 0.223949 0.952505 0.321223
O O12 0.206137 0.858901 0.356130
O O13 0.519632 0.353440 0.500000
O O14 0.477892 0.348548 0.699602
O O15 0.641635 0.945809 0.500000
O O16 0.500000 0.000000 0.374096
O O17 0.748528 0.951304 0.325611
O O18 0.000000 0.000000 0.247393
O O19 0.121669 0.365850 0.500000
O O20 0.203803 0.341764 0.684710
#
# Coordination Sequence:
#
# PCOD9444896 Si02
#       8
#     8   8   8   8   8   8   8   8
#     4   9  19  35  53  76 108 142 168 200 253 310
#     4   9  19  37  54  70 100 138 170 208 261 314
#     4  10  22  36  50  73 106 139 168 205 256 310
#     4   9  19  35  53  75 104 134 167 209 258 305
#     4   8  16  32  49  64  90 128 163 195 239 294
#     4  11  20  32  52  76  96 128 173 215 254 299
#     4   9  19  35  55  78 104 135 172 212 256 301
#     4  12  19  31  55  82 104 131 175 215 247 293
#
# _framework density 19.772103999999999
#
# number of rings (size 3 to 8) (size 9 to 14) (size 15 to 20)
#    0.000    2.375    0.000    5.625    0.000    1.250 
#    0.000    1.250    0.000    4.875    0.000   19.250 
#    0.000    0.000    0.000    0.000    0.000    0.000 
#
# Total GULP energy -356593.811724 kJ/mol
# GULP energy per Si atom -5571.778308 kJ/mol
# Density = 1.972710 g / cm^3
# Si number density = 19.772104 Si / 1000 Ang^3
#
#
#
# Elastic Constant Matrix: (Units=GPa)
#
#
# Indices 1 2 3 4 5 6 
#
# 1 51.7155 7.2541 23.8889 0.0000 0.0000 0.0000
# 2 7.2541 38.0817 15.9528 0.0000 0.0000 0.0000
# 3 23.8889 15.9528 91.3031 0.0000 0.0000 0.0000
# 4 0.0000 0.0000 0.0000 22.9122 0.0000 0.0000
# 5 0.0000 0.0000 0.0000 0.0000 23.0798 0.0000
# 6 0.0000 0.0000 0.0000 0.0000 0.0000 15.5885
#
#
#
# Elastic Compliance Matrix: (Units=1/GPa)
#
#
# Indices 1 2 3 4 5 6 
#
# 1 0.022126 -0.001931 -0.005452 0.000000 0.000000 0.000000
# 2 -0.001931 0.028502 -0.004475 0.000000 0.000000 0.000000
# 3 -0.005452 -0.004475 0.013161 0.000000 0.000000 0.000000
# 4 0.000000 0.000000 0.000000 0.043645 0.000000 0.000000
# 5 0.000000 0.000000 0.000000 0.000000 0.043328 0.000000
# 6 0.000000 0.000000 0.000000 0.000000 0.000000 0.064150
#
#
# Mechanical properties :
#
#
# Convention : Reuss Voigt Hill
#
# Bulk Modulus (GPa) = 24.95415 30.58800 27.77108
# Shear Modulus (GPa) = 19.84261 21.24975 20.54618
#
# Velocity S-wave (km/s) = 3.17135 3.28187 3.22708
# Velocity P-wave (km/s) = 5.10472 5.46487 5.28786
#
# Compressibility (1/GPa) = 0.04007349
#
# Stress axis : x y z
#
# Youngs Moduli (GPa) = 45.19634 35.08574 75.98348
#
# Poissons Ratio (x) = 0.06775 0.41424
# Poissons Ratio (y) = 0.08727 0.34000
# Poissons Ratio (z) = 0.24640 0.15700
#
# Static dielectric constant tensor:
#      x y z
#    x 1.711400 0.000000 0.000000 
#    y 0.000000 1.960460 0.000000 
#    z 0.000000 0.000000 1.734520 
# 
# From -- ./inp_files/20412.got.cif
#   From: 2010.05.17/outbox.cif.g08.bks.cpg/sg58_11_cif.got.tgz:20412.got - 2010.06.03 14:20:14.
