data_PCOD9444635
_publ_section_title
;
Structure prediction by ZEFSAII (Michael W. Deem and Ramdas Pophale) SiO2 
 PCOD9444635
Probable space group: P N N M
;
_chemical_formula_sum "Si O2"
_cell_formula_units_Z 56
_cell_length_a 14.286158
_cell_length_b 12.291917
_cell_length_c 14.494723
_cell_angle_alpha 90.000000
_cell_angle_beta 90.000000
_cell_angle_gamma 90.000000
_cell_volume 2545.335228
_symmetry_space_group_name_H-M "P N N M"
_symmetry_group_IT_number 58
_symmetry_cell_setting 'orthorhombic'
loop_
_space_group_symop_operation_xyz
x,y,z
-x,-y,z
1/2+x,1/2-y,1/2-z
1/2-x,1/2+y,1/2-z
-x,-y,-z
x,y,-z
1/2-x,1/2+y,1/2+z
1/2+x,1/2-y,1/2+z
loop_
_atom_site_type_symbol
_atom_site_label
_atom_site_fract_x
_atom_site_fract_y
_atom_site_fract_z
Si Si1 0.574190 0.242232 0.394139
Si Si2 0.136349 0.026538 0.604872
Si Si3 0.825425 0.762162 0.287165
Si Si4 0.064246 0.395682 0.602037
Si Si5 0.856386 0.499373 0.897201
Si Si6 0.880698 0.287785 0.199164
Si Si7 0.090137 0.788491 0.600452
O O1 0.579866 0.282333 0.500000
O O2 0.654627 0.277041 0.321737
O O3 0.589868 0.112233 0.397877
O O4 0.472429 0.264481 0.347439
O O5 0.123657 0.065238 0.500000
O O6 0.127492 0.129269 0.670643
O O7 0.244575 0.984582 0.614423
O O8 0.076162 0.917055 0.616348
O O9 0.868679 0.646131 0.317516
O O10 0.723336 0.760506 0.334972
O O11 0.107807 0.414905 0.500000
O O12 0.000000 0.500000 0.622300
O O13 0.998346 0.290095 0.592632
O O14 0.889941 0.415684 0.820374
O O15 0.869438 0.448496 0.000000
O O16 0.867964 0.256771 0.305563
O O17 0.140034 0.780753 0.500000
#
# Coordination Sequence:
#
# PCOD9444635 Si02
#       7
#     8   8   8   8   8   8   8
#     4  11  23  40  64  95 132 176 223 272 329 394
#     4   9  19  38  64  95 126 162 216 269 321 389
#     4  11  23  39  64  96 130 170 216 272 331 391
#     4  10  22  40  62  91 126 164 209 267 334 394
#     4   9  19  36  62  95 129 166 212 270 325 384
#     4  11  22  37  62  97 130 169 217 273 326 393
#     4  10  21  39  62  88 122 164 210 260 317 383
#
# _framework density 22.001031999999999
#
# number of rings (size 3 to 8) (size 9 to 14) (size 15 to 20)
#    0.000    1.857    1.429    2.143    2.000    5.143 
#    0.000    2.143    0.000    2.571    0.000    0.000 
#    0.000    0.000    0.000    0.000    0.000    0.000 
#
# Total GULP energy -312077.082193 kJ/mol
# GULP energy per Si atom -5572.805039 kJ/mol
# Density = 2.195096 g / cm^3
# Si number density = 22.001032 Si / 1000 Ang^3
#
#
#
# Elastic Constant Matrix: (Units=GPa)
#
#
# Indices 1 2 3 4 5 6 
#
# 1 75.6554 17.9552 17.6752 0.0000 0.0000 0.0000
# 2 17.9552 83.2591 48.1083 0.0000 0.0000 0.0000
# 3 17.6752 48.1083 127.0528 0.0000 0.0000 0.0000
# 4 0.0000 0.0000 0.0000 37.8204 0.0000 0.0000
# 5 0.0000 0.0000 0.0000 0.0000 12.6540 0.0000
# 6 0.0000 0.0000 0.0000 0.0000 0.0000 27.9851
#
#
#
# Elastic Compliance Matrix: (Units=1/GPa)
#
#
# Indices 1 2 3 4 5 6 
#
# 1 0.014036 -0.002430 -0.001032 0.000000 0.000000 0.000000
# 2 -0.002430 0.015795 -0.005643 0.000000 0.000000 0.000000
# 3 -0.001032 -0.005643 0.010151 0.000000 0.000000 0.000000
# 4 0.000000 0.000000 0.000000 0.026441 0.000000 0.000000
# 5 0.000000 0.000000 0.000000 0.000000 0.079027 0.000000
# 6 0.000000 0.000000 0.000000 0.000000 0.000000 0.035733
#
#
# Mechanical properties :
#
#
# Convention : Reuss Voigt Hill
#
# Bulk Modulus (GPa) = 45.93245 50.38275 48.15760
# Shear Modulus (GPa) = 24.19541 29.17379 26.68460
#
# Velocity S-wave (km/s) = 3.31983 3.64541 3.48642
# Velocity P-wave (km/s) = 5.96806 6.37719 6.17601
#
# Compressibility (1/GPa) = 0.02177110
#
# Stress axis : x y z
#
# Youngs Moduli (GPa) = 71.24636 63.31008 98.51264
#
# Poissons Ratio (x) = 0.15387 0.10170
# Poissons Ratio (y) = 0.17315 0.55588
# Poissons Ratio (z) = 0.07355 0.35724
#
# Static dielectric constant tensor:
#      x y z
#    x 1.942330 0.000000 0.000000 
#    y 0.000000 1.765450 0.000000 
#    z 0.000000 0.000000 1.902040 
# 
# From -- ./inp_files/22209.got.cif
#   From: 2010.05.17/outbox.cif.g08.bks.cpg/sg58_12_cif.got.tgz:22209.got - 2010.06.03 14:20:14.
