data_PCOD9444429
_publ_section_title
;
Structure prediction by ZEFSAII (Michael W. Deem and Ramdas Pophale) SiO2 
 PCOD9444429
Probable space group: P N N M
;
_chemical_formula_sum "Si O2"
_cell_formula_units_Z 64
_cell_length_a 15.471818
_cell_length_b 11.675107
_cell_length_c 18.117546
_cell_angle_alpha 90.000000
_cell_angle_beta 90.000000
_cell_angle_gamma 90.000000
_cell_volume 3272.665288
_symmetry_space_group_name_H-M "P N N M"
_symmetry_group_IT_number 58
_symmetry_cell_setting 'orthorhombic'
loop_
_space_group_symop_operation_xyz
x,y,z
-x,-y,z
1/2+x,1/2-y,1/2-z
1/2-x,1/2+y,1/2-z
-x,-y,-z
x,y,-z
1/2-x,1/2+y,1/2+z
1/2+x,1/2-y,1/2+z
loop_
_atom_site_type_symbol
_atom_site_label
_atom_site_fract_x
_atom_site_fract_y
_atom_site_fract_z
Si Si1 0.825688 0.722799 0.690401
Si Si2 0.994116 0.866999 0.849352
Si Si3 0.599985 0.969314 0.788421
Si Si4 0.353669 0.192018 0.353769
Si Si5 0.869756 0.291321 0.413243
Si Si6 0.598077 0.027488 0.582682
Si Si7 0.820399 0.748214 0.858669
Si Si8 0.993689 0.865498 0.670191
O O1 0.850618 0.590165 0.702623
O O2 0.735777 0.740820 0.649504
O O3 0.807598 0.772355 0.772288
O O4 0.904497 0.795943 0.655261
O O5 0.902668 0.823877 0.880132
O O6 0.999713 0.857965 0.759525
O O7 0.069707 0.780221 0.872057
O O8 0.000000 0.000000 0.868571
O O9 0.628442 0.880954 0.722846
O O10 0.610233 0.904571 0.866121
O O11 0.500000 0.000000 0.775605
O O12 0.352198 0.091364 0.413170
O O13 0.889399 0.298761 0.500000
O O14 0.768182 0.265211 0.401616
O O15 0.928478 0.196486 0.372251
O O16 0.594472 0.074067 0.500000
O O17 0.500000 0.000000 0.606069
O O18 0.645377 0.119307 0.632500
O O19 0.000000 0.000000 0.651546
#
# Coordination Sequence:
#
# PCOD9444429 Si02
#       8
#     8   8   8   8   8   8   8   8
#     4  11  23  37  68  99 123 161 218 273 319 377
#     4  10  21  37  64  96 129 160 208 272 327 381
#     4  12  22  43  68  95 129 170 225 270 319 381
#     4  12  22  39  67  98 128 164 211 276 326 382
#     4  12  26  43  64  94 136 179 217 266 329 399
#     4  11  23  40  65  94 128 167 215 269 326 389
#     4  11  21  40  64  95 127 170 211 269 327 384
#     4  10  22  41  61  93 129 165 213 265 322 381
#
# _framework density 19.555925999999999
#
# number of rings (size 3 to 8) (size 9 to 14) (size 15 to 20)
#    0.000    0.875    6.250    1.500    3.500    1.500 
#    0.000    1.250    0.000    1.875    0.000    0.000 
#    0.000    0.000    0.000    0.000    0.000    0.000 
#
# Total GULP energy -357176.400720 kJ/mol
# GULP energy per Si atom -5580.881261 kJ/mol
# Density = 1.951142 g / cm^3
# Si number density = 19.555926 Si / 1000 Ang^3
#
#
#
# Elastic Constant Matrix: (Units=GPa)
#
#
# Indices 1 2 3 4 5 6 
#
# 1 117.9759 43.4810 22.4392 0.0000 0.0000 0.0000
# 2 43.4810 116.2372 16.5460 0.0000 0.0000 0.0000
# 3 22.4392 16.5460 62.4976 0.0000 0.0000 0.0000
# 4 0.0000 0.0000 0.0000 5.6632 0.0000 0.0000
# 5 0.0000 0.0000 0.0000 0.0000 -11.9105 0.0000
# 6 0.0000 0.0000 0.0000 0.0000 0.0000 34.1139
#
#
#
# Elastic Compliance Matrix: (Units=1/GPa)
#
#
# Indices 1 2 3 4 5 6 
#
# 1 0.010275 -0.003449 -0.002776 0.000000 0.000000 0.000000
# 2 -0.003449 0.010097 -0.001435 0.000000 0.000000 0.000000
# 3 -0.002776 -0.001435 0.017377 0.000000 0.000000 0.000000
# 4 0.000000 0.000000 0.000000 0.176579 0.000000 0.000000
# 5 0.000000 0.000000 0.000000 0.000000 -0.083960 0.000000
# 6 0.000000 0.000000 0.000000 0.000000 0.000000 0.029314
#
#
# Mechanical properties :
#
#
# Convention : Reuss Voigt Hill
#
# Bulk Modulus (GPa) = 44.58259 51.29368 47.93813
# Shear Modulus (GPa) = 27.40038 19.85629 23.62834
#
# Velocity S-wave (km/s) = 3.74723 3.18993 3.47975
# Velocity P-wave (km/s) = 6.44742 6.31298 6.38055
#
# Compressibility (1/GPa) = 0.02243028
#
# Stress axis : x y z
#
# Youngs Moduli (GPa) = 97.32032 99.03568 57.54621
#
# Poissons Ratio (x) = 0.34153 0.15976
# Poissons Ratio (y) = 0.33561 0.08258
# Poissons Ratio (z) = 0.27019 0.14212
#
# Static dielectric constant tensor:
#      x y z
#    x 1.689250 0.000000 0.000000 
#    y 0.000000 1.674220 0.000000 
#    z 0.000000 0.000000 1.687390 
# 
# From -- ./inp_files/27017.got.cif
#   From: 2010.05.17/outbox.cif.g08.bks.cpg/sg58_14_cif.got.tgz:27017.got - 2010.06.03 14:20:14.
