data_PCOD9444178
_publ_section_title
;
Structure prediction by ZEFSAII (Michael W. Deem and Ramdas Pophale) SiO2 
 PCOD9444178
Probable space group: P N N M
;
_chemical_formula_sum "Si O2"
_cell_formula_units_Z 48
_cell_length_a 9.382904
_cell_length_b 31.462120
_cell_length_c 8.981417
_cell_angle_alpha 90.000000
_cell_angle_beta 90.000000
_cell_angle_gamma 90.000000
_cell_volume 2651.368650
_symmetry_space_group_name_H-M "P N N M"
_symmetry_group_IT_number 58
_symmetry_cell_setting 'orthorhombic'
loop_
_space_group_symop_operation_xyz
x,y,z
-x,-y,z
1/2+x,1/2-y,1/2-z
1/2-x,1/2+y,1/2-z
-x,-y,-z
x,y,-z
1/2-x,1/2+y,1/2+z
1/2+x,1/2-y,1/2+z
loop_
_atom_site_type_symbol
_atom_site_label
_atom_site_fract_x
_atom_site_fract_y
_atom_site_fract_z
Si Si1 0.417714 0.365325 0.823714
Si Si2 0.580611 0.288424 0.677676
Si Si3 0.393278 0.461378 0.176189
Si Si4 0.084314 0.709501 0.321588
Si Si5 0.920945 0.631023 0.177601
Si Si6 0.410175 0.958467 0.177260
O O1 0.508317 0.332107 0.730599
O O2 0.456747 0.414536 0.793842
O O3 0.248075 0.361471 0.792110
O O4 0.437637 0.356953 0.000000
O O5 0.567843 0.283754 0.500000
O O6 0.498462 0.249972 0.756641
O O7 0.748122 0.287860 0.716156
O O8 0.500000 0.500000 0.202397
O O9 0.252069 0.465962 0.272939
O O10 0.353638 0.461218 0.000000
O O11 0.071348 0.708839 0.500000
O O12 0.013628 0.667450 0.253303
O O13 0.958133 0.584618 0.241215
O O14 0.939321 0.631780 0.000000
O O15 0.500000 0.000000 0.218954
O O16 0.419591 0.952387 0.000000
#
# Coordination Sequence:
#
# PCOD9444178 Si02
#       6
#     8   8   8   8   8   8
#     4   9  19  36  57  82 111 143 183 230 276 325
#     4  11  24  39  57  83 112 145 185 225 271 329
#     4   9  19  36  57  82 112 147 189 234 278 327
#     4  11  24  40  58  83 114 144 180 227 274 325
#     4  10  21  38  60  84 110 144 187 229 274 330
#     4  10  21  36  55  82 115 149 186 229 277 328
#
# _framework density 18.103859
#
# number of rings (size 3 to 8) (size 9 to 14) (size 15 to 20)
#    0.000    2.000    0.000    4.000    0.000   13.000 
#    0.000    3.333    0.000    0.000    0.000    0.000 
#    0.000    0.000    0.000    0.000    0.000    0.000 
#
# Total GULP energy -268122.122638 kJ/mol
# GULP energy per Si atom -5585.877555 kJ/mol
# Density = 1.806265 g / cm^3
# Si number density = 18.103859 Si / 1000 Ang^3
#
#
#
# Elastic Constant Matrix: (Units=GPa)
#
#
# Indices 1 2 3 4 5 6 
#
# 1 100.3288 98.1576 66.7591 0.0000 0.0000 0.0000
# 2 98.1576 162.6165 73.1496 0.0000 0.0000 0.0000
# 3 66.7591 73.1496 64.5829 0.0000 0.0000 0.0000
# 4 0.0000 0.0000 0.0000 37.5455 0.0000 0.0000
# 5 0.0000 0.0000 0.0000 0.0000 26.4784 0.0000
# 6 0.0000 0.0000 0.0000 0.0000 0.0000 36.8450
#
#
#
# Elastic Compliance Matrix: (Units=1/GPa)
#
#
# Indices 1 2 3 4 5 6 
#
# 1 0.040082 -0.011328 -0.028602 0.000000 0.000000 0.000000
# 2 -0.011328 0.015739 -0.006116 0.000000 0.000000 0.000000
# 3 -0.028602 -0.006116 0.051977 0.000000 0.000000 0.000000
# 4 0.000000 0.000000 0.000000 0.026634 0.000000 0.000000
# 5 0.000000 0.000000 0.000000 0.000000 0.037767 0.000000
# 6 0.000000 0.000000 0.000000 0.000000 0.000000 0.027141
#
#
# Mechanical properties :
#
#
# Convention : Reuss Voigt Hill
#
# Bulk Modulus (GPa) = 63.67346 89.29565 76.48456
# Shear Modulus (GPa) = 16.85392 26.13789 21.49590
#
# Velocity S-wave (km/s) = 3.05447 3.80383 3.44956
# Velocity P-wave (km/s) = 6.90560 8.28995 7.62924
#
# Compressibility (1/GPa) = 0.01570513
#
# Stress axis : x y z
#
# Youngs Moduli (GPa) = 24.94897 63.53810 19.23920
#
# Poissons Ratio (x) = 0.71976 0.55027
# Poissons Ratio (y) = 0.28262 0.11768
# Poissons Ratio (z) = 0.71358 0.38863
#
# Static dielectric constant tensor:
#      x y z
#    x 1.595110 0.000000 0.000000 
#    y 0.000000 1.606820 0.000000 
#    z 0.000000 0.000000 1.603900 
# 
# From -- ./inp_files/2903.got.cif
#   From: 2010.05.17/outbox.cif.g08.bks.cpg/sg58_2_cif.got.tgz:2903.got - 2010.06.03 14:20:14.
