data_PCOD9444147
_publ_section_title
;
Structure prediction by ZEFSAII (Michael W. Deem and Ramdas Pophale) SiO2 
 PCOD9444147
Probable space group: P N N M
;
_chemical_formula_sum "Si O2"
_cell_formula_units_Z 64
_cell_length_a 14.791700
_cell_length_b 31.057932
_cell_length_c 8.754105
_cell_angle_alpha 90.000000
_cell_angle_beta 90.000000
_cell_angle_gamma 90.000000
_cell_volume 4021.632447
_symmetry_space_group_name_H-M "P N N M"
_symmetry_group_IT_number 58
_symmetry_cell_setting 'orthorhombic'
loop_
_space_group_symop_operation_xyz
x,y,z
-x,-y,z
1/2+x,1/2-y,1/2-z
1/2-x,1/2+y,1/2-z
-x,-y,-z
x,y,-z
1/2-x,1/2+y,1/2+z
1/2+x,1/2-y,1/2+z
loop_
_atom_site_type_symbol
_atom_site_label
_atom_site_fract_x
_atom_site_fract_y
_atom_site_fract_z
Si Si1 0.316850 0.630911 0.820357
Si Si2 0.295702 0.207724 0.183038
Si Si3 0.168396 0.864880 0.681452
Si Si4 0.682776 0.206090 0.316617
Si Si5 0.103974 0.949298 0.184315
Si Si6 0.010133 0.174920 0.178973
Si Si7 0.000734 0.268418 0.682073
Si Si8 0.892961 0.951495 0.183348
O O1 0.244642 0.664174 0.751793
O O2 0.412773 0.651804 0.775492
O O3 0.324629 0.582975 0.752723
O O4 0.305469 0.628753 0.000000
O O5 0.238865 0.250590 0.230456
O O6 0.401650 0.213154 0.218928
O O7 0.286830 0.205587 0.000000
O O8 0.150443 0.862026 0.500000
O O9 0.256215 0.835923 0.712451
O O10 0.166664 0.914299 0.734635
O O11 0.086339 0.843522 0.773705
O O12 0.668291 0.209162 0.500000
O O13 0.587622 0.204046 0.230272
O O14 0.997984 0.941969 0.226995
O O15 0.125347 0.998798 0.223972
O O16 0.109745 0.944766 0.000000
O O17 0.002525 0.259473 0.500000
O O18 0.011718 0.224679 0.223144
O O19 0.027796 0.168227 0.000000
O O20 0.890049 0.948232 0.000000
#
# Coordination Sequence:
#
# PCOD9444147 Si02
#       8
#     8   8   8   8   8   8   8   8
#     4  12  23  33  50  77 103 134 178 214 249 303
#     4  10  21  37  53  72 103 138 170 210 257 300
#     4  11  21  34  51  75 105 137 175 214 251 298
#     4  10  21  36  52  73 105 139 169 207 258 305
#     4   9  18  32  51  75 103 137 172 205 251 309
#     4  12  22  32  49  71 103 141 173 209 256 301
#     4  11  22  37  54  74 100 132 178 221 250 293
#     4   9  18  33  51  73 104 138 169 206 255 305
#
# _framework density 15.913936
#
# number of rings (size 3 to 8) (size 9 to 14) (size 15 to 20)
#    0.000    1.500    3.750    3.750    0.000    2.500 
#    0.000    1.250    0.000    0.000    0.000    0.875 
#    0.000    7.000    0.000    0.000    0.000    0.000 
#
# Total GULP energy -357208.637008 kJ/mol
# GULP energy per Si atom -5581.384953 kJ/mol
# Density = 1.587772 g / cm^3
# Si number density = 15.913936 Si / 1000 Ang^3
#
#
#
# Elastic Constant Matrix: (Units=GPa)
#
#
# Indices 1 2 3 4 5 6 
#
# 1 72.4620 33.6932 16.1541 0.0000 0.0000 0.0000
# 2 33.6932 108.8278 25.0985 0.0000 0.0000 0.0000
# 3 16.1541 25.0985 18.9270 0.0000 0.0000 0.0000
# 4 0.0000 0.0000 0.0000 22.8821 0.0000 0.0000
# 5 0.0000 0.0000 0.0000 0.0000 -5.9179 0.0000
# 6 0.0000 0.0000 0.0000 0.0000 0.0000 18.9891
#
#
#
# Elastic Compliance Matrix: (Units=1/GPa)
#
#
# Indices 1 2 3 4 5 6 
#
# 1 0.017643 -0.002866 -0.011257 0.000000 0.000000 0.000000
# 2 -0.002866 0.013703 -0.015725 0.000000 0.000000 0.000000
# 3 -0.011257 -0.015725 0.083294 0.000000 0.000000 0.000000
# 4 0.000000 0.000000 0.000000 0.043702 0.000000 0.000000
# 5 0.000000 0.000000 0.000000 0.000000 -0.168978 0.000000
# 6 0.000000 0.000000 0.000000 0.000000 0.000000 0.052662
#
#
# Mechanical properties :
#
#
# Convention : Reuss Voigt Hill
#
# Bulk Modulus (GPa) = 18.20039 38.90093 28.55066
# Shear Modulus (GPa) = 41.65417 15.54207 28.59812
#
# Velocity S-wave (km/s) = 5.12167 3.12850 4.24376
# Velocity P-wave (km/s) = 6.81446 6.12762 6.48015
#
# Compressibility (1/GPa) = 0.05494388
#
# Stress axis : x y z
#
# Youngs Moduli (GPa) = 56.68116 72.97888 12.00562
#
# Poissons Ratio (x) = 0.20915 0.13515
# Poissons Ratio (y) = 0.16244 0.18878
# Poissons Ratio (z) = 0.63808 1.14756
#
# Static dielectric constant tensor:
#      x y z
#    x 1.527050 0.000000 0.000000 
#    y 0.000000 1.559500 0.000000 
#    z 0.000000 0.000000 1.532630 
# 
# From -- ./inp_files/7155.got.cif
#   From: 2010.05.17/outbox.cif.g08.bks.cpg/sg58_4_cif.got.tgz:7155.got - 2010.06.03 14:20:14.
