data_PCOD9444933
_publ_section_title
;
Structure prediction by ZEFSAII (Michael W. Deem and Ramdas Pophale) SiO2 
 PCOD9444933
Probable space group: P N N M
;
_chemical_formula_sum "Si O2"
_cell_formula_units_Z 34
_cell_length_a 10.162023
_cell_length_b 12.719072
_cell_length_c 12.392402
_cell_angle_alpha 90.000000
_cell_angle_beta 90.000000
_cell_angle_gamma 90.000000
_cell_volume 1601.736574
_symmetry_space_group_name_H-M "P N N M"
_symmetry_group_IT_number 58
_symmetry_cell_setting 'orthorhombic'
loop_
_space_group_symop_operation_xyz
x,y,z
-x,-y,z
1/2+x,1/2-y,1/2-z
1/2-x,1/2+y,1/2-z
-x,-y,-z
x,y,-z
1/2-x,1/2+y,1/2+z
1/2+x,1/2-y,1/2+z
loop_
_atom_site_type_symbol
_atom_site_label
_atom_site_fract_x
_atom_site_fract_y
_atom_site_fract_z
Si Si1 0.000000 0.000000 0.500000
Si Si2 0.346838 0.395741 0.186258
Si Si3 0.345267 0.154259 0.877197
Si Si4 0.460472 0.655321 0.622889
Si Si5 0.957695 0.605293 0.811980
O O1 0.890284 0.021683 0.403854
O O2 0.362183 0.280767 0.130378
O O3 0.439783 0.392210 0.290779
O O4 0.195151 0.404543 0.217848
O O5 0.192375 0.131264 0.850112
O O6 0.447472 0.109753 0.791878
O O7 0.369632 0.120423 0.000000
O O8 0.486831 0.623305 0.500000
O O9 0.473690 0.782525 0.630136
O O10 0.000000 0.500000 0.873616
#
# Coordination Sequence:
#
# PCOD9444933 Si02
#       5
#     2   8   8   8   8
#     4  12  24  40  68  88 122 160 200 264 298 364
#     4  10  22  40  60  91 123 158 208 246 306 369
#     4   9  18  39  62  85 124 164 199 251 313 359
#     4   9  20  41  65  87 121 166 201 249 312 369
#     4  10  22  37  59  93 125 156 206 259 298 359
#
# _framework density 21.226962
#
# number of rings (size 3 to 8) (size 9 to 14) (size 15 to 20)
#    0.000    2.353    1.176    0.000    4.941    1.882 
#    0.000    0.588    0.000    0.000    0.000    0.000 
#    0.000    0.000    0.000    0.000    0.000    0.000 
#
# Total GULP energy -189393.163216 kJ/mol
# GULP energy per Si atom -5570.387153 kJ/mol
# Density = 2.117865 g / cm^3
# Si number density = 21.226962 Si / 1000 Ang^3
#
#
#
# Elastic Constant Matrix: (Units=GPa)
#
#
# Indices 1 2 3 4 5 6 
#
# 1 126.2658 27.4114 109.2674 0.0000 0.0000 0.0000
# 2 27.4114 71.2474 13.6117 0.0000 0.0000 0.0000
# 3 109.2674 13.6117 167.9389 0.0000 0.0000 0.0000
# 4 0.0000 0.0000 0.0000 -8.4825 0.0000 0.0000
# 5 0.0000 0.0000 0.0000 0.0000 16.9106 0.0000
# 6 0.0000 0.0000 0.0000 0.0000 0.0000 32.5157
#
#
#
# Elastic Compliance Matrix: (Units=1/GPa)
#
#
# Indices 1 2 3 4 5 6 
#
# 1 0.019895 -0.005263 -0.012518 0.000000 0.000000 0.000000
# 2 -0.005263 0.015649 0.002156 0.000000 0.000000 0.000000
# 3 -0.012518 0.002156 0.013924 0.000000 0.000000 0.000000
# 4 0.000000 0.000000 0.000000 -0.117890 0.000000 0.000000
# 5 0.000000 0.000000 0.000000 0.000000 0.059135 0.000000
# 6 0.000000 0.000000 0.000000 0.000000 0.000000 0.030754
#
#
# Mechanical properties :
#
#
# Convention : Reuss Voigt Hill
#
# Bulk Modulus (GPa) = 54.88998 74.00370 64.44684
# Shear Modulus (GPa) = 85.04914 22.53286 53.79100
#
# Velocity S-wave (km/s) = 6.33668 3.26163 5.03943
# Velocity P-wave (km/s) = 8.91363 7.00879 8.01798
#
# Compressibility (1/GPa) = 0.01821826
#
# Stress axis : x y z
#
# Youngs Moduli (GPa) = 50.26395 63.90377 71.81634
#
# Poissons Ratio (x) = 0.33631 0.89899
# Poissons Ratio (y) = 0.26453 -0.15482
# Poissons Ratio (z) = 0.62920 -0.13777
#
# Static dielectric constant tensor:
#      x y z
#    x 1.719040 0.000000 0.000000 
#    y 0.000000 1.841980 0.000000 
#    z 0.000000 0.000000 1.724120 
# 
# From -- ./inp_files/14032.got.cif
#   From: 2010.05.17/outbox.cif.g08.bks.cpg/sg58_8_cif.got.tgz:14032.got - 2010.06.03 14:20:14.
