data_PCOD9444249
_publ_section_title
;
Structure prediction by ZEFSAII (Michael W. Deem and Ramdas Pophale) SiO2 
 PCOD9444249
Probable space group: P N N M
;
_chemical_formula_sum "Si O2"
_cell_formula_units_Z 48
_cell_length_a 16.724352
_cell_length_b 19.622977
_cell_length_c 8.226934
_cell_angle_alpha 90.000000
_cell_angle_beta 90.000000
_cell_angle_gamma 90.000000
_cell_volume 2699.928155
_symmetry_space_group_name_H-M "P N N M"
_symmetry_group_IT_number 58
_symmetry_cell_setting 'orthorhombic'
loop_
_space_group_symop_operation_xyz
x,y,z
-x,-y,z
1/2+x,1/2-y,1/2-z
1/2-x,1/2+y,1/2-z
-x,-y,-z
x,y,-z
1/2-x,1/2+y,1/2+z
1/2+x,1/2-y,1/2+z
loop_
_atom_site_type_symbol
_atom_site_label
_atom_site_fract_x
_atom_site_fract_y
_atom_site_fract_z
Si Si1 0.016664 0.075370 0.689511
Si Si2 0.936456 0.400301 0.000000
Si Si3 0.308583 0.588061 0.311603
Si Si4 0.729904 0.059282 0.193581
Si Si5 0.384123 0.941815 0.500000
Si Si6 0.626344 0.665633 0.307865
Si Si7 0.822013 0.310874 0.186001
O O1 0.998464 0.070603 0.500000
O O2 0.956252 0.131831 0.754895
O O3 0.109201 0.092884 0.714212
O O4 0.000000 0.000000 0.763659
O O5 0.904370 0.477396 0.000000
O O6 0.898082 0.360123 0.846999
O O7 0.031579 0.402631 0.000000
O O8 0.331260 0.587142 0.500000
O O9 0.264299 0.516609 0.276274
O O10 0.246715 0.648496 0.277323
O O11 0.664341 0.072621 0.333290
O O12 0.802384 0.112045 0.219671
O O13 0.705878 0.063371 0.000000
O O14 0.619020 0.676476 0.500000
O O15 0.650279 0.739512 0.238922
O O16 0.791174 0.298785 0.000000
#
# Coordination Sequence:
#
# PCOD9444249 Si02
#       7
#     8   4   8   8   4   8   8
#     4  11  23  35  57  86 118 153 201 246 293 355
#     4   9  20  38  64  85 107 161 196 242 312 350
#     4  11  21  36  59  86 116 154 197 242 294 359
#     4  10  21  36  60  90 118 151 198 246 298 353
#     4  11  20  38  66  88 115 150 209 256 292 359
#     4  10  21  38  58  83 119 157 188 247 300 350
#     4   9  19  40  60  77 117 154 194 236 303 353
#
# _framework density 17.778251999999998
#
# number of rings (size 3 to 8) (size 9 to 14) (size 15 to 20)
#    0.500    1.333    3.333    1.000    2.333    1.333 
#    3.000    2.500    0.000    0.000    0.000    0.000 
#    0.000    0.000    0.000    0.000    0.000    0.000 
#
# Total GULP energy -267469.064260 kJ/mol
# GULP energy per Si atom -5572.272172 kJ/mol
# Density = 1.773779 g / cm^3
# Si number density = 17.778252 Si / 1000 Ang^3
#
#
#
# Elastic Constant Matrix: (Units=GPa)
#
#
# Indices 1 2 3 4 5 6 
#
# 1 99.5569 43.5667 24.8736 0.0000 0.0000 0.0000
# 2 43.5667 106.3980 3.0296 0.0000 0.0000 0.0000
# 3 24.8736 3.0296 29.2151 0.0000 0.0000 0.0000
# 4 0.0000 0.0000 0.0000 19.7312 0.0000 0.0000
# 5 0.0000 0.0000 0.0000 0.0000 21.6581 0.0000
# 6 0.0000 0.0000 0.0000 0.0000 0.0000 20.5058
#
#
#
# Elastic Compliance Matrix: (Units=1/GPa)
#
#
# Indices 1 2 3 4 5 6 
#
# 1 0.015989 -0.006178 -0.012972 0.000000 0.000000 0.000000
# 2 -0.006178 0.011813 0.004035 0.000000 0.000000 0.000000
# 3 -0.012972 0.004035 0.044855 0.000000 0.000000 0.000000
# 4 0.000000 0.000000 0.000000 0.050681 0.000000 0.000000
# 5 0.000000 0.000000 0.000000 0.000000 0.046172 0.000000
# 6 0.000000 0.000000 0.000000 0.000000 0.000000 0.048767
#
#
# Mechanical properties :
#
#
# Convention : Reuss Voigt Hill
#
# Bulk Modulus (GPa) = 23.57013 42.01221 32.79117
# Shear Modulus (GPa) = 19.03674 23.29235 21.16454
#
# Velocity S-wave (km/s) = 3.27584 3.62354 3.45407
# Velocity P-wave (km/s) = 5.25307 6.41789 5.86447
#
# Compressibility (1/GPa) = 0.04242658
#
# Stress axis : x y z
#
# Youngs Moduli (GPa) = 62.54345 84.65025 22.29405
#
# Poissons Ratio (x) = 0.52293 0.28920
# Poissons Ratio (y) = 0.38637 -0.08995
# Poissons Ratio (z) = 0.81133 -0.34152
#
# Static dielectric constant tensor:
#      x y z
#    x 1.571310 0.000000 0.000000 
#    y 0.000000 1.640300 0.000000 
#    z 0.000000 0.000000 1.614190 
# 
# From -- ./inp_files/5945.got.cif
#   From: 2010.05.17/outbox.cif.g08.bks.cpg/sg58_3_cif.got.tgz:5945.got - 2010.06.03 14:20:14.
