data_PCOD9444229
_publ_section_title
;
Structure prediction by ZEFSAII (Michael W. Deem and Ramdas Pophale) SiO2 
 PCOD9444229
Probable space group: P N N M
;
_chemical_formula_sum "Si O2"
_cell_formula_units_Z 28
_cell_length_a 7.086586
_cell_length_b 7.853438
_cell_length_c 22.573027
_cell_angle_alpha 90.000000
_cell_angle_beta 90.000000
_cell_angle_gamma 90.000000
_cell_volume 1256.280684
_symmetry_space_group_name_H-M "P N N M"
_symmetry_group_IT_number 58
_symmetry_cell_setting 'orthorhombic'
loop_
_space_group_symop_operation_xyz
x,y,z
-x,-y,z
1/2+x,1/2-y,1/2-z
1/2-x,1/2+y,1/2-z
-x,-y,-z
x,y,-z
1/2-x,1/2+y,1/2+z
1/2+x,1/2-y,1/2+z
loop_
_atom_site_type_symbol
_atom_site_label
_atom_site_fract_x
_atom_site_fract_y
_atom_site_fract_z
Si Si1 0.294211 0.379698 0.321602
Si Si2 0.635221 0.763764 0.807549
Si Si3 0.500000 0.500000 0.894523
Si Si4 0.133553 0.666195 0.065623
O O1 0.361595 0.298065 0.259977
O O2 0.284344 0.584597 0.317438
O O3 0.383367 0.297400 0.380112
O O4 0.073147 0.330658 0.322025
O O5 0.643290 0.604166 0.851583
O O6 0.645898 0.389822 0.932195
O O7 0.000000 0.500000 0.073193
O O8 0.090793 0.736729 0.000000
#
# Coordination Sequence:
#
# PCOD9444229 Si02
#       4
#     8   8   4   8
#     4  10  21  36  60  88 123 159 203 253 315 377
#     4  10  21  36  58  93 120 158 199 258 323 367
#     4  10  21  40  60  88 117 158 204 256 312 366
#     4  10  22  40  61  85 120 165 206 251 305 366
#
# _framework density 22.288014
#
# number of rings (size 3 to 8) (size 9 to 14) (size 15 to 20)
#    0.000    2.000    0.000    3.857    8.000    0.000 
#    0.000   12.857    0.000    3.429    0.000    0.000 
#    0.000    0.000    0.000    0.000    0.000    0.000 
#
# Total GULP energy -156321.163208 kJ/mol
# GULP energy per Si atom -5582.898686 kJ/mol
# Density = 2.223729 g / cm^3
# Si number density = 22.288014 Si / 1000 Ang^3
#
#
#
# Elastic Constant Matrix: (Units=GPa)
#
#
# Indices 1 2 3 4 5 6 
#
# 1 59.2495 25.9626 51.9221 0.0000 0.0000 0.0000
# 2 25.9626 116.5812 95.8257 0.0000 0.0000 0.0000
# 3 51.9221 95.8257 212.3358 0.0000 0.0000 0.0000
# 4 0.0000 0.0000 0.0000 22.2059 0.0000 0.0000
# 5 0.0000 0.0000 0.0000 0.0000 26.7375 0.0000
# 6 0.0000 0.0000 0.0000 0.0000 0.0000 34.1681
#
#
#
# Elastic Compliance Matrix: (Units=1/GPa)
#
#
# Indices 1 2 3 4 5 6 
#
# 1 0.021521 -0.000743 -0.004927 0.000000 0.000000 0.000000
# 2 -0.000743 0.013662 -0.005984 0.000000 0.000000 0.000000
# 3 -0.004927 -0.005984 0.008615 0.000000 0.000000 0.000000
# 4 0.000000 0.000000 0.000000 0.045033 0.000000 0.000000
# 5 0.000000 0.000000 0.000000 0.000000 0.037401 0.000000
# 6 0.000000 0.000000 0.000000 0.000000 0.000000 0.029267
#
#
# Mechanical properties :
#
#
# Convention : Reuss Voigt Hill
#
# Bulk Modulus (GPa) = 48.80422 81.73192 65.26807
# Shear Modulus (GPa) = 26.93443 30.91938 28.92691
#
# Velocity S-wave (km/s) = 3.48008 3.72864 3.60650
# Velocity P-wave (km/s) = 6.17192 7.43555 6.83301
#
# Compressibility (1/GPa) = 0.02049003
#
# Stress axis : x y z
#
# Youngs Moduli (GPa) = 46.46577 73.19823 116.07870
#
# Poissons Ratio (x) = 0.05436 0.57197
# Poissons Ratio (y) = 0.03451 0.69459
# Poissons Ratio (z) = 0.22896 0.43800
#
# Static dielectric constant tensor:
#      x y z
#    x 1.874820 0.000000 0.000000 
#    y 0.000000 1.983570 0.000000 
#    z 0.000000 0.000000 1.763930 
# 
# From -- ./inp_files/24718.got.cif
#   From: 2010.05.17/outbox.cif.g08.bks.cpg/sg58_13_cif.got.tgz:24718.got - 2010.06.03 14:20:14.
