data_PCOD9444351
_publ_section_title
;
Structure prediction by ZEFSAII (Michael W. Deem and Ramdas Pophale) SiO2 
 PCOD9444351
Probable space group: P N N M
;
_chemical_formula_sum "Si O2"
_cell_formula_units_Z 64
_cell_length_a 13.580712
_cell_length_b 24.251571
_cell_length_c 9.735899
_cell_angle_alpha 90.000000
_cell_angle_beta 90.000000
_cell_angle_gamma 90.000000
_cell_volume 3206.553398
_symmetry_space_group_name_H-M "P N N M"
_symmetry_group_IT_number 58
_symmetry_cell_setting 'orthorhombic'
loop_
_space_group_symop_operation_xyz
x,y,z
-x,-y,z
1/2+x,1/2-y,1/2-z
1/2-x,1/2+y,1/2-z
-x,-y,-z
x,y,-z
1/2-x,1/2+y,1/2+z
1/2+x,1/2-y,1/2+z
loop_
_atom_site_type_symbol
_atom_site_label
_atom_site_fract_x
_atom_site_fract_y
_atom_site_fract_z
Si Si1 0.714308 0.954821 0.658218
Si Si2 0.951360 0.946842 0.655451
Si Si3 0.584214 0.152665 0.667022
Si Si4 0.596368 0.039252 0.836843
Si Si5 0.780109 0.225361 0.338325
Si Si6 0.214486 0.643197 0.652190
Si Si7 0.048074 0.751360 0.843272
Si Si8 0.443839 0.642547 0.644769
O O1 0.679086 0.959479 0.500000
O O2 0.833280 0.953272 0.652907
O O3 0.677262 0.898162 0.730708
O O4 0.678932 0.004556 0.754579
O O5 0.987212 0.943533 0.500000
O O6 0.983811 0.891879 0.730789
O O7 0.000000 0.000000 0.723521
O O8 0.579571 0.143316 0.500000
O O9 0.583328 0.096980 0.755681
O O10 0.684084 0.188680 0.692978
O O11 0.492763 0.192765 0.706918
O O12 0.500000 0.000000 0.827594
O O13 0.617234 0.047294 0.000000
O O14 0.800177 0.217773 0.500000
O O15 0.777766 0.291951 0.315245
O O16 0.872992 0.214052 0.242098
O O17 0.167863 0.635551 0.500000
O O18 0.329388 0.627662 0.638589
O O19 0.954439 0.792101 0.844687
O O20 0.082751 0.744032 0.000000
O O21 0.491752 0.626810 0.500000
#
# Coordination Sequence:
#
# PCOD9444351 Si02
#       8
#     8   8   8   8   8   8   8   8
#     4  10  21  37  59  86 114 151 196 244 297 355
#     4   9  19  35  55  82 116 151 189 236 288 346
#     4  10  22  43  65  88 124 165 205 250 302 363
#     4  11  26  45  63  86 119 161 208 259 310 359
#     4  10  21  37  60  88 119 158 196 239 301 361
#     4   9  17  34  58  81 111 148 188 237 292 351
#     4  10  21  37  58  88 121 156 198 247 298 358
#     4   9  17  33  55  78 110 149 187 230 284 345
#
# _framework density 19.959126000000001
#
# number of rings (size 3 to 8) (size 9 to 14) (size 15 to 20)
#    0.000    2.250    1.250    0.750    1.750    4.750 
#    0.000    3.750    0.000    0.000    0.000    0.000 
#    0.000    0.000    0.000    0.000    0.000    0.000 
#
# Total GULP energy -356346.897713 kJ/mol
# GULP energy per Si atom -5567.920277 kJ/mol
# Density = 1.991370 g / cm^3
# Si number density = 19.959126 Si / 1000 Ang^3
#
#
#
# Elastic Constant Matrix: (Units=GPa)
#
#
# Indices 1 2 3 4 5 6 
#
# 1 45.5368 19.6809 26.5333 0.0000 0.0000 0.0000
# 2 19.6809 117.7499 70.2464 0.0000 0.0000 0.0000
# 3 26.5333 70.2464 84.8122 0.0000 0.0000 0.0000
# 4 0.0000 0.0000 0.0000 32.1068 0.0000 0.0000
# 5 0.0000 0.0000 0.0000 0.0000 11.3536 0.0000
# 6 0.0000 0.0000 0.0000 0.0000 0.0000 29.8192
#
#
#
# Elastic Compliance Matrix: (Units=1/GPa)
#
#
# Indices 1 2 3 4 5 6 
#
# 1 0.026920 0.001037 -0.009281 0.000000 0.000000 0.000000
# 2 0.001037 0.016828 -0.014262 0.000000 0.000000 0.000000
# 3 -0.009281 -0.014262 0.026507 0.000000 0.000000 0.000000
# 4 0.000000 0.000000 0.000000 0.031146 0.000000 0.000000
# 5 0.000000 0.000000 0.000000 0.000000 0.088078 0.000000
# 6 0.000000 0.000000 0.000000 0.000000 0.000000 0.033535
#
#
# Mechanical properties :
#
#
# Convention : Reuss Voigt Hill
#
# Bulk Modulus (GPa) = 39.61518 53.44668 46.53093
# Shear Modulus (GPa) = 18.08714 23.43181 20.75948
#
# Velocity S-wave (km/s) = 3.01360 3.43007 3.22856
# Velocity P-wave (km/s) = 5.65688 6.52100 6.10425
#
# Compressibility (1/GPa) = 0.02524285
#
# Stress axis : x y z
#
# Youngs Moduli (GPa) = 37.14745 59.42624 37.72585
#
# Poissons Ratio (x) = -0.06165 0.35013
# Poissons Ratio (y) = -0.03854 0.53805
# Poissons Ratio (z) = 0.34477 0.84754
#
# Static dielectric constant tensor:
#      x y z
#    x 1.759220 0.000000 0.000000 
#    y 0.000000 1.725660 0.000000 
#    z 0.000000 0.000000 1.735590 
# 
# From -- ./inp_files/6882.got.cif
#   From: 2010.05.17/outbox.cif.g08.bks.cpg/sg58_4_cif.got.tgz:6882.got - 2010.06.03 14:20:14.
