data_PCOD9444673
_publ_section_title
;
Structure prediction by ZEFSAII (Michael W. Deem and Ramdas Pophale) SiO2 
 PCOD9444673
Probable space group: P N N M
;
_chemical_formula_sum "Si O2"
_cell_formula_units_Z 40
_cell_length_a 18.853348
_cell_length_b 14.155131
_cell_length_c 7.467527
_cell_angle_alpha 90.000000
_cell_angle_beta 90.000000
_cell_angle_gamma 90.000000
_cell_volume 1992.870959
_symmetry_space_group_name_H-M "P N N M"
_symmetry_group_IT_number 58
_symmetry_cell_setting 'orthorhombic'
loop_
_space_group_symop_operation_xyz
x,y,z
-x,-y,z
1/2+x,1/2-y,1/2-z
1/2-x,1/2+y,1/2-z
-x,-y,-z
x,y,-z
1/2-x,1/2+y,1/2+z
1/2+x,1/2-y,1/2+z
loop_
_atom_site_type_symbol
_atom_site_label
_atom_site_fract_x
_atom_site_fract_y
_atom_site_fract_z
Si Si1 0.698877 0.343606 0.295045
Si Si2 0.525139 0.805599 0.714591
Si Si3 0.155549 0.564083 0.216000
Si Si4 0.363180 0.853153 0.283018
Si Si5 0.887960 0.950966 0.500000
Si Si6 0.042201 0.852566 0.500000
O O1 0.673678 0.349452 0.500000
O O2 0.780856 0.371839 0.286677
O O3 0.683462 0.237011 0.229193
O O4 0.655639 0.415317 0.171168
O O5 0.527057 0.789262 0.500000
O O6 0.579722 0.889656 0.757239
O O7 0.444838 0.832628 0.765478
O O8 0.547540 0.714158 0.826716
O O9 0.160059 0.456245 0.281133
O O10 0.162133 0.563568 0.000000
O O11 0.360834 0.857620 0.500000
O O12 0.964170 0.899580 0.500000
O O13 0.901827 0.062500 0.500000
#
# Coordination Sequence:
#
# PCOD9444673 Si02
#       6
#     8   8   8   8   4   4
#     4  11  23  42  63  88 127 167 210 256 313 375
#     4  10  21  40  64  95 128 160 206 260 313 373
#     4  10  21  39  64  94 127 164 209 258 312 375
#     4   9  19  39  65  87 122 170 201 252 317 367
#     4  11  24  44  63  90 124 168 212 256 318 376
#     4  11  24  40  68  93 122 165 211 264 312 371
#
# _framework density 20.071546999999999
#
# number of rings (size 3 to 8) (size 9 to 14) (size 15 to 20)
#    0.000    1.800    3.000    0.600    1.400    4.800 
#    3.600    5.000    0.000    0.000    0.000    0.000 
#    0.000    0.000    0.000    0.000    0.000    0.000 
#
# Total GULP energy -223520.726039 kJ/mol
# GULP energy per Si atom -5588.018151 kJ/mol
# Density = 2.002586 g / cm^3
# Si number density = 20.071547 Si / 1000 Ang^3
#
#
#
# Elastic Constant Matrix: (Units=GPa)
#
#
# Indices 1 2 3 4 5 6 
#
# 1 91.6684 83.5568 17.5560 0.0000 0.0000 0.0000
# 2 83.5568 168.7472 31.8793 0.0000 0.0000 0.0000
# 3 17.5560 31.8793 74.9876 0.0000 0.0000 0.0000
# 4 0.0000 0.0000 0.0000 21.6678 0.0000 0.0000
# 5 0.0000 0.0000 0.0000 0.0000 24.3571 0.0000
# 6 0.0000 0.0000 0.0000 0.0000 0.0000 27.6530
#
#
#
# Elastic Compliance Matrix: (Units=1/GPa)
#
#
# Indices 1 2 3 4 5 6 
#
# 1 0.019901 -0.009758 -0.000511 0.000000 0.000000 0.000000
# 2 -0.009758 0.011228 -0.002489 0.000000 0.000000 0.000000
# 3 -0.000511 -0.002489 0.014513 0.000000 0.000000 0.000000
# 4 0.000000 0.000000 0.000000 0.046152 0.000000 0.000000
# 5 0.000000 0.000000 0.000000 0.000000 0.041056 0.000000
# 6 0.000000 0.000000 0.000000 0.000000 0.000000 0.036162
#
#
# Mechanical properties :
#
#
# Convention : Reuss Voigt Hill
#
# Bulk Modulus (GPa) = 49.68401 66.82083 58.25242
# Shear Modulus (GPa) = 24.84653 28.22964 26.53808
#
# Velocity S-wave (km/s) = 3.52219 3.75434 3.64012
# Velocity P-wave (km/s) = 6.43027 7.22198 6.83759
#
# Compressibility (1/GPa) = 0.02012720
#
# Stress axis : x y z
#
# Youngs Moduli (GPa) = 50.24902 89.06498 68.90268
#
# Poissons Ratio (x) = 0.86906 0.03521
# Poissons Ratio (y) = 0.49031 0.17149
# Poissons Ratio (z) = 0.02567 0.22167
#
# Static dielectric constant tensor:
#      x y z
#    x 1.686550 0.000000 0.000000 
#    y 0.000000 1.690170 0.000000 
#    z 0.000000 0.000000 1.741660 
# 
# From -- ./inp_files/3849.got.cif
#   From: 2010.05.17/outbox.cif.g08.bks.cpg/sg58_2_cif.got.tgz:3849.got - 2010.06.03 14:20:14.
