data_PCOD9444648
_publ_section_title
;
Structure prediction by ZEFSAII (Michael W. Deem and Ramdas Pophale) SiO2 
 PCOD9444648
Probable space group: P N N M
;
_chemical_formula_sum "Si O2"
_cell_formula_units_Z 40
_cell_length_a 8.585658
_cell_length_b 24.917679
_cell_length_c 8.988661
_cell_angle_alpha 90.000000
_cell_angle_beta 90.000000
_cell_angle_gamma 90.000000
_cell_volume 1922.986225
_symmetry_space_group_name_H-M "P N N M"
_symmetry_group_IT_number 58
_symmetry_cell_setting 'orthorhombic'
loop_
_space_group_symop_operation_xyz
x,y,z
-x,-y,z
1/2+x,1/2-y,1/2-z
1/2-x,1/2+y,1/2-z
-x,-y,-z
x,y,-z
1/2-x,1/2+y,1/2+z
1/2+x,1/2-y,1/2+z
loop_
_atom_site_type_symbol
_atom_site_label
_atom_site_fract_x
_atom_site_fract_y
_atom_site_fract_z
Si Si1 0.851174 0.877525 0.177078
Si Si2 0.326398 0.016160 0.822591
Si Si3 0.662865 0.772838 0.177617
Si Si4 0.334311 0.419596 0.823560
Si Si5 0.325381 0.823764 0.176065
O O1 0.717076 0.921981 0.203026
O O2 0.787735 0.818977 0.217286
O O3 0.003198 0.896439 0.263265
O O4 0.884746 0.877638 0.000000
O O5 0.500000 0.000000 0.774227
O O6 0.203387 0.977884 0.742003
O O7 0.315889 0.006453 0.000000
O O8 0.493306 0.797645 0.206318
O O9 0.699061 0.719464 0.268473
O O10 0.674446 0.762008 0.000000
O O11 0.203693 0.378880 0.761596
O O12 0.334217 0.420852 0.000000
O O13 0.311995 0.833375 0.000000
#
# Coordination Sequence:
#
# PCOD9444648 Si02
#       5
#     8   8   8   8   8
#     4  10  21  39  63  88 118 156 195 238 290 348
#     4  10  21  40  65  90 117 153 197 241 290 351
#     4  10  22  40  62  90 119 150 194 244 293 347
#     4  12  25  39  58  87 122 157 197 244 291 343
#     4  11  23  40  62  87 118 156 197 241 292 351
#
# _framework density 20.800981
#
# number of rings (size 3 to 8) (size 9 to 14) (size 15 to 20)
#    0.000    1.400    0.000    5.400    0.000   12.400 
#    0.000    2.000    0.000    0.000    0.000    0.000 
#    0.000    0.000    0.000    0.000    0.000    0.000 
#
# Total GULP energy -223871.010023 kJ/mol
# GULP energy per Si atom -5596.775251 kJ/mol
# Density = 2.075364 g / cm^3
# Si number density = 20.800981 Si / 1000 Ang^3
#
#
#
# Elastic Constant Matrix: (Units=GPa)
#
#
# Indices 1 2 3 4 5 6 
#
# 1 58.6875 -15.1881 10.5898 0.0000 0.0000 0.0000
# 2 -15.1881 65.7385 16.1134 0.0000 0.0000 0.0000
# 3 10.5898 16.1134 28.0802 0.0000 0.0000 0.0000
# 4 0.0000 0.0000 0.0000 15.0560 0.0000 0.0000
# 5 0.0000 0.0000 0.0000 0.0000 37.9405 0.0000
# 6 0.0000 0.0000 0.0000 0.0000 0.0000 34.5571
#
#
#
# Elastic Compliance Matrix: (Units=1/GPa)
#
#
# Indices 1 2 3 4 5 6 
#
# 1 0.021418 0.008062 -0.012704 0.000000 0.000000 0.000000
# 2 0.008062 0.020736 -0.014940 0.000000 0.000000 0.000000
# 3 -0.012704 -0.014940 0.048976 0.000000 0.000000 0.000000
# 4 0.000000 0.000000 0.000000 0.066419 0.000000 0.000000
# 5 0.000000 0.000000 0.000000 0.000000 0.026357 0.000000
# 6 0.000000 0.000000 0.000000 0.000000 0.000000 0.028938
#
#
# Mechanical properties :
#
#
# Convention : Reuss Voigt Hill
#
# Bulk Modulus (GPa) = 19.24254 19.50406 19.37330
# Shear Modulus (GPa) = 18.56462 26.91013 22.73738
#
# Velocity S-wave (km/s) = 2.99069 3.60070 3.30978
# Velocity P-wave (km/s) = 4.60397 5.16562 4.89286
#
# Compressibility (1/GPa) = 0.05196819
#
# Stress axis : x y z
#
# Youngs Moduli (GPa) = 46.68926 48.22428 20.41808
#
# Poissons Ratio (x) = -0.38880 0.25939
# Poissons Ratio (y) = -0.37642 0.30504
# Poissons Ratio (z) = 0.59313 0.72046
#
# Static dielectric constant tensor:
#      x y z
#    x 1.758390 0.000000 0.000000 
#    y 0.000000 1.719080 0.000000 
#    z 0.000000 0.000000 1.683910 
# 
# From -- ./inp_files/2404.got.cif
#   From: 2010.05.17/outbox.cif.g08.bks.cpg/sg58_2_cif.got.tgz:2404.got - 2010.06.03 14:20:14.
