data_PCOD9444201
_publ_section_title
;
Structure prediction by ZEFSAII (Michael W. Deem and Ramdas Pophale) SiO2 
 PCOD9444201
Probable space group: P N N M
;
_chemical_formula_sum "Si O2"
_cell_formula_units_Z 58
_cell_length_a 15.062852
_cell_length_b 23.543719
_cell_length_c 7.497922
_cell_angle_alpha 90.000000
_cell_angle_beta 90.000000
_cell_angle_gamma 90.000000
_cell_volume 2659.029729
_symmetry_space_group_name_H-M "P N N M"
_symmetry_group_IT_number 58
_symmetry_cell_setting 'orthorhombic'
loop_
_space_group_symop_operation_xyz
x,y,z
-x,-y,z
1/2+x,1/2-y,1/2-z
1/2-x,1/2+y,1/2-z
-x,-y,-z
x,y,-z
1/2-x,1/2+y,1/2+z
1/2+x,1/2-y,1/2+z
loop_
_atom_site_type_symbol
_atom_site_label
_atom_site_fract_x
_atom_site_fract_y
_atom_site_fract_z
Si Si1 0.854185 0.337422 0.285461
Si Si2 0.824982 0.894862 0.290076
Si Si3 0.000000 0.000000 0.000000
Si Si4 0.944433 0.663925 0.718458
Si Si5 0.124014 0.980830 0.295437
Si Si6 0.652461 0.708838 0.784042
Si Si7 0.947153 0.793129 0.717135
Si Si8 0.273702 0.895658 0.796767
O O1 0.856604 0.336036 0.500000
O O2 0.778304 0.380703 0.231061
O O3 0.828750 0.273529 0.226796
O O4 0.954780 0.349308 0.226043
O O5 0.844319 0.898050 0.500000
O O6 0.882191 0.842338 0.216381
O O7 0.850659 0.956665 0.219849
O O8 0.950941 0.038278 0.158386
O O9 0.942153 0.663660 0.500000
O O10 0.923796 0.728910 0.774188
O O11 0.869734 0.620214 0.780420
O O12 0.093938 0.982239 0.500000
O O13 0.210913 0.941795 0.292298
O O14 0.550000 0.696385 0.736316
O O15 0.719192 0.663239 0.706950
O O16 0.658639 0.705924 0.000000
O O17 0.943014 0.792727 0.500000
O O18 0.285882 0.914727 0.000000
#
# Coordination Sequence:
#
# PCOD9444201 Si02
#       8
#     8   8   2   8   8   8   8   8
#     4   9  18  34  57  83 114 154 199 253 308 360
#     4  10  21  36  57  83 116 157 197 246 307 360
#     4  12  26  48  68  90 122 160 214 244 300 364
#     4   8  16  32  55  82 112 150 197 248 299 354
#     4  11  26  44  64  92 125 161 202 253 304 358
#     4   9  18  32  53  83 116 153 196 246 308 365
#     4   8  15  30  52  79 111 149 192 235 295 366
#     4  11  21  36  58  84 116 158 207 253 301 364
#
# _framework density 21.812467999999999
#
# number of rings (size 3 to 8) (size 9 to 14) (size 15 to 20)
#    0.000    2.483    0.690    3.103    2.897    1.655 
#    0.000    2.759    0.000    6.621    0.000    0.000 
#    0.000    0.000    0.000    0.000    0.000    0.000 
#
# Total GULP energy -323497.320252 kJ/mol
# GULP energy per Si atom -5577.540004 kJ/mol
# Density = 2.176282 g / cm^3
# Si number density = 21.812468 Si / 1000 Ang^3
#
#
#
# Elastic Constant Matrix: (Units=GPa)
#
#
# Indices 1 2 3 4 5 6 
#
# 1 82.1499 44.9000 -2.0402 0.0000 0.0000 0.0000
# 2 44.9000 55.4106 2.0175 0.0000 0.0000 0.0000
# 3 -2.0402 2.0175 87.2485 0.0000 0.0000 0.0000
# 4 0.0000 0.0000 0.0000 9.3670 0.0000 0.0000
# 5 0.0000 0.0000 0.0000 0.0000 15.0599 0.0000
# 6 0.0000 0.0000 0.0000 0.0000 0.0000 23.9304
#
#
#
# Elastic Compliance Matrix: (Units=1/GPa)
#
#
# Indices 1 2 3 4 5 6 
#
# 1 0.021924 -0.017799 0.000924 0.000000 0.000000 0.000000
# 2 -0.017799 0.032512 -0.001168 0.000000 0.000000 0.000000
# 3 0.000924 -0.001168 0.011510 0.000000 0.000000 0.000000
# 4 0.000000 0.000000 0.000000 0.106757 0.000000 0.000000
# 5 0.000000 0.000000 0.000000 0.000000 0.066402 0.000000
# 6 0.000000 0.000000 0.000000 0.000000 0.000000 0.041788
#
#
# Mechanical properties :
#
#
# Convention : Reuss Voigt Hill
#
# Bulk Modulus (GPa) = 33.48845 34.95150 34.21998
# Shear Modulus (GPa) = 15.29368 21.66692 18.48030
#
# Velocity S-wave (km/s) = 2.65078 3.15513 2.91389
# Velocity P-wave (km/s) = 4.97545 5.41586 5.20032
#
# Compressibility (1/GPa) = 0.02986104
#
# Stress axis : x y z
#
# Youngs Moduli (GPa) = 45.61191 30.75748 86.88000
#
# Poissons Ratio (x) = 0.54745 -0.08030
# Poissons Ratio (y) = 0.81185 0.10147
# Poissons Ratio (z) = -0.04216 0.03592
#
# Static dielectric constant tensor:
#      x y z
#    x 1.825310 0.000000 0.000000 
#    y 0.000000 1.793240 0.000000 
#    z 0.000000 0.000000 0.989900 
# 
# From -- ./inp_files/6662.got.cif
#   From: 2010.05.17/outbox.cif.g08.bks.cpg/sg58_4_cif.got.tgz:6662.got - 2010.06.03 14:20:14.
