data_PCOD9444536
_publ_section_title
;
Structure prediction by ZEFSAII (Michael W. Deem and Ramdas Pophale) SiO2 
 PCOD9444536
Probable space group: P N N M
;
_chemical_formula_sum "Si O2"
_cell_formula_units_Z 48
_cell_length_a 14.484924
_cell_length_b 8.719630
_cell_length_c 17.884588
_cell_angle_alpha 90.000000
_cell_angle_beta 90.000000
_cell_angle_gamma 90.000000
_cell_volume 2258.880299
_symmetry_space_group_name_H-M "P N N M"
_symmetry_group_IT_number 58
_symmetry_cell_setting 'orthorhombic'
loop_
_space_group_symop_operation_xyz
x,y,z
-x,-y,z
1/2+x,1/2-y,1/2-z
1/2-x,1/2+y,1/2-z
-x,-y,-z
x,y,-z
1/2-x,1/2+y,1/2+z
1/2+x,1/2-y,1/2+z
loop_
_atom_site_type_symbol
_atom_site_label
_atom_site_fract_x
_atom_site_fract_y
_atom_site_fract_z
Si Si1 0.228854 0.530243 0.122541
Si Si2 0.853771 0.086709 0.500000
Si Si3 0.894999 0.700140 0.191590
Si Si4 0.187531 0.026729 0.090205
Si Si5 0.039114 0.243202 0.500000
Si Si6 0.059938 0.727577 0.081178
Si Si7 0.143609 0.324432 0.356180
O O1 0.288187 0.417117 0.071412
O O2 0.180431 0.435027 0.186565
O O3 0.143189 0.606572 0.079604
O O4 0.293769 0.670127 0.144365
O O5 0.930676 0.215109 0.500000
O O6 0.908165 0.922987 0.500000
O O7 0.848517 0.841361 0.145996
O O8 0.912694 0.697807 0.279705
O O9 0.989483 0.682682 0.145728
O O10 0.109879 0.891300 0.092762
O O11 0.282114 0.957607 0.124936
O O12 0.198236 0.063037 0.000000
O O13 0.074552 0.323430 0.425750
O O14 0.012150 0.729522 0.000000
#
# Coordination Sequence:
#
# PCOD9444536 Si02
#       7
#     8   4   8   8   4   8   8
#     4  10  21  38  62  87 121 156 200 256 310 364
#     4   9  18  36  62  92 105 148 213 253 291 351
#     4  12  23  34  59  97 125 154 206 263 306 361
#     4  10  21  40  63  85 125 169 205 247 316 384
#     4   9  18  40  65  80 110 160 211 249 297 367
#     4  10  21  39  61  86 123 165 198 240 313 391
#     4  10  21  42  61  86 119 168 207 253 315 373
#
# _framework density 21.249465000000001
#
# number of rings (size 3 to 8) (size 9 to 14) (size 15 to 20)
#    0.000    1.833    1.667    2.500    2.333    2.000 
#   18.000    0.000    0.000    1.000    0.000    0.000 
#    0.000    0.000    0.000    0.000    0.000    0.000 
#
# Total GULP energy -267760.119782 kJ/mol
# GULP energy per Si atom -5578.335829 kJ/mol
# Density = 2.120110 g / cm^3
# Si number density = 21.249465 Si / 1000 Ang^3
#
#
#
# Elastic Constant Matrix: (Units=GPa)
#
#
# Indices 1 2 3 4 5 6 
#
# 1 105.1018 12.2382 51.9618 0.0000 0.0000 0.0000
# 2 12.2382 43.6417 15.3475 0.0000 0.0000 0.0000
# 3 51.9618 15.3475 166.4085 0.0000 0.0000 0.0000
# 4 0.0000 0.0000 0.0000 2.9375 0.0000 0.0000
# 5 0.0000 0.0000 0.0000 0.0000 35.7711 0.0000
# 6 0.0000 0.0000 0.0000 0.0000 0.0000 18.4814
#
#
#
# Elastic Compliance Matrix: (Units=1/GPa)
#
#
# Indices 1 2 3 4 5 6 
#
# 1 0.011420 -0.002014 -0.003380 0.000000 0.000000 0.000000
# 2 -0.002014 0.024037 -0.001588 0.000000 0.000000 0.000000
# 3 -0.003380 -0.001588 0.007211 0.000000 0.000000 0.000000
# 4 0.000000 0.000000 0.000000 0.340426 0.000000 0.000000
# 5 0.000000 0.000000 0.000000 0.000000 0.027956 0.000000
# 6 0.000000 0.000000 0.000000 0.000000 0.000000 0.054108
#
#
# Mechanical properties :
#
#
# Convention : Reuss Voigt Hill
#
# Bulk Modulus (GPa) = 34.83797 52.69411 43.76604
# Shear Modulus (GPa) = 10.23141 27.14495 18.68818
#
# Velocity S-wave (km/s) = 2.19667 3.57801 2.96880
# Velocity P-wave (km/s) = 4.78165 6.47466 5.69146
#
# Compressibility (1/GPa) = 0.02870431
#
# Stress axis : x y z
#
# Youngs Moduli (GPa) = 87.56351 41.60242 138.67141
#
# Poissons Ratio (x) = 0.08378 0.46875
# Poissons Ratio (y) = 0.17633 0.22022
# Poissons Ratio (z) = 0.29599 0.06607
#
# Static dielectric constant tensor:
#      x y z
#    x 1.744240 0.000000 0.000000 
#    y 0.000000 1.808690 0.000000 
#    z 0.000000 0.000000 1.776100 
# 
# From -- ./inp_files/26826.got.cif
#   From: 2010.05.17/outbox.cif.g08.bks.cpg/sg58_14_cif.got.tgz:26826.got - 2010.06.03 14:20:14.
