data_PCOD9444301
_publ_section_title
;
Structure prediction by ZEFSAII (Michael W. Deem and Ramdas Pophale) SiO2 
 PCOD9444301
Probable space group: P N N M
;
_chemical_formula_sum "Si O2"
_cell_formula_units_Z 64
_cell_length_a 28.721218
_cell_length_b 12.031843
_cell_length_c 9.741487
_cell_angle_alpha 90.000000
_cell_angle_beta 90.000000
_cell_angle_gamma 90.000000
_cell_volume 3366.357731
_symmetry_space_group_name_H-M "P N N M"
_symmetry_group_IT_number 58
_symmetry_cell_setting 'orthorhombic'
loop_
_space_group_symop_operation_xyz
x,y,z
-x,-y,z
1/2+x,1/2-y,1/2-z
1/2-x,1/2+y,1/2-z
-x,-y,-z
x,y,-z
1/2-x,1/2+y,1/2+z
1/2+x,1/2-y,1/2+z
loop_
_atom_site_type_symbol
_atom_site_label
_atom_site_fract_x
_atom_site_fract_y
_atom_site_fract_z
Si Si1 0.434666 0.539748 0.847270
Si Si2 0.329781 0.288814 0.658409
Si Si3 0.837896 0.836610 0.340185
Si Si4 0.327365 0.072500 0.838522
Si Si5 0.059944 0.833220 0.841973
Si Si6 0.488344 0.775580 0.158615
Si Si7 0.105830 0.382067 0.332904
Si Si8 0.776311 0.988249 0.838683
O O1 0.380927 0.576361 0.834887
O O2 0.447630 0.451038 0.733230
O O3 0.462993 0.654640 0.840801
O O4 0.441985 0.490596 0.000000
O O5 0.316827 0.265156 0.500000
O O6 0.321648 0.184066 0.753907
O O7 0.384805 0.313908 0.662265
O O8 0.301114 0.397294 0.703242
O O9 0.823977 0.824320 0.500000
O O10 0.860615 0.720481 0.291644
O O11 0.797167 0.887016 0.248876
O O12 0.370404 0.996618 0.790486
O O13 0.279164 0.004977 0.824997
O O14 0.333883 0.097101 0.000000
O O15 0.032257 0.739958 0.756474
O O16 0.044560 0.835765 0.000000
O O17 0.447500 0.858745 0.207572
O O18 0.500954 0.800962 0.000000
O O19 0.105367 0.378150 0.500000
O O20 0.787190 0.970368 0.000000
#
# Coordination Sequence:
#
# PCOD9444301 Si02
#       8
#     8   8   8   8   8   8   8   8
#     4   9  17  30  49  78 112 144 181 226 269 318
#     4  10  23  41  57  79 116 152 181 223 282 334
#     4   9  17  31  56  83 108 144 183 219 268 330
#     4  10  22  39  61  83 106 142 191 235 271 326
#     4  11  21  33  51  77 111 151 186 222 277 335
#     4   9  18  33  54  79 109 144 184 230 279 326
#     4   8  17  36  58  81 109 142 183 232 280 320
#     4  10  21  37  56  82 114 144 177 225 281 332
#
# _framework density 19.011644
#
# number of rings (size 3 to 8) (size 9 to 14) (size 15 to 20)
#    0.000    2.500    1.250    2.250    1.750    4.000 
#    0.000    3.750    0.000    3.750    0.000    0.000 
#    0.000    0.000    0.000    0.000    0.000    0.000 
#
# Total GULP energy -357093.366955 kJ/mol
# GULP energy per Si atom -5579.583859 kJ/mol
# Density = 1.896837 g / cm^3
# Si number density = 19.011644 Si / 1000 Ang^3
#
#
#
# Elastic Constant Matrix: (Units=GPa)
#
#
# Indices 1 2 3 4 5 6 
#
# 1 26.6521 -2.2772 13.6626 0.0000 0.0000 0.0000
# 2 -2.2772 36.8666 16.4053 0.0000 0.0000 0.0000
# 3 13.6626 16.4053 51.5163 0.0000 0.0000 0.0000
# 4 0.0000 0.0000 0.0000 31.0053 0.0000 0.0000
# 5 0.0000 0.0000 0.0000 0.0000 33.2162 0.0000
# 6 0.0000 0.0000 0.0000 0.0000 0.0000 13.7978
#
#
#
# Elastic Compliance Matrix: (Units=1/GPa)
#
#
# Indices 1 2 3 4 5 6 
#
# 1 0.046210 0.009679 -0.015338 0.000000 0.000000 0.000000
# 2 0.009679 0.033631 -0.013277 0.000000 0.000000 0.000000
# 3 -0.015338 -0.013277 0.027707 0.000000 0.000000 0.000000
# 4 0.000000 0.000000 0.000000 0.032253 0.000000 0.000000
# 5 0.000000 0.000000 0.000000 0.000000 0.030106 0.000000
# 6 0.000000 0.000000 0.000000 0.000000 0.000000 0.072475
#
#
# Mechanical properties :
#
#
# Convention : Reuss Voigt Hill
#
# Bulk Modulus (GPa) = 14.35179 18.95740 16.65459
# Shear Modulus (GPa) = 16.47568 21.42013 18.94791
#
# Velocity S-wave (km/s) = 2.94702 3.36025 3.16040
# Velocity P-wave (km/s) = 4.37553 5.00482 4.70071
#
# Compressibility (1/GPa) = 0.06967772
#
# Stress axis : x y z
#
# Youngs Moduli (GPa) = 21.64028 29.73472 36.09195
#
# Poissons Ratio (x) = -0.28782 0.55357
# Poissons Ratio (y) = -0.20947 0.47918
# Poissons Ratio (z) = 0.33191 0.39478
#
# Static dielectric constant tensor:
#      x y z
#    x 1.694110 0.000000 0.000000 
#    y 0.000000 1.647120 0.000000 
#    z 0.000000 0.000000 1.642500 
# 
# From -- ./inp_files/10971.got.cif
#   From: 2010.05.17/outbox.cif.g08.bks.cpg/sg58_6_cif.got.tgz:10971.got - 2010.06.03 14:20:14.
