data_PCOD9444927
_publ_section_title
;
Structure prediction by ZEFSAII (Michael W. Deem and Ramdas Pophale) SiO2 
 PCOD9444927
Probable space group: P N N M
;
_chemical_formula_sum "Si O2"
_cell_formula_units_Z 56
_cell_length_a 14.325042
_cell_length_b 9.394594
_cell_length_c 18.290235
_cell_angle_alpha 90.000000
_cell_angle_beta 90.000000
_cell_angle_gamma 90.000000
_cell_volume 2461.462398
_symmetry_space_group_name_H-M "P N N M"
_symmetry_group_IT_number 58
_symmetry_cell_setting 'orthorhombic'
loop_
_space_group_symop_operation_xyz
x,y,z
-x,-y,z
1/2+x,1/2-y,1/2-z
1/2-x,1/2+y,1/2-z
-x,-y,-z
x,y,-z
1/2-x,1/2+y,1/2+z
1/2+x,1/2-y,1/2+z
loop_
_atom_site_type_symbol
_atom_site_label
_atom_site_fract_x
_atom_site_fract_y
_atom_site_fract_z
Si Si1 0.333857 0.285372 0.739885
Si Si2 0.841586 0.546839 0.771486
Si Si3 0.585450 0.195557 0.087663
Si Si4 0.594691 0.459332 0.829082
Si Si5 0.815884 0.700088 0.913977
Si Si6 0.468908 0.719854 0.690593
Si Si7 0.874661 0.375037 0.412340
O O1 0.231859 0.351008 0.729726
O O2 0.364362 0.390323 0.805703
O O3 0.420464 0.298527 0.683416
O O4 0.331036 0.115643 0.752370
O O5 0.873650 0.541391 0.608711
O O6 0.816100 0.564260 0.858979
O O7 0.940753 0.627899 0.772718
O O8 0.635385 0.332920 0.122573
O O9 0.475834 0.186295 0.112065
O O10 0.589134 0.207627 0.000000
O O11 0.500000 0.500000 0.870550
O O12 0.570526 0.389085 0.750500
O O13 0.906734 0.783806 0.882422
O O14 0.723474 0.794827 0.900065
O O15 0.821808 0.668151 0.000000
O O16 0.884076 0.373870 0.500000
#
# Coordination Sequence:
#
# PCOD9444927 Si02
#       7
#     8   8   8   8   8   8   8
#     4  11  22  44  63  99 137 174 238 286 364 414
#     4  10  23  40  70  97 135 190 223 304 351 428
#     4   9  18  35  60  98 142 192 235 286 358 431
#     4  10  22  37  58  91 136 178 228 286 338 418
#     4   9  20  40  68 104 140 187 236 293 365 423
#     4   9  22  41  67 100 137 176 227 298 350 434
#     4   8  16  34  62  99 145 181 227 283 352 444
#
# _framework density 22.750703999999999
#
# number of rings (size 3 to 8) (size 9 to 14) (size 15 to 20)
#    0.857    1.714    0.000    2.143    4.000    1.429 
#    7.714    2.143    0.000    4.714    0.000    1.000 
#    0.000    0.000    0.000    0.857    0.000    0.000 
#
# Total GULP energy -311758.454360 kJ/mol
# GULP energy per Si atom -5567.115256 kJ/mol
# Density = 2.269892 g / cm^3
# Si number density = 22.750704 Si / 1000 Ang^3
#
#
#
# Elastic Constant Matrix: (Units=GPa)
#
#
# Indices 1 2 3 4 5 6 
#
# 1 74.1428 24.6442 36.4421 0.0000 0.0000 0.0000
# 2 24.6442 179.4321 55.3899 0.0000 0.0000 0.0000
# 3 36.4421 55.3899 105.9261 0.0000 0.0000 0.0000
# 4 0.0000 0.0000 0.0000 34.8673 0.0000 0.0000
# 5 0.0000 0.0000 0.0000 0.0000 38.0202 0.0000
# 6 0.0000 0.0000 0.0000 0.0000 0.0000 32.4782
#
#
#
# Elastic Compliance Matrix: (Units=1/GPa)
#
#
# Indices 1 2 3 4 5 6 
#
# 1 0.016287 -0.000605 -0.005287 0.000000 0.000000 0.000000
# 2 -0.000605 0.006668 -0.003279 0.000000 0.000000 0.000000
# 3 -0.005287 -0.003279 0.012974 0.000000 0.000000 0.000000
# 4 0.000000 0.000000 0.000000 0.028680 0.000000 0.000000
# 5 0.000000 0.000000 0.000000 0.000000 0.026302 0.000000
# 6 0.000000 0.000000 0.000000 0.000000 0.000000 0.030790
#
#
# Mechanical properties :
#
#
# Convention : Reuss Voigt Hill
#
# Bulk Modulus (GPa) = 56.85691 65.82814 61.34253
# Shear Modulus (GPa) = 34.26873 37.27481 35.77177
#
# Velocity S-wave (km/s) = 3.88528 4.05211 3.96957
# Velocity P-wave (km/s) = 6.72107 7.13373 6.93047
#
# Compressibility (1/GPa) = 0.01758801
#
# Stress axis : x y z
#
# Youngs Moduli (GPa) = 61.39797 149.96123 77.07720
#
# Poissons Ratio (x) = 0.09071 0.40751
# Poissons Ratio (y) = 0.03714 0.25273
# Poissons Ratio (z) = 0.32461 0.49170
#
# Static dielectric constant tensor:
#      x y z
#    x 1.988000 0.000000 0.000000 
#    y 0.000000 1.899430 0.000000 
#    z 0.000000 0.000000 1.891660 
# 
# From -- ./inp_files/27038.got.cif
#   From: 2010.05.17/outbox.cif.g08.bks.cpg/sg58_14_cif.got.tgz:27038.got - 2010.06.03 14:20:14.
