data_PCOD9444484
_publ_section_title
;
Structure prediction by ZEFSAII (Michael W. Deem and Ramdas Pophale) SiO2 
 PCOD9444484
Probable space group: P N N M
;
_chemical_formula_sum "Si O2"
_cell_formula_units_Z 64
_cell_length_a 7.134380
_cell_length_b 23.291621
_cell_length_c 16.236641
_cell_angle_alpha 90.000000
_cell_angle_beta 90.000000
_cell_angle_gamma 90.000000
_cell_volume 2698.063337
_symmetry_space_group_name_H-M "P N N M"
_symmetry_group_IT_number 58
_symmetry_cell_setting 'orthorhombic'
loop_
_space_group_symop_operation_xyz
x,y,z
-x,-y,z
1/2+x,1/2-y,1/2-z
1/2-x,1/2+y,1/2-z
-x,-y,-z
x,y,-z
1/2-x,1/2+y,1/2+z
1/2+x,1/2-y,1/2+z
loop_
_atom_site_type_symbol
_atom_site_label
_atom_site_fract_x
_atom_site_fract_y
_atom_site_fract_z
Si Si1 0.190370 0.642412 0.910498
Si Si2 0.768631 0.602006 0.090848
Si Si3 0.716998 0.481214 0.655064
Si Si4 0.690370 0.857588 0.089502
Si Si5 0.695725 0.664836 0.750000
Si Si6 0.872779 0.295633 0.750000
Si Si7 0.216998 0.018786 0.655064
Si Si8 0.768631 0.602006 0.409152
O O1 0.229108 0.682670 0.832631
O O2 0.259506 0.578011 0.892479
O O3 0.964512 0.635659 0.914027
O O4 0.255791 0.663345 0.000000
O O5 0.655292 0.628909 0.167282
O O6 0.814547 0.536271 0.114233
O O7 0.679809 0.603952 0.000000
O O8 0.500000 0.500000 0.654981
O O9 0.740494 0.421989 0.607521
O O10 0.778149 0.473222 0.750000
O O11 0.814547 0.536271 0.614233
O O12 0.729108 0.817330 0.167369
O O13 0.464512 0.864341 0.085973
O O14 0.755791 0.836655 0.000000
O O15 0.608936 0.727547 0.750000
O O16 0.655292 0.628910 0.667282
O O17 0.920784 0.675975 0.750000
O O18 0.000000 0.000000 0.654981
O O19 0.679809 0.603952 0.500000
#
# Coordination Sequence:
#
# PCOD9444484 Si02
#       8
#     8   8   8   8   8   8   8   8
#     4  10  21  38  60  84 111 148 189 226 273 334
#     4  10  21  38  60  84 111 148 189 226 273 334
#     4  11  22  35  56  87 119 148 181 226 281 333
#     4  10  21  38  60  84 111 148 189 226 273 334
#     4  10  22  39  58  81 111 146 188 234 275 324
#     4  10  22  39  58  81 111 146 188 234 275 324
#     4  11  22  35  56  87 119 148 181 226 281 333
#     4  10  21  38  60  84 111 148 189 226 273 334
#
# _framework density 23.72072
#
# number of rings (size 3 to 8) (size 9 to 14) (size 15 to 20)
#    0.000    1.750    2.500    1.500    0.000    8.000 
#    0.000    0.000    0.000    0.000    0.000    0.000 
#    0.000    0.000    0.000    0.000    0.000    0.000 
#
# Total GULP energy -358154.839619 kJ/mol
# GULP energy per Si atom -5596.169369 kJ/mol
# Density = 2.366673 g / cm^3
# Si number density = 23.720720 Si / 1000 Ang^3
#
#
#
# Elastic Constant Matrix: (Units=GPa)
#
#
# Indices 1 2 3 4 5 6 
#
# 1 40.4900 -6.2743 11.8205 0.0000 0.0000 0.0000
# 2 -6.2743 122.3805 83.6286 0.0000 0.0000 0.0000
# 3 11.8205 83.6286 256.4957 0.0000 0.0000 0.0000
# 4 0.0000 0.0000 0.0000 -16.7073 0.0000 0.0000
# 5 0.0000 0.0000 0.0000 0.0000 6.1863 0.0000
# 6 0.0000 0.0000 0.0000 0.0000 0.0000 25.2336
#
#
#
# Elastic Compliance Matrix: (Units=1/GPa)
#
#
# Indices 1 2 3 4 5 6 
#
# 1 0.025729 0.002740 -0.002079 0.000000 0.000000 0.000000
# 2 0.002740 0.010805 -0.003649 0.000000 0.000000 0.000000
# 3 -0.002079 -0.003649 0.005184 0.000000 0.000000 0.000000
# 4 0.000000 0.000000 0.000000 -0.059854 0.000000 0.000000
# 5 0.000000 0.000000 0.000000 0.000000 0.161648 0.000000
# 6 0.000000 0.000000 0.000000 0.000000 0.000000 0.039630
#
#
# Mechanical properties :
#
#
# Convention : Reuss Voigt Hill
#
# Bulk Modulus (GPa) = 27.97856 66.41288 47.19572
# Shear Modulus (GPa) = 24.87156 24.95528 24.91342
#
# Velocity S-wave (km/s) = 3.24159 3.24704 3.24432
# Velocity P-wave (km/s) = 5.08244 6.48971 5.82870
#
# Compressibility (1/GPa) = 0.03574165
#
# Stress axis : x y z
#
# Youngs Moduli (GPa) = 38.86677 92.54592 192.88862
#
# Poissons Ratio (x) = -0.25355 0.40101
# Poissons Ratio (y) = -0.10649 0.70391
# Poissons Ratio (z) = 0.08080 0.33773
#
# Static dielectric constant tensor:
#      x y z
#    x 1.985850 0.000000 0.000000 
#    y 0.000000 1.814600 0.000000 
#    z 0.000000 0.000000 1.915730 
# 
# From -- ./inp_files/10037.got.cif
#   From: 2010.05.17/outbox.cif.g08.bks.cpg/sg58_6_cif.got.tgz:10037.got - 2010.06.03 14:20:14.
