data_PCOD9444364
_publ_section_title
;
Structure prediction by ZEFSAII (Michael W. Deem and Ramdas Pophale) SiO2 
 PCOD9444364
Probable space group: P N N M
;
_chemical_formula_sum "Si O2"
_cell_formula_units_Z 48
_cell_length_a 15.600872
_cell_length_b 18.589692
_cell_length_c 8.617736
_cell_angle_alpha 90.000000
_cell_angle_beta 90.000000
_cell_angle_gamma 90.000000
_cell_volume 2499.276200
_symmetry_space_group_name_H-M "P N N M"
_symmetry_group_IT_number 58
_symmetry_cell_setting 'orthorhombic'
loop_
_space_group_symop_operation_xyz
x,y,z
-x,-y,z
1/2+x,1/2-y,1/2-z
1/2-x,1/2+y,1/2-z
-x,-y,-z
x,y,-z
1/2-x,1/2+y,1/2+z
1/2+x,1/2-y,1/2+z
loop_
_atom_site_type_symbol
_atom_site_label
_atom_site_fract_x
_atom_site_fract_y
_atom_site_fract_z
Si Si1 0.668358 0.675168 0.317279
Si Si2 0.154625 0.311843 0.817877
Si Si3 0.920327 0.048394 0.684249
Si Si4 0.255906 0.530288 0.318763
Si Si5 0.744829 0.315064 0.819789
Si Si6 0.085814 0.458034 0.812447
O O1 0.684720 0.662749 0.500000
O O2 0.751659 0.652681 0.216417
O O3 0.590001 0.626686 0.263106
O O4 0.673007 0.761695 0.296702
O O5 0.165467 0.237977 0.723215
O O6 0.087763 0.373173 0.770471
O O7 0.145940 0.296199 0.000000
O O8 0.927299 0.058203 0.500000
O O9 0.834701 0.004778 0.726801
O O10 0.000000 0.000000 0.738297
O O11 0.268615 0.516117 0.500000
O O12 0.253792 0.615150 0.284157
O O13 0.166646 0.496830 0.263208
O O14 0.741127 0.335631 0.000000
O O15 0.000000 0.500000 0.769387
O O16 0.095061 0.460875 0.000000
#
# Coordination Sequence:
#
# PCOD9444364 Si02
#       6
#     8   8   8   8   8   8
#     4   9  18  33  56  81 108 146 184 225 278 331
#     4   9  16  31  56  80 108 145 184 225 275 332
#     4  11  23  38  59  85 114 150 189 234 285 338
#     4  12  23  36  58  86 115 147 187 238 285 333
#     4   9  19  34  56  81 110 149 188 230 283 337
#     4  10  21  37  59  85 115 152 189 229 279 336
#
# _framework density 19.205559999999998
#
# number of rings (size 3 to 8) (size 9 to 14) (size 15 to 20)
#    1.000    1.000    1.667    3.000    0.000    2.333 
#    0.000    1.667    0.000    2.000    0.000    0.000 
#    0.000    0.000    0.000    0.000    0.000    0.000 
#
# Total GULP energy -267322.354294 kJ/mol
# GULP energy per Si atom -5569.215714 kJ/mol
# Density = 1.916185 g / cm^3
# Si number density = 19.205560 Si / 1000 Ang^3
#
#
#
# Elastic Constant Matrix: (Units=GPa)
#
#
# Indices 1 2 3 4 5 6 
#
# 1 32.4649 -3.8049 -4.5057 0.0000 0.0000 0.0000
# 2 -3.8049 70.3119 -1.1912 0.0000 0.0000 0.0000
# 3 -4.5057 -1.1912 19.9507 0.0000 0.0000 0.0000
# 4 0.0000 0.0000 0.0000 5.4410 0.0000 0.0000
# 5 0.0000 0.0000 0.0000 0.0000 22.5437 0.0000
# 6 0.0000 0.0000 0.0000 0.0000 0.0000 -1.8093
#
#
#
# Elastic Compliance Matrix: (Units=1/GPa)
#
#
# Indices 1 2 3 4 5 6 
#
# 1 0.032040 0.001858 0.007347 0.000000 0.000000 0.000000
# 2 0.001858 0.014345 0.001276 0.000000 0.000000 0.000000
# 3 0.007347 0.001276 0.051859 0.000000 0.000000 0.000000
# 4 0.000000 0.000000 0.000000 0.183788 0.000000 0.000000
# 5 0.000000 0.000000 0.000000 0.000000 0.044358 0.000000
# 6 0.000000 0.000000 0.000000 0.000000 0.000000 -0.552695
#
#
# Mechanical properties :
#
#
# Convention : Reuss Voigt Hill
#
# Bulk Modulus (GPa) = 8.38884 11.52489 9.95687
# Shear Modulus (GPa) = -24.09263 14.05037 -5.02113
#
# Velocity S-wave (km/s) = -3.54568 2.70770 -1.61867
# Velocity P-wave (km/s) = 3.51924 3.97359 1.30467
#
# Compressibility (1/GPa) = 0.11920598
#
# Stress axis : x y z
#
# Youngs Moduli (GPa) = 31.21101 69.71303 19.28309
#
# Poissons Ratio (x) = -0.12955 -0.14167
# Poissons Ratio (y) = -0.05800 -0.02461
# Poissons Ratio (z) = -0.22930 -0.08896
#
# Static dielectric constant tensor:
#      x y z
#    x 1.664260 0.000000 0.000000 
#    y 0.000000 1.717540 0.000000 
#    z 0.000000 0.000000 1.640310 
# 
# From -- ./inp_files/6043.got.cif
#   From: 2010.05.17/outbox.cif.g08.bks.cpg/sg58_4_cif.got.tgz:6043.got - 2010.06.03 14:20:14.
