data_PCOD9444069
_publ_section_title
;
Structure prediction by ZEFSAII (Michael W. Deem and Ramdas Pophale) SiO2 
 PCOD9444069
Probable space group: P N N M
;
_chemical_formula_sum "Si O2"
_cell_formula_units_Z 64
_cell_length_a 13.174837
_cell_length_b 9.155057
_cell_length_c 26.383702
_cell_angle_alpha 90.000000
_cell_angle_beta 90.000000
_cell_angle_gamma 90.000000
_cell_volume 3182.306724
_symmetry_space_group_name_H-M "P N N M"
_symmetry_group_IT_number 58
_symmetry_cell_setting 'orthorhombic'
loop_
_space_group_symop_operation_xyz
x,y,z
-x,-y,z
1/2+x,1/2-y,1/2-z
1/2-x,1/2+y,1/2-z
-x,-y,-z
x,y,-z
1/2-x,1/2+y,1/2+z
1/2+x,1/2-y,1/2+z
loop_
_atom_site_type_symbol
_atom_site_label
_atom_site_fract_x
_atom_site_fract_y
_atom_site_fract_z
Si Si1 0.676312 0.808771 0.103715
Si Si2 0.381833 0.303842 0.620401
Si Si3 0.499776 0.658733 0.941348
Si Si4 0.602886 0.348786 0.363212
Si Si5 0.980008 0.337641 0.310881
Si Si6 0.684136 0.136498 0.061158
Si Si7 0.158370 0.607228 0.218379
Si Si8 0.145182 0.266980 0.242513
O O1 0.613021 0.721581 0.061958
O O2 0.793533 0.777477 0.115504
O O3 0.605909 0.775379 0.152766
O O4 0.673737 0.977662 0.086614
O O5 0.379973 0.476005 0.636262
O O6 0.502198 0.294023 0.607410
O O7 0.291461 0.294727 0.579245
O O8 0.357479 0.186261 0.664449
O O9 0.500000 0.500000 0.916290
O O10 0.413253 0.768164 0.921367
O O11 0.470797 0.641483 0.000000
O O12 0.589832 0.308897 0.304501
O O13 0.085660 0.264360 0.296223
O O14 0.000000 0.500000 0.330950
O O15 0.935297 0.355609 0.254617
O O16 0.682757 0.120817 0.000000
O O17 0.166980 0.432088 0.223207
O O18 0.253312 0.679650 0.246127
#
# Coordination Sequence:
#
# PCOD9444069 Si02
#       8
#     8   8   8   8   8   8   8   8
#     4  11  21  38  61  88 118 159 199 247 298 365
#     4  10  22  39  61  87 118 158 200 251 306 358
#     4  10  22  40  60  87 120 149 189 248 307 359
#     4  10  21  39  57  85 122 157 197 250 298 354
#     4  10  21  34  54  83 118 152 198 243 289 354
#     4  10  22  41  67  90 117 158 205 255 314 376
#     4  11  22  36  57  81 117 164 198 245 295 359
#     4  11  22  38  54  83 122 159 208 242 298 357
#
# _framework density 20.111198000000002
#
# number of rings (size 3 to 8) (size 9 to 14) (size 15 to 20)
#    0.000    1.625    2.500    2.250    7.000    2.000 
#    0.000    5.625    0.000    0.000    0.000    4.375 
#    0.000    0.000    0.000    0.000    0.000    0.000 
#
# Total GULP energy -356583.575585 kJ/mol
# GULP energy per Si atom -5571.618369 kJ/mol
# Density = 2.006542 g / cm^3
# Si number density = 20.111198 Si / 1000 Ang^3
#
#
#
# Elastic Constant Matrix: (Units=GPa)
#
#
# Indices 1 2 3 4 5 6 
#
# 1 116.1911 30.9584 16.9520 0.0000 0.0000 0.0000
# 2 30.9584 40.5647 11.3623 0.0000 0.0000 0.0000
# 3 16.9520 11.3623 55.4514 0.0000 0.0000 0.0000
# 4 0.0000 0.0000 0.0000 22.1168 0.0000 0.0000
# 5 0.0000 0.0000 0.0000 0.0000 32.3849 0.0000
# 6 0.0000 0.0000 0.0000 0.0000 0.0000 20.4005
#
#
#
# Elastic Compliance Matrix: (Units=1/GPa)
#
#
# Indices 1 2 3 4 5 6 
#
# 1 0.010959 -0.007877 -0.001736 0.000000 0.000000 0.000000
# 2 -0.007877 0.031815 -0.004111 0.000000 0.000000 0.000000
# 3 -0.001736 -0.004111 0.019407 0.000000 0.000000 0.000000
# 4 0.000000 0.000000 0.000000 0.045214 0.000000 0.000000
# 5 0.000000 0.000000 0.000000 0.000000 0.030879 0.000000
# 6 0.000000 0.000000 0.000000 0.000000 0.000000 0.049018
#
#
# Mechanical properties :
#
#
# Convention : Reuss Voigt Hill
#
# Bulk Modulus (GPa) = 28.79167 36.75028 32.77097
# Shear Modulus (GPa) = 22.09280 25.17610 23.63445
#
# Velocity S-wave (km/s) = 3.31801 3.54198 3.43182
# Velocity P-wave (km/s) = 5.38760 5.91952 5.65981
#
# Compressibility (1/GPa) = 0.03473227
#
# Stress axis : x y z
#
# Youngs Moduli (GPa) = 91.25229 31.43144 51.52806
#
# Poissons Ratio (x) = 0.24759 0.08946
# Poissons Ratio (y) = 0.71881 0.21183
# Poissons Ratio (z) = 0.15842 0.12922
#
# Static dielectric constant tensor:
#      x y z
#    x 1.758680 0.000000 0.000000 
#    y 0.000000 1.732250 0.000000 
#    z 0.000000 0.000000 1.747470 
# 
# From -- ./inp_files/34930.got.cif
#   From: 2010.05.17/outbox.cif.g08.bks.cpg/sg58_18_cif.got.tgz:34930.got - 2010.06.03 14:20:14.
