data_PCOD9444729
_publ_section_title
;
Structure prediction by ZEFSAII (Michael W. Deem and Ramdas Pophale) SiO2 
 PCOD9444729
Probable space group: P N N M
;
_chemical_formula_sum "Si O2"
_cell_formula_units_Z 64
_cell_length_a 31.168798
_cell_length_b 12.035857
_cell_length_c 9.067086
_cell_angle_alpha 90.000000
_cell_angle_beta 90.000000
_cell_angle_gamma 90.000000
_cell_volume 3401.455617
_symmetry_space_group_name_H-M "P N N M"
_symmetry_group_IT_number 58
_symmetry_cell_setting 'orthorhombic'
loop_
_space_group_symop_operation_xyz
x,y,z
-x,-y,z
1/2+x,1/2-y,1/2-z
1/2-x,1/2+y,1/2-z
-x,-y,-z
x,y,-z
1/2-x,1/2+y,1/2+z
1/2+x,1/2-y,1/2+z
loop_
_atom_site_type_symbol
_atom_site_label
_atom_site_fract_x
_atom_site_fract_y
_atom_site_fract_z
Si Si1 0.629151 0.144868 0.322842
Si Si2 0.459011 0.241885 0.176832
Si Si3 0.339537 0.490872 0.328103
Si Si4 0.044255 0.214216 0.824269
Si Si5 0.123512 0.595096 0.676981
Si Si6 0.287489 0.711207 0.675645
Si Si7 0.196509 0.742800 0.173037
Si Si8 0.429912 0.492186 0.824905
O O1 0.628918 0.128429 0.500000
O O2 0.589017 0.224879 0.287200
O O3 0.673846 0.205229 0.284238
O O4 0.624320 0.028145 0.242069
O O5 0.503797 0.220959 0.257361
O O6 0.420500 0.159155 0.217837
O O7 0.444848 0.367947 0.214448
O O8 0.464857 0.236200 0.000000
O O9 0.353430 0.505148 0.500000
O O10 0.305490 0.587482 0.297578
O O11 0.319252 0.369690 0.311268
O O12 0.380618 0.502071 0.224853
O O13 0.045257 0.091135 0.755529
O O14 0.040801 0.207432 0.000000
O O15 0.126194 0.592794 0.500000
O O16 0.163357 0.664242 0.741407
O O17 0.279558 0.722499 0.500000
O O18 0.244066 0.731885 0.762794
O O19 0.195923 0.714329 0.000000
O O20 0.434723 0.505667 0.000000
#
# Coordination Sequence:
#
# PCOD9444729 Si02
#       8
#     8   8   8   8   8   8   8   8
#     4  10  23  43  63  88 122 159 204 255 303 357
#     4  10  23  41  60  89 124 159 201 249 303 361
#     4  10  21  40  64  90 123 160 200 250 302 357
#     4  11  23  40  63  91 123 159 202 250 306 362
#     4  11  24  43  64  87 122 164 205 249 304 363
#     4  10  22  42  64  88 125 163 199 251 306 358
#     4  11  24  40  63  95 125 157 205 253 301 362
#     4  11  21  37  62  91 126 160 199 249 300 360
#
# _framework density 18.815473999999998
#
# number of rings (size 3 to 8) (size 9 to 14) (size 15 to 20)
#    0.000    1.500    2.500    1.875    1.750    6.500 
#    0.000    2.500    0.000    0.000    0.000    0.000 
#    0.000    0.000    0.000    0.000    0.000    0.000 
#
# Total GULP energy -357775.916676 kJ/mol
# GULP energy per Si atom -5590.248698 kJ/mol
# Density = 1.877265 g / cm^3
# Si number density = 18.815474 Si / 1000 Ang^3
#
#
#
# Elastic Constant Matrix: (Units=GPa)
#
#
# Indices 1 2 3 4 5 6 
#
# 1 85.4274 6.0124 31.6279 0.0000 0.0000 0.0000
# 2 6.0124 78.3993 30.2326 0.0000 0.0000 0.0000
# 3 31.6279 30.2326 34.8342 0.0000 0.0000 0.0000
# 4 0.0000 0.0000 0.0000 19.3168 0.0000 0.0000
# 5 0.0000 0.0000 0.0000 0.0000 38.1491 0.0000
# 6 0.0000 0.0000 0.0000 0.0000 0.0000 9.2891
#
#
#
# Elastic Compliance Matrix: (Units=1/GPa)
#
#
# Indices 1 2 3 4 5 6 
#
# 1 0.020877 0.008580 -0.026402 0.000000 0.000000 0.000000
# 2 0.008580 0.022698 -0.027490 0.000000 0.000000 0.000000
# 3 -0.026402 -0.027490 0.076537 0.000000 0.000000 0.000000
# 4 0.000000 0.000000 0.000000 0.051769 0.000000 0.000000
# 5 0.000000 0.000000 0.000000 0.000000 0.026213 0.000000
# 6 0.000000 0.000000 0.000000 0.000000 0.000000 0.107653
#
#
# Mechanical properties :
#
#
# Convention : Reuss Voigt Hill
#
# Bulk Modulus (GPa) = 33.91093 37.15630 35.53362
# Shear Modulus (GPa) = 12.30923 22.07020 17.18971
#
# Velocity S-wave (km/s) = 2.56052 3.42860 3.02585
# Velocity P-wave (km/s) = 5.17723 5.95519 5.57979
#
# Compressibility (1/GPa) = 0.02948902
#
# Stress axis : x y z
#
# Youngs Moduli (GPa) = 47.90023 44.05687 13.06552
#
# Poissons Ratio (x) = -0.37801 0.34495
# Poissons Ratio (y) = -0.41099 0.35917
# Poissons Ratio (z) = 1.26465 1.21112
#
# Static dielectric constant tensor:
#      x y z
#    x 1.633460 0.000000 0.000000 
#    y 0.000000 1.629430 0.000000 
#    z 0.000000 0.000000 1.629440 
# 
# From -- ./inp_files/11052.got.cif
#   From: 2010.05.17/outbox.cif.g08.bks.cpg/sg58_6_cif.got.tgz:11052.got - 2010.06.03 14:20:14.
