data_PCOD9444604
_publ_section_title
;
Structure prediction by ZEFSAII (Michael W. Deem and Ramdas Pophale) SiO2 
 PCOD9444604
Probable space group: P N N M
;
_chemical_formula_sum "Si O2"
_cell_formula_units_Z 64
_cell_length_a 28.300362
_cell_length_b 9.311574
_cell_length_c 12.683059
_cell_angle_alpha 90.000000
_cell_angle_beta 90.000000
_cell_angle_gamma 90.000000
_cell_volume 3342.251313
_symmetry_space_group_name_H-M "P N N M"
_symmetry_group_IT_number 58
_symmetry_cell_setting 'orthorhombic'
loop_
_space_group_symop_operation_xyz
x,y,z
-x,-y,z
1/2+x,1/2-y,1/2-z
1/2-x,1/2+y,1/2-z
-x,-y,-z
x,y,-z
1/2-x,1/2+y,1/2+z
1/2+x,1/2-y,1/2+z
loop_
_atom_site_type_symbol
_atom_site_label
_atom_site_fract_x
_atom_site_fract_y
_atom_site_fract_z
Si Si1 0.445699 0.733043 0.119781
Si Si2 0.949365 0.220160 0.623299
Si Si3 0.209410 0.377028 0.260662
Si Si4 0.771451 0.339581 0.378882
Si Si5 0.850119 0.171733 0.714456
Si Si6 0.342591 0.622703 0.878825
Si Si7 0.646043 0.907396 0.375697
Si Si8 0.051816 0.504132 0.238687
O O1 0.497158 0.664228 0.139426
O O2 0.399439 0.635733 0.119906
O O3 0.437567 0.852301 0.208249
O O4 0.448893 0.794290 0.000000
O O5 0.938135 0.206875 0.500000
O O6 0.952150 0.384266 0.664062
O O7 0.905826 0.161016 0.690453
O O8 0.232364 0.498788 0.335132
O O9 0.243442 0.272389 0.194740
O O10 0.178282 0.269161 0.331779
O O11 0.178813 0.472868 0.179506
O O12 0.756817 0.330400 0.500000
O O13 0.825764 0.285004 0.366077
O O14 0.829379 0.015028 0.691345
O O15 0.842513 0.251035 0.825590
O O16 0.326768 0.601411 0.000000
O O17 0.651392 0.908611 0.500000
O O18 0.592975 0.945436 0.338363
O O19 0.000000 0.500000 0.187349
#
# Coordination Sequence:
#
# PCOD9444604 Si02
#       8
#     8   8   8   8   8   8   8   8
#     4   9  17  28  49  83 120 154 186 225 282 344
#     4   9  16  28  49  80 117 154 189 227 278 343
#     4  11  23  41  62  89 116 147 190 239 289 346
#     4  11  23  41  63  87 116 151 189 236 290 345
#     4  10  22  37  56  83 116 154 194 234 285 338
#     4  11  21  36  58  87 122 154 184 227 284 349
#     4  10  21  39  59  81 110 151 199 246 288 328
#     4   9  16  29  50  81 113 149 190 238 283 337
#
# _framework density 19.148769999999999
#
# number of rings (size 3 to 8) (size 9 to 14) (size 15 to 20)
#    0.000    2.000    1.250    3.000    0.000    2.250 
#    0.000   11.250    0.000    0.000    0.000    2.625 
#    0.000    0.000    0.000    0.000    0.000    0.000 
#
# Total GULP energy -356905.341325 kJ/mol
# GULP energy per Si atom -5576.645958 kJ/mol
# Density = 1.910519 g / cm^3
# Si number density = 19.148770 Si / 1000 Ang^3
#
#
#
# Elastic Constant Matrix: (Units=GPa)
#
#
# Indices 1 2 3 4 5 6 
#
# 1 65.7685 25.0300 24.9388 0.0000 0.0000 0.0000
# 2 25.0300 119.4317 45.2310 0.0000 0.0000 0.0000
# 3 24.9388 45.2310 89.0573 0.0000 0.0000 0.0000
# 4 0.0000 0.0000 0.0000 17.5798 0.0000 0.0000
# 5 0.0000 0.0000 0.0000 0.0000 17.3062 0.0000
# 6 0.0000 0.0000 0.0000 0.0000 0.0000 14.8562
#
#
#
# Elastic Compliance Matrix: (Units=1/GPa)
#
#
# Indices 1 2 3 4 5 6 
#
# 1 0.017483 -0.002241 -0.003758 0.000000 0.000000 0.000000
# 2 -0.002241 0.010654 -0.004784 0.000000 0.000000 0.000000
# 3 -0.003758 -0.004784 0.014711 0.000000 0.000000 0.000000
# 4 0.000000 0.000000 0.000000 0.056883 0.000000 0.000000
# 5 0.000000 0.000000 0.000000 0.000000 0.057783 0.000000
# 6 0.000000 0.000000 0.000000 0.000000 0.000000 0.067312
#
#
# Mechanical properties :
#
#
# Convention : Reuss Voigt Hill
#
# Bulk Modulus (GPa) = 46.98548 51.62858 49.30703
# Shear Modulus (GPa) = 19.72510 21.88560 20.80535
#
# Velocity S-wave (km/s) = 3.21299 3.38438 3.29980
# Velocity P-wave (km/s) = 6.19312 6.50326 6.35009
#
# Compressibility (1/GPa) = 0.02128317
#
# Stress axis : x y z
#
# Youngs Moduli (GPa) = 57.20001 93.85900 67.97862
#
# Poissons Ratio (x) = 0.21033 0.25543
# Poissons Ratio (y) = 0.12818 0.32519
# Poissons Ratio (z) = 0.21493 0.44899
#
# Static dielectric constant tensor:
#      x y z
#    x 1.730530 0.000000 0.000000 
#    y 0.000000 1.671670 0.000000 
#    z 0.000000 0.000000 1.618830 
# 
# From -- ./inp_files/18008.got.cif
#   From: 2010.05.17/outbox.cif.g08.bks.cpg/sg58_10_cif.got.tgz:18008.got - 2010.06.03 14:20:14.
