data_PCOD9444867
_publ_section_title
;
Structure prediction by ZEFSAII (Michael W. Deem and Ramdas Pophale) SiO2 
 PCOD9444867
Probable space group: P N N M
;
_chemical_formula_sum "Si O2"
_cell_formula_units_Z 32
_cell_length_a 8.246038
_cell_length_b 9.031100
_cell_length_c 18.247758
_cell_angle_alpha 90.000000
_cell_angle_beta 90.000000
_cell_angle_gamma 90.000000
_cell_volume 1358.925023
_symmetry_space_group_name_H-M "P N N M"
_symmetry_group_IT_number 58
_symmetry_cell_setting 'orthorhombic'
loop_
_space_group_symop_operation_xyz
x,y,z
-x,-y,z
1/2+x,1/2-y,1/2-z
1/2-x,1/2+y,1/2-z
-x,-y,-z
x,y,-z
1/2-x,1/2+y,1/2+z
1/2+x,1/2-y,1/2+z
loop_
_atom_site_type_symbol
_atom_site_label
_atom_site_fract_x
_atom_site_fract_y
_atom_site_fract_z
Si Si1 0.824496 0.078858 0.415182
Si Si2 0.345073 0.083826 0.716364
Si Si3 0.142262 0.908526 0.172657
Si Si4 0.043470 0.330846 0.418401
O O1 0.768100 0.082318 0.500000
O O2 0.883889 0.242898 0.390827
O O3 0.703199 0.992932 0.361520
O O4 0.000000 0.000000 0.410911
O O5 0.399617 0.254067 0.712565
O O6 0.500000 0.000000 0.747439
O O7 0.200694 0.032171 0.769195
O O8 0.290500 0.840757 0.125723
O O9 0.000000 0.000000 0.131589
O O10 0.075996 0.268193 0.500000
O O11 0.000000 0.500000 0.425446
#
# Coordination Sequence:
#
# PCOD9444867 Si02
#       4
#     8   8   8   8
#     4  10  21  43  71  96 132 180 228 275 335 407
#     4  12  27  43  67 100 135 179 228 285 343 404
#     4  12  27  44  68  98 138 179 226 284 342 409
#     4  10  23  43  70 100 133 177 226 281 341 405
#
# _framework density 23.548026
#
# number of rings (size 3 to 8) (size 9 to 14) (size 15 to 20)
#    0.000    1.000    2.500    3.000   10.500    1.000 
#    0.000    0.000    0.000    0.000    0.000    0.000 
#    0.000    0.000    0.000    0.000    0.000    0.000 
#
# Total GULP energy -178489.823590 kJ/mol
# GULP energy per Si atom -5577.806987 kJ/mol
# Density = 2.349443 g / cm^3
# Si number density = 23.548026 Si / 1000 Ang^3
#
#
#
# Elastic Constant Matrix: (Units=GPa)
#
#
# Indices 1 2 3 4 5 6 
#
# 1 53.2248 27.5865 13.9642 0.0000 0.0000 0.0000
# 2 27.5865 168.6185 -1.2833 0.0000 0.0000 0.0000
# 3 13.9642 -1.2833 81.4651 0.0000 0.0000 0.0000
# 4 0.0000 0.0000 0.0000 31.9009 0.0000 0.0000
# 5 0.0000 0.0000 0.0000 0.0000 36.4674 0.0000
# 6 0.0000 0.0000 0.0000 0.0000 0.0000 49.5099
#
#
#
# Elastic Compliance Matrix: (Units=1/GPa)
#
#
# Indices 1 2 3 4 5 6 
#
# 1 0.021624 -0.003566 -0.003763 0.000000 0.000000 0.000000
# 2 -0.003566 0.006519 0.000714 0.000000 0.000000 0.000000
# 3 -0.003763 0.000714 0.012931 0.000000 0.000000 0.000000
# 4 0.000000 0.000000 0.000000 0.031347 0.000000 0.000000
# 5 0.000000 0.000000 0.000000 0.000000 0.027422 0.000000
# 6 0.000000 0.000000 0.000000 0.000000 0.000000 0.020198
#
#
# Mechanical properties :
#
#
# Convention : Reuss Voigt Hill
#
# Bulk Modulus (GPa) = 35.91377 42.64926 39.28151
# Shear Modulus (GPa) = 35.07454 41.11168 38.09311
#
# Velocity S-wave (km/s) = 3.86358 4.18289 4.02640
# Velocity P-wave (km/s) = 5.93189 6.44047 6.19141
#
# Compressibility (1/GPa) = 0.02784447
#
# Stress axis : x y z
#
# Youngs Moduli (GPa) = 46.24506 153.38710 77.33089
#
# Poissons Ratio (x) = 0.54704 0.29098
# Poissons Ratio (y) = 0.16493 -0.05522
# Poissons Ratio (z) = 0.17401 -0.10952
#
# Static dielectric constant tensor:
#      x y z
#    x 2.086340 0.000000 0.000000 
#    y 0.000000 2.057350 0.000000 
#    z 0.000000 0.000000 2.044460 
# 
# From -- ./inp_files/28458.got.cif
#   From: 2010.05.17/outbox.cif.g08.bks.cpg/sg58_15_cif.got.tgz:28458.got - 2010.06.03 14:20:14.
