data_PCOD9444206
_publ_section_title
;
Structure prediction by ZEFSAII (Michael W. Deem and Ramdas Pophale) SiO2 
 PCOD9444206
Probable space group: P N N M
;
_chemical_formula_sum "Si O2"
_cell_formula_units_Z 48
_cell_length_a 12.058269
_cell_length_b 23.980833
_cell_length_c 7.606924
_cell_angle_alpha 90.000000
_cell_angle_beta 90.000000
_cell_angle_gamma 90.000000
_cell_volume 2199.673942
_symmetry_space_group_name_H-M "P N N M"
_symmetry_group_IT_number 58
_symmetry_cell_setting 'orthorhombic'
loop_
_space_group_symop_operation_xyz
x,y,z
-x,-y,z
1/2+x,1/2-y,1/2-z
1/2-x,1/2+y,1/2-z
-x,-y,-z
x,y,-z
1/2-x,1/2+y,1/2+z
1/2+x,1/2-y,1/2+z
loop_
_atom_site_type_symbol
_atom_site_label
_atom_site_fract_x
_atom_site_fract_y
_atom_site_fract_z
Si Si1 0.733768 0.625696 0.797637
Si Si2 0.344482 0.650949 0.293435
Si Si3 0.568295 0.050525 0.200383
Si Si4 0.392186 0.774557 0.285682
Si Si5 0.021236 0.937904 0.295401
Si Si6 0.412432 0.149483 0.710993
O O1 0.823522 0.575602 0.791262
O O2 0.799626 0.680017 0.723378
O O3 0.621245 0.600126 0.717837
O O4 0.709180 0.640494 0.000000
O O5 0.370730 0.649652 0.500000
O O6 0.376710 0.711921 0.221870
O O7 0.411349 0.599706 0.212244
O O8 0.213290 0.647751 0.268422
O O9 0.480416 0.100136 0.201421
O O10 0.500000 0.000000 0.283350
O O11 0.599370 0.035142 0.000000
O O12 0.383881 0.774392 0.500000
O O13 0.515352 0.796142 0.242509
O O14 0.052888 0.946980 0.500000
O O15 0.000000 0.000000 0.220171
O O16 0.418190 0.142896 0.500000
#
# Coordination Sequence:
#
# PCOD9444206 Si02
#       6
#     8   8   8   8   8   8
#     4   9  19  38  61  83 115 157 197 241 288 347
#     4  11  23  38  60  89 121 154 191 245 304 353
#     4  10  21  36  57  87 118 148 188 239 293 344
#     4   8  18  37  59  85 115 150 193 240 296 355
#     4  10  23  41  60  87 119 160 209 244 285 354
#     4  10  21  39  60  84 116 153 197 239 285 350
#
# _framework density 21.821415999999999
#
# number of rings (size 3 to 8) (size 9 to 14) (size 15 to 20)
#    0.000    2.333    0.000    2.500    4.667    2.333 
#    0.000    7.500    0.000    0.000    0.000    0.000 
#    0.000    0.000    0.000    0.000    0.000    0.000 
#
# Total GULP energy -267773.884575 kJ/mol
# GULP energy per Si atom -5578.622595 kJ/mol
# Density = 2.177175 g / cm^3
# Si number density = 21.821416 Si / 1000 Ang^3
#
#
#
# Elastic Constant Matrix: (Units=GPa)
#
#
# Indices 1 2 3 4 5 6 
#
# 1 139.4264 61.3563 -16.2465 0.0000 0.0000 0.0000
# 2 61.3563 97.3077 2.8811 0.0000 0.0000 0.0000
# 3 -16.2465 2.8811 49.3101 0.0000 0.0000 0.0000
# 4 0.0000 0.0000 0.0000 67.0844 0.0000 0.0000
# 5 0.0000 0.0000 0.0000 0.0000 149.5597 0.0000
# 6 0.0000 0.0000 0.0000 0.0000 0.0000 11.4941
#
#
#
# Elastic Compliance Matrix: (Units=1/GPa)
#
#
# Indices 1 2 3 4 5 6 
#
# 1 0.010626 -0.006815 0.003899 0.000000 0.000000 0.000000
# 2 -0.006815 0.014666 -0.003102 0.000000 0.000000 0.000000
# 3 0.003899 -0.003102 0.021746 0.000000 0.000000 0.000000
# 4 0.000000 0.000000 0.000000 0.014907 0.000000 0.000000
# 5 0.000000 0.000000 0.000000 0.000000 0.006686 0.000000
# 6 0.000000 0.000000 0.000000 0.000000 0.000000 0.087001
#
#
# Mechanical properties :
#
#
# Convention : Reuss Voigt Hill
#
# Bulk Modulus (GPa) = 28.57131 42.44732 35.50932
# Shear Modulus (GPa) = 27.88070 61.49787 44.68928
#
# Velocity S-wave (km/s) = 3.57834 5.31446 4.53034
# Velocity P-wave (km/s) = 5.49494 7.55992 6.60858
#
# Compressibility (1/GPa) = 0.03500014
#
# Stress axis : x y z
#
# Youngs Moduli (GPa) = 94.11049 68.18523 45.98590
#
# Poissons Ratio (x) = 0.46471 -0.17931
# Poissons Ratio (y) = 0.64140 0.14267
# Poissons Ratio (z) = -0.36695 0.21154
#
# Static dielectric constant tensor:
#      x y z
#    x 1.777620 0.000000 0.000000 
#    y 0.000000 1.817990 0.000000 
#    z 0.000000 0.000000 1.843960 
# 
# From -- ./inp_files/4217.got.cif
#   From: 2010.05.17/outbox.cif.g08.bks.cpg/sg58_3_cif.got.tgz:4217.got - 2010.06.03 14:20:14.
