data_PCOD9444771
_publ_section_title
;
Structure prediction by ZEFSAII (Michael W. Deem and Ramdas Pophale) SiO2 
 PCOD9444771
Probable space group: P N N M
;
_chemical_formula_sum "Si O2"
_cell_formula_units_Z 52
_cell_length_a 9.416787
_cell_length_b 19.846761
_cell_length_c 12.476459
_cell_angle_alpha 90.000000
_cell_angle_beta 90.000000
_cell_angle_gamma 90.000000
_cell_volume 2331.759371
_symmetry_space_group_name_H-M "P N N M"
_symmetry_group_IT_number 58
_symmetry_cell_setting 'orthorhombic'
loop_
_space_group_symop_operation_xyz
x,y,z
-x,-y,z
1/2+x,1/2-y,1/2-z
1/2-x,1/2+y,1/2-z
-x,-y,-z
x,y,-z
1/2-x,1/2+y,1/2+z
1/2+x,1/2-y,1/2+z
loop_
_atom_site_type_symbol
_atom_site_label
_atom_site_fract_x
_atom_site_fract_y
_atom_site_fract_z
Si Si1 0.324320 0.911913 0.308916
Si Si2 0.915196 0.190526 0.383356
Si Si3 0.723245 0.370283 0.846340
Si Si4 0.625160 0.552509 0.624012
Si Si5 0.831445 0.488309 0.000000
Si Si6 0.477184 0.210443 0.694623
Si Si7 0.884985 0.841500 0.879991
O O1 0.253631 0.948604 0.207232
O O2 0.380479 0.957465 0.405728
O O3 0.440346 0.857277 0.273967
O O4 0.196395 0.867998 0.359416
O O5 0.888042 0.219658 0.500000
O O6 0.069387 0.155659 0.380615
O O7 0.918666 0.248078 0.295012
O O8 0.709172 0.371383 0.716311
O O9 0.764770 0.438250 0.906137
O O10 0.843040 0.314899 0.872385
O O11 0.500000 0.500000 0.652561
O O12 0.665974 0.540685 0.500000
O O13 0.541270 0.623719 0.629940
O O14 0.584354 0.262284 0.637119
O O15 0.833866 0.856158 0.000000
#
# Coordination Sequence:
#
# PCOD9444771 Si02
#       7
#     8   8   8   8   4   8   8
#     4  12  25  42  66 101 136 179 228 282 340 412
#     4  11  22  42  68 102 131 175 231 290 341 394
#     4  11  24  43  63 100 136 184 228 280 341 411
#     4  10  21  40  67  97 127 166 225 284 338 395
#     4  12  28  44  72  96 146 182 230 280 345 417
#     4  11  26  41  62  99 142 179 227 274 347 417
#     4  10  22  40  68  94 130 179 222 283 333 401
#
# _framework density 22.300757000000001
#
# number of rings (size 3 to 8) (size 9 to 14) (size 15 to 20)
#    0.000    1.077    4.615    2.769    2.154    4.308 
#    0.000    0.000    0.000    0.000    0.000    6.462 
#    0.000    0.000    0.000    0.000    0.000    0.000 
#
# Total GULP energy -289758.909442 kJ/mol
# GULP energy per Si atom -5572.286720 kJ/mol
# Density = 2.225000 g / cm^3
# Si number density = 22.300757 Si / 1000 Ang^3
#
#
#
# Elastic Constant Matrix: (Units=GPa)
#
#
# Indices 1 2 3 4 5 6 
#
# 1 78.8587 21.8498 13.5603 0.0000 0.0000 0.0000
# 2 21.8498 75.6751 26.8107 0.0000 0.0000 0.0000
# 3 13.5603 26.8107 163.7429 0.0000 0.0000 0.0000
# 4 0.0000 0.0000 0.0000 4.7666 0.0000 0.0000
# 5 0.0000 0.0000 0.0000 0.0000 -6.5197 0.0000
# 6 0.0000 0.0000 0.0000 0.0000 0.0000 37.3903
#
#
#
# Elastic Compliance Matrix: (Units=1/GPa)
#
#
# Indices 1 2 3 4 5 6 
#
# 1 0.013825 -0.003807 -0.000522 0.000000 0.000000 0.000000
# 2 -0.003807 0.015076 -0.002153 0.000000 0.000000 0.000000
# 3 -0.000522 -0.002153 0.006503 0.000000 0.000000 0.000000
# 4 0.000000 0.000000 0.000000 0.209792 0.000000 0.000000
# 5 0.000000 0.000000 0.000000 0.000000 -0.153382 0.000000
# 6 0.000000 0.000000 0.000000 0.000000 0.000000 0.026745
#
#
# Mechanical properties :
#
#
# Convention : Reuss Voigt Hill
#
# Bulk Modulus (GPa) = 44.56138 49.19092 46.87615
# Shear Modulus (GPa) = 35.97023 24.19785 30.08404
#
# Velocity S-wave (km/s) = 4.02052 3.29761 3.67688
# Velocity P-wave (km/s) = 6.44812 6.05019 6.25232
#
# Compressibility (1/GPa) = 0.02244096
#
# Stress axis : x y z
#
# Youngs Moduli (GPa) = 72.33042 66.32844 153.77749
#
# Poissons Ratio (x) = 0.25252 0.08021
# Poissons Ratio (y) = 0.27537 0.33113
# Poissons Ratio (z) = 0.03773 0.14282
#
# Static dielectric constant tensor:
#      x y z
#    x 1.907670 0.000000 0.000000 
#    y 0.000000 1.846260 0.000000 
#    z 0.000000 0.000000 1.816120 
# 
# From -- ./inp_files/20044.got.cif
#   From: 2010.05.17/outbox.cif.g08.bks.cpg/sg58_11_cif.got.tgz:20044.got - 2010.06.03 14:20:14.
