data_PCOD9444928
_publ_section_title
;
Structure prediction by ZEFSAII (Michael W. Deem and Ramdas Pophale) SiO2 
 PCOD9444928
Probable space group: P N N M
;
_chemical_formula_sum "Si O2"
_cell_formula_units_Z 36
_cell_length_a 8.007618
_cell_length_b 8.297606
_cell_length_c 27.493566
_cell_angle_alpha 90.000000
_cell_angle_beta 90.000000
_cell_angle_gamma 90.000000
_cell_volume 1826.784126
_symmetry_space_group_name_H-M "P N N M"
_symmetry_group_IT_number 58
_symmetry_cell_setting 'orthorhombic'
loop_
_space_group_symop_operation_xyz
x,y,z
-x,-y,z
1/2+x,1/2-y,1/2-z
1/2-x,1/2+y,1/2-z
-x,-y,-z
x,y,-z
1/2-x,1/2+y,1/2+z
1/2+x,1/2-y,1/2+z
loop_
_atom_site_type_symbol
_atom_site_label
_atom_site_fract_x
_atom_site_fract_y
_atom_site_fract_z
Si Si1 0.500000 0.000000 0.399427
Si Si2 0.810944 0.676533 0.823112
Si Si3 0.335501 0.609105 0.230398
Si Si4 0.158444 0.121699 0.444434
Si Si5 0.464408 0.811454 0.145025
O O1 0.450796 0.851544 0.363643
O O2 0.665756 0.960946 0.429954
O O3 0.800604 0.512086 0.791399
O O4 0.818966 0.817930 0.783659
O O5 0.636664 0.709968 0.850667
O O6 0.500000 0.500000 0.230576
O O7 0.358866 0.752423 0.191649
O O8 0.167020 0.179832 0.500000
O O9 0.124826 0.258381 0.404406
O O10 0.000000 0.000000 0.441405
O O11 0.500000 0.000000 0.146900
#
# Coordination Sequence:
#
# PCOD9444928 Si02
#       5
#     4   8   8   8   8
#     4  12  23  40  70  96 126 164 221 272 318 388
#     4  11  23  37  62  95 133 174 218 261 318 388
#     4  10  22  37  58  92 133 176 219 255 325 386
#     4  11  23  45  70  95 126 167 218 277 334 391
#     4  11  22  41  63  89 133 172 214 268 325 386
#
# _framework density 19.706764
#
# number of rings (size 3 to 8) (size 9 to 14) (size 15 to 20)
#    0.000    1.111    4.444    2.333    7.778    2.222 
#    0.000    0.000    0.000    1.333    0.000    0.000 
#    0.000    0.000    0.000    0.000    0.000    0.000 
#
# Total GULP energy -201020.837241 kJ/mol
# GULP energy per Si atom -5583.912146 kJ/mol
# Density = 1.966191 g / cm^3
# Si number density = 19.706764 Si / 1000 Ang^3
#
#
#
# Elastic Constant Matrix: (Units=GPa)
#
#
# Indices 1 2 3 4 5 6 
#
# 1 98.4431 15.2109 39.5839 0.0000 0.0000 0.0000
# 2 15.2109 74.9971 32.0475 0.0000 0.0000 0.0000
# 3 39.5839 32.0475 139.3820 0.0000 0.0000 0.0000
# 4 0.0000 0.0000 0.0000 23.4186 0.0000 0.0000
# 5 0.0000 0.0000 0.0000 0.0000 19.3636 0.0000
# 6 0.0000 0.0000 0.0000 0.0000 0.0000 16.9943
#
#
#
# Elastic Compliance Matrix: (Units=1/GPa)
#
#
# Indices 1 2 3 4 5 6 
#
# 1 0.011541 -0.001043 -0.003038 0.000000 0.000000 0.000000
# 2 -0.001043 0.014881 -0.003125 0.000000 0.000000 0.000000
# 3 -0.003038 -0.003125 0.008756 0.000000 0.000000 0.000000
# 4 0.000000 0.000000 0.000000 0.042701 0.000000 0.000000
# 5 0.000000 0.000000 0.000000 0.000000 0.051643 0.000000
# 6 0.000000 0.000000 0.000000 0.000000 0.000000 0.058843
#
#
# Mechanical properties :
#
#
# Convention : Reuss Voigt Hill
#
# Bulk Modulus (GPa) = 48.15594 54.05630 51.10612
# Shear Modulus (GPa) = 23.84372 27.02062 25.43217
#
# Velocity S-wave (km/s) = 3.48217 3.70690 3.59629
# Velocity P-wave (km/s) = 6.37626 6.76841 6.57526
#
# Compressibility (1/GPa) = 0.02076587
#
# Stress axis : x y z
#
# Youngs Moduli (GPa) = 86.64953 67.20051 114.20929
#
# Poissons Ratio (x) = 0.07006 0.34695
# Poissons Ratio (y) = 0.09034 0.35695
# Poissons Ratio (z) = 0.26322 0.21003
#
# Static dielectric constant tensor:
#      x y z
#    x 1.742740 0.000000 0.000000 
#    y 0.000000 1.685470 0.000000 
#    z 0.000000 0.000000 1.691850 
# 
# From -- ./inp_files/33111.got.cif
#   From: 2010.05.17/outbox.cif.g08.bks.cpg/sg58_17_cif.got.tgz:33111.got - 2010.06.03 14:20:14.
