data_PCOD9444890
_publ_section_title
;
Structure prediction by ZEFSAII (Michael W. Deem and Ramdas Pophale) SiO2 
 PCOD9444890
Probable space group: P N N M
;
_chemical_formula_sum "Si O2"
_cell_formula_units_Z 56
_cell_length_a 13.628613
_cell_length_b 9.161238
_cell_length_c 20.553268
_cell_angle_alpha 90.000000
_cell_angle_beta 90.000000
_cell_angle_gamma 90.000000
_cell_volume 2566.177604
_symmetry_space_group_name_H-M "P N N M"
_symmetry_group_IT_number 58
_symmetry_cell_setting 'orthorhombic'
loop_
_space_group_symop_operation_xyz
x,y,z
-x,-y,z
1/2+x,1/2-y,1/2-z
1/2-x,1/2+y,1/2-z
-x,-y,-z
x,y,-z
1/2-x,1/2+y,1/2+z
1/2+x,1/2-y,1/2+z
loop_
_atom_site_type_symbol
_atom_site_label
_atom_site_fract_x
_atom_site_fract_y
_atom_site_fract_z
Si Si1 0.838349 0.971761 0.072501
Si Si2 0.055615 0.344238 0.734951
Si Si3 0.066273 0.289513 0.118849
Si Si4 0.233420 0.931898 0.575535
Si Si5 0.140495 0.683542 0.074745
Si Si6 0.263966 0.019646 0.796943
Si Si7 0.363341 0.320357 0.206654
O O1 0.849286 0.143882 0.078160
O O2 0.766705 0.934293 0.130991
O O3 0.932168 0.871287 0.087404
O O4 0.803083 0.937395 0.000000
O O5 0.090742 0.290709 0.805401
O O6 0.152989 0.394139 0.697495
O O7 0.000000 0.500000 0.741818
O O8 0.978139 0.224605 0.709367
O O9 0.156075 0.366434 0.082171
O O10 0.957268 0.353438 0.114077
O O11 0.200327 0.916653 0.500000
O O12 0.167982 0.865379 0.633231
O O13 0.259673 0.100483 0.591785
O O14 0.118805 0.644695 0.000000
O O15 0.176010 0.948368 0.754623
O O16 0.310116 0.169709 0.769443
#
# Coordination Sequence:
#
# PCOD9444890 Si02
#       7
#     8   8   8   8   8   8   8
#     4  11  23  38  60  89 126 163 203 262 325 382
#     4  10  22  39  62  92 126 169 215 264 324 381
#     4  12  20  36  62  92 124 159 208 265 321 390
#     4  11  22  39  62  89 124 167 213 263 321 381
#     4  10  22  35  56  88 125 165 199 250 325 391
#     4  11  22  41  63  89 126 165 212 265 322 380
#     4  11  24  40  64  92 124 171 215 265 321 388
#
# _framework density 21.822340000000001
#
# number of rings (size 3 to 8) (size 9 to 14) (size 15 to 20)
#    0.000    1.143    2.857    3.857    4.000    2.286 
#    0.000    1.429    0.000    2.571    0.000    3.000 
#    0.000    0.000    0.000    0.000    0.000    0.000 
#
# Total GULP energy -312544.755991 kJ/mol
# GULP energy per Si atom -5581.156357 kJ/mol
# Density = 2.177267 g / cm^3
# Si number density = 21.822340 Si / 1000 Ang^3
#
#
#
# Elastic Constant Matrix: (Units=GPa)
#
#
# Indices 1 2 3 4 5 6 
#
# 1 50.6330 9.3535 24.3602 0.0000 0.0000 0.0000
# 2 9.3535 76.1423 21.6101 0.0000 0.0000 0.0000
# 3 24.3602 21.6101 97.7756 0.0000 0.0000 0.0000
# 4 0.0000 0.0000 0.0000 18.3419 0.0000 0.0000
# 5 0.0000 0.0000 0.0000 0.0000 15.2681 0.0000
# 6 0.0000 0.0000 0.0000 0.0000 0.0000 35.9969
#
#
#
# Elastic Compliance Matrix: (Units=1/GPa)
#
#
# Indices 1 2 3 4 5 6 
#
# 1 0.022551 -0.001254 -0.005341 0.000000 0.000000 0.000000
# 2 -0.001254 0.014082 -0.002800 0.000000 0.000000 0.000000
# 3 -0.005341 -0.002800 0.012177 0.000000 0.000000 0.000000
# 4 0.000000 0.000000 0.000000 0.054520 0.000000 0.000000
# 5 0.000000 0.000000 0.000000 0.000000 0.065496 0.000000
# 6 0.000000 0.000000 0.000000 0.000000 0.000000 0.027780
#
#
# Mechanical properties :
#
#
# Convention : Reuss Voigt Hill
#
# Bulk Modulus (GPa) = 33.31166 37.24426 35.27796
# Shear Modulus (GPa) = 22.18235 25.20317 23.69276
#
# Velocity S-wave (km/s) = 3.19171 3.40211 3.29859
# Velocity P-wave (km/s) = 5.37409 5.70408 5.54154
#
# Compressibility (1/GPa) = 0.03001952
#
# Stress axis : x y z
#
# Youngs Moduli (GPa) = 44.34306 71.01249 82.12147
#
# Poissons Ratio (x) = 0.08907 0.43864
# Poissons Ratio (y) = 0.05562 0.22993
# Poissons Ratio (z) = 0.23685 0.19883
#
# Static dielectric constant tensor:
#      x y z
#    x 1.828310 0.000000 0.000000 
#    y 0.000000 1.947420 0.000000 
#    z 0.000000 0.000000 1.781600 
# 
# From -- ./inp_files/30026.got.cif
#   From: 2010.05.17/outbox.cif.g08.bks.cpg/sg58_16_cif.got.tgz:30026.got - 2010.06.03 14:20:14.
