data_PCOD9444163
_publ_section_title
;
Structure prediction by ZEFSAII (Michael W. Deem and Ramdas Pophale) SiO2 
 PCOD9444163
Probable space group: P N N M
;
_chemical_formula_sum "Si O2"
_cell_formula_units_Z 56
_cell_length_a 8.400037
_cell_length_b 15.003017
_cell_length_c 21.980907
_cell_angle_alpha 90.000000
_cell_angle_beta 90.000000
_cell_angle_gamma 90.000000
_cell_volume 2770.163542
_symmetry_space_group_name_H-M "P N N M"
_symmetry_group_IT_number 58
_symmetry_cell_setting 'orthorhombic'
loop_
_space_group_symop_operation_xyz
x,y,z
-x,-y,z
1/2+x,1/2-y,1/2-z
1/2-x,1/2+y,1/2-z
-x,-y,-z
x,y,-z
1/2-x,1/2+y,1/2+z
1/2+x,1/2-y,1/2+z
loop_
_atom_site_type_symbol
_atom_site_label
_atom_site_fract_x
_atom_site_fract_y
_atom_site_fract_z
Si Si1 0.911683 0.626509 0.573360
Si Si2 0.294777 0.679589 0.930206
Si Si3 0.674442 0.961631 0.343994
Si Si4 0.669087 0.479085 0.569327
Si Si5 0.110403 0.869159 0.361382
Si Si6 0.092683 0.090825 0.756606
Si Si7 0.740673 0.817949 0.129728
O O1 0.960194 0.618797 0.500000
O O2 0.798437 0.713483 0.576832
O O3 0.816149 0.538060 0.593340
O O4 0.056666 0.649506 0.619118
O O5 0.179450 0.624811 0.886747
O O6 0.470884 0.645877 0.910307
O O7 0.263871 0.658515 0.000000
O O8 0.747297 0.934781 0.279491
O O9 0.500000 0.000000 0.339862
O O10 0.798376 0.037539 0.367166
O O11 0.500000 0.500000 0.597822
O O12 0.664034 0.509054 0.500000
O O13 0.686321 0.373355 0.574082
O O14 0.231498 0.787649 0.369063
O O15 0.021971 0.864628 0.295119
O O16 0.156712 0.147679 0.813006
O O17 0.000000 0.000000 0.772769
#
# Coordination Sequence:
#
# PCOD9444163 Si02
#       7
#     8   8   8   8   8   8   8
#     4   9  19  36  57  83 112 141 180 227 268 314
#     4   9  18  36  60  80 105 146 185 218 268 328
#     4  10  21  36  54  80 111 140 175 229 279 314
#     4  10  21  36  54  82 121 153 178 222 276 321
#     4   9  21  38  55  79 112 142 177 228 277 319
#     4   9  20  40  56  73 107 145 182 225 274 325
#     4  11  20  34  59  83 103 143 191 224 265 331
#
# _framework density 20.215415
#
# number of rings (size 3 to 8) (size 9 to 14) (size 15 to 20)
#    0.000    2.429    0.000    2.571    0.000    6.571 
#    0.000   11.429    0.000    0.000    0.000    0.000 
#    0.000    0.000    0.000    0.000    0.000    0.000 
#
# Total GULP energy -311846.429245 kJ/mol
# GULP energy per Si atom -5568.686237 kJ/mol
# Density = 2.016940 g / cm^3
# Si number density = 20.215415 Si / 1000 Ang^3
#
#
#
# Elastic Constant Matrix: (Units=GPa)
#
#
# Indices 1 2 3 4 5 6 
#
# 1 44.5877 0.9620 6.7429 0.0000 0.0000 0.0000
# 2 0.9620 71.5848 7.6948 0.0000 0.0000 0.0000
# 3 6.7429 7.6948 55.8683 0.0000 0.0000 0.0000
# 4 0.0000 0.0000 0.0000 -20.1960 0.0000 0.0000
# 5 0.0000 0.0000 0.0000 0.0000 2.2844 0.0000
# 6 0.0000 0.0000 0.0000 0.0000 0.0000 28.7029
#
#
#
# Elastic Compliance Matrix: (Units=1/GPa)
#
#
# Indices 1 2 3 4 5 6 
#
# 1 0.022845 -0.000011 -0.002756 0.000000 0.000000 0.000000
# 2 -0.000011 0.014179 -0.001952 0.000000 0.000000 0.000000
# 3 -0.002756 -0.001952 0.018501 0.000000 0.000000 0.000000
# 4 0.000000 0.000000 0.000000 -0.049515 0.000000 0.000000
# 5 0.000000 0.000000 0.000000 0.000000 0.437753 0.000000
# 6 0.000000 0.000000 0.000000 0.000000 0.000000 0.034840
#
#
# Mechanical properties :
#
#
# Convention : Reuss Voigt Hill
#
# Bulk Modulus (GPa) = 21.69743 22.53782 22.11762
# Shear Modulus (GPa) = 9.93242 12.60100 11.26671
#
# Velocity S-wave (km/s) = 2.21900 2.49938 2.36335
# Velocity P-wave (km/s) = 4.16193 4.41613 4.29092
#
# Compressibility (1/GPa) = 0.04608841
#
# Stress axis : x y z
#
# Youngs Moduli (GPa) = 43.77391 70.52499 54.05223
#
# Poissons Ratio (x) = 0.00076 0.14895
# Poissons Ratio (y) = 0.00047 0.10549
# Poissons Ratio (z) = 0.12063 0.13764
#
# Static dielectric constant tensor:
#      x y z
#    x 1.765950 0.000000 0.000000 
#    y 0.000000 1.729070 0.000000 
#    z 0.000000 0.000000 1.702190 
# 
# From -- ./inp_files/28953.got.cif
#   From: 2010.05.17/outbox.cif.g08.bks.cpg/sg58_15_cif.got.tgz:28953.got - 2010.06.03 14:20:14.
