data_PCOD9444617
_publ_section_title
;
Structure prediction by ZEFSAII (Michael W. Deem and Ramdas Pophale) SiO2 
 PCOD9444617
Probable space group: P N N M
;
_chemical_formula_sum "Si O2"
_cell_formula_units_Z 58
_cell_length_a 12.035044
_cell_length_b 29.434757
_cell_length_c 7.731680
_cell_angle_alpha 90.000000
_cell_angle_beta 90.000000
_cell_angle_gamma 90.000000
_cell_volume 2738.936782
_symmetry_space_group_name_H-M "P N N M"
_symmetry_group_IT_number 58
_symmetry_cell_setting 'orthorhombic'
loop_
_space_group_symop_operation_xyz
x,y,z
-x,-y,z
1/2+x,1/2-y,1/2-z
1/2-x,1/2+y,1/2-z
-x,-y,-z
x,y,-z
1/2-x,1/2+y,1/2+z
1/2+x,1/2-y,1/2+z
loop_
_atom_site_type_symbol
_atom_site_label
_atom_site_fract_x
_atom_site_fract_y
_atom_site_fract_z
Si Si1 0.377193 0.183447 0.300681
Si Si2 0.300285 0.610533 0.789699
Si Si3 0.051939 0.875627 0.708910
Si Si4 0.352775 0.026869 0.795973
Si Si5 0.123033 0.337978 0.701023
Si Si6 0.233620 0.429077 0.294728
Si Si7 0.000000 0.500000 0.000000
Si Si8 0.171749 0.784264 0.300090
O O1 0.393094 0.170997 0.500000
O O2 0.274743 0.153381 0.234311
O O3 0.493538 0.171766 0.212747
O O4 0.349924 0.236549 0.288484
O O5 0.427358 0.615252 0.730631
O O6 0.238882 0.565776 0.723322
O O7 0.302658 0.609040 0.000000
O O8 0.051541 0.873755 0.500000
O O9 0.140233 0.914230 0.759324
O O10 0.100951 0.827099 0.769794
O O11 0.450010 0.033510 0.656426
O O12 0.300601 0.978705 0.732002
O O13 0.386011 0.025209 0.000000
O O14 0.155961 0.337325 0.500000
O O15 0.158708 0.387342 0.773003
O O16 0.200407 0.300222 0.788734
O O17 0.217318 0.431470 0.500000
O O18 0.140704 0.777914 0.500000
#
# Coordination Sequence:
#
# PCOD9444617 Si02
#       8
#     8   8   8   8   8   8   2   8
#     4  11  24  38  60  88 125 165 208 261 323 385
#     4  10  23  43  61  92 132 172 213 264 326 387
#     4   9  20  39  66  90 125 168 213 264 321 388
#     4  11  25  43  67  99 132 173 224 269 330 389
#     4  10  21  39  61  85 120 159 205 259 314 377
#     4   9  21  40  63  94 125 162 211 267 318 379
#     4  12  26  44  68  92 136 180 210 272 318 394
#     4  10  21  39  61  91 120 159 211 260 318 383
#
# _framework density 21.176099000000001
#
# number of rings (size 3 to 8) (size 9 to 14) (size 15 to 20)
#    0.000    1.931    0.690    1.448    4.828    3.310 
#    0.000    2.759    0.000    0.000    0.000    0.000 
#    0.000    0.000    0.000    0.000    0.000    0.000 
#
# Total GULP energy -323464.972049 kJ/mol
# GULP energy per Si atom -5576.982277 kJ/mol
# Density = 2.112790 g / cm^3
# Si number density = 21.176099 Si / 1000 Ang^3
#
#
#
# Elastic Constant Matrix: (Units=GPa)
#
#
# Indices 1 2 3 4 5 6 
#
# 1 110.7015 46.1769 5.4514 0.0000 0.0000 0.0000
# 2 46.1769 105.9118 4.5377 0.0000 0.0000 0.0000
# 3 5.4514 4.5377 63.9598 0.0000 0.0000 0.0000
# 4 0.0000 0.0000 0.0000 23.8197 0.0000 0.0000
# 5 0.0000 0.0000 0.0000 0.0000 12.7873 0.0000
# 6 0.0000 0.0000 0.0000 0.0000 0.0000 21.9961
#
#
#
# Elastic Compliance Matrix: (Units=1/GPa)
#
#
# Indices 1 2 3 4 5 6 
#
# 1 0.011064 -0.004798 -0.000603 0.000000 0.000000 0.000000
# 2 -0.004798 0.011551 -0.000411 0.000000 0.000000 0.000000
# 3 -0.000603 -0.000411 0.015715 0.000000 0.000000 0.000000
# 4 0.000000 0.000000 0.000000 0.041982 0.000000 0.000000
# 5 0.000000 0.000000 0.000000 0.000000 0.078203 0.000000
# 6 0.000000 0.000000 0.000000 0.000000 0.000000 0.045463
#
#
# Mechanical properties :
#
#
# Convention : Reuss Voigt Hill
#
# Bulk Modulus (GPa) = 37.44148 43.65612 40.54880
# Shear Modulus (GPa) = 22.27131 26.68111 24.47621
#
# Velocity S-wave (km/s) = 3.24654 3.55345 3.40345
# Velocity P-wave (km/s) = 5.63673 6.12344 5.88512
#
# Compressibility (1/GPa) = 0.02670835
#
# Stress axis : x y z
#
# Youngs Moduli (GPa) = 90.37952 86.56965 63.63225
#
# Poissons Ratio (x) = 0.41538 0.03835
# Poissons Ratio (y) = 0.43366 0.02612
# Poissons Ratio (z) = 0.05447 0.03554
#
# Static dielectric constant tensor:
#      x y z
#    x 1.761280 0.000000 0.000000 
#    y 0.000000 1.758550 0.000000 
#    z 0.000000 0.000000 1.772100 
# 
# From -- ./inp_files/4461.got.cif
#   From: 2010.05.17/outbox.cif.g08.bks.cpg/sg58_3_cif.got.tgz:4461.got - 2010.06.03 14:20:14.
