data_PCOD9444678
_publ_section_title
;
Structure prediction by ZEFSAII (Michael W. Deem and Ramdas Pophale) SiO2 
 PCOD9444678
Probable space group: P N N M
;
_chemical_formula_sum "Si O2"
_cell_formula_units_Z 54
_cell_length_a 13.866106
_cell_length_b 5.661592
_cell_length_c 29.717288
_cell_angle_alpha 90.000000
_cell_angle_beta 90.000000
_cell_angle_gamma 90.000000
_cell_volume 2332.932955
_symmetry_space_group_name_H-M "P N N M"
_symmetry_group_IT_number 58
_symmetry_cell_setting 'orthorhombic'
loop_
_space_group_symop_operation_xyz
x,y,z
-x,-y,z
1/2+x,1/2-y,1/2-z
1/2-x,1/2+y,1/2-z
-x,-y,-z
x,y,-z
1/2-x,1/2+y,1/2+z
1/2+x,1/2-y,1/2+z
loop_
_atom_site_type_symbol
_atom_site_label
_atom_site_fract_x
_atom_site_fract_y
_atom_site_fract_z
Si Si1 0.698228 0.549279 0.947931
Si Si2 0.000000 0.000000 0.000000
Si Si3 0.376884 0.667622 0.581290
Si Si4 0.399198 0.905021 0.672222
Si Si5 0.225503 0.785756 0.131000
Si Si6 0.807764 0.872376 0.751613
Si Si7 0.916741 0.672173 0.671083
Si Si8 0.500000 0.500000 0.905992
O O1 0.770927 0.762229 0.937139
O O2 0.730847 0.355222 0.911515
O O3 0.587133 0.596583 0.936244
O O4 0.709463 0.477614 0.000000
O O5 0.054354 0.151091 0.039456
O O6 0.411350 0.841226 0.619988
O O7 0.361075 0.428747 0.609100
O O8 0.363614 0.684918 0.701790
O O9 0.500000 0.000000 0.690707
O O10 0.316190 0.104552 0.667994
O O11 0.314476 0.933007 0.152745
O O12 0.741301 0.631013 0.748628
O O13 0.882951 0.848386 0.710331
O O14 0.000000 0.500000 0.688263
O O15 0.961910 0.801331 0.628079
#
# Coordination Sequence:
#
# PCOD9444678 Si02
#       8
#     8   2   8   8   8   8   8   4
#     4  10  21  39  64  98 134 180 231 292 358 435
#     4  12  24  40  64 102 122 190 238 312 356 452
#     4  11  23  42  65  93 139 176 237 295 365 435
#     4  11  24  45  66 101 136 189 235 302 367 446
#     4  10  22  42  64  95 136 184 231 292 369 431
#     4  12  27  48  76 109 147 193 247 309 370 443
#     4  11  23  42  69 102 137 186 239 296 366 441
#     4  10  23  40  67  98 140 181 236 293 362 438
#
# _framework density 23.146829
#
# number of rings (size 3 to 8) (size 9 to 14) (size 15 to 20)
#    0.000    1.185    2.222    3.333    3.111    0.000 
#    0.000    1.852    0.000    4.889    0.000    0.000 
#    0.000    0.000    0.000    0.000    0.000    0.000 
#
# Total GULP energy -301099.867609 kJ/mol
# GULP energy per Si atom -5575.923474 kJ/mol
# Density = 2.309415 g / cm^3
# Si number density = 23.146829 Si / 1000 Ang^3
#
#
#
# Elastic Constant Matrix: (Units=GPa)
#
#
# Indices 1 2 3 4 5 6 
#
# 1 74.4492 17.5030 23.3647 0.0000 0.0000 0.0000
# 2 17.5030 47.7829 9.7674 0.0000 0.0000 0.0000
# 3 23.3647 9.7674 120.9515 0.0000 0.0000 0.0000
# 4 0.0000 0.0000 0.0000 -12.3808 0.0000 0.0000
# 5 0.0000 0.0000 0.0000 0.0000 34.5816 0.0000
# 6 0.0000 0.0000 0.0000 0.0000 0.0000 23.4772
#
#
#
# Elastic Compliance Matrix: (Units=1/GPa)
#
#
# Indices 1 2 3 4 5 6 
#
# 1 0.015445 -0.005132 -0.002569 0.000000 0.000000 0.000000
# 2 -0.005132 0.022985 -0.000865 0.000000 0.000000 0.000000
# 3 -0.002569 -0.000865 0.008834 0.000000 0.000000 0.000000
# 4 0.000000 0.000000 0.000000 -0.080770 0.000000 0.000000
# 5 0.000000 0.000000 0.000000 0.000000 0.028917 0.000000
# 6 0.000000 0.000000 0.000000 0.000000 0.000000 0.042595
#
#
# Mechanical properties :
#
#
# Convention : Reuss Voigt Hill
#
# Bulk Modulus (GPa) = 33.18815 38.27265 35.73040
# Shear Modulus (GPa) = 76.70963 21.97217 49.34090
#
# Velocity S-wave (km/s) = 5.76302 3.08434 4.62199
# Velocity P-wave (km/s) = 7.65849 5.40877 6.62975
#
# Compressibility (1/GPa) = 0.03013124
#
# Stress axis : x y z
#
# Youngs Moduli (GPa) = 64.74647 43.50720 113.20048
#
# Poissons Ratio (x) = 0.22329 0.29082
# Poissons Ratio (y) = 0.33230 0.09788
# Poissons Ratio (z) = 0.16634 0.03762
#
# Static dielectric constant tensor:
#      x y z
#    x 1.940630 0.000000 0.000000 
#    y 0.000000 1.901870 0.000000 
#    z 0.000000 0.000000 1.821500 
# 
# From -- ./inp_files/35059.got.cif
#   From: 2010.05.17/outbox.cif.g08.bks.cpg/sg58_18_cif.got.tgz:35059.got - 2010.06.03 14:20:14.
