data_PCOD9444012
_publ_section_title
;
Structure prediction by ZEFSAII (Michael W. Deem and Ramdas Pophale) SiO2 
 PCOD9444012
Probable space group: P N N M
;
_chemical_formula_sum "Si O2"
_cell_formula_units_Z 34
_cell_length_a 9.304146
_cell_length_b 8.411970
_cell_length_c 19.249864
_cell_angle_alpha 90.000000
_cell_angle_beta 90.000000
_cell_angle_gamma 90.000000
_cell_volume 1506.613649
_symmetry_space_group_name_H-M "P N N M"
_symmetry_group_IT_number 58
_symmetry_cell_setting 'orthorhombic'
loop_
_space_group_symop_operation_xyz
x,y,z
-x,-y,z
1/2+x,1/2-y,1/2-z
1/2-x,1/2+y,1/2-z
-x,-y,-z
x,y,-z
1/2-x,1/2+y,1/2+z
1/2+x,1/2-y,1/2+z
loop_
_atom_site_type_symbol
_atom_site_label
_atom_site_fract_x
_atom_site_fract_y
_atom_site_fract_z
Si Si1 0.561372 0.174976 0.863157
Si Si2 0.500000 0.500000 0.500000
Si Si3 0.261945 0.312567 0.858655
Si Si4 0.329579 0.929107 0.000000
Si Si5 0.654434 0.419370 0.753111
Si Si6 0.584583 0.162214 0.500000
O O1 0.425696 0.284746 0.881677
O O2 0.666877 0.163242 0.927850
O O3 0.632520 0.261840 0.798917
O O4 0.500000 0.000000 0.846456
O O5 0.683426 0.467700 0.500000
O O6 0.476790 0.311840 0.500000
O O7 0.261295 0.457355 0.802974
O O8 0.217606 0.150027 0.818154
O O9 0.170984 0.337912 0.927246
O O10 0.500000 0.000000 0.000000
O O11 0.500000 0.500000 0.738407
O O12 0.500000 0.000000 0.500000
#
# Coordination Sequence:
#
# PCOD9444012 Si02
#       6
#     8   2   8   4   8   4
#     4  10  20  40  71  99 135 196 247 317 395 463
#     4  12  28  48  76 116 160 212 260 326 416 468
#     4  11  24  46  68 107 152 197 270 324 400 491
#     4  10  22  44  75 107 148 196 258 312 392 480
#     4  10  24  41  70 103 141 202 261 326 396 468
#     4  12  30  46  71 117 156 212 266 336 404 486
#
# _framework density 22.567166
#
# number of rings (size 3 to 8) (size 9 to 14) (size 15 to 20)
#    0.000    1.412    0.000    4.941    4.941    4.706 
#    0.000    3.529    0.000    0.000    0.000    0.000 
#    0.000    0.000    0.000    0.000    0.000    0.000 
#
# Total GULP energy -189355.693092 kJ/mol
# GULP energy per Si atom -5569.285091 kJ/mol
# Density = 2.251580 g / cm^3
# Si number density = 22.567166 Si / 1000 Ang^3
#
#
#
# Elastic Constant Matrix: (Units=GPa)
#
#
# Indices 1 2 3 4 5 6 
#
# 1 86.1288 30.2543 76.2250 0.0000 0.0000 0.0000
# 2 30.2543 135.3826 62.0735 0.0000 0.0000 0.0000
# 3 76.2250 62.0735 134.3300 0.0000 0.0000 0.0000
# 4 0.0000 0.0000 0.0000 2499.5416 0.0000 0.0000
# 5 0.0000 0.0000 0.0000 0.0000 29.0328 0.0000
# 6 0.0000 0.0000 0.0000 0.0000 0.0000 28.5241
#
#
#
# Elastic Compliance Matrix: (Units=1/GPa)
#
#
# Indices 1 2 3 4 5 6 
#
# 1 0.023450 0.001092 -0.013811 0.000000 0.000000 0.000000
# 2 0.001092 0.009423 -0.004974 0.000000 0.000000 0.000000
# 3 -0.013811 -0.004974 0.017580 0.000000 0.000000 0.000000
# 4 0.000000 0.000000 0.000000 0.000400 0.000000 0.000000
# 5 0.000000 0.000000 0.000000 0.000000 0.034444 0.000000
# 6 0.000000 0.000000 0.000000 0.000000 0.000000 0.035058
#
#
# Mechanical properties :
#
#
# Convention : Reuss Voigt Hill
#
# Bulk Modulus (GPa) = 66.37201 76.99410 71.68305
# Shear Modulus (GPa) = 31.10156 523.90562 277.50359
#
# Velocity S-wave (km/s) = 3.71641 15.25313 11.10112
# Velocity P-wave (km/s) = 6.92028 18.55808 14.00523
#
# Compressibility (1/GPa) = 0.01506659
#
# Stress axis : x y z
#
# Youngs Moduli (GPa) = 42.64387 106.12282 56.88290
#
# Poissons Ratio (x) = -0.11589 0.78562
# Poissons Ratio (y) = -0.04657 0.28294
# Poissons Ratio (z) = 0.58897 0.52786
#
# Static dielectric constant tensor:
#      x y z
#    x 1.975740 0.000000 0.000000 
#    y 0.000000 1.882120 0.000000 
#    z 0.000000 0.000000 1.815750 
# 
# From -- ./inp_files/28572.got.cif
#   From: 2010.05.17/outbox.cif.g08.bks.cpg/sg58_15_cif.got.tgz:28572.got - 2010.06.03 14:20:14.
