data_PCOD9444246
_publ_section_title
;
Structure prediction by ZEFSAII (Michael W. Deem and Ramdas Pophale) SiO2 
 PCOD9444246
Probable space group: P N N M
;
_chemical_formula_sum "Si O2"
_cell_formula_units_Z 52
_cell_length_a 15.645174
_cell_length_b 21.040985
_cell_length_c 8.041313
_cell_angle_alpha 90.000000
_cell_angle_beta 90.000000
_cell_angle_gamma 90.000000
_cell_volume 2647.118793
_symmetry_space_group_name_H-M "P N N M"
_symmetry_group_IT_number 58
_symmetry_cell_setting 'orthorhombic'
loop_
_space_group_symop_operation_xyz
x,y,z
-x,-y,z
1/2+x,1/2-y,1/2-z
1/2-x,1/2+y,1/2-z
-x,-y,-z
x,y,-z
1/2-x,1/2+y,1/2+z
1/2+x,1/2-y,1/2+z
loop_
_atom_site_type_symbol
_atom_site_label
_atom_site_fract_x
_atom_site_fract_y
_atom_site_fract_z
Si Si1 0.880151 0.054667 0.000000
Si Si2 0.968741 0.762086 0.683408
Si Si3 0.827176 0.919942 0.000000
Si Si4 0.241957 0.914209 0.694107
Si Si5 0.294380 0.052114 0.308020
Si Si6 0.887044 0.320635 0.195731
Si Si7 0.482893 0.658014 0.500000
Si Si8 0.722005 0.234127 0.699103
O O1 0.828082 0.071428 0.166817
O O2 0.963411 0.095225 0.000000
O O3 0.889193 0.979937 0.000000
O O4 0.981082 0.789311 0.500000
O O5 0.002967 0.805394 0.831771
O O6 0.868022 0.752408 0.716236
O O7 0.029438 0.700639 0.702952
O O8 0.772087 0.926913 0.833518
O O9 0.882961 0.857623 0.000000
O O10 0.213496 0.915486 0.500000
O O11 0.269551 0.841881 0.729730
O O12 0.306278 0.975548 0.710277
O O13 0.264473 0.061616 0.500000
O O14 0.368344 0.104224 0.283062
O O15 0.803314 0.277301 0.243254
O O16 0.902708 0.310336 0.000000
O O17 0.716916 0.240539 0.500000
#
# Coordination Sequence:
#
# PCOD9444246 Si02
#       8
#     4   8   4   8   8   8   4   8
#     4  10  21  36  60  87 116 156 200 249 306 367
#     4  12  26  41  58  88 127 162 207 257 302 365
#     4  10  21  36  60  87 116 156 200 249 306 367
#     4   9  20  38  60  87 117 153 201 248 301 367
#     4   9  20  38  60  87 117 153 201 248 301 367
#     4  11  22  39  63  90 122 162 204 254 311 364
#     4  12  23  40  56  82 125 158 202 254 308 368
#     4  11  22  39  63  90 122 162 204 254 311 364
#
# _framework density 19.643999999999998
#
# number of rings (size 3 to 8) (size 9 to 14) (size 15 to 20)
#    0.000    1.538    1.538    3.000    4.308    3.692 
#    0.000    0.769    0.000    9.231    0.000    0.000 
#    0.000    0.000    0.000    0.000    0.000    0.000 
#
# Total GULP energy -289707.529732 kJ/mol
# GULP energy per Si atom -5571.298649 kJ/mol
# Density = 1.959929 g / cm^3
# Si number density = 19.644000 Si / 1000 Ang^3
#
#
#
# Elastic Constant Matrix: (Units=GPa)
#
#
# Indices 1 2 3 4 5 6 
#
# 1 29.5872 -5.4463 0.8548 0.0000 0.0000 0.0000
# 2 -5.4463 59.0441 9.4198 0.0000 0.0000 0.0000
# 3 0.8548 9.4198 97.6723 0.0000 0.0000 0.0000
# 4 0.0000 0.0000 0.0000 19.0535 0.0000 0.0000
# 5 0.0000 0.0000 0.0000 0.0000 7.6103 0.0000
# 6 0.0000 0.0000 0.0000 0.0000 0.0000 30.0733
#
#
#
# Elastic Compliance Matrix: (Units=1/GPa)
#
#
# Indices 1 2 3 4 5 6 
#
# 1 0.034419 0.003273 -0.000617 0.000000 0.000000 0.000000
# 2 0.003273 0.017512 -0.001718 0.000000 0.000000 0.000000
# 3 -0.000617 -0.001718 0.010409 0.000000 0.000000 0.000000
# 4 0.000000 0.000000 0.000000 0.052484 0.000000 0.000000
# 5 0.000000 0.000000 0.000000 0.000000 0.131400 0.000000
# 6 0.000000 0.000000 0.000000 0.000000 0.000000 0.033252
#
#
# Mechanical properties :
#
#
# Convention : Reuss Voigt Hill
#
# Bulk Modulus (GPa) = 15.57195 21.77336 18.67266
# Shear Modulus (GPa) = 16.72212 23.44578 20.08395
#
# Velocity S-wave (km/s) = 2.92080 3.45850 3.20096
# Velocity P-wave (km/s) = 4.39534 5.20157 4.81536
#
# Compressibility (1/GPa) = 0.06421801
#
# Stress axis : x y z
#
# Youngs Moduli (GPa) = 29.05397 57.10224 96.06734
#
# Poissons Ratio (x) = -0.18691 0.05926
# Poissons Ratio (y) = -0.09510 0.16501
# Poissons Ratio (z) = 0.01792 0.09808
#
# Static dielectric constant tensor:
#      x y z
#    x 1.687150 0.000000 0.000000 
#    y 0.000000 1.737800 0.000000 
#    z 0.000000 0.000000 1.655810 
# 
# From -- ./inp_files/6214.got.cif
#   From: 2010.05.17/outbox.cif.g08.bks.cpg/sg58_4_cif.got.tgz:6214.got - 2010.06.03 14:20:14.
