data_PCOD9444441
_publ_section_title
;
Structure prediction by ZEFSAII (Michael W. Deem and Ramdas Pophale) SiO2 
 PCOD9444441
Probable space group: P N N M
;
_chemical_formula_sum "Si O2"
_cell_formula_units_Z 42
_cell_length_a 21.315105
_cell_length_b 9.628492
_cell_length_c 9.094832
_cell_angle_alpha 90.000000
_cell_angle_beta 90.000000
_cell_angle_gamma 90.000000
_cell_volume 1866.553453
_symmetry_space_group_name_H-M "P N N M"
_symmetry_group_IT_number 58
_symmetry_cell_setting 'orthorhombic'
loop_
_space_group_symop_operation_xyz
x,y,z
-x,-y,z
1/2+x,1/2-y,1/2-z
1/2-x,1/2+y,1/2-z
-x,-y,-z
x,y,-z
1/2-x,1/2+y,1/2+z
1/2+x,1/2-y,1/2+z
loop_
_atom_site_type_symbol
_atom_site_label
_atom_site_fract_x
_atom_site_fract_y
_atom_site_fract_z
Si Si1 0.072987 0.287302 0.659227
Si Si2 0.179312 0.643866 0.674433
Si Si3 0.935355 0.153023 0.328772
Si Si4 0.000000 0.500000 0.500000
Si Si5 0.248315 0.416238 0.824857
Si Si6 0.863001 0.928568 0.171330
O O1 0.100458 0.241004 0.500000
O O2 0.049932 0.442980 0.626273
O O3 0.117128 0.226555 0.783614
O O4 0.005044 0.212614 0.675302
O O5 0.184308 0.621127 0.500000
O O6 0.114447 0.724500 0.702224
O O7 0.190481 0.498482 0.753935
O O8 0.232690 0.758744 0.716969
O O9 0.924437 0.109501 0.500000
O O10 0.920463 0.029306 0.218180
O O11 0.307116 0.506756 0.766532
O O12 0.244332 0.420123 0.000000
O O13 0.848317 0.937901 0.000000
#
# Coordination Sequence:
#
# PCOD9444441 Si02
#       6
#     8   8   8   2   8   8
#     4   9  18  36  55  78 109 146 181 219 262 326
#     4   9  19  36  54  80 112 141 186 234 277 325
#     4   9  18  34  57  80 109 140 177 226 275 324
#     4   8  20  36  56  76 116 144 198 214 248 346
#     4  10  21  38  57  81 111 148 187 226 276 338
#     4  11  21  33  55  84 111 136 180 234 280 320
#
# _framework density 22.501365
#
# number of rings (size 3 to 8) (size 9 to 14) (size 15 to 20)
#    0.571    1.905    0.000    4.000    0.000    6.857 
#    3.429    0.476    0.000    0.000    0.000    0.000 
#    0.000    0.000    0.000    0.000    0.000    0.000 
#
# Total GULP energy -233831.527049 kJ/mol
# GULP energy per Si atom -5567.417311 kJ/mol
# Density = 2.245015 g / cm^3
# Si number density = 22.501365 Si / 1000 Ang^3
#
#
#
# Elastic Constant Matrix: (Units=GPa)
#
#
# Indices 1 2 3 4 5 6 
#
# 1 28.9205 11.4469 3.9656 0.0000 0.0000 0.0000
# 2 11.4469 116.5707 25.3589 0.0000 0.0000 0.0000
# 3 3.9656 25.3589 27.1225 0.0000 0.0000 0.0000
# 4 0.0000 0.0000 0.0000 -13.4915 0.0000 0.0000
# 5 0.0000 0.0000 0.0000 0.0000 13.2364 0.0000
# 6 0.0000 0.0000 0.0000 0.0000 0.0000 42.6935
#
#
#
# Elastic Compliance Matrix: (Units=1/GPa)
#
#
# Indices 1 2 3 4 5 6 
#
# 1 0.036107 -0.003009 -0.002466 0.000000 0.000000 0.000000
# 2 -0.003009 0.011020 -0.009863 0.000000 0.000000 0.000000
# 3 -0.002466 -0.009863 0.046452 0.000000 0.000000 0.000000
# 4 0.000000 0.000000 0.000000 -0.074121 0.000000 0.000000
# 5 0.000000 0.000000 0.000000 0.000000 0.075550 0.000000
# 6 0.000000 0.000000 0.000000 0.000000 0.000000 0.023423
#
#
# Mechanical properties :
#
#
# Convention : Reuss Voigt Hill
#
# Bulk Modulus (GPa) = 15.89762 28.23961 22.06862
# Shear Modulus (GPa) = 29.39906 17.27715 23.33811
#
# Velocity S-wave (km/s) = 3.61854 2.77398 3.22403
# Velocity P-wave (km/s) = 4.95368 4.77884 4.86705
#
# Compressibility (1/GPa) = 0.06290248
#
# Stress axis : x y z
#
# Youngs Moduli (GPa) = 27.69569 90.74728 21.52758
#
# Poissons Ratio (x) = 0.27308 0.05308
# Poissons Ratio (y) = 0.08334 0.21233
# Poissons Ratio (z) = 0.06829 0.89505
#
# Static dielectric constant tensor:
#      x y z
#    x 1.933680 0.000000 0.000000 
#    y 0.000000 1.945000 0.000000 
#    z 0.000000 0.000000 1.760330 
# 
# From -- ./inp_files/4148.got.cif
#   From: 2010.05.17/outbox.cif.g08.bks.cpg/sg58_3_cif.got.tgz:4148.got - 2010.06.03 14:20:14.
