data_PCOD9444514
_publ_section_title
;
Structure prediction by ZEFSAII (Michael W. Deem and Ramdas Pophale) SiO2 
 PCOD9444514
Probable space group: P N N M
;
_chemical_formula_sum "Si O2"
_cell_formula_units_Z 64
_cell_length_a 15.542243
_cell_length_b 24.454044
_cell_length_c 8.988736
_cell_angle_alpha 90.000000
_cell_angle_beta 90.000000
_cell_angle_gamma 90.000000
_cell_volume 3416.355131
_symmetry_space_group_name_H-M "P N N M"
_symmetry_group_IT_number 58
_symmetry_cell_setting 'orthorhombic'
loop_
_space_group_symop_operation_xyz
x,y,z
-x,-y,z
1/2+x,1/2-y,1/2-z
1/2-x,1/2+y,1/2-z
-x,-y,-z
x,y,-z
1/2-x,1/2+y,1/2+z
1/2+x,1/2-y,1/2+z
loop_
_atom_site_type_symbol
_atom_site_label
_atom_site_fract_x
_atom_site_fract_y
_atom_site_fract_z
Si Si1 0.901251 0.500763 0.180279
Si Si2 0.899192 0.999904 0.179311
Si Si3 0.155418 0.877499 0.176810
Si Si4 0.250456 0.204581 0.678997
Si Si5 0.744876 0.423117 0.180307
Si Si6 0.088427 0.280429 0.673983
Si Si7 0.097034 0.773722 0.326419
Si Si8 0.335706 0.878612 0.676190
O O1 0.832829 0.454525 0.228816
O O2 0.862972 0.560105 0.216665
O O3 0.000000 0.500000 0.234928
O O4 0.905169 0.496443 0.000000
O O5 0.864512 0.060187 0.218576
O O6 0.837601 0.955050 0.254277
O O7 0.894561 0.993113 0.000000
O O8 0.000000 0.000000 0.221510
O O9 0.094334 0.833038 0.250918
O O10 0.249856 0.863611 0.235838
O O11 0.151197 0.872757 0.000000
O O12 0.259977 0.206113 0.500000
O O13 0.246471 0.140754 0.723397
O O14 0.162924 0.237215 0.716166
O O15 0.330188 0.236396 0.750916
O O16 0.740559 0.426081 0.000000
O O17 0.102222 0.295122 0.500000
O O18 0.095187 0.334071 0.774428
O O19 0.995424 0.253914 0.687759
O O20 0.118241 0.780189 0.500000
O O21 0.320699 0.876539 0.500000
#
# Coordination Sequence:
#
# PCOD9444514 Si02
#       8
#     8   8   8   8   8   8   8   8
#     4   9  19  35  56  86 120 150 190 244 289 339
#     4  10  23  41  60  86 120 158 196 240 296 354
#     4  11  22  39  62  85 118 157 196 249 306 352
#     4  10  22  40  61  85 119 161 197 239 299 355
#     4  10  21  38  61  87 117 156 198 240 290 346
#     4  10  23  41  58  84 123 158 193 243 299 350
#     4  11  24  40  61  89 119 155 201 248 294 352
#     4  11  21  36  63  91 115 151 201 246 293 354
#
# _framework density 18.733416999999999
#
# number of rings (size 3 to 8) (size 9 to 14) (size 15 to 20)
#    0.000    1.750    2.500    1.125    3.500    2.250 
#    0.000    0.000    0.000    1.875    0.000    0.000 
#    0.000    0.000    0.000    0.000    0.000    0.000 
#
# Total GULP energy -357346.803113 kJ/mol
# GULP energy per Si atom -5583.543799 kJ/mol
# Density = 1.869078 g / cm^3
# Si number density = 18.733417 Si / 1000 Ang^3
#
#
#
# Elastic Constant Matrix: (Units=GPa)
#
#
# Indices 1 2 3 4 5 6 
#
# 1 80.2351 23.2406 18.3555 0.0000 0.0000 0.0000
# 2 23.2406 111.5167 35.7613 0.0000 0.0000 0.0000
# 3 18.3555 35.7613 22.3891 0.0000 0.0000 0.0000
# 4 0.0000 0.0000 0.0000 27.0040 0.0000 0.0000
# 5 0.0000 0.0000 0.0000 0.0000 14.2099 0.0000
# 6 0.0000 0.0000 0.0000 0.0000 0.0000 22.1194
#
#
#
# Elastic Compliance Matrix: (Units=1/GPa)
#
#
# Indices 1 2 3 4 5 6 
#
# 1 0.015502 0.001732 -0.015476 0.000000 0.000000 0.000000
# 2 0.001732 0.018577 -0.031093 0.000000 0.000000 0.000000
# 3 -0.015476 -0.031093 0.107015 0.000000 0.000000 0.000000
# 4 0.000000 0.000000 0.000000 0.037032 0.000000 0.000000
# 5 0.000000 0.000000 0.000000 0.000000 0.070374 0.000000
# 6 0.000000 0.000000 0.000000 0.000000 0.000000 0.045209
#
#
# Mechanical properties :
#
#
# Convention : Reuss Voigt Hill
#
# Bulk Modulus (GPa) = 19.44697 40.98396 30.21547
# Shear Modulus (GPa) = 12.48371 21.78556 17.13463
#
# Velocity S-wave (km/s) = 2.58425 3.41387 3.02761
# Velocity P-wave (km/s) = 4.39407 6.12081 5.32786
#
# Compressibility (1/GPa) = 0.05142188
#
# Stress axis : x y z
#
# Youngs Moduli (GPa) = 64.50742 53.82982 9.34445
#
# Poissons Ratio (x) = -0.09324 0.14461
# Poissons Ratio (y) = -0.11173 0.29054
# Poissons Ratio (z) = 0.99831 1.67370
#
# Static dielectric constant tensor:
#      x y z
#    x 1.652200 0.000000 0.000000 
#    y 0.000000 1.639980 0.000000 
#    z 0.000000 0.000000 1.634570 
# 
# From -- ./inp_files/6803.got.cif
#   From: 2010.05.17/outbox.cif.g08.bks.cpg/sg58_4_cif.got.tgz:6803.got - 2010.06.03 14:20:14.
