data_PCOD9444524
_publ_section_title
;
Structure prediction by ZEFSAII (Michael W. Deem and Ramdas Pophale) SiO2 
 PCOD9444524
Probable space group: P N N M
;
_chemical_formula_sum "Si O2"
_cell_formula_units_Z 48
_cell_length_a 18.129463
_cell_length_b 15.715835
_cell_length_c 8.883410
_cell_angle_alpha 90.000000
_cell_angle_beta 90.000000
_cell_angle_gamma 90.000000
_cell_volume 2531.058060
_symmetry_space_group_name_H-M "P N N M"
_symmetry_group_IT_number 58
_symmetry_cell_setting 'orthorhombic'
loop_
_space_group_symop_operation_xyz
x,y,z
-x,-y,z
1/2+x,1/2-y,1/2-z
1/2-x,1/2+y,1/2-z
-x,-y,-z
x,y,-z
1/2-x,1/2+y,1/2+z
1/2+x,1/2-y,1/2+z
loop_
_atom_site_type_symbol
_atom_site_label
_atom_site_fract_x
_atom_site_fract_y
_atom_site_fract_z
Si Si1 0.295625 0.256936 0.820122
Si Si2 0.042197 0.412127 0.320236
Si Si3 0.288931 0.599341 0.819718
Si Si4 0.042329 0.747985 0.179364
Si Si5 0.537438 0.410300 0.180431
Si Si6 0.296172 0.925743 0.319161
O O1 0.244648 0.179528 0.765910
O O2 0.374722 0.249371 0.742185
O O3 0.255842 0.345805 0.781407
O O4 0.305370 0.254000 0.000000
O O5 0.041707 0.400476 0.500000
O O6 0.125580 0.417732 0.261437
O O7 0.000000 0.500000 0.284807
O O8 0.000421 0.333589 0.244159
O O9 0.375448 0.588021 0.787271
O O10 0.244387 0.513830 0.780341
O O11 0.281396 0.612595 0.000000
O O12 0.001087 0.832573 0.235811
O O13 0.043065 0.744280 0.000000
O O14 0.500000 0.500000 0.220332
O O15 0.528073 0.398374 0.000000
O O16 0.307657 0.924611 0.500000
#
# Coordination Sequence:
#
# PCOD9444524 Si02
#       6
#     8   8   8   8   8   8
#     4  11  23  40  61  86 118 156 199 245 295 352
#     4  11  24  41  62  89 120 156 199 247 299 354
#     4  10  21  38  61  89 120 155 195 240 293 352
#     4  12  25  40  61  89 121 158 200 247 298 352
#     4  10  21  40  65  91 122 160 199 241 293 352
#     4  10  22  40  62  88 119 156 196 240 294 354
#
# _framework density 18.964400000000001
#
# number of rings (size 3 to 8) (size 9 to 14) (size 15 to 20)
#    0.000    1.333    0.000    5.500    0.000   12.333 
#    0.000    1.667    0.000    0.000    0.000    0.000 
#    0.000    0.000    0.000    0.000    0.000    0.000 
#
# Total GULP energy -268561.482132 kJ/mol
# GULP energy per Si atom -5595.030878 kJ/mol
# Density = 1.892124 g / cm^3
# Si number density = 18.964400 Si / 1000 Ang^3
#
#
#
# Elastic Constant Matrix: (Units=GPa)
#
#
# Indices 1 2 3 4 5 6 
#
# 1 82.0887 8.8697 36.8047 0.0000 0.0000 0.0000
# 2 8.8697 96.6574 43.7636 0.0000 0.0000 0.0000
# 3 36.8047 43.7636 50.0484 0.0000 0.0000 0.0000
# 4 0.0000 0.0000 0.0000 131.3902 0.0000 0.0000
# 5 0.0000 0.0000 0.0000 0.0000 32.4083 0.0000
# 6 0.0000 0.0000 0.0000 0.0000 0.0000 42.7205
#
#
#
# Elastic Compliance Matrix: (Units=1/GPa)
#
#
# Indices 1 2 3 4 5 6 
#
# 1 0.021875 0.008734 -0.023724 0.000000 0.000000 0.000000
# 2 0.008734 0.020614 -0.024448 0.000000 0.000000 0.000000
# 3 -0.023724 -0.024448 0.058804 0.000000 0.000000 0.000000
# 4 0.000000 0.000000 0.000000 0.007611 0.000000 0.000000
# 5 0.000000 0.000000 0.000000 0.000000 0.030856 0.000000
# 6 0.000000 0.000000 0.000000 0.000000 0.000000 0.023408
#
#
# Mechanical properties :
#
#
# Convention : Reuss Voigt Hill
#
# Bulk Modulus (GPa) = 44.60723 45.29671 44.95197
# Shear Modulus (GPa) = 20.03882 50.59422 35.31652
#
# Velocity S-wave (km/s) = 3.25415 5.17073 4.32007
# Velocity P-wave (km/s) = 6.13938 7.71917 6.97415
#
# Compressibility (1/GPa) = 0.02241789
#
# Stress axis : x y z
#
# Youngs Moduli (GPa) = 45.71475 48.51151 17.00552
#
# Poissons Ratio (x) = -0.42370 0.40343
# Poissons Ratio (y) = -0.39927 0.41575
# Poissons Ratio (z) = 1.08452 1.18601
#
# Static dielectric constant tensor:
#      x y z
#    x 1.618320 0.000000 0.000000 
#    y 0.000000 1.624940 0.000000 
#    z 0.000000 0.000000 1.636620 
# 
# From -- ./inp_files/5901.got.cif
#   From: 2010.05.17/outbox.cif.g08.bks.cpg/sg58_3_cif.got.tgz:5901.got - 2010.06.03 14:20:14.
