data_PCOD9444978
_publ_section_title
;
Structure prediction by ZEFSAII (Michael W. Deem and Ramdas Pophale) SiO2 
 PCOD9444978
Probable space group: P N N M
;
_chemical_formula_sum "Si O2"
_cell_formula_units_Z 40
_cell_length_a 15.998737
_cell_length_b 8.157089
_cell_length_c 15.254536
_cell_angle_alpha 90.000000
_cell_angle_beta 90.000000
_cell_angle_gamma 90.000000
_cell_volume 1990.764567
_symmetry_space_group_name_H-M "P N N M"
_symmetry_group_IT_number 58
_symmetry_cell_setting 'orthorhombic'
loop_
_space_group_symop_operation_xyz
x,y,z
-x,-y,z
1/2+x,1/2-y,1/2-z
1/2-x,1/2+y,1/2-z
-x,-y,-z
x,y,-z
1/2-x,1/2+y,1/2+z
1/2+x,1/2-y,1/2+z
loop_
_atom_site_type_symbol
_atom_site_label
_atom_site_fract_x
_atom_site_fract_y
_atom_site_fract_z
Si Si1 0.500000 0.500000 0.846703
Si Si2 0.356357 0.969536 0.000000
Si Si3 0.496451 0.249842 0.000000
Si Si4 0.327563 0.061803 0.189276
Si Si5 0.338271 0.419337 0.246971
Si Si6 0.952403 0.176469 0.102389
Si Si7 0.500000 0.000000 0.289562
O O1 0.583120 0.477566 0.789359
O O2 0.484184 0.350763 0.911799
O O3 0.311772 0.993647 0.907951
O O4 0.407205 0.802023 0.000000
O O5 0.430113 0.105203 0.000000
O O6 0.329468 0.257740 0.188373
O O7 0.416460 0.001753 0.229087
O O8 0.249145 0.010102 0.248215
O O9 0.368345 0.354652 0.342084
O O10 0.995423 0.332901 0.151706
O O11 0.940153 0.215908 0.000000
O O12 0.000000 0.000000 0.105849
#
# Coordination Sequence:
#
# PCOD9444978 Si02
#       7
#     4   4   4   8   8   8   4
#     4  11  22  44  65  96 132 172 213 268 326 393
#     4  11  22  40  64  99 128 162 218 268 324 386
#     4  10  22  38  72  94 128 166 212 270 335 381
#     4  11  26  41  67  96 128 173 213 267 328 387
#     4  11  25  41  65  94 131 170 219 260 325 392
#     4  10  22  40  67  93 122 170 216 265 320 373
#     4  10  23  45  66  92 130 172 218 265 325 390
#
# _framework density 20.092783000000001
#
# number of rings (size 3 to 8) (size 9 to 14) (size 15 to 20)
#    0.000    1.400    3.000    1.500    9.800    0.000 
#    0.000    0.000   15.400    0.000    0.000    0.000 
#    0.000    0.000    0.000    0.000    0.000    0.000 
#
# Total GULP energy -223199.602561 kJ/mol
# GULP energy per Si atom -5579.990064 kJ/mol
# Density = 2.004705 g / cm^3
# Si number density = 20.092783 Si / 1000 Ang^3
#
#
#
# Elastic Constant Matrix: (Units=GPa)
#
#
# Indices 1 2 3 4 5 6 
#
# 1 127.3205 24.9898 34.5362 0.0000 0.0000 0.0000
# 2 24.9898 66.5348 15.9366 0.0000 0.0000 0.0000
# 3 34.5362 15.9366 114.0240 0.0000 0.0000 0.0000
# 4 0.0000 0.0000 0.0000 34.1780 0.0000 0.0000
# 5 0.0000 0.0000 0.0000 0.0000 20.4114 0.0000
# 6 0.0000 0.0000 0.0000 0.0000 0.0000 30.4554
#
#
#
# Elastic Compliance Matrix: (Units=1/GPa)
#
#
# Indices 1 2 3 4 5 6 
#
# 1 0.009047 -0.002836 -0.002344 0.000000 0.000000 0.000000
# 2 -0.002836 0.016440 -0.001439 0.000000 0.000000 0.000000
# 3 -0.002344 -0.001439 0.009681 0.000000 0.000000 0.000000
# 4 0.000000 0.000000 0.000000 0.029259 0.000000 0.000000
# 5 0.000000 0.000000 0.000000 0.000000 0.048992 0.000000
# 6 0.000000 0.000000 0.000000 0.000000 0.000000 0.032835
#
#
# Mechanical properties :
#
#
# Convention : Reuss Voigt Hill
#
# Bulk Modulus (GPa) = 45.59980 50.97826 48.28903
# Shear Modulus (GPa) = 29.97594 32.50341 31.23967
#
# Velocity S-wave (km/s) = 3.86667 4.02638 3.94734
# Velocity P-wave (km/s) = 6.53290 6.85873 6.69780
#
# Compressibility (1/GPa) = 0.02192992
#
# Stress axis : x y z
#
# Youngs Moduli (GPa) = 110.53822 60.82853 103.29510
#
# Poissons Ratio (x) = 0.17254 0.24209
# Poissons Ratio (y) = 0.31354 0.14860
# Poissons Ratio (z) = 0.25906 0.08751
#
# Static dielectric constant tensor:
#      x y z
#    x 1.705100 0.000000 0.000000 
#    y 0.000000 1.740420 0.000000 
#    z 0.000000 0.000000 1.733700 
# 
# From -- ./inp_files/21945.got.cif
#   From: 2010.05.17/outbox.cif.g08.bks.cpg/sg58_11_cif.got.tgz:21945.got - 2010.06.03 14:20:14.
