data_PCOD9444110
_publ_section_title
;
Structure prediction by ZEFSAII (Michael W. Deem and Ramdas Pophale) SiO2 
 PCOD9444110
Probable space group: P N N M
;
_chemical_formula_sum "Si O2"
_cell_formula_units_Z 64
_cell_length_a 5.252826
_cell_length_b 25.998737
_cell_length_c 23.020728
_cell_angle_alpha 90.000000
_cell_angle_beta 90.000000
_cell_angle_gamma 90.000000
_cell_volume 3143.868116
_symmetry_space_group_name_H-M "P N N M"
_symmetry_group_IT_number 58
_symmetry_cell_setting 'orthorhombic'
loop_
_space_group_symop_operation_xyz
x,y,z
-x,-y,z
1/2+x,1/2-y,1/2-z
1/2-x,1/2+y,1/2-z
-x,-y,-z
x,y,-z
1/2-x,1/2+y,1/2+z
1/2+x,1/2-y,1/2+z
loop_
_atom_site_type_symbol
_atom_site_label
_atom_site_fract_x
_atom_site_fract_y
_atom_site_fract_z
Si Si1 0.903696 0.274021 0.437639
Si Si2 0.013912 0.205092 0.158135
Si Si3 0.158272 0.634984 0.731031
Si Si4 0.209268 0.203076 0.368549
Si Si5 0.261919 0.369836 0.566153
Si Si6 0.873655 0.555864 0.657354
Si Si7 0.054905 0.942142 0.276729
Si Si8 0.191950 0.352473 0.170062
O O1 0.778428 0.265464 0.500000
O O2 0.721873 0.267841 0.382953
O O3 0.129370 0.232785 0.427476
O O4 0.017918 0.331613 0.437062
O O5 0.149128 0.178831 0.211840
O O6 0.800867 0.247714 0.169828
O O7 0.920341 0.159845 0.115524
O O8 0.304780 0.593068 0.770143
O O9 0.063524 0.601832 0.676500
O O10 0.921240 0.658905 0.765445
O O11 0.453058 0.165070 0.369525
O O12 0.957310 0.174450 0.346006
O O13 0.363201 0.371912 0.500000
O O14 0.222308 0.425661 0.594600
O O15 0.675730 0.555857 0.711422
O O16 0.000000 0.500000 0.655801
O O17 0.239744 0.912585 0.321205
O O18 0.000000 0.000000 0.294249
#
# Coordination Sequence:
#
# PCOD9444110 Si02
#       8
#     8   8   8   8   8   8   8   8
#     4  10  21  39  63  87 118 165 211 252 305 373
#     4  11  21  39  64  85 121 168 210 259 307 378
#     4  11  22  39  60  85 119 164 209 253 310 371
#     4  11  23  44  60  92 129 161 201 253 311 368
#     4  10  21  35  55  85 119 160 215 273 325 370
#     4  11  21  34  59  83 116 160 215 274 319 371
#     4  11  22  40  63  87 118 163 214 252 307 372
#     4  11  24  43  61  92 127 161 200 256 307 377
#
# _framework density 20.357088999999998
#
# number of rings (size 3 to 8) (size 9 to 14) (size 15 to 20)
#    0.000    1.250    6.250    0.375    0.000    0.750 
#    4.500    0.000    0.000    1.125    0.000    0.000 
#    0.000    3.000    0.000    0.000    0.000    0.000 
#
# Total GULP energy -356858.062074 kJ/mol
# GULP energy per Si atom -5575.907220 kJ/mol
# Density = 2.031075 g / cm^3
# Si number density = 20.357089 Si / 1000 Ang^3
#
#
#
# Elastic Constant Matrix: (Units=GPa)
#
#
# Indices 1 2 3 4 5 6 
#
# 1 98.7413 35.0461 6.8169 0.0000 0.0000 0.0000
# 2 35.0461 81.8101 28.4906 0.0000 0.0000 0.0000
# 3 6.8169 28.4906 22.2891 0.0000 0.0000 0.0000
# 4 0.0000 0.0000 0.0000 58.6192 0.0000 0.0000
# 5 0.0000 0.0000 0.0000 0.0000 4.2332 0.0000
# 6 0.0000 0.0000 0.0000 0.0000 0.0000 37.2951
#
#
#
# Elastic Compliance Matrix: (Units=1/GPa)
#
#
# Indices 1 2 3 4 5 6 
#
# 1 0.012288 -0.007128 0.005354 0.000000 0.000000 0.000000
# 2 -0.007128 0.026165 -0.031265 0.000000 0.000000 0.000000
# 3 0.005354 -0.031265 0.083192 0.000000 0.000000 0.000000
# 4 0.000000 0.000000 0.000000 0.017059 0.000000 0.000000
# 5 0.000000 0.000000 0.000000 0.000000 0.236228 0.000000
# 6 0.000000 0.000000 0.000000 0.000000 0.000000 0.026813
#
#
# Mechanical properties :
#
#
# Convention : Reuss Voigt Hill
#
# Bulk Modulus (GPa) = 17.99695 38.17198 28.08447
# Shear Modulus (GPa) = 10.28074 28.86197 19.57136
#
# Velocity S-wave (km/s) = 2.24970 3.76943 3.10401
# Velocity P-wave (km/s) = 3.95070 6.14302 5.16453
#
# Compressibility (1/GPa) = 0.05556498
#
# Stress axis : x y z
#
# Youngs Moduli (GPa) = 81.38070 38.21855 12.02043
#
# Poissons Ratio (x) = 0.27243 -0.06435
# Poissons Ratio (y) = 0.58011 0.37582
# Poissons Ratio (z) = -0.43567 1.19491
#
# Static dielectric constant tensor:
#      x y z
#    x 1.861600 0.000000 0.000000 
#    y 0.000000 1.746620 0.000000 
#    z 0.000000 0.000000 1.745020 
# 
# From -- ./inp_files/33010.got.cif
#   From: 2010.05.17/outbox.cif.g08.bks.cpg/sg58_17_cif.got.tgz:33010.got - 2010.06.03 14:20:14.
