data_PCOD9444016
_publ_section_title
;
Structure prediction by ZEFSAII (Michael W. Deem and Ramdas Pophale) SiO2 
 PCOD9444016
Probable space group: P N N M
;
_chemical_formula_sum "Si O2"
_cell_formula_units_Z 48
_cell_length_a 6.721134
_cell_length_b 13.456968
_cell_length_c 26.741635
_cell_angle_alpha 90.000000
_cell_angle_beta 90.000000
_cell_angle_gamma 90.000000
_cell_volume 2418.676197
_symmetry_space_group_name_H-M "P N N M"
_symmetry_group_IT_number 58
_symmetry_cell_setting 'orthorhombic'
loop_
_space_group_symop_operation_xyz
x,y,z
-x,-y,z
1/2+x,1/2-y,1/2-z
1/2-x,1/2+y,1/2-z
-x,-y,-z
x,y,-z
1/2-x,1/2+y,1/2+z
1/2+x,1/2-y,1/2+z
loop_
_atom_site_type_symbol
_atom_site_label
_atom_site_fract_x
_atom_site_fract_y
_atom_site_fract_z
Si Si1 0.014499 0.113428 0.403389
Si Si2 0.026845 0.613591 0.644604
Si Si3 0.656660 0.255154 0.292816
Si Si4 0.354080 0.257061 0.383195
Si Si5 0.255016 0.704712 0.441455
Si Si6 0.951735 0.107985 0.715921
O O1 0.232371 0.163538 0.405506
O O2 0.856800 0.190749 0.427174
O O3 0.975349 0.109704 0.343718
O O4 0.000000 0.000000 0.422341
O O5 0.814766 0.664715 0.633476
O O6 0.000000 0.500000 0.660897
O O7 0.164962 0.681787 0.680782
O O8 0.145180 0.621844 0.591958
O O9 0.485464 0.238742 0.333636
O O10 0.732035 0.148339 0.274961
O O11 0.589709 0.316528 0.245285
O O12 0.516649 0.291331 0.423539
O O13 0.236974 0.688122 0.500000
O O14 0.000000 0.000000 0.735382
#
# Coordination Sequence:
#
# PCOD9444016 Si02
#       6
#     8   8   8   8   8   8
#     4  10  21  42  60  89 127 165 206 259 314 373
#     4  10  23  41  65  92 125 167 207 262 317 377
#     4  11  23  40  61  91 130 168 216 257 309 378
#     4  10  20  41  62  86 124 164 202 265 308 376
#     4  10  22  41  64  93 124 163 209 262 323 381
#     4  11  23  39  62  93 128 169 214 260 310 370
#
# _framework density 19.845568
#
# number of rings (size 3 to 8) (size 9 to 14) (size 15 to 20)
#    0.000    1.667    5.000    1.000    2.333    6.000 
#    0.000    3.333    0.000    0.000    0.000    0.000 
#    0.000    0.000    0.000    0.000    0.000    0.000 
#
# Total GULP energy -267829.734808 kJ/mol
# GULP energy per Si atom -5579.786142 kJ/mol
# Density = 1.980040 g / cm^3
# Si number density = 19.845568 Si / 1000 Ang^3
#
#
#
# Elastic Constant Matrix: (Units=GPa)
#
#
# Indices 1 2 3 4 5 6 
#
# 1 119.6183 45.2366 3.1105 0.0000 0.0000 0.0000
# 2 45.2366 70.0923 5.5491 0.0000 0.0000 0.0000
# 3 3.1105 5.5491 39.8925 0.0000 0.0000 0.0000
# 4 0.0000 0.0000 0.0000 19.5482 0.0000 0.0000
# 5 0.0000 0.0000 0.0000 0.0000 15.3206 0.0000
# 6 0.0000 0.0000 0.0000 0.0000 0.0000 14.8963
#
#
#
# Elastic Compliance Matrix: (Units=1/GPa)
#
#
# Indices 1 2 3 4 5 6 
#
# 1 0.011060 -0.007148 0.000132 0.000000 0.000000 0.000000
# 2 -0.007148 0.019046 -0.002092 0.000000 0.000000 0.000000
# 3 0.000132 -0.002092 0.025348 0.000000 0.000000 0.000000
# 4 0.000000 0.000000 0.000000 0.051155 0.000000 0.000000
# 5 0.000000 0.000000 0.000000 0.000000 0.065272 0.000000
# 6 0.000000 0.000000 0.000000 0.000000 0.000000 0.067131
#
#
# Mechanical properties :
#
#
# Convention : Reuss Voigt Hill
#
# Bulk Modulus (GPa) = 26.85480 37.48837 32.17159
# Shear Modulus (GPa) = 18.54320 21.66682 20.10501
#
# Velocity S-wave (km/s) = 3.06007 3.30778 3.18633
# Velocity P-wave (km/s) = 5.10359 5.78961 5.45739
#
# Compressibility (1/GPa) = 0.03723729
#
# Stress axis : x y z
#
# Youngs Moduli (GPa) = 90.41763 52.50472 39.45072
#
# Poissons Ratio (x) = 0.37532 -0.00521
# Poissons Ratio (y) = 0.64633 0.08253
# Poissons Ratio (z) = -0.01193 0.10984
#
# Static dielectric constant tensor:
#      x y z
#    x 1.717660 0.000000 0.000000 
#    y 0.000000 1.718730 0.000000 
#    z 0.000000 0.000000 1.699950 
# 
# From -- ./inp_files/32795.got.cif
#   From: 2010.05.17/outbox.cif.g08.bks.cpg/sg58_17_cif.got.tgz:32795.got - 2010.06.03 14:20:14.
