data_PCOD9444464
_publ_section_title
;
Structure prediction by ZEFSAII (Michael W. Deem and Ramdas Pophale) SiO2 
 PCOD9444464
Probable space group: P N N M
;
_chemical_formula_sum "Si O2"
_cell_formula_units_Z 40
_cell_length_a 19.147652
_cell_length_b 11.318615
_cell_length_c 7.871121
_cell_angle_alpha 90.000000
_cell_angle_beta 90.000000
_cell_angle_gamma 90.000000
_cell_volume 1705.867921
_symmetry_space_group_name_H-M "P N N M"
_symmetry_group_IT_number 58
_symmetry_cell_setting 'orthorhombic'
loop_
_space_group_symop_operation_xyz
x,y,z
-x,-y,z
1/2+x,1/2-y,1/2-z
1/2-x,1/2+y,1/2-z
-x,-y,-z
x,y,-z
1/2-x,1/2+y,1/2+z
1/2+x,1/2-y,1/2+z
loop_
_atom_site_type_symbol
_atom_site_label
_atom_site_fract_x
_atom_site_fract_y
_atom_site_fract_z
Si Si1 0.196724 0.114899 0.703095
Si Si2 0.752008 0.144162 0.190921
Si Si3 0.458583 0.604673 0.804528
Si Si4 0.033466 0.677707 0.196854
Si Si5 0.886483 0.540328 0.802256
O O1 0.198565 0.133361 0.500000
O O2 0.247118 0.222253 0.768682
O O3 0.117413 0.134242 0.769654
O O4 0.214532 0.976431 0.733269
O O5 0.670447 0.106426 0.193390
O O6 0.780406 0.153501 0.000000
O O7 0.500000 0.500000 0.715649
O O8 0.514245 0.709301 0.802692
O O9 0.443243 0.571154 0.000000
O O10 0.960452 0.606076 0.199374
O O11 0.094945 0.591975 0.255448
O O12 0.047045 0.708416 0.000000
O O13 0.862777 0.536182 0.000000
#
# Coordination Sequence:
#
# PCOD9444464 Si02
#       5
#     8   8   8   8   8
#     4  10  23  42  60  86 123 158 198 250 300 355
#     4  11  23  39  62  89 117 158 205 248 298 355
#     4  10  21  38  59  83 117 155 190 240 300 349
#     4   9  18  33  56  85 115 148 186 230 284 345
#     4   9  18  34  57  85 116 148 183 234 293 342
#
# _framework density 23.448474000000001
#
# number of rings (size 3 to 8) (size 9 to 14) (size 15 to 20)
#    0.000    2.200    2.000    1.800    0.000    5.200 
#    0.000    6.000    0.000    0.000    0.000    0.000 
#    0.000    0.000    0.000    0.000    0.000    0.000 
#
# Total GULP energy -222841.230533 kJ/mol
# GULP energy per Si atom -5571.030763 kJ/mol
# Density = 2.339510 g / cm^3
# Si number density = 23.448474 Si / 1000 Ang^3
#
#
#
# Elastic Constant Matrix: (Units=GPa)
#
#
# Indices 1 2 3 4 5 6 
#
# 1 30.1672 30.6094 2.3788 0.0000 0.0000 0.0000
# 2 30.6094 147.3179 11.4794 0.0000 0.0000 0.0000
# 3 2.3788 11.4794 26.2578 0.0000 0.0000 0.0000
# 4 0.0000 0.0000 0.0000 22.9248 0.0000 0.0000
# 5 0.0000 0.0000 0.0000 0.0000 12.5623 0.0000
# 6 0.0000 0.0000 0.0000 0.0000 0.0000 38.5401
#
#
#
# Elastic Compliance Matrix: (Units=1/GPa)
#
#
# Indices 1 2 3 4 5 6 
#
# 1 0.042004 -0.008728 0.000010 0.000000 0.000000 0.000000
# 2 -0.008728 0.008841 -0.003074 0.000000 0.000000 0.000000
# 3 0.000010 -0.003074 0.039427 0.000000 0.000000 0.000000
# 4 0.000000 0.000000 0.000000 0.043621 0.000000 0.000000
# 5 0.000000 0.000000 0.000000 0.000000 0.079603 0.000000
# 6 0.000000 0.000000 0.000000 0.000000 0.000000 0.025947
#
#
# Mechanical properties :
#
#
# Convention : Reuss Voigt Hill
#
# Bulk Modulus (GPa) = 14.99529 32.51980 23.75755
# Shear Modulus (GPa) = 17.52807 25.42380 21.47593
#
# Velocity S-wave (km/s) = 2.73704 3.29635 3.02963
# Velocity P-wave (km/s) = 4.04937 5.32791 4.73202
#
# Compressibility (1/GPa) = 0.06668760
#
# Stress axis : x y z
#
# Youngs Moduli (GPa) = 23.80727 113.10730 25.36332
#
# Poissons Ratio (x) = 0.98724 -0.00027
# Poissons Ratio (y) = 0.20780 0.07798
# Poissons Ratio (z) = -0.00025 0.34774
#
# Static dielectric constant tensor:
#      x y z
#    x 1.906600 0.000000 0.000000 
#    y 0.000000 2.030380 0.000000 
#    z 0.000000 0.000000 1.872290 
# 
# From -- ./inp_files/3807.got.cif
#   From: 2010.05.17/outbox.cif.g08.bks.cpg/sg58_2_cif.got.tgz:3807.got - 2010.06.03 14:20:14.
