data_PCOD9444137
_publ_section_title
;
Structure prediction by ZEFSAII (Michael W. Deem and Ramdas Pophale) SiO2 
 PCOD9444137
Probable space group: P N N M
;
_chemical_formula_sum "Si O2"
_cell_formula_units_Z 48
_cell_length_a 13.945614
_cell_length_b 12.127670
_cell_length_c 13.564530
_cell_angle_alpha 90.000000
_cell_angle_beta 90.000000
_cell_angle_gamma 90.000000
_cell_volume 2294.139179
_symmetry_space_group_name_H-M "P N N M"
_symmetry_group_IT_number 58
_symmetry_cell_setting 'orthorhombic'
loop_
_space_group_symop_operation_xyz
x,y,z
-x,-y,z
1/2+x,1/2-y,1/2-z
1/2-x,1/2+y,1/2-z
-x,-y,-z
x,y,-z
1/2-x,1/2+y,1/2+z
1/2+x,1/2-y,1/2+z
loop_
_atom_site_type_symbol
_atom_site_label
_atom_site_fract_x
_atom_site_fract_y
_atom_site_fract_z
Si Si1 0.366340 0.704678 0.795766
Si Si2 0.394907 0.553234 0.611475
Si Si3 0.987588 0.328610 0.807094
Si Si4 0.646965 0.528866 0.110352
Si Si5 0.332187 0.341005 0.692700
Si Si6 0.625881 0.009262 0.608410
O O1 0.369225 0.647335 0.688319
O O2 0.455418 0.789254 0.789675
O O3 0.382704 0.597777 0.865251
O O4 0.265452 0.769185 0.807810
O O5 0.500000 0.500000 0.632055
O O6 0.393232 0.591945 0.500000
O O7 0.322498 0.451562 0.629421
O O8 0.070149 0.376925 0.877228
O O9 0.920269 0.231837 0.846706
O O10 0.912683 0.430167 0.805356
O O11 0.630642 0.613910 0.200057
O O12 0.762171 0.523649 0.112249
O O13 0.614861 0.559904 0.000000
O O14 0.603533 0.961736 0.500000
#
# Coordination Sequence:
#
# PCOD9444137 Si02
#       6
#     8   8   8   8   8   8
#     4  11  22  38  58  87 121 156 191 232 294 351
#     4  10  22  37  59  91 120 144 185 246 303 348
#     4  11  20  35  57  86 117 149 188 237 294 344
#     4  10  22  40  60  87 119 154 200 242 281 342
#     4  11  22  38  58  87 121 156 191 232 294 351
#     4  10  21  35  59  96 119 141 189 253 306 348
#
# _framework density 20.922878999999998
#
# number of rings (size 3 to 8) (size 9 to 14) (size 15 to 20)
#    0.000    1.500    5.000    1.000    0.000    4.000 
#    0.000    1.667    0.000    0.000    0.000    5.833 
#    0.000    0.000    0.000    0.000    0.000    0.000 
#
# Total GULP energy -267471.086780 kJ/mol
# GULP energy per Si atom -5572.314308 kJ/mol
# Density = 2.087526 g / cm^3
# Si number density = 20.922879 Si / 1000 Ang^3
#
#
#
# Elastic Constant Matrix: (Units=GPa)
#
#
# Indices 1 2 3 4 5 6 
#
# 1 61.9304 8.8031 -10.2145 0.0000 0.0000 0.0000
# 2 8.8031 81.8422 5.5188 0.0000 0.0000 0.0000
# 3 -10.2145 5.5188 40.4546 0.0000 0.0000 0.0000
# 4 0.0000 0.0000 0.0000 15.7374 0.0000 0.0000
# 5 0.0000 0.0000 0.0000 0.0000 14.9248 0.0000
# 6 0.0000 0.0000 0.0000 0.0000 0.0000 44.6737
#
#
#
# Elastic Compliance Matrix: (Units=1/GPa)
#
#
# Indices 1 2 3 4 5 6 
#
# 1 0.017221 -0.002165 0.004644 0.000000 0.000000 0.000000
# 2 -0.002165 0.012604 -0.002266 0.000000 0.000000 0.000000
# 3 0.004644 -0.002266 0.026201 0.000000 0.000000 0.000000
# 4 0.000000 0.000000 0.000000 0.063543 0.000000 0.000000
# 5 0.000000 0.000000 0.000000 0.000000 0.067003 0.000000
# 6 0.000000 0.000000 0.000000 0.000000 0.000000 0.022385
#
#
# Mechanical properties :
#
#
# Convention : Reuss Voigt Hill
#
# Bulk Modulus (GPa) = 17.71489 21.38244 19.54866
# Shear Modulus (GPa) = 21.99263 27.07517 24.53390
#
# Velocity S-wave (km/s) = 3.24563 3.60119 3.42802
# Velocity P-wave (km/s) = 4.74664 5.24721 5.00319
#
# Compressibility (1/GPa) = 0.05644970
#
# Stress axis : x y z
#
# Youngs Moduli (GPa) = 58.06916 79.33757 38.16690
#
# Poissons Ratio (x) = 0.17180 -0.17723
# Poissons Ratio (y) = 0.12574 0.08650
# Poissons Ratio (z) = -0.26965 0.17980
#
# Static dielectric constant tensor:
#      x y z
#    x 1.790910 0.000000 0.000000 
#    y 0.000000 1.831260 0.000000 
#    z 0.000000 0.000000 1.782860 
# 
# From -- ./inp_files/22094.got.cif
#   From: 2010.05.17/outbox.cif.g08.bks.cpg/sg58_12_cif.got.tgz:22094.got - 2010.06.03 14:20:14.
