data_PCOD9444655
_publ_section_title
;
Structure prediction by ZEFSAII (Michael W. Deem and Ramdas Pophale) SiO2 
 PCOD9444655
Probable space group: P N N M
;
_chemical_formula_sum "Si O2"
_cell_formula_units_Z 64
_cell_length_a 34.883111
_cell_length_b 10.966964
_cell_length_c 8.758037
_cell_angle_alpha 90.000000
_cell_angle_beta 90.000000
_cell_angle_gamma 90.000000
_cell_volume 3350.490597
_symmetry_space_group_name_H-M "P N N M"
_symmetry_group_IT_number 58
_symmetry_cell_setting 'orthorhombic'
loop_
_space_group_symop_operation_xyz
x,y,z
-x,-y,z
1/2+x,1/2-y,1/2-z
1/2-x,1/2+y,1/2-z
-x,-y,-z
x,y,-z
1/2-x,1/2+y,1/2+z
1/2+x,1/2-y,1/2+z
loop_
_atom_site_type_symbol
_atom_site_label
_atom_site_fract_x
_atom_site_fract_y
_atom_site_fract_z
Si Si1 0.062420 0.261835 0.820329
Si Si2 0.735782 0.597855 0.318088
Si Si3 0.633249 0.374022 0.822484
Si Si4 0.654596 0.654378 0.176648
Si Si5 0.510537 0.640892 0.173381
Si Si6 0.581734 0.753447 0.320723
Si Si7 0.454183 0.012161 0.177741
Si Si8 0.283809 0.677982 0.683774
O O1 0.096699 0.174339 0.768259
O O2 0.021312 0.205661 0.775934
O O3 0.065084 0.386296 0.726023
O O4 0.064146 0.284963 0.000000
O O5 0.741298 0.601582 0.500000
O O6 0.693328 0.643430 0.272566
O O7 0.736523 0.452842 0.271334
O O8 0.763635 0.698097 0.241806
O O9 0.635589 0.520342 0.817707
O O10 0.673246 0.328239 0.751132
O O11 0.630409 0.337144 0.000000
O O12 0.623473 0.744791 0.246172
O O13 0.663497 0.682876 0.000000
O O14 0.500000 0.500000 0.167663
O O15 0.552598 0.659511 0.240566
O O16 0.508797 0.691138 0.000000
O O17 0.584027 0.730196 0.500000
O O18 0.562360 0.882178 0.283125
O O19 0.500000 0.000000 0.198621
O O20 0.446938 0.040001 0.000000
O O21 0.285194 0.678928 0.500000
#
# Coordination Sequence:
#
# PCOD9444655 Si02
#       8
#     8   8   8   8   8   8   8   8
#     4  12  24  38  59  86 117 150 193 244 296 350
#     4  10  21  39  64  94 127 162 203 250 303 364
#     4  10  21  39  63  89 120 158 198 242 295 352
#     4  10  21  39  63  89 120 158 198 242 295 352
#     4  11  23  38  57  82 113 151 195 239 286 345
#     4  12  24  38  59  86 117 150 193 244 296 350
#     4  11  23  41  63  81 110 156 200 242 294 354
#     4  10  21  39  64  94 127 162 203 250 303 364
#
# _framework density 19.101680999999999
#
# number of rings (size 3 to 8) (size 9 to 14) (size 15 to 20)
#    0.000    1.250    1.250    5.250    0.000    7.500 
#    2.250    0.000    0.000    0.000    0.000    0.000 
#    0.000    0.000    0.000    0.000    0.000    0.000 
#
# Total GULP energy -357603.397811 kJ/mol
# GULP energy per Si atom -5587.553091 kJ/mol
# Density = 1.905821 g / cm^3
# Si number density = 19.101681 Si / 1000 Ang^3
#
#
#
# Elastic Constant Matrix: (Units=GPa)
#
#
# Indices 1 2 3 4 5 6 
#
# 1 42.6728 -2.4032 7.3136 0.0000 0.0000 0.0000
# 2 -2.4032 29.4746 6.5992 0.0000 0.0000 0.0000
# 3 7.3136 6.5992 53.6489 0.0000 0.0000 0.0000
# 4 0.0000 0.0000 0.0000 20.6708 0.0000 0.0000
# 5 0.0000 0.0000 0.0000 0.0000 41.1037 0.0000
# 6 0.0000 0.0000 0.0000 0.0000 0.0000 31.2721
#
#
#
# Elastic Compliance Matrix: (Units=1/GPa)
#
#
# Indices 1 2 3 4 5 6 
#
# 1 0.024216 0.002790 -0.003644 0.000000 0.000000 0.000000
# 2 0.002790 0.035210 -0.004711 0.000000 0.000000 0.000000
# 3 -0.003644 -0.004711 0.019716 0.000000 0.000000 0.000000
# 4 0.000000 0.000000 0.000000 0.048377 0.000000 0.000000
# 5 0.000000 0.000000 0.000000 0.000000 0.024329 0.000000
# 6 0.000000 0.000000 0.000000 0.000000 0.000000 0.031977
#
#
# Mechanical properties :
#
#
# Convention : Reuss Voigt Hill
#
# Bulk Modulus (GPa) = 14.70352 16.53504 15.61928
# Shear Modulus (GPa) = 22.97513 26.22844 24.60179
#
# Velocity S-wave (km/s) = 3.47187 3.70955 3.59268
# Velocity P-wave (km/s) = 4.87710 5.19835 5.04028
#
# Compressibility (1/GPa) = 0.06801092
#
# Stress axis : x y z
#
# Youngs Moduli (GPa) = 41.29524 28.40107 50.71999
#
# Poissons Ratio (x) = -0.07925 0.18485
# Poissons Ratio (y) = -0.11523 0.23897
# Poissons Ratio (z) = 0.15050 0.13381
#
# Static dielectric constant tensor:
#      x y z
#    x 1.629210 0.000000 0.000000 
#    y 0.000000 1.705800 0.000000 
#    z 0.000000 0.000000 1.637640 
# 
# From -- ./inp_files/10929.got.cif
#   From: 2010.05.17/outbox.cif.g08.bks.cpg/sg58_6_cif.got.tgz:10929.got - 2010.06.03 14:20:14.
