data_PCOD9444422
_publ_section_title
;
Structure prediction by ZEFSAII (Michael W. Deem and Ramdas Pophale) SiO2 
 PCOD9444422
Probable space group: P N N M
;
_chemical_formula_sum "Si O2"
_cell_formula_units_Z 48
_cell_length_a 4.954198
_cell_length_b 22.324025
_cell_length_c 18.773579
_cell_angle_alpha 90.000000
_cell_angle_beta 90.000000
_cell_angle_gamma 90.000000
_cell_volume 2076.313532
_symmetry_space_group_name_H-M "P N N M"
_symmetry_group_IT_number 58
_symmetry_cell_setting 'orthorhombic'
loop_
_space_group_symop_operation_xyz
x,y,z
-x,-y,z
1/2+x,1/2-y,1/2-z
1/2-x,1/2+y,1/2-z
-x,-y,-z
x,y,-z
1/2-x,1/2+y,1/2+z
1/2+x,1/2-y,1/2+z
loop_
_atom_site_type_symbol
_atom_site_label
_atom_site_fract_x
_atom_site_fract_y
_atom_site_fract_z
Si Si1 0.481472 0.206931 0.921317
Si Si2 0.712856 0.289806 0.224215
Si Si3 0.239333 0.459490 0.302626
Si Si4 0.007725 0.161079 0.418549
Si Si5 0.480207 0.346995 0.643591
Si Si6 0.740163 0.043241 0.359954
O O1 0.359788 0.274039 0.917074
O O2 0.748022 0.201550 0.872873
O O3 0.237023 0.162719 0.905744
O O4 0.588101 0.197046 0.000000
O O5 0.988999 0.261495 0.254130
O O6 0.707893 0.324900 0.148256
O O7 0.611352 0.341144 0.278757
O O8 0.500000 0.500000 0.294455
O O9 0.314610 0.407474 0.356415
O O10 0.167793 0.438919 0.221898
O O11 0.000000 0.500000 0.330058
O O12 0.117157 0.154924 0.500000
O O13 0.823474 0.103799 0.401040
O O14 0.500000 0.000000 0.387487
O O15 0.000000 0.000000 0.360431
#
# Coordination Sequence:
#
# PCOD9444422 Si02
#       6
#     8   8   8   8   8   8
#     4  11  25  41  64  98 129 164 207 263 329 383
#     4  12  23  41  62  96 128 164 214 260 316 376
#     4  10  21  37  62  94 123 162 214 261 305 369
#     4  11  24  43  65  96 134 169 211 262 318 376
#     4  12  21  41  68  90 128 170 205 264 320 379
#     4  10  23  41  61  88 127 171 215 258 303 363
#
# _framework density 23.117892999999999
#
# number of rings (size 3 to 8) (size 9 to 14) (size 15 to 20)
#    0.000    1.000    5.000    1.500    0.000    3.333 
#    0.000    4.167    0.000   10.000    0.000    0.000 
#    0.000    0.000    0.000    0.000    0.000    0.000 
#
# Total GULP energy -267762.948518 kJ/mol
# GULP energy per Si atom -5578.394761 kJ/mol
# Density = 2.306528 g / cm^3
# Si number density = 23.117893 Si / 1000 Ang^3
#
#
#
# Elastic Constant Matrix: (Units=GPa)
#
#
# Indices 1 2 3 4 5 6 
#
# 1 99.2822 4.6651 27.4127 0.0000 0.0000 0.0000
# 2 4.6651 57.3474 21.5726 0.0000 0.0000 0.0000
# 3 27.4127 21.5726 104.6992 0.0000 0.0000 0.0000
# 4 0.0000 0.0000 0.0000 22.1390 0.0000 0.0000
# 5 0.0000 0.0000 0.0000 0.0000 6.8782 0.0000
# 6 0.0000 0.0000 0.0000 0.0000 0.0000 22.7141
#
#
#
# Elastic Compliance Matrix: (Units=1/GPa)
#
#
# Indices 1 2 3 4 5 6 
#
# 1 0.010859 0.000202 -0.002885 0.000000 0.000000 0.000000
# 2 0.000202 0.018906 -0.003948 0.000000 0.000000 0.000000
# 3 -0.002885 -0.003948 0.011120 0.000000 0.000000 0.000000
# 4 0.000000 0.000000 0.000000 0.045169 0.000000 0.000000
# 5 0.000000 0.000000 0.000000 0.000000 0.145387 0.000000
# 6 0.000000 0.000000 0.000000 0.000000 0.000000 0.044026
#
#
# Mechanical properties :
#
#
# Convention : Reuss Voigt Hill
#
# Bulk Modulus (GPa) = 36.20170 40.95886 38.58028
# Shear Modulus (GPa) = 16.78199 24.19147 20.48673
#
# Velocity S-wave (km/s) = 2.69723 3.23838 2.98012
# Velocity P-wave (km/s) = 5.03921 5.63371 5.34473
#
# Compressibility (1/GPa) = 0.02762301
#
# Stress axis : x y z
#
# Youngs Moduli (GPa) = 92.08665 52.89198 89.92790
#
# Poissons Ratio (x) = -0.01067 0.25942
# Poissons Ratio (y) = -0.01858 0.35507
# Poissons Ratio (z) = 0.26565 0.20884
#
# Static dielectric constant tensor:
#      x y z
#    x 1.858500 0.000000 0.000000 
#    y 0.000000 1.948680 0.000000 
#    z 0.000000 0.000000 1.929310 
# 
# From -- ./inp_files/28135.got.cif
#   From: 2010.05.17/outbox.cif.g08.bks.cpg/sg58_15_cif.got.tgz:28135.got - 2010.06.03 14:20:14.
