data_PCOD9444056
_publ_section_title
;
Structure prediction by ZEFSAII (Michael W. Deem and Ramdas Pophale) SiO2 
 PCOD9444056
Probable space group: P N N M
;
_chemical_formula_sum "Si O2"
_cell_formula_units_Z 56
_cell_length_a 8.219525
_cell_length_b 16.126133
_cell_length_c 21.793188
_cell_angle_alpha 90.000000
_cell_angle_beta 90.000000
_cell_angle_gamma 90.000000
_cell_volume 2888.668618
_symmetry_space_group_name_H-M "P N N M"
_symmetry_group_IT_number 58
_symmetry_cell_setting 'orthorhombic'
loop_
_space_group_symop_operation_xyz
x,y,z
-x,-y,z
1/2+x,1/2-y,1/2-z
1/2-x,1/2+y,1/2-z
-x,-y,-z
x,y,-z
1/2-x,1/2+y,1/2+z
1/2+x,1/2-y,1/2+z
loop_
_atom_site_type_symbol
_atom_site_label
_atom_site_fract_x
_atom_site_fract_y
_atom_site_fract_z
Si Si1 0.951187 0.820669 0.327849
Si Si2 0.679946 0.748366 0.070687
Si Si3 0.309413 0.489171 0.305659
Si Si4 0.907838 0.635960 0.852754
Si Si5 0.748639 0.688664 0.734033
Si Si6 0.772734 0.462902 0.827173
Si Si7 0.169997 0.551584 0.568962
O O1 0.796145 0.767923 0.305107
O O2 0.892724 0.913868 0.337060
O O3 0.031980 0.785358 0.388681
O O4 0.085824 0.810411 0.274686
O O5 0.841575 0.705972 0.100882
O O6 0.664448 0.848237 0.072979
O O7 0.671695 0.723347 0.000000
O O8 0.500000 0.500000 0.291970
O O9 0.263076 0.392720 0.307210
O O10 0.212919 0.527953 0.247338
O O11 0.271884 0.526575 0.371566
O O12 0.887522 0.674218 0.785124
O O13 0.787266 0.555758 0.853186
O O14 0.083128 0.592615 0.856354
O O15 0.234122 0.532201 0.500000
O O16 0.000000 0.500000 0.573873
#
# Coordination Sequence:
#
# PCOD9444056 Si02
#       7
#     8   8   8   8   8   8   8
#     4  11  21  35  59  85 125 153 204 249 312 366
#     4  10  23  42  62  87 121 164 210 255 300 368
#     4  11  22  35  57  88 125 155 198 251 310 369
#     4   9  21  37  60  85 122 158 201 254 315 367
#     4  10  21  33  54  89 117 157 194 254 304 366
#     4  10  21  37  57  92 124 154 197 262 317 377
#     4  10  23  41  61  85 120 167 212 249 298 370
#
# _framework density 19.386094
#
# number of rings (size 3 to 8) (size 9 to 14) (size 15 to 20)
#    0.000    1.857    1.429    1.714   10.000    1.429 
#    0.000    3.571    0.000    3.429    0.000    0.000 
#    0.000    0.000    0.000    0.000    0.000    0.000 
#
# Total GULP energy -312234.886745 kJ/mol
# GULP energy per Si atom -5575.622978 kJ/mol
# Density = 1.934197 g / cm^3
# Si number density = 19.386094 Si / 1000 Ang^3
#
#
#
# Elastic Constant Matrix: (Units=GPa)
#
#
# Indices 1 2 3 4 5 6 
#
# 1 66.4542 26.1774 23.3874 0.0000 0.0000 0.0000
# 2 26.1774 97.0736 50.0744 0.0000 0.0000 0.0000
# 3 23.3874 50.0744 99.6807 0.0000 0.0000 0.0000
# 4 0.0000 0.0000 0.0000 28.4775 0.0000 0.0000
# 5 0.0000 0.0000 0.0000 0.0000 8.0452 0.0000
# 6 0.0000 0.0000 0.0000 0.0000 0.0000 36.0145
#
#
#
# Elastic Compliance Matrix: (Units=1/GPa)
#
#
# Indices 1 2 3 4 5 6 
#
# 1 0.017220 -0.003455 -0.002305 0.000000 0.000000 0.000000
# 2 -0.003455 0.014598 -0.006523 0.000000 0.000000 0.000000
# 3 -0.002305 -0.006523 0.013849 0.000000 0.000000 0.000000
# 4 0.000000 0.000000 0.000000 0.035115 0.000000 0.000000
# 5 0.000000 0.000000 0.000000 0.000000 0.124298 0.000000
# 6 0.000000 0.000000 0.000000 0.000000 0.000000 0.027767
#
#
# Mechanical properties :
#
#
# Convention : Reuss Voigt Hill
#
# Bulk Modulus (GPa) = 47.38672 51.38742 49.38707
# Shear Modulus (GPa) = 18.90749 25.41205 22.15977
#
# Velocity S-wave (km/s) = 3.12639 3.62448 3.38461
# Velocity P-wave (km/s) = 6.12610 6.63933 6.38787
#
# Compressibility (1/GPa) = 0.02110296
#
# Stress axis : x y z
#
# Youngs Moduli (GPa) = 58.07216 68.50401 72.20553
#
# Poissons Ratio (x) = 0.23667 0.16641
# Poissons Ratio (y) = 0.20063 0.47096
# Poissons Ratio (z) = 0.13384 0.44682
#
# Static dielectric constant tensor:
#      x y z
#    x 1.733170 0.000000 0.000000 
#    y 0.000000 1.704960 0.000000 
#    z 0.000000 0.000000 1.643090 
# 
# From -- ./inp_files/28962.got.cif
#   From: 2010.05.17/outbox.cif.g08.bks.cpg/sg58_15_cif.got.tgz:28962.got - 2010.06.03 14:20:14.
