data_PCOD9444613
_publ_section_title
;
Structure prediction by ZEFSAII (Michael W. Deem and Ramdas Pophale) SiO2 
 PCOD9444613
Probable space group: P N N M
;
_chemical_formula_sum "Si O2"
_cell_formula_units_Z 58
_cell_length_a 13.971680
_cell_length_b 16.152563
_cell_length_c 12.912596
_cell_angle_alpha 90.000000
_cell_angle_beta 90.000000
_cell_angle_gamma 90.000000
_cell_volume 2914.094540
_symmetry_space_group_name_H-M "P N N M"
_symmetry_group_IT_number 58
_symmetry_cell_setting 'orthorhombic'
loop_
_space_group_symop_operation_xyz
x,y,z
-x,-y,z
1/2+x,1/2-y,1/2-z
1/2-x,1/2+y,1/2-z
-x,-y,-z
x,y,-z
1/2-x,1/2+y,1/2+z
1/2+x,1/2-y,1/2+z
loop_
_atom_site_type_symbol
_atom_site_label
_atom_site_fract_x
_atom_site_fract_y
_atom_site_fract_z
Si Si1 0.660693 0.167826 0.881240
Si Si2 0.922991 0.927069 0.320013
Si Si3 0.269422 0.298576 0.186325
Si Si4 0.000000 0.500000 0.500000
Si Si5 0.832887 0.862624 0.884757
Si Si6 0.979339 0.237536 0.382502
Si Si7 0.149297 0.525039 0.662418
Si Si8 0.276335 0.987618 0.619725
O O1 0.741210 0.202257 0.806683
O O2 0.558556 0.199558 0.839592
O O3 0.665218 0.068900 0.877806
O O4 0.668206 0.195195 0.000000
O O5 0.903827 0.892233 0.204823
O O6 0.966836 0.850613 0.381787
O O7 0.822358 0.961146 0.363551
O O8 0.000000 0.000000 0.319290
O O9 0.202069 0.231314 0.131516
O O10 0.379248 0.272975 0.174330
O O11 0.249400 0.391034 0.143342
O O12 0.941073 0.450104 0.592975
O O13 0.738113 0.918263 0.868994
O O14 0.871173 0.874316 0.000000
O O15 0.955978 0.260649 0.500000
O O16 0.151900 0.517723 0.787987
O O17 0.307681 0.996089 0.500000
#
# Coordination Sequence:
#
# PCOD9444613 Si02
#       8
#     8   8   8   2   8   8   8   8
#     4  10  21  41  60  85 120 157 200 249 304 365
#     4  11  22  38  59  90 123 159 203 252 302 367
#     4  11  22  36  61  90 120 157 204 251 309 361
#     4  12  20  40  62  92 110 152 210 254 286 354
#     4  11  22  39  57  88 124 158 203 254 308 364
#     4  11  22  36  61  91 118 157 201 251 300 360
#     4  10  23  36  62  88 116 157 203 252 299 356
#     4  10  21  39  60  86 123 162 197 248 313 366
#
# _framework density 19.903267
#
# number of rings (size 3 to 8) (size 9 to 14) (size 15 to 20)
#    0.000    1.379    4.138    1.655    1.931    0.828 
#    0.000    1.034    0.000    0.000    0.000    0.000 
#    0.000    0.000    0.000    0.000    0.000    0.000 
#
# Total GULP energy -323270.797912 kJ/mol
# GULP energy per Si atom -5573.634447 kJ/mol
# Density = 1.985797 g / cm^3
# Si number density = 19.903267 Si / 1000 Ang^3
#
#
#
# Elastic Constant Matrix: (Units=GPa)
#
#
# Indices 1 2 3 4 5 6 
#
# 1 53.3106 14.2287 36.6320 0.0000 0.0000 0.0000
# 2 14.2287 69.6211 14.6142 0.0000 0.0000 0.0000
# 3 36.6320 14.6142 156.6978 0.0000 0.0000 0.0000
# 4 0.0000 0.0000 0.0000 5.9035 0.0000 0.0000
# 5 0.0000 0.0000 0.0000 0.0000 -10.4796 0.0000
# 6 0.0000 0.0000 0.0000 0.0000 0.0000 16.8619
#
#
#
# Elastic Compliance Matrix: (Units=1/GPa)
#
#
# Indices 1 2 3 4 5 6 
#
# 1 0.023237 -0.003681 -0.005089 0.000000 0.000000 0.000000
# 2 -0.003681 0.015233 -0.000560 0.000000 0.000000 0.000000
# 3 -0.005089 -0.000560 0.007624 0.000000 0.000000 0.000000
# 4 0.000000 0.000000 0.000000 0.169390 0.000000 0.000000
# 5 0.000000 0.000000 0.000000 0.000000 -0.095423 0.000000
# 6 0.000000 0.000000 0.000000 0.000000 0.000000 0.059305
#
#
# Mechanical properties :
#
#
# Convention : Reuss Voigt Hill
#
# Bulk Modulus (GPa) = 36.45100 45.61994 41.03547
# Shear Modulus (GPa) = 24.13458 16.73413 20.43435
#
# Velocity S-wave (km/s) = 3.48601 2.90275 3.20767
# Velocity P-wave (km/s) = 5.87851 5.84852 5.86353
#
# Compressibility (1/GPa) = 0.02743409
#
# Stress axis : x y z
#
# Youngs Moduli (GPa) = 43.03432 65.64554 131.17094
#
# Poissons Ratio (x) = 0.24163 0.66753
# Poissons Ratio (y) = 0.15840 0.07349
# Poissons Ratio (z) = 0.21900 0.03678
#
# Static dielectric constant tensor:
#      x y z
#    x 1.720150 0.000000 0.000000 
#    y 0.000000 1.753780 0.000000 
#    z 0.000000 0.000000 1.662730 
# 
# From -- ./inp_files/15839.got.cif
#   From: 2010.05.17/outbox.cif.g08.bks.cpg/sg58_8_cif.got.tgz:15839.got - 2010.06.03 14:20:14.
