data_PCOD9444078
_publ_section_title
;
Structure prediction by ZEFSAII (Michael W. Deem and Ramdas Pophale) SiO2 
 PCOD9444078
Probable space group: P N N M
;
_chemical_formula_sum "Si O2"
_cell_formula_units_Z 48
_cell_length_a 7.919669
_cell_length_b 13.923567
_cell_length_c 17.448438
_cell_angle_alpha 90.000000
_cell_angle_beta 90.000000
_cell_angle_gamma 90.000000
_cell_volume 1924.039990
_symmetry_space_group_name_H-M "P N N M"
_symmetry_group_IT_number 58
_symmetry_cell_setting 'orthorhombic'
loop_
_space_group_symop_operation_xyz
x,y,z
-x,-y,z
1/2+x,1/2-y,1/2-z
1/2-x,1/2+y,1/2-z
-x,-y,-z
x,y,-z
1/2-x,1/2+y,1/2+z
1/2+x,1/2-y,1/2+z
loop_
_atom_site_type_symbol
_atom_site_label
_atom_site_fract_x
_atom_site_fract_y
_atom_site_fract_z
Si Si1 0.725740 0.572803 0.917480
Si Si2 0.598369 0.291695 0.084093
Si Si3 0.900324 0.405424 0.383703
Si Si4 0.158503 0.233820 0.130556
Si Si5 0.292889 0.492395 0.250692
Si Si6 0.809064 0.220861 0.785982
O O1 0.540974 0.624035 0.915544
O O2 0.846978 0.666412 0.913993
O O3 0.746267 0.513252 0.839968
O O4 0.746351 0.523966 0.000000
O O5 0.516047 0.185387 0.092187
O O6 0.709628 0.293952 0.160083
O O7 0.682674 0.294231 0.000000
O O8 0.721027 0.360289 0.413455
O O9 0.828017 0.437237 0.298834
O O10 0.000000 0.500000 0.410882
O O11 0.298585 0.253586 0.197188
O O12 0.993204 0.217704 0.179169
O O13 0.500000 0.500000 0.259167
O O14 0.243518 0.388225 0.285692
#
# Coordination Sequence:
#
# PCOD9444078 Si02
#       6
#     8   8   8   8   8   8
#     4   9  21  40  59  85 119 160 197 237 297 356
#     4  10  22  40  60  83 118 160 198 241 298 362
#     4  11  21  36  58  88 116 153 196 246 296 347
#     4  10  21  34  62  84 118 153 200 252 290 351
#     4  11  21  35  59  89 116 153 196 247 292 349
#     4  11  20  37  56  89 112 153 202 243 295 352
#
# _framework density 24.947506000000001
#
# number of rings (size 3 to 8) (size 9 to 14) (size 15 to 20)
#    0.000    1.667    3.333    3.000    2.333    1.333 
#    0.000    0.000    0.000    2.500    0.000    0.000 
#    0.000    0.000    0.000    0.000    0.000    0.000 
#
# Total GULP energy -267600.458145 kJ/mol
# GULP energy per Si atom -5575.009545 kJ/mol
# Density = 2.489072 g / cm^3
# Si number density = 24.947506 Si / 1000 Ang^3
#
#
#
# Elastic Constant Matrix: (Units=GPa)
#
#
# Indices 1 2 3 4 5 6 
#
# 1 41.1253 1.9963 19.3640 0.0000 0.0000 0.0000
# 2 1.9963 124.0722 22.2942 0.0000 0.0000 0.0000
# 3 19.3640 22.2942 191.1736 0.0000 0.0000 0.0000
# 4 0.0000 0.0000 0.0000 9.2633 0.0000 0.0000
# 5 0.0000 0.0000 0.0000 0.0000 5.0998 0.0000
# 6 0.0000 0.0000 0.0000 0.0000 0.0000 29.5657
#
#
#
# Elastic Compliance Matrix: (Units=1/GPa)
#
#
# Indices 1 2 3 4 5 6 
#
# 1 0.025534 0.000055 -0.002593 0.000000 0.000000 0.000000
# 2 0.000055 0.008232 -0.000966 0.000000 0.000000 0.000000
# 3 -0.002593 -0.000966 0.005606 0.000000 0.000000 0.000000
# 4 0.000000 0.000000 0.000000 0.107953 0.000000 0.000000
# 5 0.000000 0.000000 0.000000 0.000000 0.196085 0.000000
# 6 0.000000 0.000000 0.000000 0.000000 0.000000 0.033823
#
#
# Mechanical properties :
#
#
# Convention : Reuss Voigt Hill
#
# Bulk Modulus (GPa) = 30.89668 49.29778 40.09723
# Shear Modulus (GPa) = 12.65729 29.63354 21.14542
#
# Velocity S-wave (km/s) = 2.25490 3.45024 2.91451
# Velocity P-wave (km/s) = 4.38075 5.97291 5.23769
#
# Compressibility (1/GPa) = 0.03236594
#
# Stress axis : x y z
#
# Youngs Moduli (GPa) = 39.16330 121.47055 178.37779
#
# Poissons Ratio (x) = -0.00669 0.46249
# Poissons Ratio (y) = -0.00216 0.17225
# Poissons Ratio (z) = 0.10154 0.11729
#
# Static dielectric constant tensor:
#      x y z
#    x 2.062800 0.000000 0.000000 
#    y 0.000000 2.081230 0.000000 
#    z 0.000000 0.000000 1.981060 
# 
# From -- ./inp_files/25263.got.cif
#   From: 2010.05.17/outbox.cif.g08.bks.cpg/sg58_13_cif.got.tgz:25263.got - 2010.06.03 14:20:14.
