data_PCOD9444515
_publ_section_title
;
Structure prediction by ZEFSAII (Michael W. Deem and Ramdas Pophale) SiO2 
 PCOD9444515
Probable space group: P N N M
;
_chemical_formula_sum "Si O2"
_cell_formula_units_Z 56
_cell_length_a 18.583954
_cell_length_b 10.310764
_cell_length_c 14.587584
_cell_angle_alpha 90.000000
_cell_angle_beta 90.000000
_cell_angle_gamma 90.000000
_cell_volume 2795.196464
_symmetry_space_group_name_H-M "P N N M"
_symmetry_group_IT_number 58
_symmetry_cell_setting 'orthorhombic'
loop_
_space_group_symop_operation_xyz
x,y,z
-x,-y,z
1/2+x,1/2-y,1/2-z
1/2-x,1/2+y,1/2-z
-x,-y,-z
x,y,-z
1/2-x,1/2+y,1/2+z
1/2+x,1/2-y,1/2+z
loop_
_atom_site_type_symbol
_atom_site_label
_atom_site_fract_x
_atom_site_fract_y
_atom_site_fract_z
Si Si1 0.297834 0.003145 0.103793
Si Si2 0.992511 0.356296 0.788178
Si Si3 0.364079 0.562488 0.603757
Si Si4 0.808791 0.791808 0.607746
Si Si5 0.632814 0.135360 0.397083
Si Si6 0.669431 0.888905 0.290925
Si Si7 0.941865 0.902741 0.711697
O O1 0.329656 0.859651 0.116682
O O2 0.211262 0.988909 0.112718
O O3 0.323711 0.100360 0.181739
O O4 0.312222 0.047477 0.000000
O O5 0.909704 0.336238 0.814924
O O6 0.000000 0.500000 0.743602
O O7 0.047915 0.364022 0.873156
O O8 0.021437 0.236786 0.729419
O O9 0.392947 0.541641 0.500000
O O10 0.344006 0.715687 0.611224
O O11 0.416612 0.540405 0.688992
O O12 0.798410 0.818489 0.500000
O O13 0.735354 0.816501 0.662787
O O14 0.871151 0.878846 0.651791
O O15 0.645312 0.089826 0.500000
O O16 0.670394 0.037125 0.328094
O O17 0.000000 0.000000 0.670724
#
# Coordination Sequence:
#
# PCOD9444515 Si02
#       7
#     8   8   8   8   8   8   8
#     4  10  21  38  61  87 118 154 199 253 307 360
#     4   9  20  36  58  87 118 159 199 250 311 372
#     4   9  18  36  60  87 118 154 194 246 307 364
#     4  11  24  40  60  87 123 165 204 254 309 366
#     4   9  18  34  56  86 124 157 192 248 313 375
#     4  11  21  34  62  88 119 154 209 253 309 367
#     4  11  23  41  61  87 125 165 205 251 309 369
#
# _framework density 20.034371
#
# number of rings (size 3 to 8) (size 9 to 14) (size 15 to 20)
#    0.000    2.000    1.429    3.000    2.000    3.714 
#    0.000    0.714    0.000    6.000    0.000    0.000 
#    0.000    0.000    0.000    0.000    0.000    0.000 
#
# Total GULP energy -312521.193086 kJ/mol
# GULP energy per Si atom -5580.735591 kJ/mol
# Density = 1.998877 g / cm^3
# Si number density = 20.034371 Si / 1000 Ang^3
#
#
#
# Elastic Constant Matrix: (Units=GPa)
#
#
# Indices 1 2 3 4 5 6 
#
# 1 47.0156 17.9206 0.7089 0.0000 0.0000 0.0000
# 2 17.9206 33.9786 15.2643 0.0000 0.0000 0.0000
# 3 0.7089 15.2643 81.3919 0.0000 0.0000 0.0000
# 4 0.0000 0.0000 0.0000 16.3104 0.0000 0.0000
# 5 0.0000 0.0000 0.0000 0.0000 9.8018 0.0000
# 6 0.0000 0.0000 0.0000 0.0000 0.0000 31.8066
#
#
#
# Elastic Compliance Matrix: (Units=1/GPa)
#
#
# Indices 1 2 3 4 5 6 
#
# 1 0.027144 -0.015517 0.002674 0.000000 0.000000 0.000000
# 2 -0.015517 0.041008 -0.007556 0.000000 0.000000 0.000000
# 3 0.002674 -0.007556 0.013680 0.000000 0.000000 0.000000
# 4 0.000000 0.000000 0.000000 0.061311 0.000000 0.000000
# 5 0.000000 0.000000 0.000000 0.000000 0.102022 0.000000
# 6 0.000000 0.000000 0.000000 0.000000 0.000000 0.031440
#
#
# Mechanical properties :
#
#
# Convention : Reuss Voigt Hill
#
# Bulk Modulus (GPa) = 24.36992 25.57485 24.97238
# Shear Modulus (GPa) = 15.10210 20.14991 17.62600
#
# Velocity S-wave (km/s) = 2.74854 3.17482 2.96934
# Velocity P-wave (km/s) = 4.71838 5.12177 4.92421
#
# Compressibility (1/GPa) = 0.04103420
#
# Stress axis : x y z
#
# Youngs Moduli (GPa) = 36.84102 24.38542 73.09986
#
# Poissons Ratio (x) = 0.37838 -0.19544
# Poissons Ratio (y) = 0.57166 0.55231
# Poissons Ratio (z) = -0.09850 0.18424
#
# Static dielectric constant tensor:
#      x y z
#    x 1.700490 0.000000 0.000000 
#    y 0.000000 1.726930 0.000000 
#    z 0.000000 0.000000 1.707870 
# 
# From -- ./inp_files/22227.got.cif
#   From: 2010.05.17/outbox.cif.g08.bks.cpg/sg58_12_cif.got.tgz:22227.got - 2010.06.03 14:20:14.
