data_PCOD9444477
_publ_section_title
;
Structure prediction by ZEFSAII (Michael W. Deem and Ramdas Pophale) SiO2 
 PCOD9444477
Probable space group: P N N M
;
_chemical_formula_sum "Si O2"
_cell_formula_units_Z 52
_cell_length_a 16.385390
_cell_length_b 16.286082
_cell_length_c 7.795092
_cell_angle_alpha 90.000000
_cell_angle_beta 90.000000
_cell_angle_gamma 90.000000
_cell_volume 2080.149962
_symmetry_space_group_name_H-M "P N N M"
_symmetry_group_IT_number 58
_symmetry_cell_setting 'orthorhombic'
loop_
_space_group_symop_operation_xyz
x,y,z
-x,-y,z
1/2+x,1/2-y,1/2-z
1/2-x,1/2+y,1/2-z
-x,-y,-z
x,y,-z
1/2-x,1/2+y,1/2+z
1/2+x,1/2-y,1/2+z
loop_
_atom_site_type_symbol
_atom_site_label
_atom_site_fract_x
_atom_site_fract_y
_atom_site_fract_z
Si Si1 0.807660 0.723703 0.809905
Si Si2 0.544981 0.635531 0.301597
Si Si3 0.062931 0.674844 0.794970
Si Si4 0.658670 0.643193 0.000000
Si Si5 0.906982 0.576673 0.310442
Si Si6 0.867103 0.901717 0.298669
Si Si7 0.798981 0.433848 0.801331
O O1 0.717843 0.689391 0.852741
O O2 0.852282 0.657584 0.694816
O O3 0.824910 0.812038 0.731313
O O4 0.849453 0.723817 0.000000
O O5 0.573041 0.631902 0.500000
O O6 0.539482 0.732867 0.243297
O O7 0.454084 0.598248 0.292454
O O8 0.603196 0.601531 0.153703
O O9 0.994603 0.608440 0.747717
O O10 0.148206 0.640120 0.721891
O O11 0.069553 0.676133 0.000000
O O12 0.911577 0.541462 0.500000
O O13 0.858925 0.511145 0.199021
O O14 0.883520 0.913769 0.500000
O O15 0.790241 0.954952 0.230059
O O16 0.783060 0.413679 0.000000
#
# Coordination Sequence:
#
# PCOD9444477 Si02
#       7
#     8   8   8   4   8   8   8
#     4  10  22  39  61  88 124 164 215 257 320 375
#     4  11  22  39  65  96 132 168 216 268 326 384
#     4  10  21  38  59  88 129 175 212 253 317 392
#     4  10  24  40  64  95 122 172 209 275 315 378
#     4  12  24  38  59  91 128 172 216 263 318 391
#     4  11  21  39  64  94 128 172 214 266 331 384
#     4  10  23  40  61  88 128 171 213 263 321 389
#
# _framework density 24.998194999999999
#
# number of rings (size 3 to 8) (size 9 to 14) (size 15 to 20)
#    0.462    0.923    2.308    3.692    1.077    6.154 
#    0.000    0.000    0.000    1.846    0.000    2.154 
#    0.000    0.000    0.000    0.000    0.000    0.000 
#
# Total GULP energy -289543.287509 kJ/mol
# GULP energy per Si atom -5568.140144 kJ/mol
# Density = 2.494130 g / cm^3
# Si number density = 24.998195 Si / 1000 Ang^3
#
#
#
# Elastic Constant Matrix: (Units=GPa)
#
#
# Indices 1 2 3 4 5 6 
#
# 1 116.2434 37.8995 20.3983 0.0000 0.0000 0.0000
# 2 37.8995 41.4061 15.8199 0.0000 0.0000 0.0000
# 3 20.3983 15.8199 111.3164 0.0000 0.0000 0.0000
# 4 0.0000 0.0000 0.0000 13.0879 0.0000 0.0000
# 5 0.0000 0.0000 0.0000 0.0000 17.8682 0.0000
# 6 0.0000 0.0000 0.0000 0.0000 0.0000 32.8553
#
#
#
# Elastic Compliance Matrix: (Units=1/GPa)
#
#
# Indices 1 2 3 4 5 6 
#
# 1 0.012312 -0.011005 -0.000692 0.000000 0.000000 0.000000
# 2 -0.011005 0.035374 -0.003011 0.000000 0.000000 0.000000
# 3 -0.000692 -0.003011 0.009538 0.000000 0.000000 0.000000
# 4 0.000000 0.000000 0.000000 0.076407 0.000000 0.000000
# 5 0.000000 0.000000 0.000000 0.000000 0.055965 0.000000
# 6 0.000000 0.000000 0.000000 0.000000 0.000000 0.030437
#
#
# Mechanical properties :
#
#
# Convention : Reuss Voigt Hill
#
# Bulk Modulus (GPa) = 35.95971 46.35569 41.15770
# Shear Modulus (GPa) = 19.32605 25.75215 22.53910
#
# Velocity S-wave (km/s) = 2.78348 3.21309 3.00597
# Velocity P-wave (km/s) = 4.97459 5.68763 5.34302
#
# Compressibility (1/GPa) = 0.02780890
#
# Stress axis : x y z
#
# Youngs Moduli (GPa) = 81.22095 28.26919 104.84262
#
# Poissons Ratio (x) = 0.31110 0.07257
# Poissons Ratio (y) = 0.89383 0.31565
# Poissons Ratio (z) = 0.05622 0.08511
#
# Static dielectric constant tensor:
#      x y z
#    x 2.040140 0.000000 0.000000 
#    y 0.000000 2.071690 0.000000 
#    z 0.000000 0.000000 1.932930 
# 
# From -- ./inp_files/7931.got.cif
#   From: 2010.05.17/outbox.cif.g08.bks.cpg/sg58_4_cif.got.tgz:7931.got - 2010.06.03 14:20:14.
