data_PCOD9444821
_publ_section_title
;
Structure prediction by ZEFSAII (Michael W. Deem and Ramdas Pophale) SiO2 
 PCOD9444821
Probable space group: P N N M
;
_chemical_formula_sum "Si O2"
_cell_formula_units_Z 58
_cell_length_a 10.213246
_cell_length_b 14.233610
_cell_length_c 17.838837
_cell_angle_alpha 90.000000
_cell_angle_beta 90.000000
_cell_angle_gamma 90.000000
_cell_volume 2593.256003
_symmetry_space_group_name_H-M "P N N M"
_symmetry_group_IT_number 58
_symmetry_cell_setting 'orthorhombic'
loop_
_space_group_symop_operation_xyz
x,y,z
-x,-y,z
1/2+x,1/2-y,1/2-z
1/2-x,1/2+y,1/2-z
-x,-y,-z
x,y,-z
1/2-x,1/2+y,1/2+z
1/2+x,1/2-y,1/2+z
loop_
_atom_site_type_symbol
_atom_site_label
_atom_site_fract_x
_atom_site_fract_y
_atom_site_fract_z
Si Si1 0.580208 0.281767 0.632364
Si Si2 0.621745 0.062403 0.357274
Si Si3 0.834770 0.922801 0.585642
Si Si4 0.272616 0.904562 0.205617
Si Si5 0.216560 0.775627 0.083554
Si Si6 0.000000 0.500000 0.500000
Si Si7 0.494956 0.390246 0.227483
Si Si8 0.248414 0.052763 0.079797
O O1 0.606906 0.171740 0.623332
O O2 0.434411 0.300938 0.599621
O O3 0.574498 0.320400 0.718077
O O4 0.688419 0.345653 0.593073
O O5 0.626088 0.060064 0.266499
O O6 0.500000 0.000000 0.384721
O O7 0.753745 0.013395 0.387550
O O8 0.879105 0.932108 0.500000
O O9 0.734260 0.835498 0.588780
O O10 0.948170 0.895072 0.643968
O O11 0.306538 0.824928 0.145557
O O12 0.155433 0.863904 0.257612
O O13 0.223358 0.987302 0.150921
O O14 0.256999 0.805406 0.000000
O O15 0.902706 0.453672 0.436009
O O16 0.500000 0.500000 0.251777
O O17 0.190479 0.016052 0.000000
#
# Coordination Sequence:
#
# PCOD9444821 Si02
#       8
#     8   8   8   8   8   2   8   8
#     4  11  22  40  68 100 136 178 235 288 343 427
#     4  12  25  42  65  98 132 181 237 289 352 410
#     4  11  24  44  66  91 135 180 227 294 350 415
#     4  11  23  41  68  96 137 172 231 285 347 434
#     4  10  22  40  66 100 134 179 228 281 352 421
#     4   8  24  40  64 102 146 178 222 278 372 436
#     4  11  21  43  66  97 130 172 234 288 350 427
#     4  10  21  41  67  98 140 180 221 286 359 436
#
# _framework density 22.365704999999998
#
# number of rings (size 3 to 8) (size 9 to 14) (size 15 to 20)
#    0.414    0.828    4.138    1.655    0.966    1.655 
#    0.000    3.448    0.000    0.000    0.000    0.000 
#    0.000    0.000    0.000    0.000    0.000    0.000 
#
# Total GULP energy -323166.657258 kJ/mol
# GULP energy per Si atom -5571.838918 kJ/mol
# Density = 2.231480 g / cm^3
# Si number density = 22.365705 Si / 1000 Ang^3
#
#
#
# Elastic Constant Matrix: (Units=GPa)
#
#
# Indices 1 2 3 4 5 6 
#
# 1 82.9024 23.0752 29.8199 0.0000 0.0000 0.0000
# 2 23.0752 129.9019 16.3414 0.0000 0.0000 0.0000
# 3 29.8199 16.3414 63.6306 0.0000 0.0000 0.0000
# 4 0.0000 0.0000 0.0000 26.1467 0.0000 0.0000
# 5 0.0000 0.0000 0.0000 0.0000 11.2757 0.0000
# 6 0.0000 0.0000 0.0000 0.0000 0.0000 24.3395
#
#
#
# Elastic Compliance Matrix: (Units=1/GPa)
#
#
# Indices 1 2 3 4 5 6 
#
# 1 0.014917 -0.001829 -0.006521 0.000000 0.000000 0.000000
# 2 -0.001829 0.008179 -0.001243 0.000000 0.000000 0.000000
# 3 -0.006521 -0.001243 0.019091 0.000000 0.000000 0.000000
# 4 0.000000 0.000000 0.000000 0.038246 0.000000 0.000000
# 5 0.000000 0.000000 0.000000 0.000000 0.088686 0.000000
# 6 0.000000 0.000000 0.000000 0.000000 0.000000 0.041086
#
#
# Mechanical properties :
#
#
# Convention : Reuss Voigt Hill
#
# Bulk Modulus (GPa) = 43.47780 46.10089 44.78934
# Shear Modulus (GPa) = 21.09177 26.16560 23.62869
#
# Velocity S-wave (km/s) = 3.07423 3.42409 3.25386
# Velocity P-wave (km/s) = 5.66417 6.02408 5.84690
#
# Compressibility (1/GPa) = 0.02300024
#
# Stress axis : x y z
#
# Youngs Moduli (GPa) = 67.03676 122.25691 52.38075
#
# Poissons Ratio (x) = 0.22367 0.34157
# Poissons Ratio (y) = 0.12264 0.06512
# Poissons Ratio (z) = 0.43714 0.15200
#
# Static dielectric constant tensor:
#      x y z
#    x 1.862690 0.000000 0.000000 
#    y 0.000000 1.868450 0.000000 
#    z 0.000000 0.000000 1.856390 
# 
# From -- ./inp_files/26316.got.cif
#   From: 2010.05.17/outbox.cif.g08.bks.cpg/sg58_14_cif.got.tgz:26316.got - 2010.06.03 14:20:14.
