data_PCOD9444474
_publ_section_title
;
Structure prediction by ZEFSAII (Michael W. Deem and Ramdas Pophale) SiO2 
 PCOD9444474
Probable space group: P N N M
;
_chemical_formula_sum "Si O2"
_cell_formula_units_Z 58
_cell_length_a 12.216029
_cell_length_b 29.665240
_cell_length_c 8.949254
_cell_angle_alpha 90.000000
_cell_angle_beta 90.000000
_cell_angle_gamma 90.000000
_cell_volume 3243.132974
_symmetry_space_group_name_H-M "P N N M"
_symmetry_group_IT_number 58
_symmetry_cell_setting 'orthorhombic'
loop_
_space_group_symop_operation_xyz
x,y,z
-x,-y,z
1/2+x,1/2-y,1/2-z
1/2-x,1/2+y,1/2-z
-x,-y,-z
x,y,-z
1/2-x,1/2+y,1/2+z
1/2+x,1/2-y,1/2+z
loop_
_atom_site_type_symbol
_atom_site_label
_atom_site_fract_x
_atom_site_fract_y
_atom_site_fract_z
Si Si1 0.270469 0.386726 0.319998
Si Si2 0.592875 0.178492 0.320975
Si Si3 0.999678 0.859662 0.320131
Si Si4 0.000000 0.500000 0.500000
Si Si5 0.339526 0.164610 0.319868
Si Si6 0.354595 0.717711 0.678817
Si Si7 0.798112 0.921893 0.321558
Si Si8 0.726267 0.012144 0.164387
O O1 0.274086 0.385564 0.500000
O O2 0.171955 0.355637 0.263197
O O3 0.383131 0.368806 0.250979
O O4 0.249867 0.438479 0.271612
O O5 0.604535 0.172113 0.500000
O O6 0.466155 0.170129 0.281974
O O7 0.624094 0.230092 0.286914
O O8 0.006388 0.856894 0.500000
O O9 0.944375 0.814357 0.256309
O O10 0.914885 0.899946 0.280109
O O11 0.097244 0.493414 0.372128
O O12 0.327079 0.169152 0.500000
O O13 0.262080 0.201034 0.240980
O O14 0.292214 0.115577 0.276084
O O15 0.359431 0.711690 0.500000
O O16 0.795567 0.924828 0.500000
O O17 0.771338 0.970150 0.255205
O O18 0.780917 0.010529 0.000000
#
# Coordination Sequence:
#
# PCOD9444474 Si02
#       8
#     8   8   8   2   8   8   8   8
#     4  11  24  39  57  88 120 154 197 244 300 357
#     4  10  23  39  58  84 118 154 195 243 297 353
#     4  10  22  41  62  84 121 157 194 245 302 359
#     4   8  20  40  58  78 124 160 182 240 294 352
#     4   9  20  38  58  83 117 152 194 242 291 352
#     4  10  21  38  59  88 114 150 199 243 293 353
#     4   9  19  36  60  87 110 152 201 241 290 351
#     4   9  21  37  59  83 117 156 192 238 295 347
#
# _framework density 17.883942000000001
#
# number of rings (size 3 to 8) (size 9 to 14) (size 15 to 20)
#    0.414    1.931    0.000    2.069    3.862    6.069 
#    0.000    3.103    0.000    0.000    0.000    0.000 
#    0.000    0.000    0.000    0.000    0.000    0.000 
#
# Total GULP energy -322978.384167 kJ/mol
# GULP energy per Si atom -5568.592830 kJ/mol
# Density = 1.784324 g / cm^3
# Si number density = 17.883942 Si / 1000 Ang^3
#
#
#
# Elastic Constant Matrix: (Units=GPa)
#
#
# Indices 1 2 3 4 5 6 
#
# 1 138.3474 76.4242 50.3347 0.0000 0.0000 0.0000
# 2 76.4242 116.6900 48.2181 0.0000 0.0000 0.0000
# 3 50.3347 48.2181 39.3296 0.0000 0.0000 0.0000
# 4 0.0000 0.0000 0.0000 30.4905 0.0000 0.0000
# 5 0.0000 0.0000 0.0000 0.0000 22.6303 0.0000
# 6 0.0000 0.0000 0.0000 0.0000 0.0000 8.9946
#
#
#
# Elastic Compliance Matrix: (Units=1/GPa)
#
#
# Indices 1 2 3 4 5 6 
#
# 1 0.014252 -0.003642 -0.013774 0.000000 0.000000 0.000000
# 2 -0.003642 0.018300 -0.017774 0.000000 0.000000 0.000000
# 3 -0.013774 -0.017774 0.064845 0.000000 0.000000 0.000000
# 4 0.000000 0.000000 0.000000 0.032797 0.000000 0.000000
# 5 0.000000 0.000000 0.000000 0.000000 0.044188 0.000000
# 6 0.000000 0.000000 0.000000 0.000000 0.000000 0.111177
#
#
# Mechanical properties :
#
#
# Convention : Reuss Voigt Hill
#
# Bulk Modulus (GPa) = 37.01509 71.59122 54.30315
# Shear Modulus (GPa) = 13.70069 20.38243 17.04156
#
# Velocity S-wave (km/s) = 2.77083 3.37962 3.09025
# Velocity P-wave (km/s) = 5.56588 7.43956 6.56986
#
# Compressibility (1/GPa) = 0.02701601
#
# Stress axis : x y z
#
# Youngs Moduli (GPa) = 70.16781 54.64611 15.42130
#
# Poissons Ratio (x) = 0.19903 0.21241
# Poissons Ratio (y) = 0.25556 0.27410
# Poissons Ratio (z) = 0.96650 0.97128
#
# Static dielectric constant tensor:
#      x y z
#    x 1.589570 0.000000 0.000000 
#    y 0.000000 1.600990 0.000000 
#    z 0.000000 0.000000 1.607630 
# 
# From -- ./inp_files/4575.got.cif
#   From: 2010.05.17/outbox.cif.g08.bks.cpg/sg58_3_cif.got.tgz:4575.got - 2010.06.03 14:20:14.
