data_PCOD9444801
_publ_section_title
;
Structure prediction by ZEFSAII (Michael W. Deem and Ramdas Pophale) SiO2 
 PCOD9444801
Probable space group: P N N M
;
_chemical_formula_sum "Si O2"
_cell_formula_units_Z 48
_cell_length_a 9.955802
_cell_length_b 27.197501
_cell_length_c 8.473172
_cell_angle_alpha 90.000000
_cell_angle_beta 90.000000
_cell_angle_gamma 90.000000
_cell_volume 2294.305650
_symmetry_space_group_name_H-M "P N N M"
_symmetry_group_IT_number 58
_symmetry_cell_setting 'orthorhombic'
loop_
_space_group_symop_operation_xyz
x,y,z
-x,-y,z
1/2+x,1/2-y,1/2-z
1/2-x,1/2+y,1/2-z
-x,-y,-z
x,y,-z
1/2-x,1/2+y,1/2+z
1/2+x,1/2-y,1/2+z
loop_
_atom_site_type_symbol
_atom_site_label
_atom_site_fract_x
_atom_site_fract_y
_atom_site_fract_z
Si Si1 0.717974 0.436678 0.810016
Si Si2 0.024414 0.871230 0.313485
Si Si3 0.293690 0.457972 0.315113
Si Si4 0.441331 0.803618 0.310385
Si Si5 0.343407 0.273400 0.312837
Si Si6 0.473450 0.916272 0.308993
O O1 0.622624 0.391047 0.767288
O O2 0.667356 0.486896 0.732394
O O3 0.873083 0.428174 0.768251
O O4 0.709713 0.442229 0.000000
O O5 0.026048 0.860314 0.500000
O O6 0.124160 0.916687 0.279351
O O7 0.075395 0.823345 0.223729
O O8 0.314132 0.449901 0.500000
O O9 0.137560 0.450644 0.269330
O O10 0.448662 0.804619 0.500000
O O11 0.568024 0.772181 0.252463
O O12 0.302708 0.778408 0.262118
O O13 0.443075 0.860239 0.258688
O O14 0.326404 0.268328 0.500000
O O15 0.460119 0.920246 0.500000
#
# Coordination Sequence:
#
# PCOD9444801 Si02
#       6
#     8   8   8   8   8   8
#     4  10  23  40  63  91 119 163 212 252 298 365
#     4  11  23  41  65  90 122 164 208 251 304 366
#     4  12  24  39  61  91 126 162 202 256 311 361
#     4  10  23  42  65  92 124 164 203 247 304 364
#     4  11  24  41  65  96 126 158 203 253 305 360
#     4  10  21  41  65  88 121 164 207 250 297 363
#
# _framework density 20.921361000000001
#
# number of rings (size 3 to 8) (size 9 to 14) (size 15 to 20)
#    0.000    1.333    1.667    3.500    2.333    7.333 
#    0.000    0.000    0.000    0.000    0.000    0.000 
#    0.000    0.000    0.000    0.000    0.000    0.000 
#
# Total GULP energy -268540.695963 kJ/mol
# GULP energy per Si atom -5594.597833 kJ/mol
# Density = 2.087374 g / cm^3
# Si number density = 20.921361 Si / 1000 Ang^3
#
#
#
# Elastic Constant Matrix: (Units=GPa)
#
#
# Indices 1 2 3 4 5 6 
#
# 1 63.6737 0.2750 -2.6621 0.0000 0.0000 0.0000
# 2 0.2750 44.1243 0.3234 0.0000 0.0000 0.0000
# 3 -2.6621 0.3234 4.0009 0.0000 0.0000 0.0000
# 4 0.0000 0.0000 0.0000 17.9868 0.0000 0.0000
# 5 0.0000 0.0000 0.0000 0.0000 6.3514 0.0000
# 6 0.0000 0.0000 0.0000 0.0000 0.0000 39.6147
#
#
#
# Elastic Compliance Matrix: (Units=1/GPa)
#
#
# Indices 1 2 3 4 5 6 
#
# 1 0.016156 -0.000180 0.010764 0.000000 0.000000 0.000000
# 2 -0.000180 0.022679 -0.001953 0.000000 0.000000 0.000000
# 3 0.010764 -0.001953 0.257267 0.000000 0.000000 0.000000
# 4 0.000000 0.000000 0.000000 0.055596 0.000000 0.000000
# 5 0.000000 0.000000 0.000000 0.000000 0.157446 0.000000
# 6 0.000000 0.000000 0.000000 0.000000 0.000000 0.025243
#
#
# Mechanical properties :
#
#
# Convention : Reuss Voigt Hill
#
# Bulk Modulus (GPa) = 3.19116 11.96348 7.57732
# Shear Modulus (GPa) = 8.04405 20.38142 14.21273
#
# Velocity S-wave (km/s) = 1.96297 3.12459 2.60924
# Velocity P-wave (km/s) = 2.58191 4.32991 3.56472
#
# Compressibility (1/GPa) = 0.31336604
#
# Stress axis : x y z
#
# Youngs Moduli (GPa) = 61.89691 44.09428 3.88701
#
# Poissons Ratio (x) = 0.00792 -0.04184
# Poissons Ratio (y) = 0.01111 0.00759
# Poissons Ratio (z) = -0.66629 0.08610
#
# Static dielectric constant tensor:
#      x y z
#    x 1.750640 0.000000 0.000000 
#    y 0.000000 1.737080 0.000000 
#    z 0.000000 0.000000 1.713260 
# 
# From -- ./inp_files/2977.got.cif
#   From: 2010.05.17/outbox.cif.g08.bks.cpg/sg58_2_cif.got.tgz:2977.got - 2010.06.03 14:20:14.
