data_PCOD9444649
_publ_section_title
;
Structure prediction by ZEFSAII (Michael W. Deem and Ramdas Pophale) SiO2 
 PCOD9444649
Probable space group: P N N M
;
_chemical_formula_sum "Si O2"
_cell_formula_units_Z 48
_cell_length_a 9.089484
_cell_length_b 15.364708
_cell_length_c 17.769889
_cell_angle_alpha 90.000000
_cell_angle_beta 90.000000
_cell_angle_gamma 90.000000
_cell_volume 2481.694142
_symmetry_space_group_name_H-M "P N N M"
_symmetry_group_IT_number 58
_symmetry_cell_setting 'orthorhombic'
loop_
_space_group_symop_operation_xyz
x,y,z
-x,-y,z
1/2+x,1/2-y,1/2-z
1/2-x,1/2+y,1/2-z
-x,-y,-z
x,y,-z
1/2-x,1/2+y,1/2+z
1/2+x,1/2-y,1/2+z
loop_
_atom_site_type_symbol
_atom_site_label
_atom_site_fract_x
_atom_site_fract_y
_atom_site_fract_z
Si Si1 0.674302 0.997287 0.680909
Si Si2 0.849518 0.316746 0.655101
Si Si3 0.665507 0.167999 0.588438
Si Si4 0.166490 0.348817 0.411194
Si Si5 0.856766 0.301399 0.166408
Si Si6 0.825464 0.992225 0.839255
O O1 0.697799 0.071804 0.619813
O O2 0.500000 0.000000 0.702274
O O3 0.702427 0.899508 0.652323
O O4 0.769580 0.014680 0.754946
O O5 0.795752 0.233604 0.608906
O O6 0.860335 0.292452 0.743276
O O7 0.732589 0.394844 0.646386
O O8 0.005747 0.350014 0.625872
O O9 0.636848 0.166302 0.500000
O O10 0.520476 0.200977 0.632468
O O11 0.156146 0.333695 0.500000
O O12 0.258129 0.271973 0.371349
O O13 0.248273 0.439256 0.394205
O O14 0.000000 0.000000 0.844466
#
# Coordination Sequence:
#
# PCOD9444649 Si02
#       6
#     8   8   8   8   8   8
#     4   9  20  39  63  89 119 159 202 245 296 355
#     4  11  23  41  62  87 121 163 205 246 296 361
#     4  11  22  37  61  92 125 157 197 251 305 355
#     4  12  25  40  61  90 125 159 196 250 310 359
#     4  10  21  39  63  88 119 161 207 247 290 355
#     4  11  23  40  64  89 115 156 207 253 297 356
#
# _framework density 19.341626000000002
#
# number of rings (size 3 to 8) (size 9 to 14) (size 15 to 20)
#    0.000    1.333    0.000    7.500    0.000   10.000 
#    0.000    0.000    0.000    2.500    0.000    0.000 
#    0.000    0.000    0.000    0.000    0.000    0.000 
#
# Total GULP energy -268447.964966 kJ/mol
# GULP energy per Si atom -5592.665937 kJ/mol
# Density = 1.929760 g / cm^3
# Si number density = 19.341626 Si / 1000 Ang^3
#
#
#
# Elastic Constant Matrix: (Units=GPa)
#
#
# Indices 1 2 3 4 5 6 
#
# 1 56.8901 7.0342 28.9518 0.0000 0.0000 0.0000
# 2 7.0342 47.1115 33.7446 0.0000 0.0000 0.0000
# 3 28.9518 33.7446 87.8136 0.0000 0.0000 0.0000
# 4 0.0000 0.0000 0.0000 13.4650 0.0000 0.0000
# 5 0.0000 0.0000 0.0000 0.0000 21.7639 0.0000
# 6 0.0000 0.0000 0.0000 0.0000 0.0000 21.4376
#
#
#
# Elastic Compliance Matrix: (Units=1/GPa)
#
#
# Indices 1 2 3 4 5 6 
#
# 1 0.021343 0.002557 -0.008019 0.000000 0.000000 0.000000
# 2 0.002557 0.029594 -0.012215 0.000000 0.000000 0.000000
# 3 -0.008019 -0.012215 0.018726 0.000000 0.000000 0.000000
# 4 0.000000 0.000000 0.000000 0.074267 0.000000 0.000000
# 5 0.000000 0.000000 0.000000 0.000000 0.045948 0.000000
# 6 0.000000 0.000000 0.000000 0.000000 0.000000 0.046647
#
#
# Mechanical properties :
#
#
# Convention : Reuss Voigt Hill
#
# Bulk Modulus (GPa) = 29.14801 36.80846 32.97823
# Shear Modulus (GPa) = 17.64826 19.47227 18.56027
#
# Velocity S-wave (km/s) = 3.02396 3.17638 3.10111
# Velocity P-wave (km/s) = 5.22448 5.70303 5.46899
#
# Compressibility (1/GPa) = 0.03430766
#
# Stress axis : x y z
#
# Youngs Moduli (GPa) = 46.85462 33.79072 53.40242
#
# Poissons Ratio (x) = -0.08641 0.42825
# Poissons Ratio (y) = -0.11982 0.65233
# Poissons Ratio (z) = 0.37574 0.41277
#
# Static dielectric constant tensor:
#      x y z
#    x 1.655310 0.000000 0.000000 
#    y 0.000000 1.677960 0.000000 
#    z 0.000000 0.000000 1.638160 
# 
# From -- ./inp_files/19817.got.cif
#   From: 2010.05.17/outbox.cif.g08.bks.cpg/sg58_10_cif.got.tgz:19817.got - 2010.06.03 14:20:14.
