data_PCOD9444611
_publ_section_title
;
Structure prediction by ZEFSAII (Michael W. Deem and Ramdas Pophale) SiO2 
 PCOD9444611
Probable space group: P N N M
;
_chemical_formula_sum "Si O2"
_cell_formula_units_Z 56
_cell_length_a 15.164678
_cell_length_b 20.087804
_cell_length_c 9.240033
_cell_angle_alpha 90.000000
_cell_angle_beta 90.000000
_cell_angle_gamma 90.000000
_cell_volume 2814.745786
_symmetry_space_group_name_H-M "P N N M"
_symmetry_group_IT_number 58
_symmetry_cell_setting 'orthorhombic'
loop_
_space_group_symop_operation_xyz
x,y,z
-x,-y,z
1/2+x,1/2-y,1/2-z
1/2-x,1/2+y,1/2-z
-x,-y,-z
x,y,-z
1/2-x,1/2+y,1/2+z
1/2+x,1/2-y,1/2+z
loop_
_atom_site_type_symbol
_atom_site_label
_atom_site_fract_x
_atom_site_fract_y
_atom_site_fract_z
Si Si1 0.014150 0.183532 0.832680
Si Si2 0.300142 0.187628 0.171855
Si Si3 0.994190 0.682119 0.672591
Si Si4 0.760395 0.041045 0.328209
Si Si5 0.802260 0.176855 0.168016
Si Si6 0.911382 0.542756 0.669349
Si Si7 0.152518 0.075893 0.827816
O O1 0.036667 0.249790 0.744975
O O2 0.066251 0.117966 0.784853
O O3 0.909053 0.175067 0.825760
O O4 0.039730 0.194276 0.000000
O O5 0.402127 0.171092 0.208948
O O6 0.274450 0.253111 0.261792
O O7 0.234321 0.126537 0.196583
O O8 0.297415 0.203052 0.000000
O O9 0.989504 0.688789 0.500000
O O10 0.937482 0.617834 0.711990
O O11 0.765078 0.043273 0.500000
O O12 0.770302 0.113862 0.258354
O O13 0.665605 0.016280 0.270408
O O14 0.831770 0.990822 0.261134
O O15 0.774890 0.172501 0.000000
O O16 0.882863 0.541144 0.500000
O O17 0.000000 0.500000 0.678897
O O18 0.148745 0.060606 0.000000
#
# Coordination Sequence:
#
# PCOD9444611 Si02
#       7
#     8   8   8   8   8   8   8
#     4   9  20  37  59  86 113 149 193 243 296 349
#     4   9  18  35  60  88 118 151 188 235 290 350
#     4   9  18  33  56  85 115 149 188 232 283 346
#     4  12  26  40  57  85 119 156 200 247 296 346
#     4  10  21  39  60  84 118 156 197 242 295 355
#     4  10  21  39  62  87 119 158 196 235 291 358
#     4  10  21  39  61  84 114 152 196 242 299 359
#
# _framework density 19.895226000000001
#
# number of rings (size 3 to 8) (size 9 to 14) (size 15 to 20)
#    0.000    2.143    0.000    2.571    2.000    5.429 
#    0.000    5.714    0.000    0.000    0.000    0.000 
#    0.000    0.000    0.000    0.000    0.000    0.000 
#
# Total GULP energy -312929.262952 kJ/mol
# GULP energy per Si atom -5588.022553 kJ/mol
# Density = 1.984994 g / cm^3
# Si number density = 19.895226 Si / 1000 Ang^3
#
#
#
# Elastic Constant Matrix: (Units=GPa)
#
#
# Indices 1 2 3 4 5 6 
#
# 1 22.6368 0.4885 12.9588 0.0000 0.0000 0.0000
# 2 0.4885 68.4324 38.6452 0.0000 0.0000 0.0000
# 3 12.9588 38.6452 62.4497 0.0000 0.0000 0.0000
# 4 0.0000 0.0000 0.0000 30.3944 0.0000 0.0000
# 5 0.0000 0.0000 0.0000 0.0000 -3.1520 0.0000
# 6 0.0000 0.0000 0.0000 0.0000 0.0000 27.2981
#
#
#
# Elastic Compliance Matrix: (Units=1/GPa)
#
#
# Indices 1 2 3 4 5 6 
#
# 1 0.053551 0.009059 -0.016718 0.000000 0.000000 0.000000
# 2 0.009059 0.023995 -0.016728 0.000000 0.000000 0.000000
# 3 -0.016718 -0.016728 0.029834 0.000000 0.000000 0.000000
# 4 0.000000 0.000000 0.000000 0.032901 0.000000 0.000000
# 5 0.000000 0.000000 0.000000 0.000000 -0.317256 0.000000
# 6 0.000000 0.000000 0.000000 0.000000 0.000000 0.036633
#
#
# Mechanical properties :
#
#
# Convention : Reuss Voigt Hill
#
# Bulk Modulus (GPa) = 17.06354 28.63376 22.84865
# Shear Modulus (GPa) = -69.41318 17.66987 -25.87165
#
# Velocity S-wave (km/s) = -5.91313 2.98341 -3.61001
# Velocity P-wave (km/s) = 6.16643 5.12749 2.42215
#
# Compressibility (1/GPa) = 0.05860449
#
# Stress axis : x y z
#
# Youngs Moduli (GPa) = 18.67387 41.67497 33.51887
#
# Poissons Ratio (x) = -0.37752 0.56037
# Poissons Ratio (y) = -0.16916 0.56072
# Poissons Ratio (z) = 0.31219 0.69716
#
# Static dielectric constant tensor:
#      x y z
#    x 1.743850 0.000000 0.000000 
#    y 0.000000 1.684520 0.000000 
#    z 0.000000 0.000000 1.660430 
# 
# From -- ./inp_files/6268.got.cif
#   From: 2010.05.17/outbox.cif.g08.bks.cpg/sg58_4_cif.got.tgz:6268.got - 2010.06.03 14:20:14.
