data_PCOD9444551
_publ_section_title
;
Structure prediction by ZEFSAII (Michael W. Deem and Ramdas Pophale) SiO2 
 PCOD9444551
Probable space group: P N N M
;
_chemical_formula_sum "Si O2"
_cell_formula_units_Z 48
_cell_length_a 17.649095
_cell_length_b 9.426518
_cell_length_c 13.881660
_cell_angle_alpha 90.000000
_cell_angle_beta 90.000000
_cell_angle_gamma 90.000000
_cell_volume 2309.484996
_symmetry_space_group_name_H-M "P N N M"
_symmetry_group_IT_number 58
_symmetry_cell_setting 'orthorhombic'
loop_
_space_group_symop_operation_xyz
x,y,z
-x,-y,z
1/2+x,1/2-y,1/2-z
1/2-x,1/2+y,1/2-z
-x,-y,-z
x,y,-z
1/2-x,1/2+y,1/2+z
1/2+x,1/2-y,1/2+z
loop_
_atom_site_type_symbol
_atom_site_label
_atom_site_fract_x
_atom_site_fract_y
_atom_site_fract_z
Si Si1 0.328914 0.192568 0.105973
Si Si2 0.693519 0.530462 0.390053
Si Si3 0.662613 0.813653 0.315285
Si Si4 0.429455 0.599995 0.735785
Si Si5 0.803577 0.969460 0.609822
Si Si6 0.998018 0.331373 0.891564
O O1 0.252979 0.098305 0.116289
O O2 0.369091 0.163262 0.207568
O O3 0.314097 0.360877 0.106557
O O4 0.362331 0.157901 0.000000
O O5 0.693626 0.577541 0.500000
O O6 0.709769 0.666521 0.323435
O O7 0.613532 0.473496 0.353433
O O8 0.720743 0.932618 0.349329
O O9 0.590633 0.794806 0.382940
O O10 0.500000 0.500000 0.764121
O O11 0.367856 0.598241 0.821414
O O12 0.458193 0.747813 0.692223
O O13 0.809577 0.916057 0.500000
O O14 0.000000 0.500000 0.879001
O O15 0.026107 0.296917 0.000000
#
# Coordination Sequence:
#
# PCOD9444551 Si02
#       6
#     8   8   8   8   8   8
#     4  10  21  38  62  93 123 158 207 256 312 377
#     4  11  22  36  61  92 124 163 204 258 317 379
#     4  12  21  42  62  93 128 162 210 269 320 378
#     4  12  23  41  63  91 130 170 210 266 321 388
#     4  11  24  41  65  94 126 170 216 263 319 384
#     4  11  26  42  62  93 129 170 213 266 328 386
#
# _framework density 20.783854999999999
#
# number of rings (size 3 to 8) (size 9 to 14) (size 15 to 20)
#    0.000    0.833    5.000    2.000    2.333    2.333 
#    0.000    0.833    0.000    1.000    0.000    0.000 
#    0.000    0.000    0.000    0.000    0.000    0.000 
#
# Total GULP energy -267854.741713 kJ/mol
# GULP energy per Si atom -5580.307119 kJ/mol
# Density = 2.073655 g / cm^3
# Si number density = 20.783855 Si / 1000 Ang^3
#
#
#
# Elastic Constant Matrix: (Units=GPa)
#
#
# Indices 1 2 3 4 5 6 
#
# 1 14.7647 14.7425 2.1457 0.0000 0.0000 0.0000
# 2 14.7425 60.5563 22.7958 0.0000 0.0000 0.0000
# 3 2.1457 22.7958 141.2716 0.0000 0.0000 0.0000
# 4 0.0000 0.0000 0.0000 22.5582 0.0000 0.0000
# 5 0.0000 0.0000 0.0000 0.0000 25.9844 0.0000
# 6 0.0000 0.0000 0.0000 0.0000 0.0000 27.9055
#
#
#
# Elastic Compliance Matrix: (Units=1/GPa)
#
#
# Indices 1 2 3 4 5 6 
#
# 1 0.090185 -0.022826 0.002314 0.000000 0.000000 0.000000
# 2 -0.022826 0.023359 -0.003423 0.000000 0.000000 0.000000
# 3 0.002314 -0.003423 0.007596 0.000000 0.000000 0.000000
# 4 0.000000 0.000000 0.000000 0.044330 0.000000 0.000000
# 5 0.000000 0.000000 0.000000 0.000000 0.038485 0.000000
# 6 0.000000 0.000000 0.000000 0.000000 0.000000 0.035835
#
#
# Mechanical properties :
#
#
# Convention : Reuss Voigt Hill
#
# Bulk Modulus (GPa) = 13.64840 32.88449 23.26645
# Shear Modulus (GPa) = 16.02137 27.08353 21.55245
#
# Velocity S-wave (km/s) = 2.77944 3.61377 3.22371
# Velocity P-wave (km/s) = 4.10871 5.76792 5.00751
#
# Compressibility (1/GPa) = 0.07326868
#
# Stress axis : x y z
#
# Youngs Moduli (GPa) = 11.08833 42.80992 131.65351
#
# Poissons Ratio (x) = 0.97720 -0.30459
# Poissons Ratio (y) = 0.25311 0.45059
# Poissons Ratio (z) = -0.02565 0.14652
#
# Static dielectric constant tensor:
#      x y z
#    x 1.729390 0.000000 0.000000 
#    y 0.000000 1.819770 0.000000 
#    z 0.000000 0.000000 1.779770 
# 
# From -- ./inp_files/19844.got.cif
#   From: 2010.05.17/outbox.cif.g08.bks.cpg/sg58_10_cif.got.tgz:19844.got - 2010.06.03 14:20:14.
