data_PCOD9444374
_publ_section_title
;
Structure prediction by ZEFSAII (Michael W. Deem and Ramdas Pophale) SiO2 
 PCOD9444374
Probable space group: P N N M
;
_chemical_formula_sum "Si O2"
_cell_formula_units_Z 56
_cell_length_a 13.925396
_cell_length_b 19.760804
_cell_length_c 7.729793
_cell_angle_alpha 90.000000
_cell_angle_beta 90.000000
_cell_angle_gamma 90.000000
_cell_volume 2127.061411
_symmetry_space_group_name_H-M "P N N M"
_symmetry_group_IT_number 58
_symmetry_cell_setting 'orthorhombic'
loop_
_space_group_symop_operation_xyz
x,y,z
-x,-y,z
1/2+x,1/2-y,1/2-z
1/2-x,1/2+y,1/2-z
-x,-y,-z
x,y,-z
1/2-x,1/2+y,1/2+z
1/2+x,1/2-y,1/2+z
loop_
_atom_site_type_symbol
_atom_site_label
_atom_site_fract_x
_atom_site_fract_y
_atom_site_fract_z
Si Si1 0.061178 0.213817 0.208215
Si Si2 0.035427 0.069819 0.202596
Si Si3 0.281580 0.499990 0.788633
Si Si4 0.914733 0.641153 0.691350
Si Si5 0.703381 0.646076 0.197095
Si Si6 0.901099 0.428184 0.199918
Si Si7 0.711517 0.793350 0.790310
O O1 0.012596 0.144295 0.272038
O O2 0.033298 0.285939 0.285189
O O3 0.174768 0.206071 0.248233
O O4 0.051368 0.217197 0.000000
O O5 0.149739 0.058017 0.217501
O O6 0.010161 0.069917 0.000000
O O7 0.000000 0.000000 0.288086
O O8 0.320151 0.427183 0.725026
O O9 0.173453 0.516292 0.730441
O O10 0.282925 0.500996 0.000000
O O11 0.874535 0.637200 0.500000
O O12 0.820880 0.642112 0.809833
O O13 0.995867 0.585277 0.718280
O O14 0.677848 0.718948 0.274764
O O15 0.669966 0.646129 0.000000
O O16 0.842773 0.357331 0.213696
O O17 0.918200 0.443362 0.000000
O O18 0.701397 0.795495 0.000000
#
# Coordination Sequence:
#
# PCOD9444374 Si02
#       7
#     8   8   8   8   8   8   8
#     4   9  18  36  58  80 112 149 184 230 288 341
#     4  10  21  37  59  87 119 154 190 234 290 345
#     4  10  22  39  60  85 115 156 196 236 287 348
#     4  11  23  37  57  85 113 148 196 244 289 339
#     4   9  20  40  60  82 118 155 191 236 294 346
#     4  11  22  36  57  84 115 151 194 238 288 347
#     4   9  17  33  58  81 106 147 190 235 284 337
#
# _framework density 26.327400000000001
#
# number of rings (size 3 to 8) (size 9 to 14) (size 15 to 20)
#    0.000    2.143    1.429    2.571    0.000    6.000 
#    0.000    5.714    0.000    0.000    0.000    0.000 
#    0.000    0.000    0.000    0.000    0.000    0.000 
#
# Total GULP energy -313330.659637 kJ/mol
# GULP energy per Si atom -5595.190351 kJ/mol
# Density = 2.626748 g / cm^3
# Si number density = 26.327400 Si / 1000 Ang^3
#
#
#
# Elastic Constant Matrix: (Units=GPa)
#
#
# Indices 1 2 3 4 5 6 
#
# 1 79.9090 12.5916 17.2433 0.0000 0.0000 0.0000
# 2 12.5916 134.9562 2.0967 0.0000 0.0000 0.0000
# 3 17.2433 2.0967 75.2979 0.0000 0.0000 0.0000
# 4 0.0000 0.0000 0.0000 -10.3933 0.0000 0.0000
# 5 0.0000 0.0000 0.0000 0.0000 30.5524 0.0000
# 6 0.0000 0.0000 0.0000 0.0000 0.0000 60.2884
#
#
#
# Elastic Compliance Matrix: (Units=1/GPa)
#
#
# Indices 1 2 3 4 5 6 
#
# 1 0.013356 -0.001199 -0.003025 0.000000 0.000000 0.000000
# 2 -0.001199 0.007521 0.000065 0.000000 0.000000 0.000000
# 3 -0.003025 0.000065 0.013972 0.000000 0.000000 0.000000
# 4 0.000000 0.000000 0.000000 -0.096216 0.000000 0.000000
# 5 0.000000 0.000000 0.000000 0.000000 0.032731 0.000000
# 6 0.000000 0.000000 0.000000 0.000000 0.000000 0.016587
#
#
# Mechanical properties :
#
#
# Convention : Reuss Voigt Hill
#
# Bulk Modulus (GPa) = 37.69319 39.33627 38.51473
# Shear Modulus (GPa) = 978.25926 33.30494 505.78210
#
# Velocity S-wave (km/s) = 19.29718 3.56058 13.87550
# Velocity P-wave (km/s) = 22.60213 5.64600 16.47322
#
# Compressibility (1/GPa) = 0.02652999
#
# Stress axis : x y z
#
# Youngs Moduli (GPa) = 74.87289 132.96668 71.57408
#
# Poissons Ratio (x) = 0.15945 0.21652
# Poissons Ratio (y) = 0.08978 -0.00467
# Poissons Ratio (z) = 0.22650 -0.00867
#
# Static dielectric constant tensor:
#      x y z
#    x 2.161220 0.000000 0.000000 
#    y 0.000000 2.095070 0.000000 
#    z 0.000000 0.000000 1.923440 
# 
# From -- ./inp_files/6478.got.cif
#   From: 2010.05.17/outbox.cif.g08.bks.cpg/sg58_4_cif.got.tgz:6478.got - 2010.06.03 14:20:14.
