data_PCOD9444306
_publ_section_title
;
Structure prediction by ZEFSAII (Michael W. Deem and Ramdas Pophale) SiO2 
 PCOD9444306
Probable space group: P N N M
;
_chemical_formula_sum "Si O2"
_cell_formula_units_Z 48
_cell_length_a 15.684746
_cell_length_b 9.409338
_cell_length_c 18.520362
_cell_angle_alpha 90.000000
_cell_angle_beta 90.000000
_cell_angle_gamma 90.000000
_cell_volume 2733.292003
_symmetry_space_group_name_H-M "P N N M"
_symmetry_group_IT_number 58
_symmetry_cell_setting 'orthorhombic'
loop_
_space_group_symop_operation_xyz
x,y,z
-x,-y,z
1/2+x,1/2-y,1/2-z
1/2-x,1/2+y,1/2-z
-x,-y,-z
x,y,-z
1/2-x,1/2+y,1/2+z
1/2+x,1/2-y,1/2+z
loop_
_atom_site_type_symbol
_atom_site_label
_atom_site_fract_x
_atom_site_fract_y
_atom_site_fract_z
Si Si1 0.923653 0.107710 0.085407
Si Si2 0.081700 0.596407 0.165589
Si Si3 0.915979 0.407258 0.337840
Si Si4 0.730305 0.084029 0.914525
Si Si5 0.745767 0.418097 0.086080
Si Si6 0.578842 0.602799 0.913460
O O1 0.933122 0.248378 0.132270
O O2 0.829274 0.045480 0.099236
O O3 0.925129 0.145546 0.000000
O O4 0.000000 0.000000 0.099633
O O5 0.091787 0.604093 0.251595
O O6 0.169116 0.542423 0.129201
O O7 0.000000 0.500000 0.148852
O O8 0.834924 0.489630 0.370117
O O9 0.924330 0.252017 0.372796
O O10 0.000000 0.500000 0.354599
O O11 0.723162 0.252831 0.897884
O O12 0.713237 0.066209 0.000000
O O13 0.666423 0.519378 0.102449
O O14 0.762754 0.424623 0.000000
O O15 0.500000 0.500000 0.894473
O O16 0.574989 0.627730 0.000000
#
# Coordination Sequence:
#
# PCOD9444306 Si02
#       6
#     8   8   8   8   8   8
#     4   9  19  37  60  83 107 138 177 221 267 313
#     4  10  22  37  53  78 112 146 177 213 262 318
#     4  11  23  36  52  78 110 144 180 216 261 317
#     4   9  18  35  57  79 105 137 175 220 266 312
#     4   9  19  36  57  80 105 136 176 221 268 314
#     4  10  21  37  57  80 105 137 179 224 268 314
#
# _framework density 17.561242
#
# number of rings (size 3 to 8) (size 9 to 14) (size 15 to 20)
#    0.000    2.333    0.000    3.000    0.000    8.667 
#    0.000    6.667    0.000    0.000    0.000    0.000 
#    0.000    0.000    0.000    0.000    0.000    0.000 
#
# Total GULP energy -267933.363730 kJ/mol
# GULP energy per Si atom -5581.945078 kJ/mol
# Density = 1.752127 g / cm^3
# Si number density = 17.561242 Si / 1000 Ang^3
#
#
#
# Elastic Constant Matrix: (Units=GPa)
#
#
# Indices 1 2 3 4 5 6 
#
# 1 180.1526 114.8186 93.3658 0.0000 0.0000 0.0000
# 2 114.8186 116.2934 70.9121 0.0000 0.0000 0.0000
# 3 93.3658 70.9121 64.1420 0.0000 0.0000 0.0000
# 4 0.0000 0.0000 0.0000 -43.7970 0.0000 0.0000
# 5 0.0000 0.0000 0.0000 0.0000 26.2482 0.0000
# 6 0.0000 0.0000 0.0000 0.0000 0.0000 34.3035
#
#
#
# Elastic Compliance Matrix: (Units=1/GPa)
#
#
# Indices 1 2 3 4 5 6 
#
# 1 0.024571 -0.007520 -0.027452 0.000000 0.000000 0.000000
# 2 -0.007520 0.028689 -0.020771 0.000000 0.000000 0.000000
# 3 -0.027452 -0.020771 0.078513 0.000000 0.000000 0.000000
# 4 0.000000 0.000000 0.000000 -0.022833 0.000000 0.000000
# 5 0.000000 0.000000 0.000000 0.000000 0.038098 0.000000
# 6 0.000000 0.000000 0.000000 0.000000 0.000000 0.029152
#
#
# Mechanical properties :
#
#
# Convention : Reuss Voigt Hill
#
# Bulk Modulus (GPa) = 49.29212 102.08678 75.68945
# Shear Modulus (GPa) = 16.98150 8.78370 12.88260
#
# Velocity S-wave (km/s) = 3.11302 2.23889 2.71141
# Velocity P-wave (km/s) = 6.40709 8.05863 7.27985
#
# Compressibility (1/GPa) = 0.02028722
#
# Stress axis : x y z
#
# Youngs Moduli (GPa) = 40.69863 34.85664 12.73670
#
# Poissons Ratio (x) = 0.26212 0.34965
# Poissons Ratio (y) = 0.30605 0.26455
# Poissons Ratio (z) = 1.11726 0.72401
#
# Static dielectric constant tensor:
#      x y z
#    x 1.593460 0.000000 0.000000 
#    y 0.000000 1.569050 0.000000 
#    z 0.000000 0.000000 1.579570 
# 
# From -- ./inp_files/25253.got.cif
#   From: 2010.05.17/outbox.cif.g08.bks.cpg/sg58_13_cif.got.tgz:25253.got - 2010.06.03 14:20:14.
