data_PCOD9444475
_publ_section_title
;
Structure prediction by ZEFSAII (Michael W. Deem and Ramdas Pophale) SiO2 
 PCOD9444475
Probable space group: P N N M
;
_chemical_formula_sum "Si O2"
_cell_formula_units_Z 56
_cell_length_a 11.179804
_cell_length_b 14.810537
_cell_length_c 16.330746
_cell_angle_alpha 90.000000
_cell_angle_beta 90.000000
_cell_angle_gamma 90.000000
_cell_volume 2704.026972
_symmetry_space_group_name_H-M "P N N M"
_symmetry_group_IT_number 58
_symmetry_cell_setting 'orthorhombic'
loop_
_space_group_symop_operation_xyz
x,y,z
-x,-y,z
1/2+x,1/2-y,1/2-z
1/2-x,1/2+y,1/2-z
-x,-y,-z
x,y,-z
1/2-x,1/2+y,1/2+z
1/2+x,1/2-y,1/2+z
loop_
_atom_site_type_symbol
_atom_site_label
_atom_site_fract_x
_atom_site_fract_y
_atom_site_fract_z
Si Si1 0.607577 0.689021 0.207472
Si Si2 0.346631 0.068153 0.409711
Si Si3 0.936058 0.902323 0.408603
Si Si4 0.833016 0.578737 0.772377
Si Si5 0.008646 0.272451 0.854918
Si Si6 0.643234 0.016066 0.089350
Si Si7 0.750700 0.817351 0.909389
O O1 0.488103 0.662365 0.160214
O O2 0.699884 0.606765 0.201504
O O3 0.578963 0.712494 0.300395
O O4 0.672579 0.770536 0.160773
O O5 0.363321 0.023661 0.500000
O O6 0.206516 0.091632 0.403690
O O7 0.429517 0.156818 0.406075
O O8 0.369670 0.003816 0.331701
O O9 0.967797 0.869262 0.500000
O O10 0.000000 0.000000 0.400284
O O11 0.918004 0.662436 0.793428
O O12 0.833492 0.562836 0.675787
O O13 0.110862 0.211671 0.897236
O O14 0.718378 0.922789 0.092707
O O15 0.500000 0.000000 0.088781
O O16 0.671509 0.059347 0.000000
O O17 0.715056 0.783449 0.000000
#
# Coordination Sequence:
#
# PCOD9444475 Si02
#       7
#     8   8   8   8   8   8   8
#     4  11  23  37  61  87 124 163 207 260 318 384
#     4  11  23  40  64  93 128 165 208 264 321 391
#     4  10  21  38  59  88 122 159 210 263 315 376
#     4  11  23  39  64  91 119 165 212 261 312 388
#     4  11  25  39  60  94 130 165 205 260 331 392
#     4  10  21  41  66  90 120 161 215 269 309 368
#     4  10  22  40  63  89 123 164 211 264 320 382
#
# _framework density 20.709852000000001
#
# number of rings (size 3 to 8) (size 9 to 14) (size 15 to 20)
#    0.000    1.429    1.429    3.857    6.000    3.429 
#    0.000    2.143    0.000    1.714    0.000    0.000 
#    0.000    0.000    0.000    0.000    0.000    0.000 
#
# Total GULP energy -312559.147843 kJ/mol
# GULP energy per Si atom -5581.413354 kJ/mol
# Density = 2.066272 g / cm^3
# Si number density = 20.709852 Si / 1000 Ang^3
#
#
#
# Elastic Constant Matrix: (Units=GPa)
#
#
# Indices 1 2 3 4 5 6 
#
# 1 103.2189 24.7432 8.7654 0.0000 0.0000 0.0000
# 2 24.7432 32.9755 13.4647 0.0000 0.0000 0.0000
# 3 8.7654 13.4647 103.6368 0.0000 0.0000 0.0000
# 4 0.0000 0.0000 0.0000 -702.0430 0.0000 0.0000
# 5 0.0000 0.0000 0.0000 0.0000 -204.6061 0.0000
# 6 0.0000 0.0000 0.0000 0.0000 0.0000 24.4331
#
#
#
# Elastic Compliance Matrix: (Units=1/GPa)
#
#
# Indices 1 2 3 4 5 6 
#
# 1 0.011816 -0.008932 0.000161 0.000000 0.000000 0.000000
# 2 -0.008932 0.038776 -0.004282 0.000000 0.000000 0.000000
# 3 0.000161 -0.004282 0.010192 0.000000 0.000000 0.000000
# 4 0.000000 0.000000 0.000000 -0.001424 0.000000 0.000000
# 5 0.000000 0.000000 0.000000 0.000000 -0.004887 0.000000
# 6 0.000000 0.000000 0.000000 0.000000 0.000000 0.040928
#
#
# Mechanical properties :
#
#
# Convention : Reuss Voigt Hill
#
# Bulk Modulus (GPa) = 28.83714 37.08641 32.96178
# Shear Modulus (GPa) = 37.57570 -163.58601 -63.00516
#
# Velocity S-wave (km/s) = 4.26418 -8.89724 -5.52167
# Velocity P-wave (km/s) = 6.18053 9.35956 4.97003
#
# Compressibility (1/GPa) = 0.03467750
#
# Stress axis : x y z
#
# Youngs Moduli (GPa) = 84.63451 25.78913 98.11767
#
# Poissons Ratio (x) = 0.23034 -0.01580
# Poissons Ratio (y) = 0.75592 0.42018
# Poissons Ratio (z) = -0.01363 0.11044
#
# Static dielectric constant tensor:
#      x y z
#    x 1.744060 0.000000 0.000000 
#    y 0.000000 1.760750 0.000000 
#    z 0.000000 0.000000 1.757990 
# 
# From -- ./inp_files/21258.got.cif
#   From: 2010.05.17/outbox.cif.g08.bks.cpg/sg58_11_cif.got.tgz:21258.got - 2010.06.03 14:20:14.
