data_PCOD9444653
_publ_section_title
;
Structure prediction by ZEFSAII (Michael W. Deem and Ramdas Pophale) SiO2 
 PCOD9444653
Probable space group: P N N M
;
_chemical_formula_sum "Si O2"
_cell_formula_units_Z 32
_cell_length_a 14.300951
_cell_length_b 12.716534
_cell_length_c 8.908319
_cell_angle_alpha 90.000000
_cell_angle_beta 90.000000
_cell_angle_gamma 90.000000
_cell_volume 1620.053795
_symmetry_space_group_name_H-M "P N N M"
_symmetry_group_IT_number 58
_symmetry_cell_setting 'orthorhombic'
loop_
_space_group_symop_operation_xyz
x,y,z
-x,-y,z
1/2+x,1/2-y,1/2-z
1/2-x,1/2+y,1/2-z
-x,-y,-z
x,y,-z
1/2-x,1/2+y,1/2+z
1/2+x,1/2-y,1/2+z
loop_
_atom_site_type_symbol
_atom_site_label
_atom_site_fract_x
_atom_site_fract_y
_atom_site_fract_z
Si Si1 0.907742 0.233146 0.180759
Si Si2 0.217563 0.949910 0.677931
Si Si3 0.105600 0.539559 0.676907
Si Si4 0.075776 0.095318 0.171589
O O1 0.836256 0.147622 0.246970
O O2 0.887270 0.346313 0.247822
O O3 0.013306 0.194239 0.220545
O O4 0.901893 0.232391 0.000000
O O5 0.218030 0.938434 0.500000
O O6 0.320582 0.963427 0.743564
O O7 0.159037 0.054470 0.725300
O O8 0.126854 0.545867 0.500000
O O9 0.000000 0.500000 0.695425
O O10 0.108947 0.110202 0.000000
O O11 0.000000 0.000000 0.168719
#
# Coordination Sequence:
#
# PCOD9444653 Si02
#       4
#     8   8   8   8
#     4  10  21  39  63  89 119 155 196 244 297 350
#     4  11  22  37  61  90 121 157 198 243 292 352
#     4  11  25  43  61  84 118 157 199 247 296 350
#     4   8  16  33  57  85 117 150 189 240 289 338
#
# _framework density 19.752431999999999
#
# number of rings (size 3 to 8) (size 9 to 14) (size 15 to 20)
#    0.000    2.000    0.000    5.250    0.000    9.500 
#    0.000    5.000    0.000    0.000    0.000    0.000 
#    0.000    0.000    0.000    0.000    0.000    0.000 
#
# Total GULP energy -178788.527517 kJ/mol
# GULP energy per Si atom -5587.141485 kJ/mol
# Density = 1.970747 g / cm^3
# Si number density = 19.752432 Si / 1000 Ang^3
#
#
#
# Elastic Constant Matrix: (Units=GPa)
#
#
# Indices 1 2 3 4 5 6 
#
# 1 75.1404 20.4995 53.8875 0.0000 0.0000 0.0000
# 2 20.4995 76.3037 36.4324 0.0000 0.0000 0.0000
# 3 53.8875 36.4324 115.9914 0.0000 0.0000 0.0000
# 4 0.0000 0.0000 0.0000 -1.7623 0.0000 0.0000
# 5 0.0000 0.0000 0.0000 0.0000 24.5714 0.0000
# 6 0.0000 0.0000 0.0000 0.0000 0.0000 20.9507
#
#
#
# Elastic Compliance Matrix: (Units=1/GPa)
#
#
# Indices 1 2 3 4 5 6 
#
# 1 0.020037 -0.001104 -0.008962 0.000000 0.000000 0.000000
# 2 -0.001104 0.015479 -0.004349 0.000000 0.000000 0.000000
# 3 -0.008962 -0.004349 0.014151 0.000000 0.000000 0.000000
# 4 0.000000 0.000000 0.000000 -0.567445 0.000000 0.000000
# 5 0.000000 0.000000 0.000000 0.000000 0.040698 0.000000
# 6 0.000000 0.000000 0.000000 0.000000 0.000000 0.047731
#
#
# Mechanical properties :
#
#
# Convention : Reuss Voigt Hill
#
# Bulk Modulus (GPa) = 47.99258 54.34157 51.16707
# Shear Modulus (GPa) = -12.70406 19.19304 3.24449
#
# Velocity S-wave (km/s) = -2.53882 3.12056 1.28302
# Velocity P-wave (km/s) = 3.96934 6.36827 5.30616
#
# Compressibility (1/GPa) = 0.02083656
#
# Stress axis : x y z
#
# Youngs Moduli (GPa) = 49.90842 64.60561 70.66724
#
# Poissons Ratio (x) = 0.07132 0.63331
# Poissons Ratio (y) = 0.05510 0.30732
# Poissons Ratio (z) = 0.44728 0.28096
#
# Static dielectric constant tensor:
#      x y z
#    x 1.704730 0.000000 0.000000 
#    y 0.000000 1.722520 0.000000 
#    z 0.000000 0.000000 1.654140 
# 
# From -- ./inp_files/3485.got.cif
#   From: 2010.05.17/outbox.cif.g08.bks.cpg/sg58_2_cif.got.tgz:3485.got - 2010.06.03 14:20:14.
