data_PCOD9444050
_publ_section_title
;
Structure prediction by ZEFSAII (Michael W. Deem and Ramdas Pophale) SiO2 
 PCOD9444050
Probable space group: P N N M
;
_chemical_formula_sum "Si O2"
_cell_formula_units_Z 64
_cell_length_a 8.044761
_cell_length_b 27.307321
_cell_length_c 14.907349
_cell_angle_alpha 90.000000
_cell_angle_beta 90.000000
_cell_angle_gamma 90.000000
_cell_volume 3274.859413
_symmetry_space_group_name_H-M "P N N M"
_symmetry_group_IT_number 58
_symmetry_cell_setting 'orthorhombic'
loop_
_space_group_symop_operation_xyz
x,y,z
-x,-y,z
1/2+x,1/2-y,1/2-z
1/2-x,1/2+y,1/2-z
-x,-y,-z
x,y,-z
1/2-x,1/2+y,1/2+z
1/2+x,1/2-y,1/2+z
loop_
_atom_site_type_symbol
_atom_site_label
_atom_site_fract_x
_atom_site_fract_y
_atom_site_fract_z
Si Si1 0.553376 0.216090 0.901873
Si Si2 0.314765 0.680111 0.100488
Si Si3 0.711214 0.086807 0.393828
Si Si4 0.672404 0.264653 0.600472
Si Si5 0.836905 0.679681 0.233051
Si Si6 0.841413 0.420489 0.102325
Si Si7 0.985250 0.844045 0.212375
Si Si8 0.522495 0.446124 0.781120
O O1 0.686347 0.260853 0.892043
O O2 0.371700 0.241088 0.902585
O O3 0.543549 0.178966 0.818706
O O4 0.580064 0.193365 0.000000
O O5 0.165952 0.639946 0.105041
O O6 0.418306 0.665090 0.187052
O O7 0.387206 0.671383 0.000000
O O8 0.730071 0.095981 0.500000
O O9 0.690963 0.135721 0.335069
O O10 0.529634 0.062233 0.380920
O O11 0.873817 0.060720 0.354168
O O12 0.607081 0.256194 0.500000
O O13 0.613005 0.226191 0.674240
O O14 0.625152 0.317931 0.637798
O O15 0.662182 0.682146 0.285545
O O16 0.700118 0.439559 0.169145
O O17 0.797214 0.434239 0.000000
O O18 0.996870 0.902585 0.209037
O O19 0.500000 0.500000 0.742701
#
# Coordination Sequence:
#
# PCOD9444050 Si02
#       8
#     8   8   8   8   8   8   8   8
#     4  10  21  33  51  76 111 154 192 227 275 333
#     4   9  16  30  50  74 109 151 185 219 270 328
#     4  10  22  36  54  87 121 154 196 235 282 348
#     4  11  21  34  53  80 111 149 191 234 277 336
#     4  11  20  33  52  79 116 153 186 225 281 335
#     4   9  19  33  53  79 110 148 187 233 281 336
#     4  10  21  35  54  79 111 146 188 235 280 341
#     4  10  22  39  59  80 111 153 197 244 299 344
#
# _framework density 19.542822999999999
#
# number of rings (size 3 to 8) (size 9 to 14) (size 15 to 20)
#    0.000    2.000    2.500    0.750    3.500    6.000 
#    0.000    2.500    0.000    0.375    0.000    0.000 
#    0.000    4.500    0.000    0.000    0.000    0.000 
#
# Total GULP energy -356440.517358 kJ/mol
# GULP energy per Si atom -5569.383084 kJ/mol
# Density = 1.949834 g / cm^3
# Si number density = 19.542823 Si / 1000 Ang^3
#
#
#
# Elastic Constant Matrix: (Units=GPa)
#
#
# Indices 1 2 3 4 5 6 
#
# 1 51.8861 -6.8061 10.3201 0.0000 0.0000 0.0000
# 2 -6.8061 73.0762 42.5236 0.0000 0.0000 0.0000
# 3 10.3201 42.5236 68.7782 0.0000 0.0000 0.0000
# 4 0.0000 0.0000 0.0000 8.5174 0.0000 0.0000
# 5 0.0000 0.0000 0.0000 0.0000 16.5382 0.0000
# 6 0.0000 0.0000 0.0000 0.0000 0.0000 7.1960
#
#
#
# Elastic Compliance Matrix: (Units=1/GPa)
#
#
# Indices 1 2 3 4 5 6 
#
# 1 0.021450 0.006046 -0.006956 0.000000 0.000000 0.000000
# 2 0.006046 0.023078 -0.015176 0.000000 0.000000 0.000000
# 3 -0.006956 -0.015176 0.024966 0.000000 0.000000 0.000000
# 4 0.000000 0.000000 0.000000 0.117406 0.000000 0.000000
# 5 0.000000 0.000000 0.000000 0.000000 0.060466 0.000000
# 6 0.000000 0.000000 0.000000 0.000000 0.000000 0.138967
#
#
# Mechanical properties :
#
#
# Convention : Reuss Voigt Hill
#
# Bulk Modulus (GPa) = 26.79452 31.75729 29.27591
# Shear Modulus (GPa) = 11.60237 16.29718 13.94978
#
# Velocity S-wave (km/s) = 2.43922 2.89090 2.67461
# Velocity P-wave (km/s) = 4.65548 5.23722 4.95489
#
# Compressibility (1/GPa) = 0.03732106
#
# Stress axis : x y z
#
# Youngs Moduli (GPa) = 46.62084 43.33058 40.05431
#
# Poissons Ratio (x) = -0.26197 0.27863
# Poissons Ratio (y) = -0.28186 0.60786
# Poissons Ratio (z) = 0.32431 0.65758
#
# Static dielectric constant tensor:
#      x y z
#    x 1.747000 0.000000 0.000000 
#    y 0.000000 1.755520 0.000000 
#    z 0.000000 0.000000 1.675530 
# 
# From -- ./inp_files/20283.got.cif
#   From: 2010.05.17/outbox.cif.g08.bks.cpg/sg58_11_cif.got.tgz:20283.got - 2010.06.03 14:20:14.
