data_PCOD9444093
_publ_section_title
;
Structure prediction by ZEFSAII (Michael W. Deem and Ramdas Pophale) SiO2 
 PCOD9444093
Probable space group: P N N M
;
_chemical_formula_sum "Si O2"
_cell_formula_units_Z 64
_cell_length_a 33.331499
_cell_length_b 11.067549
_cell_length_c 9.606416
_cell_angle_alpha 90.000000
_cell_angle_beta 90.000000
_cell_angle_gamma 90.000000
_cell_volume 3543.787634
_symmetry_space_group_name_H-M "P N N M"
_symmetry_group_IT_number 58
_symmetry_cell_setting 'orthorhombic'
loop_
_space_group_symop_operation_xyz
x,y,z
-x,-y,z
1/2+x,1/2-y,1/2-z
1/2-x,1/2+y,1/2-z
-x,-y,-z
x,y,-z
1/2-x,1/2+y,1/2+z
1/2+x,1/2-y,1/2+z
loop_
_atom_site_type_symbol
_atom_site_label
_atom_site_fract_x
_atom_site_fract_y
_atom_site_fract_z
Si Si1 0.665911 0.726281 0.840045
Si Si2 0.618548 0.351887 0.331226
Si Si3 0.399079 0.162216 0.659114
Si Si4 0.695735 0.506639 0.667326
Si Si5 0.029599 0.108798 0.829631
Si Si6 0.506087 0.864165 0.336484
Si Si7 0.854433 0.590779 0.164320
Si Si8 0.286893 0.020901 0.159679
O O1 0.623349 0.752899 0.767727
O O2 0.689029 0.630768 0.746825
O O3 0.690516 0.851203 0.836108
O O4 0.661947 0.688008 0.000000
O O5 0.617678 0.354029 0.500000
O O6 0.658867 0.421126 0.288686
O O7 0.576023 0.407651 0.286522
O O8 0.623312 0.212171 0.289043
O O9 0.388046 0.196941 0.500000
O O10 0.446684 0.163233 0.670105
O O11 0.382764 0.026121 0.681900
O O12 0.693139 0.521045 0.500000
O O13 0.740585 0.462233 0.700184
O O14 0.016035 0.243606 0.782521
O O15 0.028035 0.109509 0.000000
O O16 0.000000 0.000000 0.785204
O O17 0.493717 0.872954 0.500000
O O18 0.500000 0.000000 0.277084
O O19 0.813005 0.567114 0.244258
O O20 0.845922 0.602087 0.000000
O O21 0.287777 0.976923 0.000000
#
# Coordination Sequence:
#
# PCOD9444093 Si02
#       8
#     8   8   8   8   8   8   8   8
#     4  10  21  36  53  74 103 134 170 212 252 302
#     4   9  18  31  49  73 105 137 168 207 256 309
#     4   9  17  30  52  79 106 136 169 209 259 307
#     4  10  21  35  53  74 100 133 169 209 253 305
#     4   9  17  27  42  70 104 136 167 205 257 312
#     4   9  16  26  45  74 107 134 166 217 265 304
#     4   9  17  31  53  78 104 135 169 207 251 304
#     4   9  20  36  52  74 102 134 167 209 259 300
#
# _framework density 18.059773
#
# number of rings (size 3 to 8) (size 9 to 14) (size 15 to 20)
#    0.000    2.750    0.000    1.125    3.500    4.000 
#    0.000    0.625    0.000    0.375    0.000    2.625 
#    0.000    0.000    0.000    0.000    0.000    0.000 
#
# Total GULP energy -356538.100165 kJ/mol
# GULP energy per Si atom -5570.907815 kJ/mol
# Density = 1.801867 g / cm^3
# Si number density = 18.059773 Si / 1000 Ang^3
#
#
#
# Elastic Constant Matrix: (Units=GPa)
#
#
# Indices 1 2 3 4 5 6 
#
# 1 88.2531 18.6216 11.1188 0.0000 0.0000 0.0000
# 2 18.6216 35.6308 7.2290 0.0000 0.0000 0.0000
# 3 11.1188 7.2290 9.5854 0.0000 0.0000 0.0000
# 4 0.0000 0.0000 0.0000 6.1795 0.0000 0.0000
# 5 0.0000 0.0000 0.0000 0.0000 14.5367 0.0000
# 6 0.0000 0.0000 0.0000 0.0000 0.0000 22.1501
#
#
#
# Elastic Compliance Matrix: (Units=1/GPa)
#
#
# Indices 1 2 3 4 5 6 
#
# 1 0.013911 -0.004718 -0.012578 0.000000 0.000000 0.000000
# 2 -0.004718 0.034736 -0.020724 0.000000 0.000000 0.000000
# 3 -0.012578 -0.020724 0.134546 0.000000 0.000000 0.000000
# 4 0.000000 0.000000 0.000000 0.161824 0.000000 0.000000
# 5 0.000000 0.000000 0.000000 0.000000 0.068791 0.000000
# 6 0.000000 0.000000 0.000000 0.000000 0.000000 0.045146
#
#
# Mechanical properties :
#
#
# Convention : Reuss Voigt Hill
#
# Bulk Modulus (GPa) = 9.33255 23.04533 16.18894
# Shear Modulus (GPa) = 8.76096 15.00660 11.88378
#
# Velocity S-wave (km/s) = 2.20491 2.88573 2.56798
# Velocity P-wave (km/s) = 3.41482 4.88790 4.21619
#
# Compressibility (1/GPa) = 0.10715183
#
# Stress axis : x y z
#
# Youngs Moduli (GPa) = 71.88368 28.78837 7.43243
#
# Poissons Ratio (x) = 0.13584 0.09349
# Poissons Ratio (y) = 0.33918 0.15403
# Poissons Ratio (z) = 0.90417 0.59661
#
# Static dielectric constant tensor:
#      x y z
#    x 1.620520 0.000000 0.000000 
#    y 0.000000 1.636980 0.000000 
#    z 0.000000 0.000000 1.595460 
# 
# From -- ./inp_files/11087.got.cif
#   From: 2010.05.17/outbox.cif.g08.bks.cpg/sg58_6_cif.got.tgz:11087.got - 2010.06.03 14:20:14.
