data_PCOD9444388
_publ_section_title
;
Structure prediction by ZEFSAII (Michael W. Deem and Ramdas Pophale) SiO2 
 PCOD9444388
Probable space group: P N N M
;
_chemical_formula_sum "Si O2"
_cell_formula_units_Z 56
_cell_length_a 14.719244
_cell_length_b 8.866988
_cell_length_c 19.722480
_cell_angle_alpha 90.000000
_cell_angle_beta 90.000000
_cell_angle_gamma 90.000000
_cell_volume 2574.086576
_symmetry_space_group_name_H-M "P N N M"
_symmetry_group_IT_number 58
_symmetry_cell_setting 'orthorhombic'
loop_
_space_group_symop_operation_xyz
x,y,z
-x,-y,z
1/2+x,1/2-y,1/2-z
1/2-x,1/2+y,1/2-z
-x,-y,-z
x,y,-z
1/2-x,1/2+y,1/2+z
1/2+x,1/2-y,1/2+z
loop_
_atom_site_type_symbol
_atom_site_label
_atom_site_fract_x
_atom_site_fract_y
_atom_site_fract_z
Si Si1 0.545459 0.745497 0.787999
Si Si2 0.695789 0.144417 0.575698
Si Si3 0.188326 0.616081 0.814350
Si Si4 0.123985 0.073037 0.747884
Si Si5 0.126342 0.638342 0.421851
Si Si6 0.594769 0.435799 0.593716
Si Si7 0.759760 0.651139 0.573879
O O1 0.598474 0.832353 0.726793
O O2 0.593000 0.579755 0.789590
O O3 0.439359 0.711363 0.775694
O O4 0.560734 0.821265 0.860426
O O5 0.701166 0.074990 0.500000
O O6 0.786586 0.247445 0.585083
O O7 0.613990 0.264018 0.575705
O O8 0.680304 0.029747 0.637305
O O9 0.268983 0.592943 0.760350
O O10 0.231191 0.739270 0.865815
O O11 0.100205 0.051524 0.825609
O O12 0.093740 0.654942 0.500000
O O13 0.159186 0.466077 0.412642
O O14 0.500000 0.500000 0.571431
O O15 0.674731 0.539470 0.567533
O O16 0.775482 0.725081 0.500000
#
# Coordination Sequence:
#
# PCOD9444388 Si02
#       7
#     8   8   8   8   8   8   8
#     4  11  22  41  64  93 127 164 217 267 320 394
#     4  10  22  37  60  94 127 167 218 260 317 390
#     4  12  22  39  67  92 129 170 203 275 333 368
#     4  11  23  39  64  96 123 162 219 267 318 393
#     4   9  19  38  61  87 122 165 210 258 318 394
#     4  11  20  39  62  89 125 170 216 263 312 378
#     4  10  21  37  60  88 121 167 216 254 315 392
#
# _framework density 21.755292000000001
#
# number of rings (size 3 to 8) (size 9 to 14) (size 15 to 20)
#    0.000    1.429    4.286    3.429    0.000    1.143 
#    0.000    7.857    0.000    6.000    0.000    0.000 
#    0.000    0.000    0.000    0.000    0.000    0.000 
#
# Total GULP energy -312807.355229 kJ/mol
# GULP energy per Si atom -5585.845629 kJ/mol
# Density = 2.170578 g / cm^3
# Si number density = 21.755292 Si / 1000 Ang^3
#
#
#
# Elastic Constant Matrix: (Units=GPa)
#
#
# Indices 1 2 3 4 5 6 
#
# 1 59.0839 15.3613 13.8033 0.0000 0.0000 0.0000
# 2 15.3613 70.7490 30.9777 0.0000 0.0000 0.0000
# 3 13.8033 30.9777 133.0529 0.0000 0.0000 0.0000
# 4 0.0000 0.0000 0.0000 46.4054 0.0000 0.0000
# 5 0.0000 0.0000 0.0000 0.0000 71.7782 0.0000
# 6 0.0000 0.0000 0.0000 0.0000 0.0000 30.3567
#
#
#
# Elastic Compliance Matrix: (Units=1/GPa)
#
#
# Indices 1 2 3 4 5 6 
#
# 1 0.018074 -0.003455 -0.001070 0.000000 0.000000 0.000000
# 2 -0.003455 0.016400 -0.003460 0.000000 0.000000 0.000000
# 3 -0.001070 -0.003460 0.008432 0.000000 0.000000 0.000000
# 4 0.000000 0.000000 0.000000 0.021549 0.000000 0.000000
# 5 0.000000 0.000000 0.000000 0.000000 0.013932 0.000000
# 6 0.000000 0.000000 0.000000 0.000000 0.000000 0.032942
#
#
# Mechanical properties :
#
#
# Convention : Reuss Voigt Hill
#
# Bulk Modulus (GPa) = 37.12759 42.57448 39.85104
# Shear Modulus (GPa) = 36.68981 43.22429 39.95705
#
# Velocity S-wave (km/s) = 4.11113 4.46223 4.29028
# Velocity P-wave (km/s) = 6.29589 6.79418 6.54978
#
# Compressibility (1/GPa) = 0.02693415
#
# Stress axis : x y z
#
# Youngs Moduli (GPa) = 55.32945 60.97714 118.59075
#
# Poissons Ratio (x) = 0.21071 0.12695
# Poissons Ratio (y) = 0.19119 0.41029
# Poissons Ratio (z) = 0.05923 0.21096
#
# Static dielectric constant tensor:
#      x y z
#    x 1.785640 0.000000 0.000000 
#    y 0.000000 1.826190 0.000000 
#    z 0.000000 0.000000 1.727180 
# 
# From -- ./inp_files/30005.got.cif
#   From: 2010.05.17/outbox.cif.g08.bks.cpg/sg58_16_cif.got.tgz:30005.got - 2010.06.03 14:20:14.
