data_PCOD9444643
_publ_section_title
;
Structure prediction by ZEFSAII (Michael W. Deem and Ramdas Pophale) SiO2 
 PCOD9444643
Probable space group: P N N M
;
_chemical_formula_sum "Si O2"
_cell_formula_units_Z 48
_cell_length_a 12.162619
_cell_length_b 7.430023
_cell_length_c 25.090672
_cell_angle_alpha 90.000000
_cell_angle_beta 90.000000
_cell_angle_gamma 90.000000
_cell_volume 2267.407369
_symmetry_space_group_name_H-M "P N N M"
_symmetry_group_IT_number 58
_symmetry_cell_setting 'orthorhombic'
loop_
_space_group_symop_operation_xyz
x,y,z
-x,-y,z
1/2+x,1/2-y,1/2-z
1/2-x,1/2+y,1/2-z
-x,-y,-z
x,y,-z
1/2-x,1/2+y,1/2+z
1/2+x,1/2-y,1/2+z
loop_
_atom_site_type_symbol
_atom_site_label
_atom_site_fract_x
_atom_site_fract_y
_atom_site_fract_z
Si Si1 0.021234 0.708503 0.335743
Si Si2 0.083118 0.165333 0.443551
Si Si3 0.973005 0.714002 0.218827
Si Si4 0.277937 0.707919 0.357557
Si Si5 0.169718 0.517996 0.939565
Si Si6 0.595731 0.631033 0.380442
O O1 0.985553 0.786887 0.278728
O O2 0.149695 0.744069 0.347619
O O3 0.000000 0.500000 0.327501
O O4 0.949499 0.751639 0.387459
O O5 0.072002 0.271405 0.500000
O O6 0.205374 0.089685 0.441413
O O7 0.000000 0.000000 0.447302
O O8 0.057866 0.809438 0.178540
O O9 0.000000 0.500000 0.216140
O O10 0.852646 0.754068 0.194457
O O11 0.299335 0.501192 0.375702
O O12 0.326515 0.843848 0.401933
O O13 0.106306 0.687166 0.914062
O O14 0.134562 0.477817 0.000000
O O15 0.500000 0.500000 0.401823
#
# Coordination Sequence:
#
# PCOD9444643 Si02
#       6
#     8   8   8   8   8   8
#     4  11  24  40  65  99 130 173 226 269 342 398
#     4  10  21  39  62  92 130 170 217 270 327 395
#     4  10  22  43  64  94 133 174 216 276 334 394
#     4  11  23  42  67  95 134 174 221 279 333 398
#     4  11  23  42  70  98 133 181 223 274 336 397
#     4  10  23  43  66  95 138 172 223 280 332 391
#
# _framework density 21.169554000000002
#
# number of rings (size 3 to 8) (size 9 to 14) (size 15 to 20)
#    0.000    1.500    3.333    1.000    0.000    7.333 
#    0.000    5.833    0.000    0.000    0.000    0.000 
#    0.000    0.000    0.000    0.000    0.000    0.000 
#
# Total GULP energy -267927.812098 kJ/mol
# GULP energy per Si atom -5581.829419 kJ/mol
# Density = 2.112137 g / cm^3
# Si number density = 21.169554 Si / 1000 Ang^3
#
#
#
# Elastic Constant Matrix: (Units=GPa)
#
#
# Indices 1 2 3 4 5 6 
#
# 1 75.0071 6.2418 42.7872 0.0000 0.0000 0.0000
# 2 6.2418 98.2653 49.4163 0.0000 0.0000 0.0000
# 3 42.7872 49.4163 171.5474 0.0000 0.0000 0.0000
# 4 0.0000 0.0000 0.0000 39.2840 0.0000 0.0000
# 5 0.0000 0.0000 0.0000 0.0000 -137.7353 0.0000
# 6 0.0000 0.0000 0.0000 0.0000 0.0000 30.2265
#
#
#
# Elastic Compliance Matrix: (Units=1/GPa)
#
#
# Indices 1 2 3 4 5 6 
#
# 1 0.015651 0.001133 -0.004230 0.000000 0.000000 0.000000
# 2 0.001133 0.011982 -0.003734 0.000000 0.000000 0.000000
# 3 -0.004230 -0.003734 0.007960 0.000000 0.000000 0.000000
# 4 0.000000 0.000000 0.000000 0.025456 0.000000 0.000000
# 5 0.000000 0.000000 0.000000 0.000000 -0.007260 0.000000
# 6 0.000000 0.000000 0.000000 0.000000 0.000000 0.033084
#
#
# Mechanical properties :
#
#
# Convention : Reuss Voigt Hill
#
# Bulk Modulus (GPa) = 45.59791 60.19003 52.89397
# Shear Modulus (GPa) = 46.36288 2.78002 24.57145
#
# Velocity S-wave (km/s) = 4.68490 1.14720 3.41060
# Velocity P-wave (km/s) = 7.13095 5.49989 6.36786
#
# Compressibility (1/GPa) = 0.02193083
#
# Stress axis : x y z
#
# Youngs Moduli (GPa) = 63.89474 83.45508 125.62740
#
# Poissons Ratio (x) = -0.09456 0.53140
# Poissons Ratio (y) = -0.07240 0.46913
# Poissons Ratio (z) = 0.27027 0.31165
#
# Static dielectric constant tensor:
#      x y z
#    x 1.763570 0.000000 0.000000 
#    y 0.000000 1.613450 0.000000 
#    z 0.000000 0.000000 1.870490 
# 
# From -- ./inp_files/31913.got.cif
#   From: 2010.05.17/outbox.cif.g08.bks.cpg/sg58_16_cif.got.tgz:31913.got - 2010.06.03 14:20:14.
