data_PCOD9444473
_publ_section_title
;
Structure prediction by ZEFSAII (Michael W. Deem and Ramdas Pophale) SiO2 
 PCOD9444473
Probable space group: P N N M
;
_chemical_formula_sum "Si O2"
_cell_formula_units_Z 56
_cell_length_a 21.458056
_cell_length_b 14.908740
_cell_length_c 8.669387
_cell_angle_alpha 90.000000
_cell_angle_beta 90.000000
_cell_angle_gamma 90.000000
_cell_volume 2773.445943
_symmetry_space_group_name_H-M "P N N M"
_symmetry_group_IT_number 58
_symmetry_cell_setting 'orthorhombic'
loop_
_space_group_symop_operation_xyz
x,y,z
-x,-y,z
1/2+x,1/2-y,1/2-z
1/2-x,1/2+y,1/2-z
-x,-y,-z
x,y,-z
1/2-x,1/2+y,1/2+z
1/2+x,1/2-y,1/2+z
loop_
_atom_site_type_symbol
_atom_site_label
_atom_site_fract_x
_atom_site_fract_y
_atom_site_fract_z
Si Si1 0.903528 0.290993 0.684283
Si Si2 0.237406 0.750927 0.683656
Si Si3 0.510619 0.641517 0.682073
Si Si4 0.572458 0.987301 0.315376
Si Si5 0.767789 0.938327 0.680113
Si Si6 0.088385 0.019747 0.681058
Si Si7 0.315931 0.913526 0.819540
O O1 0.910024 0.294556 0.500000
O O2 0.836680 0.244469 0.718777
O O3 0.958823 0.232144 0.755778
O O4 0.905130 0.391156 0.751343
O O5 0.243168 0.737595 0.500000
O O6 0.262532 0.664862 0.774105
O O7 0.277110 0.836584 0.733663
O O8 0.500384 0.646299 0.500000
O O9 0.559194 0.561643 0.722532
O O10 0.447747 0.609381 0.766609
O O11 0.578353 0.987318 0.500000
O O12 0.615784 0.065544 0.246989
O O13 0.500000 0.000000 0.274526
O O14 0.750746 0.951430 0.500000
O O15 0.838315 0.970966 0.702137
O O16 0.722525 0.995665 0.787012
O O17 0.076187 0.002750 0.500000
O O18 0.319086 0.893702 0.000000
#
# Coordination Sequence:
#
# PCOD9444473 Si02
#       7
#     8   8   8   8   8   8   8
#     4  11  23  41  65  93 125 167 215 263 321 388
#     4  11  24  41  65  95 126 166 214 265 322 383
#     4  11  22  36  59  89 122 164 208 257 312 375
#     4  11  25  45  69  95 127 168 215 270 327 385
#     4  11  23  40  64  92 125 163 206 261 318 377
#     4  10  21  38  59  87 124 164 205 258 318 375
#     4  12  25  42  66  96 131 172 214 266 327 389
#
# _framework density 20.191486000000001
#
# number of rings (size 3 to 8) (size 9 to 14) (size 15 to 20)
#    0.000    1.000    1.429    6.429    0.000    9.714 
#    0.000    0.000    0.000    0.000    0.000    0.000 
#    0.000    0.000    0.000    0.000    0.000    0.000 
#
# Total GULP energy -313312.416226 kJ/mol
# GULP energy per Si atom -5594.864575 kJ/mol
# Density = 2.014553 g / cm^3
# Si number density = 20.191486 Si / 1000 Ang^3
#
#
#
# Elastic Constant Matrix: (Units=GPa)
#
#
# Indices 1 2 3 4 5 6 
#
# 1 87.7021 -4.8367 20.8880 0.0000 0.0000 0.0000
# 2 -4.8367 36.9414 -10.4713 0.0000 0.0000 0.0000
# 3 20.8880 -10.4713 65.9570 0.0000 0.0000 0.0000
# 4 0.0000 0.0000 0.0000 41.5101 0.0000 0.0000
# 5 0.0000 0.0000 0.0000 0.0000 27.3677 0.0000
# 6 0.0000 0.0000 0.0000 0.0000 0.0000 32.4281
#
#
#
# Elastic Compliance Matrix: (Units=1/GPa)
#
#
# Indices 1 2 3 4 5 6 
#
# 1 0.012342 0.000532 -0.003824 0.000000 0.000000 0.000000
# 2 0.000532 0.028368 0.004335 0.000000 0.000000 0.000000
# 3 -0.003824 0.004335 0.017061 0.000000 0.000000 0.000000
# 4 0.000000 0.000000 0.000000 0.024091 0.000000 0.000000
# 5 0.000000 0.000000 0.000000 0.000000 0.036539 0.000000
# 6 0.000000 0.000000 0.000000 0.000000 0.000000 0.030837
#
#
# Mechanical properties :
#
#
# Convention : Reuss Voigt Hill
#
# Bulk Modulus (GPa) = 16.70634 22.41785 19.56209
# Shear Modulus (GPa) = 29.92121 32.59588 31.25855
#
# Velocity S-wave (km/s) = 3.85369 4.02224 3.93887
# Velocity P-wave (km/s) = 5.30029 5.71821 5.51321
#
# Compressibility (1/GPa) = 0.05985750
#
# Stress axis : x y z
#
# Youngs Moduli (GPa) = 81.02154 35.25050 58.61398
#
# Poissons Ratio (x) = -0.01875 0.22416
# Poissons Ratio (y) = -0.04310 -0.25411
# Poissons Ratio (z) = 0.30985 -0.15282
#
# Static dielectric constant tensor:
#      x y z
#    x 1.720140 0.000000 0.000000 
#    y 0.000000 1.702110 0.000000 
#    z 0.000000 0.000000 1.670650 
# 
# From -- ./inp_files/9019.got.cif
#   From: 2010.05.17/outbox.cif.g08.bks.cpg/sg58_5_cif.got.tgz:9019.got - 2010.06.03 14:20:14.
