data_PCOD9444547
_publ_section_title
;
Structure prediction by ZEFSAII (Michael W. Deem and Ramdas Pophale) SiO2 
 PCOD9444547
Probable space group: P N N M
;
_chemical_formula_sum "Si O2"
_cell_formula_units_Z 64
_cell_length_a 11.175182
_cell_length_b 35.383356
_cell_length_c 8.860132
_cell_angle_alpha 90.000000
_cell_angle_beta 90.000000
_cell_angle_gamma 90.000000
_cell_volume 3503.433020
_symmetry_space_group_name_H-M "P N N M"
_symmetry_group_IT_number 58
_symmetry_cell_setting 'orthorhombic'
loop_
_space_group_symop_operation_xyz
x,y,z
-x,-y,z
1/2+x,1/2-y,1/2-z
1/2-x,1/2+y,1/2-z
-x,-y,-z
x,y,-z
1/2-x,1/2+y,1/2+z
1/2+x,1/2-y,1/2+z
loop_
_atom_site_type_symbol
_atom_site_label
_atom_site_fract_x
_atom_site_fract_y
_atom_site_fract_z
Si Si1 0.389082 0.734234 0.820226
Si Si2 0.663895 0.721195 0.819552
Si Si3 0.872344 0.140458 0.824257
Si Si4 0.859976 0.992504 0.329326
Si Si5 0.754499 0.422877 0.679418
Si Si6 0.736866 0.063857 0.180223
Si Si7 0.009287 0.545102 0.177452
Si Si8 0.350880 0.654247 0.324139
O O1 0.530932 0.737592 0.770888
O O2 0.283781 0.759857 0.748641
O O3 0.352105 0.691602 0.775322
O O4 0.387627 0.739476 0.000000
O O5 0.662631 0.677197 0.771232
O O6 0.668333 0.724735 0.000000
O O7 0.812418 0.101089 0.778806
O O8 0.015568 0.137170 0.817211
O O9 0.840669 0.147832 0.000000
O O10 0.809597 0.994561 0.500000
O O11 0.801091 0.025215 0.229677
O O12 0.835409 0.951458 0.261303
O O13 0.000000 0.000000 0.334958
O O14 0.735721 0.424859 0.500000
O O15 0.736110 0.379372 0.724447
O O16 0.883086 0.438220 0.726102
O O17 0.612160 0.063992 0.266982
O O18 0.719244 0.063608 0.000000
O O19 0.000000 0.500000 0.202307
O O20 0.029543 0.551393 0.000000
O O21 0.327155 0.664482 0.500000
#
# Coordination Sequence:
#
# PCOD9444547 Si02
#       8
#     8   8   8   8   8   8   8   8
#     4  10  21  38  62  91 121 156 195 236 287 347
#     4  10  21  38  62  91 121 156 195 236 287 347
#     4   9  19  37  60  86 116 148 184 232 285 336
#     4  11  23  36  53  80 113 147 183 229 282 335
#     4  11  22  37  59  83 109 145 191 236 283 336
#     4  11  22  37  59  83 109 145 191 236 283 336
#     4  11  23  39  57  77 110 152 192 236 288 342
#     4   9  19  37  60  86 116 148 184 232 285 336
#
# _framework density 18.267796000000001
#
# number of rings (size 3 to 8) (size 9 to 14) (size 15 to 20)
#    0.000    1.750    1.250    3.000    0.000    6.000 
#    2.250    2.500    0.000    0.000    0.000    0.000 
#    0.000    0.000    0.000    0.000    0.000    0.000 
#
# Total GULP energy -357163.202974 kJ/mol
# GULP energy per Si atom -5580.675046 kJ/mol
# Density = 1.822622 g / cm^3
# Si number density = 18.267796 Si / 1000 Ang^3
#
#
#
# Elastic Constant Matrix: (Units=GPa)
#
#
# Indices 1 2 3 4 5 6 
#
# 1 31.3010 -0.7227 13.5744 0.0000 0.0000 0.0000
# 2 -0.7227 43.2468 17.4286 0.0000 0.0000 0.0000
# 3 13.5744 17.4286 36.5309 0.0000 0.0000 0.0000
# 4 0.0000 0.0000 0.0000 27.3616 0.0000 0.0000
# 5 0.0000 0.0000 0.0000 0.0000 -114.7923 0.0000
# 6 0.0000 0.0000 0.0000 0.0000 0.0000 35.8898
#
#
#
# Elastic Compliance Matrix: (Units=1/GPa)
#
#
# Indices 1 2 3 4 5 6 
#
# 1 0.040366 0.008319 -0.018968 0.000000 0.000000 0.000000
# 2 0.008319 0.030342 -0.017567 0.000000 0.000000 0.000000
# 3 -0.018968 -0.017567 0.042803 0.000000 0.000000 0.000000
# 4 0.000000 0.000000 0.000000 0.036548 0.000000 0.000000
# 5 0.000000 0.000000 0.000000 0.000000 -0.008711 0.000000
# 6 0.000000 0.000000 0.000000 0.000000 0.000000 0.027863
#
#
# Mechanical properties :
#
#
# Convention : Reuss Voigt Hill
#
# Bulk Modulus (GPa) = 17.51981 19.07106 18.29544
# Shear Modulus (GPa) = 20.43576 -4.92162 7.75707
#
# Velocity S-wave (km/s) = 3.34829 -1.64317 2.06289
# Velocity P-wave (km/s) = 4.95575 2.61961 3.96370
#
# Compressibility (1/GPa) = 0.05707824
#
# Stress axis : x y z
#
# Youngs Moduli (GPa) = 24.77337 32.95803 23.36258
#
# Poissons Ratio (x) = -0.27417 0.44315
# Poissons Ratio (y) = -0.20609 0.41041
# Poissons Ratio (z) = 0.46991 0.57897
#
# Static dielectric constant tensor:
#      x y z
#    x 1.676730 0.000000 0.000000 
#    y 0.000000 1.600490 0.000000 
#    z 0.000000 0.000000 1.622560 
# 
# From -- ./inp_files/4718.got.cif
#   From: 2010.05.17/outbox.cif.g08.bks.cpg/sg58_3_cif.got.tgz:4718.got - 2010.06.03 14:20:14.
