data_PCOD9444967
_publ_section_title
;
Structure prediction by ZEFSAII (Michael W. Deem and Ramdas Pophale) SiO2 
 PCOD9444967
Probable space group: P N N M
;
_chemical_formula_sum "Si O2"
_cell_formula_units_Z 40
_cell_length_a 7.813664
_cell_length_b 9.097371
_cell_length_c 28.263178
_cell_angle_alpha 90.000000
_cell_angle_beta 90.000000
_cell_angle_gamma 90.000000
_cell_volume 2009.054100
_symmetry_space_group_name_H-M "P N N M"
_symmetry_group_IT_number 58
_symmetry_cell_setting 'orthorhombic'
loop_
_space_group_symop_operation_xyz
x,y,z
-x,-y,z
1/2+x,1/2-y,1/2-z
1/2-x,1/2+y,1/2-z
-x,-y,-z
x,y,-z
1/2-x,1/2+y,1/2+z
1/2+x,1/2-y,1/2+z
loop_
_atom_site_type_symbol
_atom_site_label
_atom_site_fract_x
_atom_site_fract_y
_atom_site_fract_z
Si Si1 0.101054 0.730880 0.206650
Si Si2 0.269075 0.423124 0.789423
Si Si3 0.179137 0.848684 0.396012
Si Si4 0.031812 0.828736 0.898614
Si Si5 0.336369 0.666249 0.944398
O O1 0.236467 0.597538 0.212033
O O2 0.130415 0.855519 0.245518
O O3 0.917041 0.654252 0.212502
O O4 0.104250 0.795899 0.154001
O O5 0.345440 0.377523 0.840149
O O6 0.351846 0.756765 0.402954
O O7 0.009623 0.778856 0.418833
O O8 0.200364 0.006843 0.421216
O O9 0.173643 0.766924 0.934093
O O10 0.000000 0.000000 0.904723
O O11 0.366786 0.650720 0.000000
#
# Coordination Sequence:
#
# PCOD9444967 Si02
#       5
#     8   8   8   8   8
#     4  10  23  39  59  94 129 175 220 257 329 389
#     4  10  22  38  61  93 132 173 213 269 322 390
#     4  10  22  43  67  98 136 170 223 284 326 394
#     4  11  25  44  64  97 143 174 217 276 336 403
#     4  11  24  44  74  99 123 174 233 281 338 393
#
# _framework density 19.909869
#
# number of rings (size 3 to 8) (size 9 to 14) (size 15 to 20)
#    0.000    1.600    2.000    1.800    8.400    3.600 
#    0.000    1.000    0.000    0.000    0.000    0.000 
#    0.000    0.000    0.000    0.000    0.000    0.000 
#
# Total GULP energy -223685.453137 kJ/mol
# GULP energy per Si atom -5592.136328 kJ/mol
# Density = 1.986455 g / cm^3
# Si number density = 19.909869 Si / 1000 Ang^3
#
#
#
# Elastic Constant Matrix: (Units=GPa)
#
#
# Indices 1 2 3 4 5 6 
#
# 1 100.6983 49.6702 53.7680 0.0000 0.0000 0.0000
# 2 49.6702 82.7883 29.7396 0.0000 0.0000 0.0000
# 3 53.7680 29.7396 124.4075 0.0000 0.0000 0.0000
# 4 0.0000 0.0000 0.0000 44.9835 0.0000 0.0000
# 5 0.0000 0.0000 0.0000 0.0000 30.9752 0.0000
# 6 0.0000 0.0000 0.0000 0.0000 0.0000 22.2949
#
#
#
# Elastic Compliance Matrix: (Units=1/GPa)
#
#
# Indices 1 2 3 4 5 6 
#
# 1 0.016793 -0.008170 -0.005305 0.000000 0.000000 0.000000
# 2 -0.008170 0.017188 -0.000578 0.000000 0.000000 0.000000
# 3 -0.005305 -0.000578 0.010469 0.000000 0.000000 0.000000
# 4 0.000000 0.000000 0.000000 0.022230 0.000000 0.000000
# 5 0.000000 0.000000 0.000000 0.000000 0.032284 0.000000
# 6 0.000000 0.000000 0.000000 0.000000 0.000000 0.044853
#
#
# Mechanical properties :
#
#
# Convention : Reuss Voigt Hill
#
# Bulk Modulus (GPa) = 61.18001 63.80552 62.49277
# Shear Modulus (GPa) = 28.18957 31.29846 29.74402
#
# Velocity S-wave (km/s) = 3.76687 3.96916 3.86934
# Velocity P-wave (km/s) = 7.05084 7.28851 7.17066
#
# Compressibility (1/GPa) = 0.01634521
#
# Stress axis : x y z
#
# Youngs Moduli (GPa) = 59.54922 58.17994 95.52029
#
# Poissons Ratio (x) = 0.47530 0.50672
# Poissons Ratio (y) = 0.48649 0.05521
# Poissons Ratio (z) = 0.31590 0.03363
#
# Static dielectric constant tensor:
#      x y z
#    x 1.732420 0.000000 0.000000 
#    y 0.000000 1.677370 0.000000 
#    z 0.000000 0.000000 1.665370 
# 
# From -- ./inp_files/31272.got.cif
#   From: 2010.05.17/outbox.cif.g08.bks.cpg/sg58_16_cif.got.tgz:31272.got - 2010.06.03 14:20:14.
