data_PCOD9444716
_publ_section_title
;
Structure prediction by ZEFSAII (Michael W. Deem and Ramdas Pophale) SiO2 
 PCOD9444716
Probable space group: P N N M
;
_chemical_formula_sum "Si O2"
_cell_formula_units_Z 32
_cell_length_a 13.494875
_cell_length_b 8.396279
_cell_length_c 13.103900
_cell_angle_alpha 90.000000
_cell_angle_beta 90.000000
_cell_angle_gamma 90.000000
_cell_volume 1484.760132
_symmetry_space_group_name_H-M "P N N M"
_symmetry_group_IT_number 58
_symmetry_cell_setting 'orthorhombic'
loop_
_space_group_symop_operation_xyz
x,y,z
-x,-y,z
1/2+x,1/2-y,1/2-z
1/2-x,1/2+y,1/2-z
-x,-y,-z
x,y,-z
1/2-x,1/2+y,1/2+z
1/2+x,1/2-y,1/2+z
loop_
_atom_site_type_symbol
_atom_site_label
_atom_site_fract_x
_atom_site_fract_y
_atom_site_fract_z
Si Si1 0.632955 0.297309 0.500000
Si Si2 0.640453 0.910452 0.500000
Si Si3 0.000000 0.500000 0.330649
Si Si4 0.865118 0.954575 0.500000
Si Si5 0.000000 0.000000 0.676169
Si Si6 0.860526 0.343220 0.500000
Si Si7 0.010488 0.753968 0.827040
O O1 0.742238 0.369674 0.500000
O O2 0.570041 0.337203 0.600310
O O3 0.632083 0.102567 0.500000
O O4 0.586316 0.835365 0.598167
O O5 0.757144 0.881786 0.500000
O O6 0.917122 0.419860 0.402973
O O7 0.040566 0.369560 0.250721
O O8 0.925767 0.909395 0.600606
O O9 0.866607 0.149330 0.500000
O O10 0.942233 0.119335 0.750045
#
# Coordination Sequence:
#
# PCOD9444716 Si02
#       7
#     4   4   4   4   4   4   8
#     4  10  21  40  62  97 126 162 216 276 318 379
#     4  10  21  40  66  93 125 165 220 267 324 387
#     4  11  20  39  66  94 124 177 214 263 324 384
#     4  10  22  42  61  93 132 168 208 271 328 379
#     4  11  24  41  62  92 134 171 206 269 324 382
#     4  10  22  38  63  95 131 161 224 269 308 389
#     4  11  21  41  66  91 130 172 212 266 330 380
#
# _framework density 21.552303999999999
#
# number of rings (size 3 to 8) (size 9 to 14) (size 15 to 20)
#    0.000    1.500    5.000    0.750    0.000    4.000 
#    0.000    2.500    0.000    0.000    0.000    0.000 
#    0.000    0.000    0.000    0.000    0.000    0.000 
#
# Total GULP energy -178582.987348 kJ/mol
# GULP energy per Si atom -5580.718355 kJ/mol
# Density = 2.150325 g / cm^3
# Si number density = 21.552304 Si / 1000 Ang^3
#
#
#
# Elastic Constant Matrix: (Units=GPa)
#
#
# Indices 1 2 3 4 5 6 
#
# 1 159.4732 23.9586 72.6016 0.0000 0.0000 0.0000
# 2 23.9586 52.5467 54.5791 0.0000 0.0000 0.0000
# 3 72.6016 54.5791 181.4600 0.0000 0.0000 0.0000
# 4 0.0000 0.0000 0.0000 40.0230 0.0000 0.0000
# 5 0.0000 0.0000 0.0000 0.0000 3.3071 0.0000
# 6 0.0000 0.0000 0.0000 0.0000 0.0000 28.9389
#
#
#
# Elastic Compliance Matrix: (Units=1/GPa)
#
#
# Indices 1 2 3 4 5 6 
#
# 1 0.007675 -0.000451 -0.002935 0.000000 0.000000 0.000000
# 2 -0.000451 0.027704 -0.008152 0.000000 0.000000 0.000000
# 3 -0.002935 -0.008152 0.009137 0.000000 0.000000 0.000000
# 4 0.000000 0.000000 0.000000 0.024986 0.000000 0.000000
# 5 0.000000 0.000000 0.000000 0.000000 0.302384 0.000000
# 6 0.000000 0.000000 0.000000 0.000000 0.000000 0.034556
#
#
# Mechanical properties :
#
#
# Convention : Reuss Voigt Hill
#
# Bulk Modulus (GPa) = 46.64291 77.30648 61.97470
# Shear Modulus (GPa) = 11.45046 30.60984 21.03015
#
# Velocity S-wave (km/s) = 2.30747 3.77272 3.12712
# Velocity P-wave (km/s) = 5.36544 7.41114 6.46966
#
# Compressibility (1/GPa) = 0.02143948
#
# Stress axis : x y z
#
# Youngs Moduli (GPa) = 130.30092 36.09601 109.44261
#
# Poissons Ratio (x) = 0.01627 0.32122
# Poissons Ratio (y) = 0.05872 0.89222
# Poissons Ratio (z) = 0.38243 0.29427
#
# Static dielectric constant tensor:
#      x y z
#    x 1.758750 0.000000 0.000000 
#    y 0.000000 1.892320 0.000000 
#    z 0.000000 0.000000 1.759380 
# 
# From -- ./inp_files/12513.got.cif
#   From: 2010.05.17/outbox.cif.g08.bks.cpg/sg58_7_cif.got.tgz:12513.got - 2010.06.03 14:20:14.
