data_PCOD9444152
_publ_section_title
;
Structure prediction by ZEFSAII (Michael W. Deem and Ramdas Pophale) SiO2 
 PCOD9444152
Probable space group: P N N M
;
_chemical_formula_sum "Si O2"
_cell_formula_units_Z 48
_cell_length_a 27.446808
_cell_length_b 10.136728
_cell_length_c 7.297741
_cell_angle_alpha 90.000000
_cell_angle_beta 90.000000
_cell_angle_gamma 90.000000
_cell_volume 2030.383537
_symmetry_space_group_name_H-M "P N N M"
_symmetry_group_IT_number 58
_symmetry_cell_setting 'orthorhombic'
loop_
_space_group_symop_operation_xyz
x,y,z
-x,-y,z
1/2+x,1/2-y,1/2-z
1/2-x,1/2+y,1/2-z
-x,-y,-z
x,y,-z
1/2-x,1/2+y,1/2+z
1/2+x,1/2-y,1/2+z
loop_
_atom_site_type_symbol
_atom_site_label
_atom_site_fract_x
_atom_site_fract_y
_atom_site_fract_z
Si Si1 0.087766 0.521341 0.223945
Si Si2 0.729746 0.644474 0.720860
Si Si3 0.569373 0.276660 0.276745
Si Si4 0.126610 0.975607 0.777073
Si Si5 0.195677 0.579380 0.212044
Si Si6 0.961408 0.213846 0.222757
O O1 0.076511 0.373341 0.283436
O O2 0.141588 0.563192 0.288309
O O3 0.050226 0.635595 0.276318
O O4 0.087594 0.518402 0.000000
O O5 0.732087 0.641206 0.500000
O O6 0.679342 0.575098 0.780913
O O7 0.774911 0.556207 0.781199
O O8 0.726395 0.796247 0.784879
O O9 0.569867 0.276400 0.500000
O O10 0.611202 0.377918 0.219161
O O11 0.515666 0.325125 0.220355
O O12 0.083065 0.878356 0.718237
O O13 0.127354 0.972564 0.000000
O O14 0.187283 0.613682 0.000000
O O15 0.961140 0.208937 0.000000
#
# Coordination Sequence:
#
# PCOD9444152 Si02
#       6
#     8   8   8   8   8   8
#     4   9  16  27  41  62  94 128 159 197 244 292
#     4  10  21  36  53  74 102 135 171 211 255 300
#     4   9  16  22  37  64  91 125 163 191 232 299
#     4   9  16  27  41  62  94 128 159 197 244 292
#     4  10  21  36  53  74 102 135 171 211 255 300
#     4   9  14  24  39  58  91 129 159 191 238 295
#
# _framework density 23.640854000000001
#
# number of rings (size 3 to 8) (size 9 to 14) (size 15 to 20)
#    0.000    2.667    1.667    1.000    2.333    4.667 
#    0.000    0.000    0.000    0.000    0.000    0.000 
#    0.000    8.000    0.000    0.000    0.000    0.000 
#
# Total GULP energy -268283.541203 kJ/mol
# GULP energy per Si atom -5589.240442 kJ/mol
# Density = 2.358705 g / cm^3
# Si number density = 23.640854 Si / 1000 Ang^3
#
#
#
# Elastic Constant Matrix: (Units=GPa)
#
#
# Indices 1 2 3 4 5 6 
#
# 1 36.0898 -16.6560 -6.6487 0.0000 0.0000 0.0000
# 2 -16.6560 61.8644 -5.9479 0.0000 0.0000 0.0000
# 3 -6.6487 -5.9479 93.3645 0.0000 0.0000 0.0000
# 4 0.0000 0.0000 0.0000 -4.8575 0.0000 0.0000
# 5 0.0000 0.0000 0.0000 0.0000 -11.1985 0.0000
# 6 0.0000 0.0000 0.0000 0.0000 0.0000 42.0536
#
#
#
# Elastic Compliance Matrix: (Units=1/GPa)
#
#
# Indices 1 2 3 4 5 6 
#
# 1 0.032392 0.008998 0.002880 0.000000 0.000000 0.000000
# 2 0.008998 0.018763 0.001836 0.000000 0.000000 0.000000
# 3 0.002880 0.001836 0.011033 0.000000 0.000000 0.000000
# 4 0.000000 0.000000 0.000000 -0.205866 0.000000 0.000000
# 5 0.000000 0.000000 0.000000 0.000000 -0.089298 0.000000
# 6 0.000000 0.000000 0.000000 0.000000 0.000000 0.023779
#
#
# Mechanical properties :
#
#
# Convention : Reuss Voigt Hill
#
# Bulk Modulus (GPa) = 11.15873 14.75705 12.95789
# Shear Modulus (GPa) = -24.18353 19.90426 -2.13964
#
# Velocity S-wave (km/s) = -3.20184 2.90477 -0.95238
# Velocity P-wave (km/s) = 2.98976 4.18402 2.06970
#
# Compressibility (1/GPa) = 0.08961596
#
# Stress axis : x y z
#
# Youngs Moduli (GPa) = 30.87191 53.29509 90.63905
#
# Poissons Ratio (x) = -0.47954 -0.26103
# Poissons Ratio (y) = -0.27778 -0.16642
# Poissons Ratio (z) = -0.08891 -0.09786
#
# Static dielectric constant tensor:
#      x y z
#    x 1.820930 0.000000 0.000000 
#    y 0.000000 1.869010 0.000000 
#    z 0.000000 0.000000 2.014350 
# 
# From -- ./inp_files/13147.got.cif
#   From: 2010.05.17/outbox.cif.g08.bks.cpg/sg58_7_cif.got.tgz:13147.got - 2010.06.03 14:20:14.
