data_PCOD9444732
_publ_section_title
;
Structure prediction by ZEFSAII (Michael W. Deem and Ramdas Pophale) SiO2 
 PCOD9444732
Probable space group: P N N M
;
_chemical_formula_sum "Si O2"
_cell_formula_units_Z 64
_cell_length_a 15.038410
_cell_length_b 23.811449
_cell_length_c 8.814143
_cell_angle_alpha 90.000000
_cell_angle_beta 90.000000
_cell_angle_gamma 90.000000
_cell_volume 3156.224143
_symmetry_space_group_name_H-M "P N N M"
_symmetry_group_IT_number 58
_symmetry_cell_setting 'orthorhombic'
loop_
_space_group_symop_operation_xyz
x,y,z
-x,-y,z
1/2+x,1/2-y,1/2-z
1/2-x,1/2+y,1/2-z
-x,-y,-z
x,y,-z
1/2-x,1/2+y,1/2+z
1/2+x,1/2-y,1/2+z
loop_
_atom_site_type_symbol
_atom_site_label
_atom_site_fract_x
_atom_site_fract_y
_atom_site_fract_z
Si Si1 0.307522 0.802371 0.317983
Si Si2 0.633136 0.859555 0.828486
Si Si3 0.102447 0.994071 0.818285
Si Si4 0.760902 0.570865 0.817303
Si Si5 0.157254 0.119730 0.173555
Si Si6 0.401372 0.024690 0.324472
Si Si7 0.871957 0.245310 0.822497
Si Si8 0.447982 0.717436 0.178334
O O1 0.317354 0.799279 0.500000
O O2 0.296104 0.867606 0.271453
O O3 0.216230 0.772219 0.268005
O O4 0.389070 0.769055 0.242664
O O5 0.739832 0.864101 0.826448
O O6 0.599990 0.919866 0.775772
O O7 0.607382 0.810190 0.715196
O O8 0.604311 0.845954 0.000000
O O9 0.146556 0.054582 0.786045
O O10 0.164255 0.946261 0.745885
O O11 0.101908 0.985415 0.000000
O O12 0.000000 0.000000 0.767384
O O13 0.830928 0.522356 0.771915
O O14 0.756450 0.571202 0.000000
O O15 0.106002 0.161035 0.284171
O O16 0.123332 0.127049 0.000000
O O17 0.378794 0.039267 0.500000
O O18 0.500000 0.000000 0.323025
O O19 0.957938 0.213050 0.762272
O O20 0.857383 0.236684 0.000000
O O21 0.461254 0.724344 0.000000
#
# Coordination Sequence:
#
# PCOD9444732 Si02
#       8
#     8   8   8   8   8   8   8   8
#     4  11  24  44  65  93 132 170 213 263 316 380
#     4  11  22  40  66  94 126 162 209 268 320 374
#     4  10  22  40  63  92 124 163 210 256 307 371
#     4  10  23  41  62  90 126 166 206 256 312 370
#     4  10  21  40  64  91 127 166 207 263 317 367
#     4  10  22  40  63  92 126 168 214 256 310 380
#     4  12  26  44  67  93 125 169 215 266 323 379
#     4  12  26  43  66  97 128 167 213 261 320 384
#
# _framework density 20.277394000000001
#
# number of rings (size 3 to 8) (size 9 to 14) (size 15 to 20)
#    0.000    1.250    2.500    3.000    3.500    2.500 
#    0.000    0.000    0.000    0.000    0.000    0.000 
#    0.000    0.000    0.000    0.000    0.000    0.000 
#
# Total GULP energy -357831.230637 kJ/mol
# GULP energy per Si atom -5591.112979 kJ/mol
# Density = 2.023124 g / cm^3
# Si number density = 20.277394 Si / 1000 Ang^3
#
#
#
# Elastic Constant Matrix: (Units=GPa)
#
#
# Indices 1 2 3 4 5 6 
#
# 1 43.7615 -19.0837 -6.9200 0.0000 0.0000 0.0000
# 2 -19.0837 46.7863 7.5301 0.0000 0.0000 0.0000
# 3 -6.9200 7.5301 41.0044 0.0000 0.0000 0.0000
# 4 0.0000 0.0000 0.0000 26.9631 0.0000 0.0000
# 5 0.0000 0.0000 0.0000 0.0000 18.9003 0.0000
# 6 0.0000 0.0000 0.0000 0.0000 0.0000 26.7908
#
#
#
# Elastic Compliance Matrix: (Units=1/GPa)
#
#
# Indices 1 2 3 4 5 6 
#
# 1 0.028086 0.011019 0.002716 0.000000 0.000000 0.000000
# 2 0.011019 0.026348 -0.002979 0.000000 0.000000 0.000000
# 3 0.002716 -0.002979 0.025393 0.000000 0.000000 0.000000
# 4 0.000000 0.000000 0.000000 0.037088 0.000000 0.000000
# 5 0.000000 0.000000 0.000000 0.000000 0.052909 0.000000
# 6 0.000000 0.000000 0.000000 0.000000 0.000000 0.037326
#
#
# Mechanical properties :
#
#
# Convention : Reuss Voigt Hill
#
# Bulk Modulus (GPa) = 9.86789 10.51166 10.18978
# Shear Modulus (GPa) = 22.78763 24.53255 23.66009
#
# Velocity S-wave (km/s) = 3.35594 3.48206 3.41958
# Velocity P-wave (km/s) = 4.46021 4.62185 4.54175
#
# Compressibility (1/GPa) = 0.10133878
#
# Stress axis : x y z
#
# Youngs Moduli (GPa) = 35.60518 37.95403 39.38077
#
# Poissons Ratio (x) = -0.41821 -0.10697
# Poissons Ratio (y) = -0.39233 0.11731
# Poissons Ratio (z) = -0.09671 0.11306
#
# Static dielectric constant tensor:
#      x y z
#    x 1.704560 0.000000 0.000000 
#    y 0.000000 1.717350 0.000000 
#    z 0.000000 0.000000 1.699720 
# 
# From -- ./inp_files/6926.got.cif
#   From: 2010.05.17/outbox.cif.g08.bks.cpg/sg58_4_cif.got.tgz:6926.got - 2010.06.03 14:20:14.
