data_PCOD9444445
_publ_section_title
;
Structure prediction by ZEFSAII (Michael W. Deem and Ramdas Pophale) SiO2 
 PCOD9444445
Probable space group: P N N M
;
_chemical_formula_sum "Si O2"
_cell_formula_units_Z 60
_cell_length_a 24.137327
_cell_length_b 12.138790
_cell_length_c 10.296404
_cell_angle_alpha 90.000000
_cell_angle_beta 90.000000
_cell_angle_gamma 90.000000
_cell_volume 3016.825199
_symmetry_space_group_name_H-M "P N N M"
_symmetry_group_IT_number 58
_symmetry_cell_setting 'orthorhombic'
loop_
_space_group_symop_operation_xyz
x,y,z
-x,-y,z
1/2+x,1/2-y,1/2-z
1/2-x,1/2+y,1/2-z
-x,-y,-z
x,y,-z
1/2-x,1/2+y,1/2+z
1/2+x,1/2-y,1/2+z
loop_
_atom_site_type_symbol
_atom_site_label
_atom_site_fract_x
_atom_site_fract_y
_atom_site_fract_z
Si Si1 0.713752 0.747793 0.152967
Si Si2 0.507649 0.843642 0.141452
Si Si3 0.152771 0.970338 0.652040
Si Si4 0.533766 0.611306 0.233381
Si Si5 0.660939 0.326574 0.651531
Si Si6 0.062763 0.773949 0.000000
Si Si7 0.417328 0.883340 0.648937
Si Si8 0.382781 0.116375 0.722356
O O1 0.699051 0.621336 0.186536
O O2 0.777850 0.776475 0.170214
O O3 0.674503 0.830228 0.232472
O O4 0.700366 0.759883 0.000000
O O5 0.506178 0.711962 0.157224
O O6 0.469165 0.888682 0.255560
O O7 0.571190 0.878391 0.163874
O O8 0.487350 0.876167 0.000000
O O9 0.158302 0.001047 0.500000
O O10 0.153623 0.073718 0.748603
O O11 0.094789 0.908417 0.675764
O O12 0.500000 0.500000 0.219115
O O13 0.538136 0.647245 0.383438
O O14 0.656045 0.363286 0.500000
O O15 0.616776 0.228616 0.671027
O O16 0.090254 0.693174 0.112370
O O17 0.437833 0.882419 0.500000
O O18 0.380065 0.991100 0.672902
#
# Coordination Sequence:
#
# PCOD9444445 Si02
#       8
#     8   8   8   8   8   4   8   8
#     4  10  22  44  69  92 125 164 214 263 321 382
#     4  11  24  41  63  94 130 169 215 264 323 389
#     4  11  23  43  68  95 129 167 211 266 320 383
#     4  11  23  38  63  92 131 175 215 261 319 383
#     4  10  25  45  65  96 129 169 212 262 322 377
#     4  10  21  38  57  96 128 162 226 258 310 382
#     4  11  25  42  65  94 133 170 209 266 320 379
#     4  11  22  40  67  94 125 168 222 263 320 380
#
# _framework density 19.888456999999999
#
# number of rings (size 3 to 8) (size 9 to 14) (size 15 to 20)
#    0.000    1.333    3.333    2.200    6.533    4.800 
#    1.200    0.000    0.000    0.000    0.000    0.000 
#    0.000    0.000    0.000    0.000    0.000    0.000 
#
# Total GULP energy -334347.406643 kJ/mol
# GULP energy per Si atom -5572.456777 kJ/mol
# Density = 1.984319 g / cm^3
# Si number density = 19.888457 Si / 1000 Ang^3
#
#
#
# Elastic Constant Matrix: (Units=GPa)
#
#
# Indices 1 2 3 4 5 6 
#
# 1 54.3840 12.6611 33.4354 0.0000 0.0000 0.0000
# 2 12.6611 113.3959 43.7099 0.0000 0.0000 0.0000
# 3 33.4354 43.7099 117.8457 0.0000 0.0000 0.0000
# 4 0.0000 0.0000 0.0000 35.9086 0.0000 0.0000
# 5 0.0000 0.0000 0.0000 0.0000 -17.7752 0.0000
# 6 0.0000 0.0000 0.0000 0.0000 0.0000 21.2399
#
#
#
# Elastic Compliance Matrix: (Units=1/GPa)
#
#
# Indices 1 2 3 4 5 6 
#
# 1 0.022273 -0.000059 -0.006297 0.000000 0.000000 0.000000
# 2 -0.000059 0.010290 -0.003800 0.000000 0.000000 0.000000
# 3 -0.006297 -0.003800 0.011682 0.000000 0.000000 0.000000
# 4 0.000000 0.000000 0.000000 0.027849 0.000000 0.000000
# 5 0.000000 0.000000 0.000000 0.000000 -0.056258 0.000000
# 6 0.000000 0.000000 0.000000 0.000000 0.000000 0.047081
#
#
# Mechanical properties :
#
#
# Convention : Reuss Voigt Hill
#
# Bulk Modulus (GPa) = 41.78551 51.69316 46.73933
# Shear Modulus (GPa) = 54.82047 20.92928 37.87487
#
# Velocity S-wave (km/s) = 5.25584 3.24749 4.36864
# Velocity P-wave (km/s) = 7.60837 6.33321 6.99989
#
# Compressibility (1/GPa) = 0.02393174
#
# Stress axis : x y z
#
# Youngs Moduli (GPa) = 44.89701 97.18208 85.60387
#
# Poissons Ratio (x) = 0.00578 0.53907
# Poissons Ratio (y) = 0.00267 0.32527
# Poissons Ratio (z) = 0.28273 0.36927
#
# Static dielectric constant tensor:
#      x y z
#    x 1.695840 0.000000 0.000000 
#    y 0.000000 1.715110 0.000000 
#    z 0.000000 0.000000 1.707720 
# 
# From -- ./inp_files/10442.got.cif
#   From: 2010.05.17/outbox.cif.g08.bks.cpg/sg58_6_cif.got.tgz:10442.got - 2010.06.03 14:20:14.
