data_PCOD9444679
_publ_section_title
;
Structure prediction by ZEFSAII (Michael W. Deem and Ramdas Pophale) SiO2 
 PCOD9444679
Probable space group: P N N M
;
_chemical_formula_sum "Si O2"
_cell_formula_units_Z 56
_cell_length_a 21.031715
_cell_length_b 10.051556
_cell_length_c 15.380352
_cell_angle_alpha 90.000000
_cell_angle_beta 90.000000
_cell_angle_gamma 90.000000
_cell_volume 3251.428885
_symmetry_space_group_name_H-M "P N N M"
_symmetry_group_IT_number 58
_symmetry_cell_setting 'orthorhombic'
loop_
_space_group_symop_operation_xyz
x,y,z
-x,-y,z
1/2+x,1/2-y,1/2-z
1/2-x,1/2+y,1/2-z
-x,-y,-z
x,y,-z
1/2-x,1/2+y,1/2+z
1/2+x,1/2-y,1/2+z
loop_
_atom_site_type_symbol
_atom_site_label
_atom_site_fract_x
_atom_site_fract_y
_atom_site_fract_z
Si Si1 0.501985 0.844288 0.214892
Si Si2 0.450607 0.380546 0.904580
Si Si3 0.919602 0.141081 0.000000
Si Si4 0.070796 0.154765 0.000000
Si Si5 0.628675 0.779576 0.328188
Si Si6 0.710545 0.031171 0.607642
Si Si7 0.337220 0.468444 0.218668
Si Si8 0.877108 0.758949 0.182961
O O1 0.515204 0.749559 0.133064
O O2 0.564556 0.820629 0.275721
O O3 0.434894 0.799942 0.258411
O O4 0.500000 0.000000 0.194225
O O5 0.500000 0.500000 0.910542
O O6 0.398779 0.432636 0.837663
O O7 0.423110 0.353725 0.000000
O O8 0.895561 0.210950 0.085120
O O9 0.995390 0.143398 0.000000
O O10 0.897998 0.989809 0.000000
O O11 0.091078 0.220329 0.089083
O O12 0.669084 0.905972 0.359036
O O13 0.668801 0.665551 0.277446
O O14 0.710439 0.041347 0.500000
O O15 0.779876 0.013901 0.650694
O O16 0.679146 0.157405 0.657585
O O17 0.351511 0.602605 0.274684
#
# Coordination Sequence:
#
# PCOD9444679 Si02
#       8
#     8   8   4   4   8   8   8   8
#     4  11  22  37  61  92 125 153 192 248 310 357
#     4  10  21  39  65  90 112 151 204 255 291 339
#     4  11  20  33  59  95 125 151 191 242 305 360
#     4  11  22  33  61  95 129 151 187 248 301 362
#     4  11  22  37  61  88 122 157 197 247 295 360
#     4  12  25  40  60  85 122 165 197 245 298 351
#     4  11  24  41  61  85 120 158 211 240 291 355
#     4  12  22  39  61  91 121 160 196 242 302 361
#
# _framework density 17.223196999999999
#
# number of rings (size 3 to 8) (size 9 to 14) (size 15 to 20)
#    0.000    0.857    7.143    1.286    0.000    0.286 
#    0.000    2.143    0.000    0.000    0.000    0.000 
#    0.000    0.000    0.000    0.000    0.000    0.000 
#
# Total GULP energy -312075.355649 kJ/mol
# GULP energy per Si atom -5572.774208 kJ/mol
# Density = 1.718400 g / cm^3
# Si number density = 17.223197 Si / 1000 Ang^3
#
#
#
# Elastic Constant Matrix: (Units=GPa)
#
#
# Indices 1 2 3 4 5 6 
#
# 1 58.7039 16.7050 18.1327 0.0000 0.0000 0.0000
# 2 16.7050 92.4533 42.4776 0.0000 0.0000 0.0000
# 3 18.1327 42.4776 99.1905 0.0000 0.0000 0.0000
# 4 0.0000 0.0000 0.0000 17.4790 0.0000 0.0000
# 5 0.0000 0.0000 0.0000 0.0000 22.5309 0.0000
# 6 0.0000 0.0000 0.0000 0.0000 0.0000 17.1161
#
#
#
# Elastic Compliance Matrix: (Units=1/GPa)
#
#
# Indices 1 2 3 4 5 6 
#
# 1 0.018412 -0.002216 -0.002417 0.000000 0.000000 0.000000
# 2 -0.002216 0.013733 -0.005476 0.000000 0.000000 0.000000
# 3 -0.002417 -0.005476 0.012868 0.000000 0.000000 0.000000
# 4 0.000000 0.000000 0.000000 0.057211 0.000000 0.000000
# 5 0.000000 0.000000 0.000000 0.000000 0.044383 0.000000
# 6 0.000000 0.000000 0.000000 0.000000 0.000000 0.058425
#
#
# Mechanical properties :
#
#
# Convention : Reuss Voigt Hill
#
# Bulk Modulus (GPa) = 40.33043 44.99760 42.66402
# Shear Modulus (GPa) = 21.41194 22.96071 22.18633
#
# Velocity S-wave (km/s) = 3.52973 3.65516 3.59300
# Velocity P-wave (km/s) = 6.33081 6.63299 6.48366
#
# Compressibility (1/GPa) = 0.02479517
#
# Stress axis : x y z
#
# Youngs Moduli (GPa) = 54.31294 72.81974 77.71029
#
# Poissons Ratio (x) = 0.16140 0.18780
# Poissons Ratio (y) = 0.12038 0.42552
# Poissons Ratio (z) = 0.13125 0.39874
#
# Static dielectric constant tensor:
#      x y z
#    x 1.573570 0.000000 0.000000 
#    y 0.000000 1.610720 0.000000 
#    z 0.000000 0.000000 1.553760 
# 
# From -- ./inp_files/20161.got.cif
#   From: 2010.05.17/outbox.cif.g08.bks.cpg/sg58_11_cif.got.tgz:20161.got - 2010.06.03 14:20:14.
