data_PCOD9444159
_publ_section_title
;
Structure prediction by ZEFSAII (Michael W. Deem and Ramdas Pophale) SiO2 
 PCOD9444159
Probable space group: P N N M
;
_chemical_formula_sum "Si O2"
_cell_formula_units_Z 48
_cell_length_a 14.569181
_cell_length_b 9.015680
_cell_length_c 19.137486
_cell_angle_alpha 90.000000
_cell_angle_beta 90.000000
_cell_angle_gamma 90.000000
_cell_volume 2513.729335
_symmetry_space_group_name_H-M "P N N M"
_symmetry_group_IT_number 58
_symmetry_cell_setting 'orthorhombic'
loop_
_space_group_symop_operation_xyz
x,y,z
-x,-y,z
1/2+x,1/2-y,1/2-z
1/2-x,1/2+y,1/2-z
-x,-y,-z
x,y,-z
1/2-x,1/2+y,1/2+z
1/2+x,1/2-y,1/2+z
loop_
_atom_site_type_symbol
_atom_site_label
_atom_site_fract_x
_atom_site_fract_y
_atom_site_fract_z
Si Si1 0.940142 0.859860 0.166986
Si Si2 0.935993 0.356127 0.078732
Si Si3 0.991234 0.319360 0.281902
Si Si4 0.573345 0.868419 0.078534
Si Si5 0.252480 0.014197 0.831982
Si Si6 0.306586 0.188810 0.698451
O O1 0.843021 0.918789 0.140156
O O2 0.000257 0.774262 0.109453
O O3 0.930486 0.751167 0.233888
O O4 0.000000 0.000000 0.190277
O O5 0.848935 0.381680 0.128565
O O6 0.000000 0.500000 0.080531
O O7 0.907578 0.323627 0.000000
O O8 0.977501 0.270249 0.361888
O O9 0.898712 0.270858 0.242087
O O10 0.000000 0.500000 0.279018
O O11 0.663792 0.931119 0.118911
O O12 0.500000 0.000000 0.070207
O O13 0.592941 0.811115 0.000000
O O14 0.259719 0.078310 0.752960
O O15 0.246067 0.837063 0.824340
#
# Coordination Sequence:
#
# PCOD9444159 Si02
#       6
#     8   8   8   8   8   8
#     4  11  20  36  58  89 119 147 191 249 298 344
#     4  10  22  40  60  83 123 166 191 231 305 375
#     4   9  18  35  60  82 113 155 189 239 295 356
#     4   9  20  38  57  79 110 153 200 237 281 340
#     4  11  23  34  60  90 116 151 198 252 295 345
#     4  10  21  36  53  89 114 151 199 241 290 350
#
# _framework density 19.095134999999999
#
# number of rings (size 3 to 8) (size 9 to 14) (size 15 to 20)
#    0.000    2.000    3.333    2.000    9.333    2.333 
#    0.000    0.000    0.000    0.500    0.000    0.000 
#    0.000    0.000    0.000    0.000    0.000    0.000 
#
# Total GULP energy -267222.907125 kJ/mol
# GULP energy per Si atom -5567.143898 kJ/mol
# Density = 1.905167 g / cm^3
# Si number density = 19.095135 Si / 1000 Ang^3
#
#
#
# Elastic Constant Matrix: (Units=GPa)
#
#
# Indices 1 2 3 4 5 6 
#
# 1 49.1715 -0.5653 -2.2613 0.0000 0.0000 0.0000
# 2 -0.5653 52.8866 13.7573 0.0000 0.0000 0.0000
# 3 -2.2613 13.7573 136.0356 0.0000 0.0000 0.0000
# 4 0.0000 0.0000 0.0000 -11.0837 0.0000 0.0000
# 5 0.0000 0.0000 0.0000 0.0000 123.1481 0.0000
# 6 0.0000 0.0000 0.0000 0.0000 0.0000 25.4252
#
#
#
# Elastic Compliance Matrix: (Units=1/GPa)
#
#
# Indices 1 2 3 4 5 6 
#
# 1 0.020353 0.000133 0.000325 0.000000 0.000000 0.000000
# 2 0.000133 0.019420 -0.001962 0.000000 0.000000 0.000000
# 3 0.000325 -0.001962 0.007555 0.000000 0.000000 0.000000
# 4 0.000000 0.000000 0.000000 -0.090222 0.000000 0.000000
# 5 0.000000 0.000000 0.000000 0.000000 0.008120 0.000000
# 6 0.000000 0.000000 0.000000 0.000000 0.000000 0.039331
#
#
# Mechanical properties :
#
#
# Convention : Reuss Voigt Hill
#
# Bulk Modulus (GPa) = 22.56278 28.88388 25.72333
# Shear Modulus (GPa) = 223.82812 42.64212 133.23512
#
# Velocity S-wave (km/s) = 10.83844 4.73074 8.36217
# Velocity P-wave (km/s) = 12.97963 6.70813 10.33126
#
# Compressibility (1/GPa) = 0.04432078
#
# Stress axis : x y z
#
# Youngs Moduli (GPa) = 49.13166 51.49306 132.36605
#
# Poissons Ratio (x) = -0.00685 -0.04300
# Poissons Ratio (y) = -0.00654 0.25967
# Poissons Ratio (z) = -0.01596 0.10102
#
# Static dielectric constant tensor:
#      x y z
#    x 1.716090 0.000000 0.000000 
#    y 0.000000 1.705440 0.000000 
#    z 0.000000 0.000000 1.716980 
# 
# From -- ./inp_files/29906.got.cif
#   From: 2010.05.17/outbox.cif.g08.bks.cpg/sg58_15_cif.got.tgz:29906.got - 2010.06.03 14:20:14.
