data_PCOD9444298
_publ_section_title
;
Structure prediction by ZEFSAII (Michael W. Deem and Ramdas Pophale) SiO2 
 PCOD9444298
Probable space group: P N N M
;
_chemical_formula_sum "Si O2"
_cell_formula_units_Z 56
_cell_length_a 25.447972
_cell_length_b 14.683058
_cell_length_c 8.966895
_cell_angle_alpha 90.000000
_cell_angle_beta 90.000000
_cell_angle_gamma 90.000000
_cell_volume 3350.516622
_symmetry_space_group_name_H-M "P N N M"
_symmetry_group_IT_number 58
_symmetry_cell_setting 'orthorhombic'
loop_
_space_group_symop_operation_xyz
x,y,z
-x,-y,z
1/2+x,1/2-y,1/2-z
1/2-x,1/2+y,1/2-z
-x,-y,-z
x,y,-z
1/2-x,1/2+y,1/2+z
1/2+x,1/2-y,1/2+z
loop_
_atom_site_type_symbol
_atom_site_label
_atom_site_fract_x
_atom_site_fract_y
_atom_site_fract_z
Si Si1 0.810458 0.194954 0.820233
Si Si2 0.493376 0.893524 0.177942
Si Si3 0.827689 0.489770 0.169164
Si Si4 0.389433 0.820863 0.330334
Si Si5 0.718071 0.490367 0.323353
Si Si6 0.109595 0.671597 0.322476
Si Si7 0.299498 0.702836 0.821627
O O1 0.859747 0.240902 0.739053
O O2 0.755700 0.246787 0.776683
O O3 0.807228 0.087775 0.784245
O O4 0.815200 0.204423 0.000000
O O5 0.445102 0.842716 0.255289
O O6 0.547489 0.839120 0.204115
O O7 0.500000 0.000000 0.226966
O O8 0.483578 0.896903 0.000000
O O9 0.859880 0.582379 0.165042
O O10 0.778636 0.500802 0.277250
O O11 0.863623 0.411029 0.234522
O O12 0.810139 0.466959 0.000000
O O13 0.396337 0.788062 0.500000
O O14 0.349948 0.755191 0.242456
O O15 0.712742 0.476474 0.500000
O O16 0.699571 0.400103 0.238699
O O17 0.118219 0.662666 0.500000
O O18 0.300856 0.704228 0.000000
#
# Coordination Sequence:
#
# PCOD9444298 Si02
#       7
#     8   8   8   8   8   8   8
#     4  10  22  37  55  81 114 149 184 227 280 333
#     4  10  21  37  56  81 114 150 187 229 284 337
#     4  11  21  32  51  81 116 148 184 227 272 326
#     4  11  23  36  55  83 114 152 192 230 275 333
#     4  11  22  37  56  80 112 150 189 226 273 331
#     4  11  22  35  56  82 112 151 189 228 275 333
#     4  11  22  37  57  83 115 149 185 229 283 333
#
# _framework density 16.713840999999999
#
# number of rings (size 3 to 8) (size 9 to 14) (size 15 to 20)
#    0.000    1.286    4.286    2.143    0.000    4.286 
#    0.000    0.000    0.000    0.857    0.000    6.000 
#    0.000    0.000    0.000    0.000    0.000    0.000 
#
# Total GULP energy -312607.911355 kJ/mol
# GULP energy per Si atom -5582.284131 kJ/mol
# Density = 1.667580 g / cm^3
# Si number density = 16.713841 Si / 1000 Ang^3
#
#
#
# Elastic Constant Matrix: (Units=GPa)
#
#
# Indices 1 2 3 4 5 6 
#
# 1 100.3472 59.6619 51.0096 0.0000 0.0000 0.0000
# 2 59.6619 122.5924 58.5409 0.0000 0.0000 0.0000
# 3 51.0096 58.5409 63.8242 0.0000 0.0000 0.0000
# 4 0.0000 0.0000 0.0000 29.5242 0.0000 0.0000
# 5 0.0000 0.0000 0.0000 0.0000 29.8000 0.0000
# 6 0.0000 0.0000 0.0000 0.0000 0.0000 31.0484
#
#
#
# Elastic Compliance Matrix: (Units=1/GPa)
#
#
# Indices 1 2 3 4 5 6 
#
# 1 0.017491 -0.003268 -0.010981 0.000000 0.000000 0.000000
# 2 -0.003268 0.015125 -0.011261 0.000000 0.000000 0.000000
# 3 -0.010981 -0.011261 0.034773 0.000000 0.000000 0.000000
# 4 0.000000 0.000000 0.000000 0.033870 0.000000 0.000000
# 5 0.000000 0.000000 0.000000 0.000000 0.033557 0.000000
# 6 0.000000 0.000000 0.000000 0.000000 0.000000 0.032208
#
#
# Mechanical properties :
#
#
# Convention : Reuss Voigt Hill
#
# Bulk Modulus (GPa) = 61.09436 69.46540 65.27988
# Shear Modulus (GPa) = 22.37131 25.91129 24.14130
#
# Velocity S-wave (km/s) = 3.66251 3.94164 3.80464
# Velocity P-wave (km/s) = 7.38362 7.89729 7.64477
#
# Compressibility (1/GPa) = 0.01636812
#
# Stress axis : x y z
#
# Youngs Moduli (GPa) = 57.17340 66.11529 28.75802
#
# Poissons Ratio (x) = 0.21610 0.31579
# Poissons Ratio (y) = 0.18687 0.32384
# Poissons Ratio (z) = 0.62782 0.74451
#
# Static dielectric constant tensor:
#      x y z
#    x 1.544500 0.000000 0.000000 
#    y 0.000000 1.570700 0.000000 
#    z 0.000000 0.000000 1.569690 
# 
# From -- ./inp_files/6236.got.cif
#   From: 2010.05.17/outbox.cif.g08.bks.cpg/sg58_4_cif.got.tgz:6236.got - 2010.06.03 14:20:14.
