data_PCOD9444222
_publ_section_title
;
Structure prediction by ZEFSAII (Michael W. Deem and Ramdas Pophale) SiO2 
 PCOD9444222
Probable space group: P N N M
;
_chemical_formula_sum "Si O2"
_cell_formula_units_Z 58
_cell_length_a 29.423489
_cell_length_b 12.499445
_cell_length_c 7.553611
_cell_angle_alpha 90.000000
_cell_angle_beta 90.000000
_cell_angle_gamma 90.000000
_cell_volume 2778.046526
_symmetry_space_group_name_H-M "P N N M"
_symmetry_group_IT_number 58
_symmetry_cell_setting 'orthorhombic'
loop_
_space_group_symop_operation_xyz
x,y,z
-x,-y,z
1/2+x,1/2-y,1/2-z
1/2-x,1/2+y,1/2-z
-x,-y,-z
x,y,-z
1/2-x,1/2+y,1/2+z
1/2+x,1/2-y,1/2+z
loop_
_atom_site_type_symbol
_atom_site_label
_atom_site_fract_x
_atom_site_fract_y
_atom_site_fract_z
Si Si1 0.642284 0.485792 0.213905
Si Si2 0.585861 0.695303 0.294433
Si Si3 0.516256 0.341537 0.293792
Si Si4 0.500000 0.500000 0.000000
Si Si5 0.671133 0.827850 0.203501
Si Si6 0.608237 0.253721 0.785253
Si Si7 0.726239 0.625195 0.214839
Si Si8 0.671768 0.064777 0.207807
O O1 0.607049 0.577076 0.274298
O O2 0.630042 0.366942 0.274851
O O3 0.691823 0.530111 0.269152
O O4 0.641421 0.486538 0.000000
O O5 0.585022 0.723934 0.500000
O O6 0.533929 0.695068 0.230737
O O7 0.621142 0.775398 0.204566
O O8 0.513140 0.374087 0.500000
O O9 0.527761 0.435206 0.156571
O O10 0.556040 0.255394 0.275231
O O11 0.704204 0.736679 0.280376
O O12 0.670506 0.945257 0.286026
O O13 0.686120 0.840919 0.000000
O O14 0.637105 0.152963 0.719486
O O15 0.609379 0.253671 0.000000
O O16 0.777078 0.607550 0.276785
O O17 0.726132 0.626940 0.000000
O O18 0.660007 0.054151 0.000000
#
# Coordination Sequence:
#
# PCOD9444222 Si02
#       8
#     8   8   8   2   8   8   8   8
#     4   9  19  34  55  82 116 154 194 237 297 367
#     4  10  21  36  58  88 117 150 197 252 299 360
#     4  11  24  38  58  93 128 162 213 255 308 379
#     4  12  22  36  64  90 126 176 194 256 316 368
#     4   9  20  39  60  82 115 156 203 249 300 369
#     4  10  21  38  58  84 121 166 204 250 312 370
#     4   9  19  35  55  82 114 155 196 245 306 360
#     4  10  22  38  59  86 115 155 207 253 299 366
#
# _framework density 20.877979
#
# number of rings (size 3 to 8) (size 9 to 14) (size 15 to 20)
#    0.000    2.207    0.690    2.276    5.793    4.966 
#    0.000    0.690    0.000    4.138    0.000    0.000 
#    0.000    0.000    0.000    0.000    0.000    0.000 
#
# Total GULP energy -323322.697894 kJ/mol
# GULP energy per Si atom -5574.529274 kJ/mol
# Density = 2.083046 g / cm^3
# Si number density = 20.877979 Si / 1000 Ang^3
#
#
#
# Elastic Constant Matrix: (Units=GPa)
#
#
# Indices 1 2 3 4 5 6 
#
# 1 94.2327 45.7854 -7.3852 0.0000 0.0000 0.0000
# 2 45.7854 128.7471 4.8127 0.0000 0.0000 0.0000
# 3 -7.3852 4.8127 68.0582 0.0000 0.0000 0.0000
# 4 0.0000 0.0000 0.0000 -19.4512 0.0000 0.0000
# 5 0.0000 0.0000 0.0000 0.0000 18.8919 0.0000
# 6 0.0000 0.0000 0.0000 0.0000 0.0000 20.3174
#
#
#
# Elastic Compliance Matrix: (Units=1/GPa)
#
#
# Indices 1 2 3 4 5 6 
#
# 1 0.013032 -0.004700 0.001747 0.000000 0.000000 0.000000
# 2 -0.004700 0.009483 -0.001181 0.000000 0.000000 0.000000
# 3 0.001747 -0.001181 0.014966 0.000000 0.000000 0.000000
# 4 0.000000 0.000000 0.000000 -0.051411 0.000000 0.000000
# 5 0.000000 0.000000 0.000000 0.000000 0.052933 0.000000
# 6 0.000000 0.000000 0.000000 0.000000 0.000000 0.049219
#
#
# Mechanical properties :
#
#
# Convention : Reuss Voigt Hill
#
# Bulk Modulus (GPa) = 34.23065 41.94042 38.08554
# Shear Modulus (GPa) = 47.06850 20.47329 33.77090
#
# Velocity S-wave (km/s) = 4.75326 3.13488 4.02622
# Velocity P-wave (km/s) = 6.82318 5.76500 6.31629
#
# Compressibility (1/GPa) = 0.02921359
#
# Stress axis : x y z
#
# Youngs Moduli (GPa) = 76.73132 105.45515 66.81669
#
# Poissons Ratio (x) = 0.49563 -0.11670
# Poissons Ratio (y) = 0.36063 0.07888
# Poissons Ratio (z) = -0.13401 0.12450
#
# Static dielectric constant tensor:
#      x y z
#    x 1.774380 0.000000 0.000000 
#    y 0.000000 1.767580 0.000000 
#    z 0.000000 0.000000 1.762870 
# 
# From -- ./inp_files/10884.got.cif
#   From: 2010.05.17/outbox.cif.g08.bks.cpg/sg58_6_cif.got.tgz:10884.got - 2010.06.03 14:20:14.
