data_PCOD9444661
_publ_section_title
;
Structure prediction by ZEFSAII (Michael W. Deem and Ramdas Pophale) SiO2 
 PCOD9444661
Probable space group: P N N M
;
_chemical_formula_sum "Si O2"
_cell_formula_units_Z 58
_cell_length_a 19.333346
_cell_length_b 17.186380
_cell_length_c 7.498771
_cell_angle_alpha 90.000000
_cell_angle_beta 90.000000
_cell_angle_gamma 90.000000
_cell_volume 2491.618373
_symmetry_space_group_name_H-M "P N N M"
_symmetry_group_IT_number 58
_symmetry_cell_setting 'orthorhombic'
loop_
_space_group_symop_operation_xyz
x,y,z
-x,-y,z
1/2+x,1/2-y,1/2-z
1/2-x,1/2+y,1/2-z
-x,-y,-z
x,y,-z
1/2-x,1/2+y,1/2+z
1/2+x,1/2-y,1/2+z
loop_
_atom_site_type_symbol
_atom_site_label
_atom_site_fract_x
_atom_site_fract_y
_atom_site_fract_z
Si Si1 0.581139 0.638148 0.782523
Si Si2 0.000000 0.500000 0.000000
Si Si3 0.573237 0.323622 0.781479
Si Si4 0.150833 0.020694 0.717701
Si Si5 0.820280 0.704137 0.294763
Si Si6 0.300878 0.969642 0.294706
Si Si7 0.083313 0.579387 0.700840
Si Si8 0.319211 0.223583 0.785378
O O1 0.505325 0.664236 0.724293
O O2 0.603387 0.552009 0.726691
O O3 0.638173 0.700530 0.726519
O O4 0.580513 0.638100 0.000000
O O5 0.024832 0.561633 0.156967
O O6 0.617983 0.398365 0.725728
O O7 0.611543 0.245638 0.720896
O O8 0.573856 0.322263 0.000000
O O9 0.152400 0.020018 0.500000
O O10 0.229283 0.004760 0.776308
O O11 0.832334 0.684156 0.500000
O O12 0.798010 0.623622 0.206654
O O13 0.758117 0.766785 0.285506
O O14 0.309676 0.994418 0.500000
O O15 0.367638 0.003166 0.198324
O O16 0.058207 0.596896 0.500000
O O17 0.135631 0.648238 0.759581
O O18 0.313675 0.224495 0.000000
#
# Coordination Sequence:
#
# PCOD9444661 Si02
#       8
#     8   2   8   8   8   8   8   8
#     4   9  16  31  54  84 122 158 200 255 321 392
#     4  12  26  48  68  98 132 176 222 292 344 406
#     4   9  18  30  50  86 120 153 198 258 323 387
#     4   9  16  29  55  86 120 159 203 256 319 391
#     4  11  22  35  58  90 129 167 218 275 328 394
#     4  11  21  39  63  91 127 167 220 276 332 395
#     4  11  25  44  69  97 132 177 230 282 341 409
#     4  10  21  39  63  91 124 171 219 268 328 401
#
# _framework density 23.278043
#
# number of rings (size 3 to 8) (size 9 to 14) (size 15 to 20)
#    0.000    1.931    2.069    2.276    0.966    3.862 
#    0.000    2.759    0.000    0.000    0.000    0.966 
#    0.000    0.000    0.000    0.000    0.000    0.000 
#
# Total GULP energy -323860.918065 kJ/mol
# GULP energy per Si atom -5583.808932 kJ/mol
# Density = 2.322506 g / cm^3
# Si number density = 23.278043 Si / 1000 Ang^3
#
#
#
# Elastic Constant Matrix: (Units=GPa)
#
#
# Indices 1 2 3 4 5 6 
#
# 1 53.5412 2.7245 2.7956 0.0000 0.0000 0.0000
# 2 2.7245 43.3821 -3.8406 0.0000 0.0000 0.0000
# 3 2.7956 -3.8406 76.0718 0.0000 0.0000 0.0000
# 4 0.0000 0.0000 0.0000 14.8259 0.0000 0.0000
# 5 0.0000 0.0000 0.0000 0.0000 2.1961 0.0000
# 6 0.0000 0.0000 0.0000 0.0000 0.0000 7.1200
#
#
#
# Elastic Compliance Matrix: (Units=1/GPa)
#
#
# Indices 1 2 3 4 5 6 
#
# 1 0.018780 -0.001246 -0.000753 0.000000 0.000000 0.000000
# 2 -0.001246 0.023237 0.001219 0.000000 0.000000 0.000000
# 3 -0.000753 0.001219 0.013235 0.000000 0.000000 0.000000
# 4 0.000000 0.000000 0.000000 0.067449 0.000000 0.000000
# 5 0.000000 0.000000 0.000000 0.000000 0.455360 0.000000
# 6 0.000000 0.000000 0.000000 0.000000 0.000000 0.140449
#
#
# Mechanical properties :
#
#
# Convention : Reuss Voigt Hill
#
# Bulk Modulus (GPa) = 18.62497 19.59491 19.10994
# Shear Modulus (GPa) = 6.77537 16.24945 11.51241
#
# Velocity S-wave (km/s) = 1.70791 2.64495 2.22629
# Velocity P-wave (km/s) = 3.45076 4.21470 3.85172
#
# Compressibility (1/GPa) = 0.05369136
#
# Stress axis : x y z
#
# Youngs Moduli (GPa) = 53.24829 43.03453 75.55904
#
# Poissons Ratio (x) = 0.05363 0.05690
# Poissons Ratio (y) = 0.06635 -0.09210
# Poissons Ratio (z) = 0.04010 -0.05246
#
# Static dielectric constant tensor:
#      x y z
#    x 1.859330 0.000000 0.000000 
#    y 0.000000 1.846000 0.000000 
#    z 0.000000 0.000000 1.909110 
# 
# From -- ./inp_files/8003.got.cif
#   From: 2010.05.17/outbox.cif.g08.bks.cpg/sg58_5_cif.got.tgz:8003.got - 2010.06.03 14:20:14.
