data_PCOD9444946
_publ_section_title
;
Structure prediction by ZEFSAII (Michael W. Deem and Ramdas Pophale) SiO2 
 PCOD9444946
Probable space group: P N N M
;
_chemical_formula_sum "Si O2"
_cell_formula_units_Z 40
_cell_length_a 9.181141
_cell_length_b 21.034921
_cell_length_c 9.822812
_cell_angle_alpha 90.000000
_cell_angle_beta 90.000000
_cell_angle_gamma 90.000000
_cell_volume 1897.026399
_symmetry_space_group_name_H-M "P N N M"
_symmetry_group_IT_number 58
_symmetry_cell_setting 'orthorhombic'
loop_
_space_group_symop_operation_xyz
x,y,z
-x,-y,z
1/2+x,1/2-y,1/2-z
1/2-x,1/2+y,1/2-z
-x,-y,-z
x,y,-z
1/2-x,1/2+y,1/2+z
1/2+x,1/2-y,1/2+z
loop_
_atom_site_type_symbol
_atom_site_label
_atom_site_fract_x
_atom_site_fract_y
_atom_site_fract_z
Si Si1 0.753589 0.181124 0.152368
Si Si2 0.094390 0.443332 0.742311
Si Si3 0.145988 0.028730 0.660661
Si Si4 0.456048 0.252207 0.160812
Si Si5 0.161453 0.639154 0.157166
O O1 0.669696 0.113725 0.159839
O O2 0.626662 0.234390 0.176456
O O3 0.881753 0.188359 0.262748
O O4 0.812108 0.189553 0.000000
O O5 0.224567 0.478820 0.818298
O O6 0.000000 0.500000 0.671798
O O7 0.978120 0.408069 0.838649
O O8 0.122850 0.038117 0.500000
O O9 0.203606 0.096959 0.709156
O O10 0.000000 0.000000 0.723171
O O11 0.378086 0.194108 0.238673
O O12 0.426790 0.254794 0.000000
O O13 0.183517 0.659175 0.000000
#
# Coordination Sequence:
#
# PCOD9444946 Si02
#       5
#     8   8   8   8   8
#     4  10  22  39  59  84 113 148 190 235 286 342
#     4   9  18  33  54  80 110 144 185 227 276 335
#     4   9  17  29  48  77 109 139 175 222 272 321
#     4  10  22  38  56  80 109 143 184 230 281 335
#     4   9  17  32  54  76 103 141 181 222 269 327
#
# _framework density 21.085633000000001
#
# number of rings (size 3 to 8) (size 9 to 14) (size 15 to 20)
#    0.000    2.600    0.000    1.200    0.000    9.200 
#    0.000    7.000    0.000    1.200    0.000    0.000 
#    0.000    0.000    0.000    0.000    0.000    0.000 
#
# Total GULP energy -222890.209702 kJ/mol
# GULP energy per Si atom -5572.255243 kJ/mol
# Density = 2.103764 g / cm^3
# Si number density = 21.085633 Si / 1000 Ang^3
#
#
#
# Elastic Constant Matrix: (Units=GPa)
#
#
# Indices 1 2 3 4 5 6 
#
# 1 42.2938 5.6870 2.2791 0.0000 0.0000 0.0000
# 2 5.6870 51.1830 4.6916 0.0000 0.0000 0.0000
# 3 2.2791 4.6916 72.2261 0.0000 0.0000 0.0000
# 4 0.0000 0.0000 0.0000 4.6122 0.0000 0.0000
# 5 0.0000 0.0000 0.0000 0.0000 -24.3076 0.0000
# 6 0.0000 0.0000 0.0000 0.0000 0.0000 29.3398
#
#
#
# Elastic Compliance Matrix: (Units=1/GPa)
#
#
# Indices 1 2 3 4 5 6 
#
# 1 0.024028 -0.002616 -0.000588 0.000000 0.000000 0.000000
# 2 -0.002616 0.019940 -0.001213 0.000000 0.000000 0.000000
# 3 -0.000588 -0.001213 0.013943 0.000000 0.000000 0.000000
# 4 0.000000 0.000000 0.000000 0.216814 0.000000 0.000000
# 5 0.000000 0.000000 0.000000 0.000000 -0.041139 0.000000
# 6 0.000000 0.000000 0.000000 0.000000 0.000000 0.034083
#
#
# Mechanical properties :
#
#
# Convention : Reuss Voigt Hill
#
# Bulk Modulus (GPa) = 20.37641 21.22425 20.80033
# Shear Modulus (GPa) = 17.07299 12.13189 14.60244
#
# Velocity S-wave (km/s) = 2.84861 2.40127 2.63445
# Velocity P-wave (km/s) = 4.52814 4.21613 4.37492
#
# Compressibility (1/GPa) = 0.04907636
#
# Stress axis : x y z
#
# Youngs Moduli (GPa) = 41.61884 50.15161 71.72192
#
# Poissons Ratio (x) = 0.13119 0.04219
# Poissons Ratio (y) = 0.10887 0.08697
# Poissons Ratio (z) = 0.02448 0.06082
#
# Static dielectric constant tensor:
#      x y z
#    x 1.785590 0.000000 0.000000 
#    y 0.000000 1.855020 0.000000 
#    z 0.000000 0.000000 1.701690 
# 
# From -- ./inp_files/2444.got.cif
#   From: 2010.05.17/outbox.cif.g08.bks.cpg/sg58_2_cif.got.tgz:2444.got - 2010.06.03 14:20:14.
