data_PCOD9444862
_publ_section_title
;
Structure prediction by ZEFSAII (Michael W. Deem and Ramdas Pophale) SiO2 
 PCOD9444862
Probable space group: P N N M
;
_chemical_formula_sum "Si O2"
_cell_formula_units_Z 32
_cell_length_a 8.814254
_cell_length_b 8.360663
_cell_length_c 21.926359
_cell_angle_alpha 90.000000
_cell_angle_beta 90.000000
_cell_angle_gamma 90.000000
_cell_volume 1615.819334
_symmetry_space_group_name_H-M "P N N M"
_symmetry_group_IT_number 58
_symmetry_cell_setting 'orthorhombic'
loop_
_space_group_symop_operation_xyz
x,y,z
-x,-y,z
1/2+x,1/2-y,1/2-z
1/2-x,1/2+y,1/2-z
-x,-y,-z
x,y,-z
1/2-x,1/2+y,1/2+z
1/2+x,1/2-y,1/2+z
loop_
_atom_site_type_symbol
_atom_site_label
_atom_site_fract_x
_atom_site_fract_y
_atom_site_fract_z
Si Si1 0.500000 0.000000 0.127317
Si Si2 0.266684 0.802022 0.208257
Si Si3 0.237626 0.209382 0.928155
Si Si4 0.822719 0.543413 0.166982
Si Si5 0.500000 0.500000 0.352125
O O1 0.399590 0.888664 0.171102
O O2 0.611533 0.891014 0.087385
O O3 0.256540 0.618336 0.189358
O O4 0.296257 0.826715 0.279659
O O5 0.112466 0.892340 0.188369
O O6 0.240261 0.380872 0.894868
O O7 0.100857 0.113645 0.895334
O O8 0.214849 0.221748 0.000000
O O9 0.000000 0.500000 0.160922
#
# Coordination Sequence:
#
# PCOD9444862 Si02
#       5
#     4   8   8   8   4
#     4  10  23  44  68  96 127 174 218 268 328 380
#     4  11  23  41  67  96 129 163 217 276 326 385
#     4  11  24  43  66  96 135 174 220 264 318 394
#     4  12  25  42  66 100 131 172 216 269 333 383
#     4  10  21  42  70  96 125 172 218 266 328 382
#
# _framework density 19.804193000000001
#
# number of rings (size 3 to 8) (size 9 to 14) (size 15 to 20)
#    0.000    1.000    3.750    3.750    0.000    1.500 
#    0.000    3.750    0.000    0.000    0.000    0.000 
#    0.000    0.000    0.000    0.000    0.000    0.000 
#
# Total GULP energy -179134.779895 kJ/mol
# GULP energy per Si atom -5597.961872 kJ/mol
# Density = 1.975912 g / cm^3
# Si number density = 19.804193 Si / 1000 Ang^3
#
#
#
# Elastic Constant Matrix: (Units=GPa)
#
#
# Indices 1 2 3 4 5 6 
#
# 1 101.4986 33.5242 39.5407 0.0000 0.0000 0.0000
# 2 33.5242 107.8227 31.4701 0.0000 0.0000 0.0000
# 3 39.5407 31.4701 141.9368 0.0000 0.0000 0.0000
# 4 0.0000 0.0000 0.0000 18.9345 0.0000 0.0000
# 5 0.0000 0.0000 0.0000 0.0000 10.8282 0.0000
# 6 0.0000 0.0000 0.0000 0.0000 0.0000 21.7739
#
#
#
# Elastic Compliance Matrix: (Units=1/GPa)
#
#
# Indices 1 2 3 4 5 6 
#
# 1 0.011848 -0.002909 -0.002656 0.000000 0.000000 0.000000
# 2 -0.002909 0.010630 -0.001547 0.000000 0.000000 0.000000
# 3 -0.002656 -0.001547 0.008128 0.000000 0.000000 0.000000
# 4 0.000000 0.000000 0.000000 0.052814 0.000000 0.000000
# 5 0.000000 0.000000 0.000000 0.000000 0.092351 0.000000
# 6 0.000000 0.000000 0.000000 0.000000 0.000000 0.045927
#
#
# Mechanical properties :
#
#
# Convention : Reuss Voigt Hill
#
# Bulk Modulus (GPa) = 61.03416 62.25867 61.64641
# Shear Modulus (GPa) = 20.71419 26.75553 23.73486
#
# Velocity S-wave (km/s) = 3.23762 3.67959 3.46566
# Velocity P-wave (km/s) = 6.69791 7.03973 6.87095
#
# Compressibility (1/GPa) = 0.01638427
#
# Stress axis : x y z
#
# Youngs Moduli (GPa) = 84.40553 94.07128 123.02979
#
# Poissons Ratio (x) = 0.27361 0.32672
# Poissons Ratio (y) = 0.24550 0.19029
# Poissons Ratio (z) = 0.22415 0.14550
#
# Static dielectric constant tensor:
#      x y z
#    x 1.702610 0.000000 0.000000 
#    y 0.000000 1.722120 0.000000 
#    z 0.000000 0.000000 1.647790 
# 
# From -- ./inp_files/28466.got.cif
#   From: 2010.05.17/outbox.cif.g08.bks.cpg/sg58_15_cif.got.tgz:28466.got - 2010.06.03 14:20:14.
