data_PCOD9444780
_publ_section_title
;
Structure prediction by ZEFSAII (Michael W. Deem and Ramdas Pophale) SiO2 
 PCOD9444780
Probable space group: P N N M
;
_chemical_formula_sum "Si O2"
_cell_formula_units_Z 40
_cell_length_a 10.311553
_cell_length_b 10.355620
_cell_length_c 18.243921
_cell_angle_alpha 90.000000
_cell_angle_beta 90.000000
_cell_angle_gamma 90.000000
_cell_volume 1948.131941
_symmetry_space_group_name_H-M "P N N M"
_symmetry_group_IT_number 58
_symmetry_cell_setting 'orthorhombic'
loop_
_space_group_symop_operation_xyz
x,y,z
-x,-y,z
1/2+x,1/2-y,1/2-z
1/2-x,1/2+y,1/2-z
-x,-y,-z
x,y,-z
1/2-x,1/2+y,1/2+z
1/2+x,1/2-y,1/2+z
loop_
_atom_site_type_symbol
_atom_site_label
_atom_site_fract_x
_atom_site_fract_y
_atom_site_fract_z
Si Si1 0.846326 0.000475 0.722460
Si Si2 0.216067 0.158731 0.414367
Si Si3 0.019249 0.648367 0.587167
Si Si4 0.742067 0.259986 0.316809
Si Si5 0.990590 0.654296 0.914044
O O1 0.783330 0.139830 0.733949
O O2 0.816885 0.960012 0.638385
O O3 0.785225 0.888271 0.771169
O O4 0.000000 0.000000 0.733928
O O5 0.208385 0.120616 0.500000
O O6 0.363315 0.204223 0.401393
O O7 0.110755 0.269324 0.400106
O O8 0.045443 0.649483 0.500000
O O9 0.137438 0.712490 0.629875
O O10 0.000000 0.500000 0.610133
O O11 0.615174 0.219209 0.362518
O O12 0.000000 0.500000 0.900813
O O13 0.957343 0.672689 0.000000
#
# Coordination Sequence:
#
# PCOD9444780 Si02
#       5
#     8   8   8   8   8
#     4  12  28  44  66 103 134 184 228 276 344 399
#     4  10  22  43  71  98 132 169 225 285 336 401
#     4  10  23  44  72 103 135 178 228 286 346 403
#     4  12  27  43  69  97 143 179 229 281 335 413
#     4  10  21  40  69 102 131 168 222 286 345 395
#
# _framework density 20.532491
#
# number of rings (size 3 to 8) (size 9 to 14) (size 15 to 20)
#    0.000    1.200    4.000    0.600    5.600    1.200 
#    0.000    0.000    0.000    6.000    0.000    0.000 
#    0.000    0.000    0.000    0.000    0.000    0.000 
#
# Total GULP energy -223841.874618 kJ/mol
# GULP energy per Si atom -5596.046865 kJ/mol
# Density = 2.048576 g / cm^3
# Si number density = 20.532491 Si / 1000 Ang^3
#
#
#
# Elastic Constant Matrix: (Units=GPa)
#
#
# Indices 1 2 3 4 5 6 
#
# 1 157.1378 59.9617 56.7814 0.0000 0.0000 0.0000
# 2 59.9617 117.3576 45.7430 0.0000 0.0000 0.0000
# 3 56.7814 45.7430 58.1223 0.0000 0.0000 0.0000
# 4 0.0000 0.0000 0.0000 25.2821 0.0000 0.0000
# 5 0.0000 0.0000 0.0000 0.0000 -23.2154 0.0000
# 6 0.0000 0.0000 0.0000 0.0000 0.0000 35.4637
#
#
#
# Elastic Compliance Matrix: (Units=1/GPa)
#
#
# Indices 1 2 3 4 5 6 
#
# 1 0.010122 -0.001900 -0.008393 0.000000 0.000000 0.000000
# 2 -0.001900 0.012648 -0.008098 0.000000 0.000000 0.000000
# 3 -0.008393 -0.008098 0.031777 0.000000 0.000000 0.000000
# 4 0.000000 0.000000 0.000000 0.039554 0.000000 0.000000
# 5 0.000000 0.000000 0.000000 0.000000 -0.043075 0.000000
# 6 0.000000 0.000000 0.000000 0.000000 0.000000 0.028198
#
#
# Mechanical properties :
#
#
# Convention : Reuss Voigt Hill
#
# Bulk Modulus (GPa) = 56.28860 73.06554 64.67707
# Shear Modulus (GPa) = 41.00815 18.84819 29.92817
#
# Velocity S-wave (km/s) = 4.47389 3.03309 3.82200
# Velocity P-wave (km/s) = 7.35945 6.92306 7.14459
#
# Compressibility (1/GPa) = 0.01776559
#
# Stress axis : x y z
#
# Youngs Moduli (GPa) = 98.79885 79.06252 31.46906
#
# Poissons Ratio (x) = 0.15024 0.26411
# Poissons Ratio (y) = 0.18774 0.25483
# Poissons Ratio (z) = 0.82918 0.64024
#
# Static dielectric constant tensor:
#      x y z
#    x 1.707250 0.000000 0.000000 
#    y 0.000000 1.720880 0.000000 
#    z 0.000000 0.000000 1.728450 
# 
# From -- ./inp_files/24932.got.cif
#   From: 2010.05.17/outbox.cif.g08.bks.cpg/sg58_13_cif.got.tgz:24932.got - 2010.06.03 14:20:14.
