data_PCOD9444949
_publ_section_title
;
Structure prediction by ZEFSAII (Michael W. Deem and Ramdas Pophale) SiO2 
 PCOD9444949
Probable space group: P N N M
;
_chemical_formula_sum "Si O2"
_cell_formula_units_Z 56
_cell_length_a 13.502009
_cell_length_b 20.718190
_cell_length_c 9.449790
_cell_angle_alpha 90.000000
_cell_angle_beta 90.000000
_cell_angle_gamma 90.000000
_cell_volume 2643.457680
_symmetry_space_group_name_H-M "P N N M"
_symmetry_group_IT_number 58
_symmetry_cell_setting 'orthorhombic'
loop_
_space_group_symop_operation_xyz
x,y,z
-x,-y,z
1/2+x,1/2-y,1/2-z
1/2-x,1/2+y,1/2-z
-x,-y,-z
x,y,-z
1/2-x,1/2+y,1/2+z
1/2+x,1/2-y,1/2+z
loop_
_atom_site_type_symbol
_atom_site_label
_atom_site_fract_x
_atom_site_fract_y
_atom_site_fract_z
Si Si1 0.706391 0.611569 0.332433
Si Si2 0.726755 0.737693 0.160523
Si Si3 0.158824 0.164959 0.335217
Si Si4 0.467176 0.099927 0.335669
Si Si5 0.334687 0.987222 0.333102
Si Si6 0.995625 0.276251 0.346816
Si Si7 0.019896 0.075433 0.164878
O O1 0.727827 0.613879 0.500000
O O2 0.750437 0.674191 0.252561
O O3 0.752625 0.547886 0.260603
O O4 0.587195 0.609290 0.315700
O O5 0.608681 0.740015 0.150335
O O6 0.756031 0.803714 0.239688
O O7 0.768024 0.734248 0.000000
O O8 0.185259 0.154775 0.500000
O O9 0.078651 0.222936 0.326421
O O10 0.103935 0.104170 0.266057
O O11 0.446914 0.110143 0.500000
O O12 0.566784 0.057236 0.325018
O O13 0.488488 0.167436 0.264834
O O14 0.374137 0.057080 0.282306
O O15 0.306076 0.990401 0.500000
O O16 0.012273 0.307698 0.500000
O O17 0.049135 0.084298 0.000000
O O18 0.000000 0.000000 0.189095
#
# Coordination Sequence:
#
# PCOD9444949 Si02
#       7
#     8   8   8   8   8   8   8
#     4  11  22  37  60  89 117 154 206 253 298 364
#     4  11  23  40  61  86 119 160 198 244 310 367
#     4  11  23  41  63  92 123 155 205 259 305 363
#     4   9  19  35  56  83 115 153 197 240 290 356
#     4   9  19  36  56  81 116 156 194 238 296 357
#     4  10  22  38  57  83 118 152 188 240 298 353
#     4  10  23  43  64  87 121 164 206 252 310 372
#
# _framework density 21.184376
#
# number of rings (size 3 to 8) (size 9 to 14) (size 15 to 20)
#    0.000    1.857    1.429    3.000    0.000    7.714 
#    0.000    5.714    0.000    0.000    0.000    0.000 
#    0.000    0.000    0.000    0.000    0.000    0.000 
#
# Total GULP energy -312855.326405 kJ/mol
# GULP energy per Si atom -5586.702257 kJ/mol
# Density = 2.113616 g / cm^3
# Si number density = 21.184376 Si / 1000 Ang^3
#
#
#
# Elastic Constant Matrix: (Units=GPa)
#
#
# Indices 1 2 3 4 5 6 
#
# 1 31.2359 -5.0988 11.6456 0.0000 0.0000 0.0000
# 2 -5.0988 70.5589 44.5261 0.0000 0.0000 0.0000
# 3 11.6456 44.5261 95.7944 0.0000 0.0000 0.0000
# 4 0.0000 0.0000 0.0000 34.4657 0.0000 0.0000
# 5 0.0000 0.0000 0.0000 0.0000 22.9769 0.0000
# 6 0.0000 0.0000 0.0000 0.0000 0.0000 35.8100
#
#
#
# Elastic Compliance Matrix: (Units=1/GPa)
#
#
# Indices 1 2 3 4 5 6 
#
# 1 0.036226 0.007637 -0.007954 0.000000 0.000000 0.000000
# 2 0.007637 0.021665 -0.010999 0.000000 0.000000 0.000000
# 3 -0.007954 -0.010999 0.016518 0.000000 0.000000 0.000000
# 4 0.000000 0.000000 0.000000 0.029014 0.000000 0.000000
# 5 0.000000 0.000000 0.000000 0.000000 0.043522 0.000000
# 6 0.000000 0.000000 0.000000 0.000000 0.000000 0.027925
#
#
# Mechanical properties :
#
#
# Convention : Reuss Voigt Hill
#
# Bulk Modulus (GPa) = 19.31278 33.30390 26.30834
# Shear Modulus (GPa) = 23.28164 28.41826 25.84995
#
# Velocity S-wave (km/s) = 3.31871 3.66659 3.49698
# Velocity P-wave (km/s) = 4.88072 5.80347 5.36198
#
# Compressibility (1/GPa) = 0.05177919
#
# Stress axis : x y z
#
# Youngs Moduli (GPa) = 27.60411 46.15724 60.53928
#
# Poissons Ratio (x) = -0.35251 0.48152
# Poissons Ratio (y) = -0.21081 0.66585
# Poissons Ratio (z) = 0.21956 0.50766
#
# Static dielectric constant tensor:
#      x y z
#    x 1.803000 0.000000 0.000000 
#    y 0.000000 1.760770 0.000000 
#    z 0.000000 0.000000 1.751330 
# 
# From -- ./inp_files/6470.got.cif
#   From: 2010.05.17/outbox.cif.g08.bks.cpg/sg58_4_cif.got.tgz:6470.got - 2010.06.03 14:20:14.
