data_PCOD9444811
_publ_section_title
;
Structure prediction by ZEFSAII (Michael W. Deem and Ramdas Pophale) SiO2 
 PCOD9444811
Probable space group: P N N M
;
_chemical_formula_sum "Si O2"
_cell_formula_units_Z 48
_cell_length_a 10.925264
_cell_length_b 23.605132
_cell_length_c 8.757813
_cell_angle_alpha 90.000000
_cell_angle_beta 90.000000
_cell_angle_gamma 90.000000
_cell_volume 2258.572528
_symmetry_space_group_name_H-M "P N N M"
_symmetry_group_IT_number 58
_symmetry_cell_setting 'orthorhombic'
loop_
_space_group_symop_operation_xyz
x,y,z
-x,-y,z
1/2+x,1/2-y,1/2-z
1/2-x,1/2+y,1/2-z
-x,-y,-z
x,y,-z
1/2-x,1/2+y,1/2+z
1/2+x,1/2-y,1/2+z
loop_
_atom_site_type_symbol
_atom_site_label
_atom_site_fract_x
_atom_site_fract_y
_atom_site_fract_z
Si Si1 0.307850 0.982517 0.678593
Si Si2 0.195953 0.089131 0.822698
Si Si3 0.449539 0.415753 0.826027
Si Si4 0.565424 0.123251 0.818519
Si Si5 0.790645 0.190910 0.679786
Si Si6 0.168633 0.686430 0.180607
O O1 0.333507 0.992495 0.500000
O O2 0.175137 0.951397 0.689454
O O3 0.403846 0.938374 0.748691
O O4 0.289403 0.040755 0.767689
O O5 0.219415 0.145530 0.725283
O O6 0.058063 0.069332 0.787373
O O7 0.213325 0.101038 0.000000
O O8 0.406357 0.350992 0.804203
O O9 0.494504 0.424120 0.000000
O O10 0.681178 0.162882 0.775603
O O11 0.449198 0.152897 0.742527
O O12 0.550828 0.119382 0.000000
O O13 0.756921 0.190348 0.500000
O O14 0.818931 0.253490 0.736707
O O15 0.161112 0.694407 0.000000
#
# Coordination Sequence:
#
# PCOD9444811 Si02
#       6
#     8   8   8   8   8   8
#     4  10  21  41  66  92 125 165 209 255 309 369
#     4  12  25  39  60  93 129 163 209 260 311 369
#     4   9  20  39  64  92 125 164 205 252 310 368
#     4  11  23  42  66  93 125 161 205 254 313 374
#     4  10  22  42  66  92 124 162 208 256 310 370
#     4  12  26  43  63  89 124 167 212 257 311 368
#
# _framework density 21.252362000000002
#
# number of rings (size 3 to 8) (size 9 to 14) (size 15 to 20)
#    0.000    1.333    0.000    7.000    2.333    6.667 
#    0.000    3.333    0.000    0.000    0.000    0.000 
#    0.000    0.000    0.000    0.000    0.000    0.000 
#
# Total GULP energy -268686.513422 kJ/mol
# GULP energy per Si atom -5597.635696 kJ/mol
# Density = 2.120399 g / cm^3
# Si number density = 21.252362 Si / 1000 Ang^3
#
#
#
# Elastic Constant Matrix: (Units=GPa)
#
#
# Indices 1 2 3 4 5 6 
#
# 1 50.8789 -11.6625 4.0689 0.0000 0.0000 0.0000
# 2 -11.6625 83.8356 -0.0654 0.0000 0.0000 0.0000
# 3 4.0689 -0.0654 77.6833 0.0000 0.0000 0.0000
# 4 0.0000 0.0000 0.0000 -2.3298 0.0000 0.0000
# 5 0.0000 0.0000 0.0000 0.0000 19.5991 0.0000
# 6 0.0000 0.0000 0.0000 0.0000 0.0000 15.8363
#
#
#
# Elastic Compliance Matrix: (Units=1/GPa)
#
#
# Indices 1 2 3 4 5 6 
#
# 1 0.020390 0.002836 -0.001066 0.000000 0.000000 0.000000
# 2 0.002836 0.012322 -0.000138 0.000000 0.000000 0.000000
# 3 -0.001066 -0.000138 0.012928 0.000000 0.000000 0.000000
# 4 0.000000 0.000000 0.000000 -0.429224 0.000000 0.000000
# 5 0.000000 0.000000 0.000000 0.000000 0.051023 0.000000
# 6 0.000000 0.000000 0.000000 0.000000 0.000000 0.063146
#
#
# Mechanical properties :
#
#
# Convention : Reuss Voigt Hill
#
# Bulk Modulus (GPa) = 20.44805 21.89775 21.17290
# Shear Modulus (GPa) = -19.50254 21.29158 0.89452
#
# Velocity S-wave (km/s) = -3.03258 3.16863 0.64948
# Velocity P-wave (km/s) = 1.61854 4.86960 3.24756
#
# Compressibility (1/GPa) = 0.04890442
#
# Stress axis : x y z
#
# Youngs Moduli (GPa) = 49.04435 81.15259 77.34863
#
# Poissons Ratio (x) = -0.23012 0.08242
# Poissons Ratio (y) = -0.13907 0.01069
# Poissons Ratio (z) = 0.05226 0.01121
#
# Static dielectric constant tensor:
#      x y z
#    x 1.802900 0.000000 0.000000 
#    y 0.000000 1.755610 0.000000 
#    z 0.000000 0.000000 1.708250 
# 
# From -- ./inp_files/4239.got.cif
#   From: 2010.05.17/outbox.cif.g08.bks.cpg/sg58_3_cif.got.tgz:4239.got - 2010.06.03 14:20:14.
