data_PCOD9444663
_publ_section_title
;
Structure prediction by ZEFSAII (Michael W. Deem and Ramdas Pophale) SiO2 
 PCOD9444663
Probable space group: P N N M
;
_chemical_formula_sum "Si O2"
_cell_formula_units_Z 56
_cell_length_a 21.791925
_cell_length_b 14.916434
_cell_length_c 8.849381
_cell_angle_alpha 90.000000
_cell_angle_beta 90.000000
_cell_angle_gamma 90.000000
_cell_volume 2876.560417
_symmetry_space_group_name_H-M "P N N M"
_symmetry_group_IT_number 58
_symmetry_cell_setting 'orthorhombic'
loop_
_space_group_symop_operation_xyz
x,y,z
-x,-y,z
1/2+x,1/2-y,1/2-z
1/2-x,1/2+y,1/2-z
-x,-y,-z
x,y,-z
1/2-x,1/2+y,1/2+z
1/2+x,1/2-y,1/2+z
loop_
_atom_site_type_symbol
_atom_site_label
_atom_site_fract_x
_atom_site_fract_y
_atom_site_fract_z
Si Si1 0.173778 0.926480 0.317855
Si Si2 0.741597 0.389434 0.819211
Si Si3 0.877092 0.399544 0.679432
Si Si4 0.481491 0.215703 0.318376
Si Si5 0.784079 0.702776 0.818783
Si Si6 0.094494 0.412593 0.181103
Si Si7 0.961127 0.085311 0.817898
O O1 0.168816 0.923943 0.500000
O O2 0.203511 0.022147 0.275183
O O3 0.221797 0.848734 0.273324
O O4 0.107412 0.915658 0.246108
O O5 0.809365 0.394172 0.749118
O O6 0.711145 0.297980 0.761732
O O7 0.746916 0.389220 0.000000
O O8 0.873288 0.395378 0.500000
O O9 0.920197 0.320866 0.741333
O O10 0.906274 0.493368 0.733909
O O11 0.474191 0.210240 0.500000
O O12 0.538247 0.151911 0.277298
O O13 0.491730 0.319450 0.278164
O O14 0.841809 0.638644 0.787106
O O15 0.782314 0.716700 0.000000
O O16 0.091827 0.429598 0.000000
O O17 0.957792 0.080522 0.000000
O O18 0.000000 0.000000 0.763698
#
# Coordination Sequence:
#
# PCOD9444663 Si02
#       7
#     8   8   8   8   8   8   8
#     4  10  22  41  62  87 122 160 197 243 303 362
#     4  11  23  40  62  89 122 160 203 247 304 370
#     4  12  24  39  61  92 125 160 206 256 306 358
#     4  10  22  40  63  89 121 166 206 246 308 368
#     4  10  21  39  63  92 124 158 201 252 305 361
#     4  10  21  40  64  89 124 164 201 247 309 374
#     4  10  23  41  63  91 121 156 206 255 295 356
#
# _framework density 19.467694000000002
#
# number of rings (size 3 to 8) (size 9 to 14) (size 15 to 20)
#    0.000    1.571    1.429    3.000    2.000    7.714 
#    0.000    0.000    0.000    0.000    0.000    0.000 
#    0.000    0.000    0.000    0.000    0.000    0.000 
#
# Total GULP energy -313129.018688 kJ/mol
# GULP energy per Si atom -5591.589619 kJ/mol
# Density = 1.942338 g / cm^3
# Si number density = 19.467694 Si / 1000 Ang^3
#
#
#
# Elastic Constant Matrix: (Units=GPa)
#
#
# Indices 1 2 3 4 5 6 
#
# 1 43.7495 -10.0926 6.4834 0.0000 0.0000 0.0000
# 2 -10.0926 91.3904 24.6286 0.0000 0.0000 0.0000
# 3 6.4834 24.6286 19.0964 0.0000 0.0000 0.0000
# 4 0.0000 0.0000 0.0000 23.2986 0.0000 0.0000
# 5 0.0000 0.0000 0.0000 0.0000 22.6035 0.0000
# 6 0.0000 0.0000 0.0000 0.0000 0.0000 26.5279
#
#
#
# Elastic Compliance Matrix: (Units=1/GPa)
#
#
# Indices 1 2 3 4 5 6 
#
# 1 0.027904 0.008636 -0.020612 0.000000 0.000000 0.000000
# 2 0.008636 0.019444 -0.028009 0.000000 0.000000 0.000000
# 3 -0.020612 -0.028009 0.095487 0.000000 0.000000 0.000000
# 4 0.000000 0.000000 0.000000 0.042921 0.000000 0.000000
# 5 0.000000 0.000000 0.000000 0.000000 0.044241 0.000000
# 6 0.000000 0.000000 0.000000 0.000000 0.000000 0.037696
#
#
# Mechanical properties :
#
#
# Convention : Reuss Voigt Hill
#
# Bulk Modulus (GPa) = 15.90688 21.80834 18.85761
# Shear Modulus (GPa) = 13.56419 23.36713 18.46566
#
# Velocity S-wave (km/s) = 2.64247 3.46830 3.08316
# Velocity P-wave (km/s) = 4.18316 5.22163 4.73098
#
# Compressibility (1/GPa) = 0.06286589
#
# Stress axis : x y z
#
# Youngs Moduli (GPa) = 35.83677 51.43013 10.47264
#
# Poissons Ratio (x) = -0.44417 0.21586
# Poissons Ratio (y) = -0.30950 0.29333
# Poissons Ratio (z) = 0.73867 1.44050
#
# Static dielectric constant tensor:
#      x y z
#    x 1.650410 0.000000 0.000000 
#    y 0.000000 1.682460 0.000000 
#    z 0.000000 0.000000 1.650750 
# 
# From -- ./inp_files/6416.got.cif
#   From: 2010.05.17/outbox.cif.g08.bks.cpg/sg58_4_cif.got.tgz:6416.got - 2010.06.03 14:20:14.
