data_PCOD9444534
_publ_section_title
;
Structure prediction by ZEFSAII (Michael W. Deem and Ramdas Pophale) SiO2 
 PCOD9444534
Probable space group: P N N M
;
_chemical_formula_sum "Si O2"
_cell_formula_units_Z 56
_cell_length_a 19.745145
_cell_length_b 15.052464
_cell_length_c 7.756355
_cell_angle_alpha 90.000000
_cell_angle_beta 90.000000
_cell_angle_gamma 90.000000
_cell_volume 2305.290192
_symmetry_space_group_name_H-M "P N N M"
_symmetry_group_IT_number 58
_symmetry_cell_setting 'orthorhombic'
loop_
_space_group_symop_operation_xyz
x,y,z
-x,-y,z
1/2+x,1/2-y,1/2-z
1/2-x,1/2+y,1/2-z
-x,-y,-z
x,y,-z
1/2-x,1/2+y,1/2+z
1/2+x,1/2-y,1/2+z
loop_
_atom_site_type_symbol
_atom_site_label
_atom_site_fract_x
_atom_site_fract_y
_atom_site_fract_z
Si Si1 0.169099 0.872580 0.204492
Si Si2 0.841321 0.828184 0.695750
Si Si3 0.072644 0.024263 0.200494
Si Si4 0.960325 0.592252 0.291566
Si Si5 0.814876 0.623756 0.245003
Si Si6 0.292920 0.069065 0.294267
Si Si7 0.087326 0.701844 0.706555
O O1 0.133402 0.962465 0.267708
O O2 0.237589 0.853399 0.309702
O O3 0.114301 0.794707 0.223477
O O4 0.188555 0.874259 0.000000
O O5 0.849896 0.857778 0.500000
O O6 0.834823 0.722541 0.691947
O O7 0.771240 0.871484 0.760266
O O8 0.904430 0.873858 0.789019
O O9 0.069494 0.997989 0.000000
O O10 0.000000 0.000000 0.278517
O O11 0.943899 0.596925 0.500000
O O12 0.890920 0.597383 0.186774
O O13 0.000000 0.500000 0.266084
O O14 0.012113 0.670716 0.245698
O O15 0.796355 0.523365 0.307554
O O16 0.287328 0.048094 0.500000
O O17 0.359756 0.126920 0.266419
O O18 0.089191 0.704864 0.500000
#
# Coordination Sequence:
#
# PCOD9444534 Si02
#       7
#     8   8   8   8   8   8   8
#     4  11  23  42  68  93 128 176 220 274 332 391
#     4  11  24  42  67  97 131 171 226 280 327 393
#     4  10  24  45  66  94 134 176 223 276 336 398
#     4  10  21  38  61  92 131 170 216 269 324 395
#     4  12  23  41  67  96 130 175 220 273 329 395
#     4  11  24  44  66  95 133 171 217 273 325 391
#     4  11  24  41  65  95 129 170 213 267 328 394
#
# _framework density 24.291952999999999
#
# number of rings (size 3 to 8) (size 9 to 14) (size 15 to 20)
#    0.000    1.143    4.286    1.714    2.000    3.714 
#    0.000    2.143    0.000    0.000    0.000    0.000 
#    0.000    0.000    0.000    0.000    0.000    0.000 
#
# Total GULP energy -312094.767215 kJ/mol
# GULP energy per Si atom -5573.120843 kJ/mol
# Density = 2.423666 g / cm^3
# Si number density = 24.291953 Si / 1000 Ang^3
#
#
#
# Elastic Constant Matrix: (Units=GPa)
#
#
# Indices 1 2 3 4 5 6 
#
# 1 158.5014 27.9636 27.8624 0.0000 0.0000 0.0000
# 2 27.9636 146.5421 17.5814 0.0000 0.0000 0.0000
# 3 27.8624 17.5814 74.6496 0.0000 0.0000 0.0000
# 4 0.0000 0.0000 0.0000 -3.2330 0.0000 0.0000
# 5 0.0000 0.0000 0.0000 0.0000 -6.4395 0.0000
# 6 0.0000 0.0000 0.0000 0.0000 0.0000 49.5575
#
#
#
# Elastic Compliance Matrix: (Units=1/GPa)
#
#
# Indices 1 2 3 4 5 6 
#
# 1 0.006902 -0.001037 -0.002332 0.000000 0.000000 0.000000
# 2 -0.001037 0.007178 -0.001303 0.000000 0.000000 0.000000
# 3 -0.002332 -0.001303 0.014573 0.000000 0.000000 0.000000
# 4 0.000000 0.000000 0.000000 -0.309313 0.000000 0.000000
# 5 0.000000 0.000000 0.000000 0.000000 -0.155291 0.000000
# 6 0.000000 0.000000 0.000000 0.000000 0.000000 0.020179
#
#
# Mechanical properties :
#
#
# Convention : Reuss Voigt Hill
#
# Bulk Modulus (GPa) = 51.79097 58.50088 55.14592
# Shear Modulus (GPa) = -12.50031 28.39605 7.94787
#
# Velocity S-wave (km/s) = -2.27091 3.42270 1.81078
# Velocity P-wave (km/s) = 3.80663 6.30512 5.20792
#
# Compressibility (1/GPa) = 0.01930839
#
# Stress axis : x y z
#
# Youngs Moduli (GPa) = 144.88561 139.30877 68.61891
#
# Poissons Ratio (x) = 0.14450 0.16001
# Poissons Ratio (y) = 0.15029 0.08944
# Poissons Ratio (z) = 0.33785 0.18158
#
# Static dielectric constant tensor:
#      x y z
#    x 1.933360 0.000000 0.000000 
#    y 0.000000 1.886380 0.000000 
#    z 0.000000 0.000000 2.042460 
# 
# From -- ./inp_files/9075.got.cif
#   From: 2010.05.17/outbox.cif.g08.bks.cpg/sg58_5_cif.got.tgz:9075.got - 2010.06.03 14:20:14.
