data_PCOD9444263
_publ_section_title
;
Structure prediction by ZEFSAII (Michael W. Deem and Ramdas Pophale) SiO2 
 PCOD9444263
Probable space group: P N N M
;
_chemical_formula_sum "Si O2"
_cell_formula_units_Z 40
_cell_length_a 8.559314
_cell_length_b 11.018657
_cell_length_c 20.376080
_cell_angle_alpha 90.000000
_cell_angle_beta 90.000000
_cell_angle_gamma 90.000000
_cell_volume 1921.711814
_symmetry_space_group_name_H-M "P N N M"
_symmetry_group_IT_number 58
_symmetry_cell_setting 'orthorhombic'
loop_
_space_group_symop_operation_xyz
x,y,z
-x,-y,z
1/2+x,1/2-y,1/2-z
1/2-x,1/2+y,1/2-z
-x,-y,-z
x,y,-z
1/2-x,1/2+y,1/2+z
1/2+x,1/2-y,1/2+z
loop_
_atom_site_type_symbol
_atom_site_label
_atom_site_fract_x
_atom_site_fract_y
_atom_site_fract_z
Si Si1 0.234126 0.871854 0.747603
Si Si2 0.163831 0.941593 0.601234
Si Si3 0.000000 0.500000 0.112930
Si Si4 0.710733 0.837906 0.074404
Si Si5 0.544195 0.270414 0.330161
Si Si6 0.500000 0.000000 0.832658
O O1 0.177676 0.938844 0.681279
O O2 0.313398 0.747824 0.720950
O O3 0.094333 0.839941 0.795745
O O4 0.368513 0.940905 0.786809
O O5 0.329788 0.998256 0.578545
O O6 0.165535 0.803707 0.577117
O O7 0.000000 0.000000 0.582384
O O8 0.000907 0.369601 0.150926
O O9 0.588581 0.906699 0.120076
O O10 0.882221 0.838290 0.107666
O O11 0.710782 0.882440 0.000000
#
# Coordination Sequence:
#
# PCOD9444263 Si02
#       6
#     8   8   4   8   8   4
#     4  10  21  36  61  96 129 154 211 253 337 371
#     4  10  22  36  66  95 127 163 202 271 326 386
#     4   8  19  36  53  90 128 154 204 246 318 378
#     4  10  24  45  60  87 125 170 219 257 305 380
#     4  10  21  36  63  90 128 163 195 270 312 387
#     4  12  24  40  64  92 125 176 203 270 308 376
#
# _framework density 20.814774
#
# number of rings (size 3 to 8) (size 9 to 14) (size 15 to 20)
#    0.000    2.400    0.000    5.100    8.400    0.400 
#    0.000   11.000    0.000    0.000    0.000    0.000 
#    0.000    0.000    0.000    0.000    0.000    0.000 
#
# Total GULP energy -223216.852227 kJ/mol
# GULP energy per Si atom -5580.421306 kJ/mol
# Density = 2.076740 g / cm^3
# Si number density = 20.814774 Si / 1000 Ang^3
#
#
#
# Elastic Constant Matrix: (Units=GPa)
#
#
# Indices 1 2 3 4 5 6 
#
# 1 146.4878 30.4713 40.6512 0.0000 0.0000 0.0000
# 2 30.4713 33.1248 20.0009 0.0000 0.0000 0.0000
# 3 40.6512 20.0009 114.0048 0.0000 0.0000 0.0000
# 4 0.0000 0.0000 0.0000 -528.7898 0.0000 0.0000
# 5 0.0000 0.0000 0.0000 0.0000 13.0628 0.0000
# 6 0.0000 0.0000 0.0000 0.0000 0.0000 44.4338
#
#
#
# Elastic Compliance Matrix: (Units=1/GPa)
#
#
# Indices 1 2 3 4 5 6 
#
# 1 0.008803 -0.006937 -0.001922 0.000000 0.000000 0.000000
# 2 -0.006937 0.039233 -0.004409 0.000000 0.000000 0.000000
# 3 -0.001922 -0.004409 0.010230 0.000000 0.000000 0.000000
# 4 0.000000 0.000000 0.000000 -0.001891 0.000000 0.000000
# 5 0.000000 0.000000 0.000000 0.000000 0.076553 0.000000
# 6 0.000000 0.000000 0.000000 0.000000 0.000000 0.022505
#
#
# Mechanical properties :
#
#
# Convention : Reuss Voigt Hill
#
# Bulk Modulus (GPa) = 31.51663 52.87381 42.19522
# Shear Modulus (GPa) = 25.96765 -80.75905 -27.39570
#
# Velocity S-wave (km/s) = 3.53591 -6.23563 -3.63184
# Velocity P-wave (km/s) = 5.64310 5.13683 1.65191
#
# Compressibility (1/GPa) = 0.03172928
#
# Stress axis : x y z
#
# Youngs Moduli (GPa) = 113.59925 25.48882 97.74801
#
# Poissons Ratio (x) = 0.17682 0.18785
# Poissons Ratio (y) = 0.78808 0.43100
# Poissons Ratio (z) = 0.21832 0.11239
#
# Static dielectric constant tensor:
#      x y z
#    x 1.769970 0.000000 0.000000 
#    y 0.000000 1.741240 0.000000 
#    z 0.000000 0.000000 1.777900 
# 
# From -- ./inp_files/28741.got.cif
#   From: 2010.05.17/outbox.cif.g08.bks.cpg/sg58_15_cif.got.tgz:28741.got - 2010.06.03 14:20:14.
