data_PCOD9444369
_publ_section_title
;
Structure prediction by ZEFSAII (Michael W. Deem and Ramdas Pophale) SiO2 
 PCOD9444369
Probable space group: P N N M
;
_chemical_formula_sum "Si O2"
_cell_formula_units_Z 40
_cell_length_a 8.791662
_cell_length_b 11.031331
_cell_length_c 16.829230
_cell_angle_alpha 90.000000
_cell_angle_beta 90.000000
_cell_angle_gamma 90.000000
_cell_volume 1632.161558
_symmetry_space_group_name_H-M "P N N M"
_symmetry_group_IT_number 58
_symmetry_cell_setting 'orthorhombic'
loop_
_space_group_symop_operation_xyz
x,y,z
-x,-y,z
1/2+x,1/2-y,1/2-z
1/2-x,1/2+y,1/2-z
-x,-y,-z
x,y,-z
1/2-x,1/2+y,1/2+z
1/2+x,1/2-y,1/2+z
loop_
_atom_site_type_symbol
_atom_site_label
_atom_site_fract_x
_atom_site_fract_y
_atom_site_fract_z
Si Si1 0.060131 0.174321 0.404779
Si Si2 0.817716 0.312734 0.675965
Si Si3 0.633173 0.899391 0.352595
Si Si4 0.488066 0.671876 0.588678
Si Si5 0.804252 0.563147 0.593514
O O1 0.039062 0.165130 0.500000
O O2 0.189244 0.078635 0.377366
O O3 0.129953 0.306961 0.382314
O O4 0.900360 0.194478 0.359977
O O5 0.853971 0.334238 0.767233
O O6 0.639800 0.308235 0.654476
O O7 0.859146 0.440290 0.633284
O O8 0.573922 0.800409 0.414559
O O9 0.500000 0.000000 0.348462
O O10 0.423305 0.647608 0.500000
O O11 0.623048 0.577845 0.607087
O O12 0.831307 0.554029 0.500000
#
# Coordination Sequence:
#
# PCOD9444369 Si02
#       5
#     8   8   8   8   8
#     4  10  21  37  59  86 116 155 204 251 294 356
#     4  12  21  35  61  94 124 149 195 263 324 367
#     4  11  24  41  59  82 120 170 209 248 309 377
#     4  10  22  40  63  89 122 165 208 252 308 381
#     4   9  18  34  58  88 121 156 190 234 304 378
#
# _framework density 24.507375
#
# number of rings (size 3 to 8) (size 9 to 14) (size 15 to 20)
#    0.000    1.600    0.000    7.200    0.000    6.400 
#    0.000    3.000    0.000    2.400    0.000    0.000 
#    0.000    0.000    0.000    0.000    0.000    0.000 
#
# Total GULP energy -223381.289221 kJ/mol
# GULP energy per Si atom -5584.532231 kJ/mol
# Density = 2.445159 g / cm^3
# Si number density = 24.507375 Si / 1000 Ang^3
#
#
#
# Elastic Constant Matrix: (Units=GPa)
#
#
# Indices 1 2 3 4 5 6 
#
# 1 117.8255 40.1109 37.8161 0.0000 0.0000 0.0000
# 2 40.1109 92.7707 41.4951 0.0000 0.0000 0.0000
# 3 37.8161 41.4951 94.4537 0.0000 0.0000 0.0000
# 4 0.0000 0.0000 0.0000 41.7304 0.0000 0.0000
# 5 0.0000 0.0000 0.0000 0.0000 23.4997 0.0000
# 6 0.0000 0.0000 0.0000 0.0000 0.0000 41.2012
#
#
#
# Elastic Compliance Matrix: (Units=1/GPa)
#
#
# Indices 1 2 3 4 5 6 
#
# 1 0.010496 -0.003309 -0.002749 0.000000 0.000000 0.000000
# 2 -0.003309 0.014458 -0.005027 0.000000 0.000000 0.000000
# 3 -0.002749 -0.005027 0.013896 0.000000 0.000000 0.000000
# 4 0.000000 0.000000 0.000000 0.023963 0.000000 0.000000
# 5 0.000000 0.000000 0.000000 0.000000 0.042554 0.000000
# 6 0.000000 0.000000 0.000000 0.000000 0.000000 0.024271
#
#
# Mechanical properties :
#
#
# Convention : Reuss Voigt Hill
#
# Bulk Modulus (GPa) = 59.94658 60.43269 60.18964
# Shear Modulus (GPa) = 31.77277 33.66145 32.71711
#
# Velocity S-wave (km/s) = 3.60454 3.71013 3.65772
# Velocity P-wave (km/s) = 6.46818 6.56246 6.51549
#
# Compressibility (1/GPa) = 0.01668152
#
# Stress axis : x y z
#
# Youngs Moduli (GPa) = 95.27806 69.16418 71.96230
#
# Poissons Ratio (x) = 0.22883 0.19780
# Poissons Ratio (y) = 0.31523 0.36177
# Poissons Ratio (z) = 0.26188 0.34770
#
# Static dielectric constant tensor:
#      x y z
#    x 2.193580 0.000000 0.000000 
#    y 0.000000 1.991300 0.000000 
#    z 0.000000 0.000000 1.848960 
# 
# From -- ./inp_files/24938.got.cif
#   From: 2010.05.17/outbox.cif.g08.bks.cpg/sg58_13_cif.got.tgz:24938.got - 2010.06.03 14:20:14.
