data_PCOD9444286
_publ_section_title
;
Structure prediction by ZEFSAII (Michael W. Deem and Ramdas Pophale) SiO2 
 PCOD9444286
Probable space group: P N N M
;
_chemical_formula_sum "Si O2"
_cell_formula_units_Z 64
_cell_length_a 12.851739
_cell_length_b 28.833126
_cell_length_c 8.915468
_cell_angle_alpha 90.000000
_cell_angle_beta 90.000000
_cell_angle_gamma 90.000000
_cell_volume 3303.678465
_symmetry_space_group_name_H-M "P N N M"
_symmetry_group_IT_number 58
_symmetry_cell_setting 'orthorhombic'
loop_
_space_group_symop_operation_xyz
x,y,z
-x,-y,z
1/2+x,1/2-y,1/2-z
1/2-x,1/2+y,1/2-z
-x,-y,-z
x,y,-z
1/2-x,1/2+y,1/2+z
1/2+x,1/2-y,1/2+z
loop_
_atom_site_type_symbol
_atom_site_label
_atom_site_fract_x
_atom_site_fract_y
_atom_site_fract_z
Si Si1 0.365119 0.046264 0.179215
Si Si2 0.492223 0.354495 0.679091
Si Si3 0.365545 0.185831 0.829607
Si Si4 0.402635 0.937022 0.820980
Si Si5 0.286679 0.770287 0.665841
Si Si6 0.519213 0.255283 0.176361
Si Si7 0.720696 0.623494 0.824018
Si Si8 0.211086 0.114377 0.321948
O O1 0.475944 0.069906 0.224043
O O2 0.267019 0.067649 0.264196
O O3 0.378321 0.991412 0.204997
O O4 0.352756 0.052763 0.000000
O O5 0.496519 0.355774 0.500000
O O6 0.484537 0.301026 0.734896
O O7 0.389659 0.380847 0.739182
O O8 0.600055 0.374781 0.745665
O O9 0.309947 0.235814 0.838910
O O10 0.476117 0.204448 0.774154
O O11 0.294860 0.152944 0.731130
O O12 0.372829 0.166832 0.000000
O O13 0.315264 0.906729 0.740731
O O14 0.397599 0.928749 0.000000
O O15 0.337972 0.766530 0.500000
O O16 0.359353 0.750025 0.793027
O O17 0.253672 0.822716 0.690257
O O18 0.499533 0.261732 0.000000
O O19 0.705617 0.613512 0.000000
O O20 0.198602 0.114722 0.500000
#
# Coordination Sequence:
#
# PCOD9444286 Si02
#       8
#     8   8   8   8   8   8   8   8
#     4   9  20  42  68  92 123 157 194 241 295 357
#     4  12  24  40  61  83 117 162 204 247 299 358
#     4  10  21  38  56  79 116 160 200 242 292 348
#     4   9  20  41  68  95 121 156 196 238 296 360
#     4  10  21  37  55  80 118 159 198 239 292 351
#     4  11  22  37  56  80 114 156 202 252 296 343
#     4  11  23  40  61  89 124 158 199 251 299 350
#     4  12  25  39  60  90 121 156 203 250 299 354
#
# _framework density 19.372346
#
# number of rings (size 3 to 8) (size 9 to 14) (size 15 to 20)
#    0.000    1.500    2.500    3.750    1.750    3.000 
#    0.000    1.875    0.000    3.750    0.000    0.000 
#    0.000    0.000    0.000    0.000    0.000    0.000 
#
# Total GULP energy -357176.052862 kJ/mol
# GULP energy per Si atom -5580.875826 kJ/mol
# Density = 1.932825 g / cm^3
# Si number density = 19.372346 Si / 1000 Ang^3
#
#
#
# Elastic Constant Matrix: (Units=GPa)
#
#
# Indices 1 2 3 4 5 6 
#
# 1 62.9713 7.0497 41.0676 0.0000 0.0000 0.0000
# 2 7.0497 42.8321 22.6706 0.0000 0.0000 0.0000
# 3 41.0676 22.6706 102.3423 0.0000 0.0000 0.0000
# 4 0.0000 0.0000 0.0000 -73.3146 0.0000 0.0000
# 5 0.0000 0.0000 0.0000 0.0000 -31.3020 0.0000
# 6 0.0000 0.0000 0.0000 0.0000 0.0000 32.0109
#
#
#
# Elastic Compliance Matrix: (Units=1/GPa)
#
#
# Indices 1 2 3 4 5 6 
#
# 1 0.021561 0.001168 -0.008910 0.000000 0.000000 0.000000
# 2 0.001168 0.026511 -0.006341 0.000000 0.000000 0.000000
# 3 -0.008910 -0.006341 0.014751 0.000000 0.000000 0.000000
# 4 0.000000 0.000000 0.000000 -0.013640 0.000000 0.000000
# 5 0.000000 0.000000 0.000000 0.000000 -0.031947 0.000000
# 6 0.000000 0.000000 0.000000 0.000000 0.000000 0.031239
#
#
# Mechanical properties :
#
#
# Convention : Reuss Voigt Hill
#
# Bulk Modulus (GPa) = 28.85588 38.85793 33.85691
# Shear Modulus (GPa) = 56.69232 -5.36395 25.66419
#
# Velocity S-wave (km/s) = 5.41554 -1.66580 3.64371
# Velocity P-wave (km/s) = 7.35064 4.04996 5.93439
#
# Compressibility (1/GPa) = 0.03465498
#
# Stress axis : x y z
#
# Youngs Moduli (GPa) = 46.38100 37.72002 67.79050
#
# Poissons Ratio (x) = -0.04404 0.60404
# Poissons Ratio (y) = -0.05415 0.42987
# Poissons Ratio (z) = 0.41327 0.23919
#
# Static dielectric constant tensor:
#      x y z
#    x 1.692410 0.000000 0.000000 
#    y 0.000000 1.700900 0.000000 
#    z 0.000000 0.000000 1.657850 
# 
# From -- ./inp_files/4683.got.cif
#   From: 2010.05.17/outbox.cif.g08.bks.cpg/sg58_3_cif.got.tgz:4683.got - 2010.06.03 14:20:14.
