data_PCOD9444209
_publ_section_title
;
Structure prediction by ZEFSAII (Michael W. Deem and Ramdas Pophale) SiO2 
 PCOD9444209
Probable space group: P N N M
;
_chemical_formula_sum "Si O2"
_cell_formula_units_Z 64
_cell_length_a 12.473127
_cell_length_b 30.054932
_cell_length_c 8.420836
_cell_angle_alpha 90.000000
_cell_angle_beta 90.000000
_cell_angle_gamma 90.000000
_cell_volume 3156.794443
_symmetry_space_group_name_H-M "P N N M"
_symmetry_group_IT_number 58
_symmetry_cell_setting 'orthorhombic'
loop_
_space_group_symop_operation_xyz
x,y,z
-x,-y,z
1/2+x,1/2-y,1/2-z
1/2-x,1/2+y,1/2-z
-x,-y,-z
x,y,-z
1/2-x,1/2+y,1/2+z
1/2+x,1/2-y,1/2+z
loop_
_atom_site_type_symbol
_atom_site_label
_atom_site_fract_x
_atom_site_fract_y
_atom_site_fract_z
Si Si1 0.443672 0.717036 0.809310
Si Si2 0.779943 0.937967 0.323930
Si Si3 0.478270 0.451464 0.258253
Si Si4 0.755109 0.339728 0.689554
Si Si5 0.842580 0.612487 0.187678
Si Si6 0.751970 0.028283 0.815486
Si Si7 0.400902 0.362070 0.808781
Si Si8 0.506562 0.814678 0.191989
O O1 0.339717 0.692960 0.740651
O O2 0.545617 0.685257 0.776233
O O3 0.461991 0.767107 0.751177
O O4 0.432137 0.718358 0.000000
O O5 0.735578 0.942513 0.500000
O O6 0.762385 0.888664 0.260694
O O7 0.908667 0.946133 0.329341
O O8 0.729962 0.976701 0.215366
O O9 0.500000 0.500000 0.339336
O O10 0.283959 0.465247 0.500000
O O11 0.355377 0.460306 0.203508
O O12 0.755015 0.343618 0.500000
O O13 0.870558 0.321372 0.741834
O O14 0.836759 0.564352 0.271608
O O15 0.726093 0.635236 0.218102
O O16 0.934344 0.644754 0.249208
O O17 0.853225 0.605928 0.000000
O O18 0.958033 0.100383 0.801340
O O19 0.420178 0.372144 0.000000
O O20 0.504243 0.814282 0.000000
#
# Coordination Sequence:
#
# PCOD9444209 Si02
#       8
#     8   8   8   8   8   8   8   8
#     4  10  21  40  63  87 117 158 201 246 308 371
#     4  11  21  36  59  87 123 164 206 252 304 363
#     4   9  18  29  50  83 119 160 196 240 293 355
#     4  11  24  41  62  91 124 159 203 254 312 368
#     4  10  21  38  63  90 120 160 208 252 299 361
#     4  10  21  36  57  88 127 164 203 250 304 363
#     4   9  17  32  54  84 116 153 194 241 295 352
#     4  10  24  43  63  86 120 161 202 254 312 364
#
# _framework density 20.273728999999999
#
# number of rings (size 3 to 8) (size 9 to 14) (size 15 to 20)
#    0.000    2.000    1.250    1.875    1.750   10.250 
#    0.000    1.250    0.000    3.750    0.000    0.000 
#    0.000    0.000    0.000    0.000    0.000    0.000 
#
# Total GULP energy -356309.783478 kJ/mol
# GULP energy per Si atom -5567.340367 kJ/mol
# Density = 2.022759 g / cm^3
# Si number density = 20.273729 Si / 1000 Ang^3
#
#
#
# Elastic Constant Matrix: (Units=GPa)
#
#
# Indices 1 2 3 4 5 6 
#
# 1 71.2870 46.4593 25.0735 0.0000 0.0000 0.0000
# 2 46.4593 147.3894 36.0525 0.0000 0.0000 0.0000
# 3 25.0735 36.0525 47.0784 0.0000 0.0000 0.0000
# 4 0.0000 0.0000 0.0000 17.8345 0.0000 0.0000
# 5 0.0000 0.0000 0.0000 0.0000 -38.6168 0.0000
# 6 0.0000 0.0000 0.0000 0.0000 0.0000 26.3998
#
#
#
# Elastic Compliance Matrix: (Units=1/GPa)
#
#
# Indices 1 2 3 4 5 6 
#
# 1 0.019331 -0.004399 -0.006927 0.000000 0.000000 0.000000
# 2 -0.004399 0.009350 -0.004817 0.000000 0.000000 0.000000
# 3 -0.006927 -0.004817 0.028619 0.000000 0.000000 0.000000
# 4 0.000000 0.000000 0.000000 0.056071 0.000000 0.000000
# 5 0.000000 0.000000 0.000000 0.000000 -0.025895 0.000000
# 6 0.000000 0.000000 0.000000 0.000000 0.000000 0.037879
#
#
# Mechanical properties :
#
#
# Convention : Reuss Voigt Hill
#
# Bulk Modulus (GPa) = 39.97732 53.43615 46.70673
# Shear Modulus (GPa) = 30.12438 11.66812 20.89625
#
# Velocity S-wave (km/s) = 3.85890 2.40162 3.21394
# Velocity P-wave (km/s) = 6.29415 5.83994 6.07130
#
# Compressibility (1/GPa) = 0.02501419
#
# Stress axis : x y z
#
# Youngs Moduli (GPa) = 51.73009 106.95532 34.94168
#
# Poissons Ratio (x) = 0.47051 0.24203
# Poissons Ratio (y) = 0.22757 0.16832
# Poissons Ratio (z) = 0.35832 0.51521
#
# Static dielectric constant tensor:
#      x y z
#    x 1.699840 0.000000 0.000000 
#    y 0.000000 1.733390 0.000000 
#    z 0.000000 0.000000 1.747290 
# 
# From -- ./inp_files/4633.got.cif
#   From: 2010.05.17/outbox.cif.g08.bks.cpg/sg58_3_cif.got.tgz:4633.got - 2010.06.03 14:20:14.
