data_PCOD9444806
_publ_section_title
;
Structure prediction by ZEFSAII (Michael W. Deem and Ramdas Pophale) SiO2 
 PCOD9444806
Probable space group: P N N M
;
_chemical_formula_sum "Si O2"
_cell_formula_units_Z 64
_cell_length_a 15.644344
_cell_length_b 9.408568
_cell_length_c 22.607952
_cell_angle_alpha 90.000000
_cell_angle_beta 90.000000
_cell_angle_gamma 90.000000
_cell_volume 3327.684222
_symmetry_space_group_name_H-M "P N N M"
_symmetry_group_IT_number 58
_symmetry_cell_setting 'orthorhombic'
loop_
_space_group_symop_operation_xyz
x,y,z
-x,-y,z
1/2+x,1/2-y,1/2-z
1/2-x,1/2+y,1/2-z
-x,-y,-z
x,y,-z
1/2-x,1/2+y,1/2+z
1/2+x,1/2-y,1/2+z
loop_
_atom_site_type_symbol
_atom_site_label
_atom_site_fract_x
_atom_site_fract_y
_atom_site_fract_z
Si Si1 0.983737 0.332244 0.123207
Si Si2 0.874445 0.281854 0.240460
Si Si3 0.833205 0.169637 0.068029
Si Si4 0.600280 0.012053 0.160205
Si Si5 0.832080 0.296255 0.569235
Si Si6 0.865440 0.844543 0.069874
Si Si7 0.094948 0.937465 0.343090
Si Si8 0.293812 0.716520 0.163746
O O1 0.941518 0.300403 0.187063
O O2 0.913365 0.273461 0.077331
O O3 0.000000 0.500000 0.117554
O O4 0.069009 0.243789 0.109350
O O5 0.876881 0.417472 0.283102
O O6 0.779424 0.270932 0.213522
O O7 0.898236 0.149362 0.281783
O O8 0.756427 0.235488 0.105090
O O9 0.859667 0.010532 0.088480
O O10 0.809326 0.155256 0.000000
O O11 0.645303 0.941746 0.103339
O O12 0.500000 0.000000 0.150625
O O13 0.630975 0.170395 0.172266
O O14 0.854229 0.300738 0.500000
O O15 0.729691 0.280467 0.574228
O O16 0.880503 0.172295 0.604703
O O17 0.890985 0.840841 0.000000
O O18 0.164551 0.062705 0.341317
O O19 0.000000 0.000000 0.350722
#
# Coordination Sequence:
#
# PCOD9444806 Si02
#       8
#     8   8   8   8   8   8   8   8
#     4  11  24  39  63  99 133 170 216 262 322 383
#     4  10  24  43  61  91 127 169 212 257 320 389
#     4  10  22  40  62  96 132 170 216 260 322 392
#     4  11  22  43  65  91 125 162 213 271 313 371
#     4  10  23  43  66  94 126 170 214 256 326 389
#     4  10  21  41  65  92 134 175 211 259 318 394
#     4  11  25  45  63  93 130 166 214 272 326 374
#     4  11  22  40  68  93 124 168 214 266 318 377
#
# _framework density 19.232593000000001
#
# number of rings (size 3 to 8) (size 9 to 14) (size 15 to 20)
#    0.000    1.500    1.250    3.375    3.500    5.000 
#    9.000    1.250    0.000    0.000    0.000    0.000 
#    0.000    0.000    0.000    0.000    0.000    0.000 
#
# Total GULP energy -357644.416250 kJ/mol
# GULP energy per Si atom -5588.194004 kJ/mol
# Density = 1.918882 g / cm^3
# Si number density = 19.232593 Si / 1000 Ang^3
#
#
#
# Elastic Constant Matrix: (Units=GPa)
#
#
# Indices 1 2 3 4 5 6 
#
# 1 74.9912 11.8271 17.0227 0.0000 0.0000 0.0000
# 2 11.8271 96.2728 14.2839 0.0000 0.0000 0.0000
# 3 17.0227 14.2839 65.0918 0.0000 0.0000 0.0000
# 4 0.0000 0.0000 0.0000 7.6422 0.0000 0.0000
# 5 0.0000 0.0000 0.0000 0.0000 18.8175 0.0000
# 6 0.0000 0.0000 0.0000 0.0000 0.0000 37.8289
#
#
#
# Elastic Compliance Matrix: (Units=1/GPa)
#
#
# Indices 1 2 3 4 5 6 
#
# 1 0.014319 -0.001244 -0.003472 0.000000 0.000000 0.000000
# 2 -0.001244 0.010845 -0.002054 0.000000 0.000000 0.000000
# 3 -0.003472 -0.002054 0.016722 0.000000 0.000000 0.000000
# 4 0.000000 0.000000 0.000000 0.130852 0.000000 0.000000
# 5 0.000000 0.000000 0.000000 0.000000 0.053142 0.000000
# 6 0.000000 0.000000 0.000000 0.000000 0.000000 0.026435
#
#
# Mechanical properties :
#
#
# Convention : Reuss Voigt Hill
#
# Bulk Modulus (GPa) = 35.27936 35.84704 35.56320
# Shear Modulus (GPa) = 18.16178 25.73920 21.95049
#
# Velocity S-wave (km/s) = 3.07632 3.66226 3.38200
# Velocity P-wave (km/s) = 5.56791 6.04666 5.81222
#
# Compressibility (1/GPa) = 0.02834518
#
# Stress axis : x y z
#
# Youngs Moduli (GPa) = 69.83650 92.21008 59.80264
#
# Poissons Ratio (x) = 0.11471 0.20762
# Poissons Ratio (y) = 0.08688 0.12286
# Poissons Ratio (z) = 0.24245 0.18944
#
# Static dielectric constant tensor:
#      x y z
#    x 1.680640 0.000000 0.000000 
#    y 0.000000 1.650900 0.000000 
#    z 0.000000 0.000000 1.665690 
# 
# From -- ./inp_files/32242.got.cif
#   From: 2010.05.17/outbox.cif.g08.bks.cpg/sg58_17_cif.got.tgz:32242.got - 2010.06.03 14:20:14.
