data_PCOD9444225
_publ_section_title
;
Structure prediction by ZEFSAII (Michael W. Deem and Ramdas Pophale) SiO2 
 PCOD9444225
Probable space group: P N N M
;
_chemical_formula_sum "Si O2"
_cell_formula_units_Z 56
_cell_length_a 14.456386
_cell_length_b 19.052178
_cell_length_c 10.005512
_cell_angle_alpha 90.000000
_cell_angle_beta 90.000000
_cell_angle_gamma 90.000000
_cell_volume 2755.774539
_symmetry_space_group_name_H-M "P N N M"
_symmetry_group_IT_number 58
_symmetry_cell_setting 'orthorhombic'
loop_
_space_group_symop_operation_xyz
x,y,z
-x,-y,z
1/2+x,1/2-y,1/2-z
1/2-x,1/2+y,1/2-z
-x,-y,-z
x,y,-z
1/2-x,1/2+y,1/2+z
1/2+x,1/2-y,1/2+z
loop_
_atom_site_type_symbol
_atom_site_label
_atom_site_fract_x
_atom_site_fract_y
_atom_site_fract_z
Si Si1 0.131217 0.863221 0.844704
Si Si2 0.561818 0.179706 0.658134
Si Si3 0.106369 0.480352 0.845530
Si Si4 0.356247 0.205359 0.338079
Si Si5 0.050380 0.069576 0.258248
Si Si6 0.233820 0.999185 0.842890
Si Si7 0.149424 0.202103 0.348126
O O1 0.137576 0.785814 0.786614
O O2 0.201096 0.921842 0.793331
O O3 0.028964 0.894948 0.831124
O O4 0.153080 0.855511 0.000000
O O5 0.563820 0.200048 0.500000
O O6 0.609230 0.104023 0.669562
O O7 0.453760 0.171076 0.700465
O O8 0.608306 0.239469 0.748754
O O9 0.178353 0.517161 0.747089
O O10 0.000000 0.500000 0.820466
O O11 0.127515 0.499028 0.000000
O O12 0.358122 0.203157 0.500000
O O13 0.253289 0.181008 0.302163
O O14 0.086697 0.132571 0.349154
O O15 0.141169 0.044397 0.179146
O O16 0.000000 0.000000 0.317650
O O17 0.256244 0.998043 0.000000
O O18 0.154934 0.230403 0.500000
#
# Coordination Sequence:
#
# PCOD9444225 Si02
#       7
#     8   8   8   8   8   8   8
#     4   9  16  33  59  86 115 150 191 241 297 363
#     4  10  21  40  64  86 116 160 207 251 301 367
#     4  10  23  41  62  86 119 165 209 248 303 372
#     4   9  18  33  59  86 112 151 198 243 297 359
#     4  10  21  36  58  89 127 163 199 244 307 374
#     4  10  21  36  60  89 117 154 204 254 302 352
#     4  11  23  38  62  92 123 159 203 255 309 363
#
# _framework density 20.320965000000001
#
# number of rings (size 3 to 8) (size 9 to 14) (size 15 to 20)
#    0.000    2.143    1.429    1.286    2.000    5.143 
#    0.000    2.857    0.000    0.000    0.000    0.000 
#    0.000    0.000    0.000    0.000    0.000    0.000 
#
# Total GULP energy -312140.667642 kJ/mol
# GULP energy per Si atom -5573.940494 kJ/mol
# Density = 2.027471 g / cm^3
# Si number density = 20.320965 Si / 1000 Ang^3
#
#
#
# Elastic Constant Matrix: (Units=GPa)
#
#
# Indices 1 2 3 4 5 6 
#
# 1 137.5131 25.7486 57.6793 0.0000 0.0000 0.0000
# 2 25.7486 64.8284 24.8748 0.0000 0.0000 0.0000
# 3 57.6793 24.8748 65.2111 0.0000 0.0000 0.0000
# 4 0.0000 0.0000 0.0000 -6.7213 0.0000 0.0000
# 5 0.0000 0.0000 0.0000 0.0000 23.5095 0.0000
# 6 0.0000 0.0000 0.0000 0.0000 0.0000 25.7247
#
#
#
# Elastic Compliance Matrix: (Units=1/GPa)
#
#
# Indices 1 2 3 4 5 6 
#
# 1 0.011595 -0.000785 -0.009957 0.000000 0.000000 0.000000
# 2 -0.000785 0.018123 -0.006219 0.000000 0.000000 0.000000
# 3 -0.009957 -0.006219 0.026514 0.000000 0.000000 0.000000
# 4 0.000000 0.000000 0.000000 -0.148782 0.000000 0.000000
# 5 0.000000 0.000000 0.000000 0.000000 0.042536 0.000000
# 6 0.000000 0.000000 0.000000 0.000000 0.000000 0.038873
#
#
# Mechanical properties :
#
#
# Convention : Reuss Voigt Hill
#
# Bulk Modulus (GPa) = 44.82025 53.79535 49.30780
# Shear Modulus (GPa) = 165.46658 19.11926 92.29292
#
# Velocity S-wave (km/s) = 9.03345 3.07068 6.74657
# Velocity P-wave (km/s) = 11.44152 6.25319 9.21984
#
# Compressibility (1/GPa) = 0.02231134
#
# Stress axis : x y z
#
# Youngs Moduli (GPa) = 86.24207 55.17762 37.71658
#
# Poissons Ratio (x) = 0.04332 0.37553
# Poissons Ratio (y) = 0.06770 0.23455
# Poissons Ratio (z) = 0.85867 0.34314
#
# Static dielectric constant tensor:
#      x y z
#    x 1.730220 0.000000 0.000000 
#    y 0.000000 1.781440 0.000000 
#    z 0.000000 0.000000 1.684700 
# 
# From -- ./inp_files/6380.got.cif
#   From: 2010.05.17/outbox.cif.g08.bks.cpg/sg58_4_cif.got.tgz:6380.got - 2010.06.03 14:20:14.
