data_PCOD9444854
_publ_section_title
;
Structure prediction by ZEFSAII (Michael W. Deem and Ramdas Pophale) SiO2 
 PCOD9444854
Probable space group: P N N M
;
_chemical_formula_sum "Si O2"
_cell_formula_units_Z 64
_cell_length_a 14.754725
_cell_length_b 23.698968
_cell_length_c 7.931429
_cell_angle_alpha 90.000000
_cell_angle_beta 90.000000
_cell_angle_gamma 90.000000
_cell_volume 2773.396703
_symmetry_space_group_name_H-M "P N N M"
_symmetry_group_IT_number 58
_symmetry_cell_setting 'orthorhombic'
loop_
_space_group_symop_operation_xyz
x,y,z
-x,-y,z
1/2+x,1/2-y,1/2-z
1/2-x,1/2+y,1/2-z
-x,-y,-z
x,y,-z
1/2-x,1/2+y,1/2+z
1/2+x,1/2-y,1/2+z
loop_
_atom_site_type_symbol
_atom_site_label
_atom_site_fract_x
_atom_site_fract_y
_atom_site_fract_z
Si Si1 0.248899 0.177663 0.197565
Si Si2 0.058805 0.724020 0.302304
Si Si3 0.779402 0.445363 0.805463
Si Si4 0.886681 0.650131 0.811929
Si Si5 0.979087 0.435363 0.307667
Si Si6 0.733523 0.573207 0.206650
Si Si7 0.054266 0.177118 0.199597
Si Si8 0.526917 0.562382 0.796622
O O1 0.345010 0.200796 0.270340
O O2 0.241537 0.109648 0.212106
O O3 0.152069 0.198150 0.270348
O O4 0.249400 0.192570 0.000000
O O5 0.067532 0.717442 0.500000
O O6 0.966401 0.691074 0.252137
O O7 0.032121 0.788104 0.264217
O O8 0.885436 0.432144 0.788842
O O9 0.763294 0.509307 0.740870
O O10 0.748369 0.443991 0.000000
O O11 0.793381 0.626676 0.730860
O O12 0.942718 0.591943 0.801963
O O13 0.864992 0.669774 0.000000
O O14 0.973404 0.410997 0.500000
O O15 0.000000 0.500000 0.327780
O O16 0.629016 0.577369 0.255452
O O17 0.740931 0.574071 0.000000
O O18 0.038827 0.111771 0.239342
O O19 0.056953 0.185031 0.000000
O O20 0.500000 0.500000 0.736184
O O21 0.525317 0.560902 0.000000
#
# Coordination Sequence:
#
# PCOD9444854 Si02
#       8
#     8   8   8   8   8   8   8   8
#     4  10  23  42  63  88 122 162 203 256 318 372
#     4  11  24  43  65  90 122 162 208 255 310 374
#     4  11  20  33  58  90 122 162 213 259 300 360
#     4  11  21  36  57  86 124 164 207 256 307 364
#     4  11  21  32  49  79 123 168 207 251 305 360
#     4   9  20  35  56  90 129 166 204 253 316 367
#     4  11  25  45  67  93 124 159 203 256 312 368
#     4  10  21  42  69  94 124 162 205 254 309 373
#
# _framework density 23.076395999999999
#
# number of rings (size 3 to 8) (size 9 to 14) (size 15 to 20)
#    0.000    1.500    2.500    2.625    0.000    4.250 
#    0.000    7.500    0.000    0.000    0.000    0.000 
#    0.000    0.000    0.000    0.000    0.000    0.000 
#
# Total GULP energy -356867.333471 kJ/mol
# GULP energy per Si atom -5576.052085 kJ/mol
# Density = 2.302387 g / cm^3
# Si number density = 23.076396 Si / 1000 Ang^3
#
#
#
# Elastic Constant Matrix: (Units=GPa)
#
#
# Indices 1 2 3 4 5 6 
#
# 1 146.4948 27.9160 -0.7969 0.0000 0.0000 0.0000
# 2 27.9160 75.5164 -0.9779 0.0000 0.0000 0.0000
# 3 -0.7969 -0.9779 26.6995 0.0000 0.0000 0.0000
# 4 0.0000 0.0000 0.0000 31.3864 0.0000 0.0000
# 5 0.0000 0.0000 0.0000 0.0000 19.9080 0.0000
# 6 0.0000 0.0000 0.0000 0.0000 0.0000 25.0776
#
#
#
# Elastic Compliance Matrix: (Units=1/GPa)
#
#
# Indices 1 2 3 4 5 6 
#
# 1 0.007344 -0.002713 0.000120 0.000000 0.000000 0.000000
# 2 -0.002713 0.014251 0.000441 0.000000 0.000000 0.000000
# 3 0.000120 0.000441 0.037474 0.000000 0.000000 0.000000
# 4 0.000000 0.000000 0.000000 0.031861 0.000000 0.000000
# 5 0.000000 0.000000 0.000000 0.000000 0.050231 0.000000
# 6 0.000000 0.000000 0.000000 0.000000 0.000000 0.039876
#
#
# Mechanical properties :
#
#
# Convention : Reuss Voigt Hill
#
# Bulk Modulus (GPa) = 18.26036 33.44369 25.85203
# Shear Modulus (GPa) = 24.55844 30.11237 27.33540
#
# Velocity S-wave (km/s) = 3.26578 3.61626 3.44548
# Velocity P-wave (km/s) = 4.70645 5.65336 5.20150
#
# Compressibility (1/GPa) = 0.05476342
#
# Stress axis : x y z
#
# Youngs Moduli (GPa) = 136.16812 70.17122 26.68544
#
# Poissons Ratio (x) = 0.19039 -0.00320
# Poissons Ratio (y) = 0.36946 -0.01177
# Poissons Ratio (z) = -0.01631 -0.03094
#
# Static dielectric constant tensor:
#      x y z
#    x 1.920880 0.000000 0.000000 
#    y 0.000000 1.918830 0.000000 
#    z 0.000000 0.000000 1.888970 
# 
# From -- ./inp_files/6977.got.cif
#   From: 2010.05.17/outbox.cif.g08.bks.cpg/sg58_4_cif.got.tgz:6977.got - 2010.06.03 14:20:14.
