data_PCOD9444200
_publ_section_title
;
Structure prediction by ZEFSAII (Michael W. Deem and Ramdas Pophale) SiO2 
 PCOD9444200
Probable space group: P N N M
;
_chemical_formula_sum "Si O2"
_cell_formula_units_Z 40
_cell_length_a 5.143288
_cell_length_b 33.511350
_cell_length_c 10.711287
_cell_angle_alpha 90.000000
_cell_angle_beta 90.000000
_cell_angle_gamma 90.000000
_cell_volume 1846.181621
_symmetry_space_group_name_H-M "P N N M"
_symmetry_group_IT_number 58
_symmetry_cell_setting 'orthorhombic'
loop_
_space_group_symop_operation_xyz
x,y,z
-x,-y,z
1/2+x,1/2-y,1/2-z
1/2-x,1/2+y,1/2-z
-x,-y,-z
x,y,-z
1/2-x,1/2+y,1/2+z
1/2+x,1/2-y,1/2+z
loop_
_atom_site_type_symbol
_atom_site_label
_atom_site_fract_x
_atom_site_fract_y
_atom_site_fract_z
Si Si1 0.284813 0.213003 0.635575
Si Si2 0.066228 0.885504 0.767744
Si Si3 0.215906 0.801590 0.785040
Si Si4 0.920373 0.416341 0.854911
Si Si5 0.821556 0.961461 0.138151
O O1 0.351520 0.197097 0.500000
O O2 0.489222 0.197539 0.737131
O O3 0.316348 0.261253 0.637133
O O4 0.987971 0.204359 0.671401
O O5 0.132092 0.844429 0.836395
O O6 0.305793 0.897104 0.679530
O O7 0.807878 0.885179 0.681878
O O8 0.007021 0.922512 0.857576
O O9 0.866131 0.452349 0.755764
O O10 0.904341 0.427637 0.000000
O O11 0.698142 0.963521 0.000000
O O12 0.000000 0.000000 0.157249
#
# Coordination Sequence:
#
# PCOD9444200 Si02
#       5
#     8   8   8   8   8
#     4  10  21  36  57  82 116 155 194 243 295 355
#     4  10  22  38  62  90 122 160 204 254 305 364
#     4  10  21  37  56  85 116 151 199 240 298 355
#     4  10  22  39  62  93 124 158 203 255 305 359
#     4   9  22  44  66  90 125 167 207 250 307 373
#
# _framework density 21.666340999999999
#
# number of rings (size 3 to 8) (size 9 to 14) (size 15 to 20)
#    1.200    1.000    0.000    2.400    0.000    7.600 
#    0.000    3.000    0.000    0.000    0.000    0.000 
#    0.000    0.000    0.000    0.000    0.000    0.000 
#
# Total GULP energy -222928.448770 kJ/mol
# GULP energy per Si atom -5573.211219 kJ/mol
# Density = 2.161703 g / cm^3
# Si number density = 21.666341 Si / 1000 Ang^3
#
#
#
# Elastic Constant Matrix: (Units=GPa)
#
#
# Indices 1 2 3 4 5 6 
#
# 1 100.8350 0.4511 19.5053 0.0000 0.0000 0.0000
# 2 0.4511 116.1856 7.0516 0.0000 0.0000 0.0000
# 3 19.5053 7.0516 90.1428 0.0000 0.0000 0.0000
# 4 0.0000 0.0000 0.0000 -3.1438 0.0000 0.0000
# 5 0.0000 0.0000 0.0000 0.0000 -5.8538 0.0000
# 6 0.0000 0.0000 0.0000 0.0000 0.0000 28.0675
#
#
#
# Elastic Compliance Matrix: (Units=1/GPa)
#
#
# Indices 1 2 3 4 5 6 
#
# 1 0.010351 0.000096 -0.002247 0.000000 0.000000 0.000000
# 2 0.000096 0.008649 -0.000697 0.000000 0.000000 0.000000
# 3 -0.002247 -0.000697 0.011634 0.000000 0.000000 0.000000
# 4 0.000000 0.000000 0.000000 -0.318090 0.000000 0.000000
# 5 0.000000 0.000000 0.000000 0.000000 -0.170830 0.000000
# 6 0.000000 0.000000 0.000000 0.000000 0.000000 0.035628
#
#
# Mechanical properties :
#
#
# Convention : Reuss Voigt Hill
#
# Bulk Modulus (GPa) = 40.10018 40.13106 40.11562
# Shear Modulus (GPa) = -12.23547 22.49103 5.12778
#
# Velocity S-wave (km/s) = -2.37897 3.22539 1.54008
# Velocity P-wave (km/s) = 3.31696 5.69503 4.66024
#
# Compressibility (1/GPa) = 0.02493754
#
# Stress axis : x y z
#
# Youngs Moduli (GPa) = 96.60447 115.62204 85.95231
#
# Poissons Ratio (x) = -0.01112 0.19317
# Poissons Ratio (y) = -0.00929 0.05994
# Poissons Ratio (z) = 0.21711 0.08063
#
# Static dielectric constant tensor:
#      x y z
#    x 1.753550 0.000000 0.000000 
#    y 0.000000 1.839760 0.000000 
#    z 0.000000 0.000000 1.751820 
# 
# From -- ./inp_files/11853.got.cif
#   From: 2010.05.17/outbox.cif.g08.bks.cpg/sg58_6_cif.got.tgz:11853.got - 2010.06.03 14:20:14.
