data_PCOD9444070
_publ_section_title
;
Structure prediction by ZEFSAII (Michael W. Deem and Ramdas Pophale) SiO2 
 PCOD9444070
Probable space group: P N N M
;
_chemical_formula_sum "Si O2"
_cell_formula_units_Z 52
_cell_length_a 12.904668
_cell_length_b 7.557835
_cell_length_c 28.228186
_cell_angle_alpha 90.000000
_cell_angle_beta 90.000000
_cell_angle_gamma 90.000000
_cell_volume 2753.133130
_symmetry_space_group_name_H-M "P N N M"
_symmetry_group_IT_number 58
_symmetry_cell_setting 'orthorhombic'
loop_
_space_group_symop_operation_xyz
x,y,z
-x,-y,z
1/2+x,1/2-y,1/2-z
1/2-x,1/2+y,1/2-z
-x,-y,-z
x,y,-z
1/2-x,1/2+y,1/2+z
1/2+x,1/2-y,1/2+z
loop_
_atom_site_type_symbol
_atom_site_label
_atom_site_fract_x
_atom_site_fract_y
_atom_site_fract_z
Si Si1 0.189894 0.787948 0.300118
Si Si2 0.000000 0.000000 0.344330
Si Si3 0.486474 0.302350 0.365144
Si Si4 0.687373 0.362526 0.108894
Si Si5 0.174830 0.623567 0.802776
Si Si6 0.718446 0.253887 0.607157
Si Si7 0.682073 0.603244 0.554443
O O1 0.179179 0.700464 0.249583
O O2 0.221773 0.672895 0.345983
O O3 0.286930 0.923019 0.297746
O O4 0.085089 0.894736 0.313482
O O5 0.067371 0.126093 0.378237
O O6 0.500000 0.500000 0.343725
O O7 0.432029 0.174640 0.327735
O O8 0.596983 0.229791 0.381261
O O9 0.411724 0.337653 0.410517
O O10 0.743230 0.303295 0.158130
O O11 0.729606 0.562523 0.098155
O O12 0.724551 0.234200 0.067986
O O13 0.717380 0.404580 0.567548
O O14 0.651393 0.616670 0.500000
#
# Coordination Sequence:
#
# PCOD9444070 Si02
#       7
#     8   4   8   8   8   8   8
#     4  10  21  34  55  78 112 149 189 227 272 324
#     4   8  18  38  55  76 110 154 185 234 274 322
#     4   9  19  33  55  79 114 149 178 225 277 334
#     4   9  20  39  57  77 114 148 184 232 277 329
#     4   9  20  31  51  80 108 147 185 221 270 327
#     4   9  20  37  55  78 115 148 178 226 276 338
#     4  10  21  37  60  86 111 143 183 232 285 334
#
# _framework density 18.887571000000001
#
# number of rings (size 3 to 8) (size 9 to 14) (size 15 to 20)
#    0.000    3.077    0.000    0.000    7.538   10.154 
#    0.000    4.231    0.000    4.615    0.000    0.000 
#    0.000    0.000    0.000    0.000    0.000    0.000 
#
# Total GULP energy -289583.086229 kJ/mol
# GULP energy per Si atom -5568.905504 kJ/mol
# Density = 1.884458 g / cm^3
# Si number density = 18.887571 Si / 1000 Ang^3
#
#
#
# Elastic Constant Matrix: (Units=GPa)
#
#
# Indices 1 2 3 4 5 6 
#
# 1 65.6173 27.9848 18.5555 0.0000 0.0000 0.0000
# 2 27.9848 61.8793 20.0286 0.0000 0.0000 0.0000
# 3 18.5555 20.0286 80.3783 0.0000 0.0000 0.0000
# 4 0.0000 0.0000 0.0000 24.4764 0.0000 0.0000
# 5 0.0000 0.0000 0.0000 0.0000 -2.8150 0.0000
# 6 0.0000 0.0000 0.0000 0.0000 0.0000 5.6918
#
#
#
# Elastic Compliance Matrix: (Units=1/GPa)
#
#
# Indices 1 2 3 4 5 6 
#
# 1 0.019327 -0.007937 -0.002484 0.000000 0.000000 0.000000
# 2 -0.007937 0.020837 -0.003360 0.000000 0.000000 0.000000
# 3 -0.002484 -0.003360 0.013852 0.000000 0.000000 0.000000
# 4 0.000000 0.000000 0.000000 0.040856 0.000000 0.000000
# 5 0.000000 0.000000 0.000000 0.000000 -0.355237 0.000000
# 6 0.000000 0.000000 0.000000 0.000000 0.000000 0.175690
#
#
# Mechanical properties :
#
#
# Convention : Reuss Voigt Hill
#
# Bulk Modulus (GPa) = 37.80018 37.89029 37.84524
# Shear Modulus (GPa) = -103.53105 14.89104 -44.32000
#
# Velocity S-wave (km/s) = -7.41171 2.81090 -4.84934
# Velocity P-wave (km/s) = 7.29300 5.53529 3.35771
#
# Compressibility (1/GPa) = 0.02645490
#
# Stress axis : x y z
#
# Youngs Moduli (GPa) = 51.74051 47.99062 72.19239
#
# Poissons Ratio (x) = 0.38089 0.17933
# Poissons Ratio (y) = 0.41065 0.24257
# Poissons Ratio (z) = 0.12853 0.16125
#
# Static dielectric constant tensor:
#      x y z
#    x 1.676250 0.000000 0.000000 
#    y 0.000000 1.743150 0.000000 
#    z 0.000000 0.000000 1.658670 
# 
# From -- ./inp_files/33534.got.cif
#   From: 2010.05.17/outbox.cif.g08.bks.cpg/sg58_17_cif.got.tgz:33534.got - 2010.06.03 14:20:14.
