data_PCOD9444995
_publ_section_title
;
Structure prediction by ZEFSAII (Michael W. Deem and Ramdas Pophale) SiO2 
 PCOD9444995
Probable space group: P N N M
;
_chemical_formula_sum "Si O2"
_cell_formula_units_Z 48
_cell_length_a 8.056209
_cell_length_b 19.591387
_cell_length_c 14.871964
_cell_angle_alpha 90.000000
_cell_angle_beta 90.000000
_cell_angle_gamma 90.000000
_cell_volume 2347.276407
_symmetry_space_group_name_H-M "P N N M"
_symmetry_group_IT_number 58
_symmetry_cell_setting 'orthorhombic'
loop_
_space_group_symop_operation_xyz
x,y,z
-x,-y,z
1/2+x,1/2-y,1/2-z
1/2-x,1/2+y,1/2-z
-x,-y,-z
x,y,-z
1/2-x,1/2+y,1/2+z
1/2+x,1/2-y,1/2+z
loop_
_atom_site_type_symbol
_atom_site_label
_atom_site_fract_x
_atom_site_fract_y
_atom_site_fract_z
Si Si1 0.626141 0.589073 0.000000
Si Si2 0.760076 0.038980 0.688177
Si Si3 0.887790 0.157212 0.196185
Si Si4 0.606791 0.897725 0.313698
Si Si5 0.348830 0.296595 0.500000
Si Si6 0.761446 0.847749 0.500000
Si Si7 0.741055 0.782799 0.195928
Si Si8 0.777627 0.736926 0.000000
O O1 0.662119 0.546838 0.910412
O O2 0.440197 0.617340 0.000000
O O3 0.744337 0.656161 0.000000
O O4 0.863022 0.083816 0.758729
O O5 0.577884 0.073180 0.682274
O O6 0.728276 0.960392 0.711218
O O7 0.777684 0.211977 0.250942
O O8 0.075172 0.185472 0.204782
O O9 0.840228 0.160740 0.091397
O O10 0.663996 0.869714 0.410432
O O11 0.621586 0.837336 0.242364
O O12 0.220368 0.234084 0.500000
O O13 0.527873 0.257444 0.500000
O O14 0.705699 0.767731 0.091827
#
# Coordination Sequence:
#
# PCOD9444995 Si02
#       8
#     4   8   8   8   4   4   8   4
#     4  12  23  35  60  92 121 155 196 248 300 358
#     4  11  24  41  60  85 122 163 199 245 304 359
#     4  11  22  38  62  89 119 157 200 246 296 355
#     4  11  24  41  60  85 122 163 199 245 304 359
#     4  10  22  39  60  87 122 157 194 243 299 354
#     4  12  23  35  60  92 121 155 196 248 300 358
#     4  11  22  38  62  89 119 157 200 246 296 355
#     4  10  22  39  60  87 122 157 194 243 299 354
#
# _framework density 20.449231999999999
#
# number of rings (size 3 to 8) (size 9 to 14) (size 15 to 20)
#    0.000    1.000    3.333    4.000    0.000    6.000 
#    0.000    0.833    0.000    5.000    0.000    0.000 
#    0.000    0.000    0.000    0.000    0.000    0.000 
#
# Total GULP energy -268730.330184 kJ/mol
# GULP energy per Si atom -5598.548545 kJ/mol
# Density = 2.040269 g / cm^3
# Si number density = 20.449232 Si / 1000 Ang^3
#
#
#
# Elastic Constant Matrix: (Units=GPa)
#
#
# Indices 1 2 3 4 5 6 
#
# 1 54.2764 2.1619 22.5463 0.0000 0.0000 0.0000
# 2 2.1619 82.8228 39.1716 0.0000 0.0000 0.0000
# 3 22.5463 39.1716 140.5022 0.0000 0.0000 0.0000
# 4 0.0000 0.0000 0.0000 -80.4566 0.0000 0.0000
# 5 0.0000 0.0000 0.0000 0.0000 -49.6692 0.0000
# 6 0.0000 0.0000 0.0000 0.0000 0.0000 37.0396
#
#
#
# Elastic Compliance Matrix: (Units=1/GPa)
#
#
# Indices 1 2 3 4 5 6 
#
# 1 0.019833 0.001137 -0.003500 0.000000 0.000000 0.000000
# 2 0.001137 0.013973 -0.004078 0.000000 0.000000 0.000000
# 3 -0.003500 -0.004078 0.008816 0.000000 0.000000 0.000000
# 4 0.000000 0.000000 0.000000 -0.012429 0.000000 0.000000
# 5 0.000000 0.000000 0.000000 0.000000 -0.020133 0.000000
# 6 0.000000 0.000000 0.000000 0.000000 0.000000 0.026998
#
#
# Mechanical properties :
#
#
# Convention : Reuss Voigt Hill
#
# Bulk Modulus (GPa) = 33.62371 45.04012 39.33192
# Shear Modulus (GPa) = 83.53956 -4.36915 39.58520
#
# Velocity S-wave (km/s) = 6.39850 -1.46329 4.40452
# Velocity P-wave (km/s) = 8.43007 4.38386 6.71879
#
# Compressibility (1/GPa) = 0.02974091
#
# Stress axis : x y z
#
# Youngs Moduli (GPa) = 50.42194 71.56615 113.43135
#
# Poissons Ratio (x) = -0.08141 0.39697
# Poissons Ratio (y) = -0.05735 0.46259
# Poissons Ratio (z) = 0.17646 0.29186
#
# Static dielectric constant tensor:
#      x y z
#    x 1.768580 0.000000 0.000000 
#    y 0.000000 1.700950 0.000000 
#    z 0.000000 0.000000 1.685550 
# 
# From -- ./inp_files/19908.got.cif
#   From: 2010.05.17/outbox.cif.g08.bks.cpg/sg58_10_cif.got.tgz:19908.got - 2010.06.03 14:20:14.
