data_PCOD9444509
_publ_section_title
;
Structure prediction by ZEFSAII (Michael W. Deem and Ramdas Pophale) SiO2 
 PCOD9444509
Probable space group: P N N M
;
_chemical_formula_sum "Si O2"
_cell_formula_units_Z 52
_cell_length_a 14.721877
_cell_length_b 6.430129
_cell_length_c 29.343096
_cell_angle_alpha 90.000000
_cell_angle_beta 90.000000
_cell_angle_gamma 90.000000
_cell_volume 2777.722170
_symmetry_space_group_name_H-M "P N N M"
_symmetry_group_IT_number 58
_symmetry_cell_setting 'orthorhombic'
loop_
_space_group_symop_operation_xyz
x,y,z
-x,-y,z
1/2+x,1/2-y,1/2-z
1/2-x,1/2+y,1/2-z
-x,-y,-z
x,y,-z
1/2-x,1/2+y,1/2+z
1/2+x,1/2-y,1/2+z
loop_
_atom_site_type_symbol
_atom_site_label
_atom_site_fract_x
_atom_site_fract_y
_atom_site_fract_z
Si Si1 0.098858 0.903225 0.626423
Si Si2 0.771170 0.716812 0.382816
Si Si3 0.858171 0.676530 0.778173
Si Si4 0.105684 0.560819 0.553939
Si Si5 0.000000 0.000000 0.805681
Si Si6 0.414859 0.122163 0.637937
Si Si7 0.321255 0.098409 0.804666
O O1 0.120479 0.777013 0.580250
O O2 0.109359 0.738535 0.666986
O O3 0.170195 0.086622 0.632927
O O4 0.000000 0.000000 0.623916
O O5 0.825848 0.606047 0.423699
O O6 0.670191 0.802082 0.391889
O O7 0.771536 0.550938 0.341454
O O8 0.879500 0.535707 0.822599
O O9 0.755662 0.759253 0.781752
O O10 0.868607 0.537217 0.733744
O O11 0.925614 0.872425 0.777455
O O12 0.118285 0.576109 0.500000
O O13 0.000000 0.500000 0.562847
O O14 0.951937 0.172700 0.836951
O O15 0.500000 0.000000 0.615707
#
# Coordination Sequence:
#
# PCOD9444509 Si02
#       7
#     8   8   8   8   4   8   8
#     4  11  23  41  58  87 123 161 198 245 304 363
#     4  11  21  41  61  84 121 155 195 250 303 356
#     4  11  22  40  55  82 113 160 204 259 298 346
#     4  10  22  39  63  95 123 155 198 239 296 379
#     4  10  22  40  56  80 115 150 217 258 294 348
#     4  10  21  38  61  86 111 154 207 253 299 351
#     4  11  24  37  58  80 118 158 207 247 305 356
#
# _framework density 18.720375000000001
#
# number of rings (size 3 to 8) (size 9 to 14) (size 15 to 20)
#    0.000    1.385    4.615    0.923    0.000    0.923 
#   11.077    0.000    0.000    0.462    0.000    1.615 
#    0.000    0.000    0.000    0.000    0.000    0.000 
#
# Total GULP energy -290562.751534 kJ/mol
# GULP energy per Si atom -5587.745222 kJ/mol
# Density = 1.867777 g / cm^3
# Si number density = 18.720375 Si / 1000 Ang^3
#
#
#
# Elastic Constant Matrix: (Units=GPa)
#
#
# Indices 1 2 3 4 5 6 
#
# 1 108.4129 39.9802 30.5453 0.0000 0.0000 0.0000
# 2 39.9802 104.3604 29.6577 0.0000 0.0000 0.0000
# 3 30.5453 29.6577 71.0775 0.0000 0.0000 0.0000
# 4 0.0000 0.0000 0.0000 4.2012 0.0000 0.0000
# 5 0.0000 0.0000 0.0000 0.0000 24.1614 0.0000
# 6 0.0000 0.0000 0.0000 0.0000 0.0000 37.6840
#
#
#
# Elastic Compliance Matrix: (Units=1/GPa)
#
#
# Indices 1 2 3 4 5 6 
#
# 1 0.011465 -0.003395 -0.003511 0.000000 0.000000 0.000000
# 2 -0.003395 0.011876 -0.003497 0.000000 0.000000 0.000000
# 3 -0.003511 -0.003497 0.017037 0.000000 0.000000 0.000000
# 4 0.000000 0.000000 0.000000 0.238028 0.000000 0.000000
# 5 0.000000 0.000000 0.000000 0.000000 0.041388 0.000000
# 6 0.000000 0.000000 0.000000 0.000000 0.000000 0.026536
#
#
# Mechanical properties :
#
#
# Convention : Reuss Voigt Hill
#
# Bulk Modulus (GPa) = 51.08714 53.80194 52.44454
# Shear Modulus (GPa) = 13.38118 25.45382 19.41750
#
# Velocity S-wave (km/s) = 2.67646 3.69139 3.22411
# Velocity P-wave (km/s) = 6.07454 6.85351 6.47575
#
# Compressibility (1/GPa) = 0.01957440
#
# Stress axis : x y z
#
# Youngs Moduli (GPa) = 87.22251 84.20111 58.69619
#
# Poissons Ratio (x) = 0.28582 0.20606
# Poissons Ratio (y) = 0.29608 0.20524
# Poissons Ratio (z) = 0.30621 0.29443
#
# Static dielectric constant tensor:
#      x y z
#    x 1.676460 0.000000 0.000000 
#    y 0.000000 1.667650 0.000000 
#    z 0.000000 0.000000 1.609750 
# 
# From -- ./inp_files/35031.got.cif
#   From: 2010.05.17/outbox.cif.g08.bks.cpg/sg58_18_cif.got.tgz:35031.got - 2010.06.03 14:20:14.
