data_PCOD9444947
_publ_section_title
;
Structure prediction by ZEFSAII (Michael W. Deem and Ramdas Pophale) SiO2 
 PCOD9444947
Probable space group: P N N M
;
_chemical_formula_sum "Si O2"
_cell_formula_units_Z 40
_cell_length_a 26.529321
_cell_length_b 7.313521
_cell_length_c 9.371976
_cell_angle_alpha 90.000000
_cell_angle_beta 90.000000
_cell_angle_gamma 90.000000
_cell_volume 1818.376521
_symmetry_space_group_name_H-M "P N N M"
_symmetry_group_IT_number 58
_symmetry_cell_setting 'orthorhombic'
loop_
_space_group_symop_operation_xyz
x,y,z
-x,-y,z
1/2+x,1/2-y,1/2-z
1/2-x,1/2+y,1/2-z
-x,-y,-z
x,y,-z
1/2-x,1/2+y,1/2+z
1/2+x,1/2-y,1/2+z
loop_
_atom_site_type_symbol
_atom_site_label
_atom_site_fract_x
_atom_site_fract_y
_atom_site_fract_z
Si Si1 0.921300 0.511550 0.333244
Si Si2 0.542460 0.353712 0.333003
Si Si3 0.616014 0.680679 0.666175
Si Si4 0.789429 0.077536 0.661731
Si Si5 0.806507 0.647884 0.341617
O O1 0.933614 0.487360 0.500000
O O2 0.953499 0.672517 0.260980
O O3 0.920482 0.322368 0.246967
O O4 0.863091 0.578742 0.322533
O O5 0.500000 0.500000 0.290062
O O6 0.534096 0.305932 0.500000
O O7 0.593128 0.476559 0.323992
O O8 0.619221 0.730274 0.500000
O O9 0.670508 0.682407 0.740206
O O10 0.791375 0.147575 0.500000
O O11 0.733610 0.085895 0.725066
O O12 0.805941 0.866977 0.660460
O O13 0.788795 0.590020 0.500000
#
# Coordination Sequence:
#
# PCOD9444947 Si02
#       5
#     8   8   8   8   8
#     4  11  23  41  65  93 128 165 208 261 315 375
#     4  10  23  44  68  93 124 166 214 264 318 378
#     4  11  23  40  64  92 125 164 208 258 313 374
#     4  11  22  37  58  86 123 163 208 257 304 365
#     4  10  22  38  56  85 123 164 207 253 307 368
#
# _framework density 21.997641999999999
#
# number of rings (size 3 to 8) (size 9 to 14) (size 15 to 20)
#    0.000    1.400    2.000    3.000    0.000    8.400 
#    0.000    4.000    0.000    0.000    0.000    0.000 
#    0.000    0.000    0.000    0.000    0.000    0.000 
#
# Total GULP energy -223818.236012 kJ/mol
# GULP energy per Si atom -5595.455900 kJ/mol
# Density = 2.194757 g / cm^3
# Si number density = 21.997642 Si / 1000 Ang^3
#
#
#
# Elastic Constant Matrix: (Units=GPa)
#
#
# Indices 1 2 3 4 5 6 
#
# 1 60.6379 -17.0156 21.8800 0.0000 0.0000 0.0000
# 2 -17.0156 89.7990 37.1528 0.0000 0.0000 0.0000
# 3 21.8800 37.1528 126.4373 0.0000 0.0000 0.0000
# 4 0.0000 0.0000 0.0000 26.9538 0.0000 0.0000
# 5 0.0000 0.0000 0.0000 0.0000 26.4187 0.0000
# 6 0.0000 0.0000 0.0000 0.0000 0.0000 37.1876
#
#
#
# Elastic Compliance Matrix: (Units=1/GPa)
#
#
# Indices 1 2 3 4 5 6 
#
# 1 0.020047 0.005958 -0.005220 0.000000 0.000000 0.000000
# 2 0.005958 0.014448 -0.005277 0.000000 0.000000 0.000000
# 3 -0.005220 -0.005277 0.010363 0.000000 0.000000 0.000000
# 4 0.000000 0.000000 0.000000 0.037101 0.000000 0.000000
# 5 0.000000 0.000000 0.000000 0.000000 0.037852 0.000000
# 6 0.000000 0.000000 0.000000 0.000000 0.000000 0.026891
#
#
# Mechanical properties :
#
#
# Convention : Reuss Voigt Hill
#
# Bulk Modulus (GPa) = 27.94764 40.10096 34.02430
# Shear Modulus (GPa) = 29.81438 33.76914 31.79176
#
# Velocity S-wave (km/s) = 3.68549 3.92232 3.80575
# Velocity P-wave (km/s) = 5.55364 6.22752 5.90021
#
# Compressibility (1/GPa) = 0.03578119
#
# Stress axis : x y z
#
# Youngs Moduli (GPa) = 49.88341 69.21357 96.49872
#
# Poissons Ratio (x) = -0.41239 0.50371
# Poissons Ratio (y) = -0.29721 0.50918
# Poissons Ratio (z) = 0.26038 0.36521
#
# Static dielectric constant tensor:
#      x y z
#    x 1.815590 0.000000 0.000000 
#    y 0.000000 1.803860 0.000000 
#    z 0.000000 0.000000 1.765270 
# 
# From -- ./inp_files/10272.got.cif
#   From: 2010.05.17/outbox.cif.g08.bks.cpg/sg58_6_cif.got.tgz:10272.got - 2010.06.03 14:20:14.
