data_PCOD9444345
_publ_section_title
;
Structure prediction by ZEFSAII (Michael W. Deem and Ramdas Pophale) SiO2 
 PCOD9444345
Probable space group: P N N M
;
_chemical_formula_sum "Si O2"
_cell_formula_units_Z 64
_cell_length_a 31.301788
_cell_length_b 12.149910
_cell_length_c 7.826047
_cell_angle_alpha 90.000000
_cell_angle_beta 90.000000
_cell_angle_gamma 90.000000
_cell_volume 2976.354511
_symmetry_space_group_name_H-M "P N N M"
_symmetry_group_IT_number 58
_symmetry_cell_setting 'orthorhombic'
loop_
_space_group_symop_operation_xyz
x,y,z
-x,-y,z
1/2+x,1/2-y,1/2-z
1/2-x,1/2+y,1/2-z
-x,-y,-z
x,y,-z
1/2-x,1/2+y,1/2+z
1/2+x,1/2-y,1/2+z
loop_
_atom_site_type_symbol
_atom_site_label
_atom_site_fract_x
_atom_site_fract_y
_atom_site_fract_z
Si Si1 0.385453 0.574416 0.701627
Si Si2 0.365661 0.329626 0.292680
Si Si3 0.214670 0.689585 0.702794
Si Si4 0.050511 0.701770 0.793376
Si Si5 0.067161 0.461131 0.703031
Si Si6 0.310544 0.734521 0.199331
Si Si7 0.462883 0.721001 0.700167
Si Si8 0.335004 0.975356 0.208652
O O1 0.393620 0.559902 0.500000
O O2 0.376394 0.452484 0.770188
O O3 0.343249 0.648893 0.718631
O O4 0.426337 0.641138 0.774055
O O5 0.365380 0.329610 0.500000
O O6 0.319597 0.285765 0.235968
O O7 0.403752 0.248151 0.234585
O O8 0.220887 0.679810 0.500000
O O9 0.261038 0.706261 0.781314
O O10 0.192634 0.577956 0.769227
O O11 0.043365 0.575237 0.741035
O O12 0.011070 0.776258 0.729177
O O13 0.050487 0.704820 0.000000
O O14 0.066308 0.442517 0.500000
O O15 0.052318 0.347736 0.786337
O O16 0.115791 0.483824 0.759846
O O17 0.317846 0.857651 0.267260
O O18 0.322085 0.735794 0.000000
O O19 0.466646 0.693203 0.500000
O O20 0.333856 0.978145 0.000000
#
# Coordination Sequence:
#
# PCOD9444345 Si02
#       8
#     8   8   8   8   8   8   8   8
#     4  10  22  40  60  84 116 155 196 240 290 343
#     4  10  22  40  60  84 116 155 196 240 290 343
#     4  11  23  41  62  88 118 152 193 238 291 346
#     4  10  21  37  58  86 118 152 193 241 290 343
#     4  11  20  36  59  86 118 154 192 235 291 347
#     4  11  23  41  62  88 118 152 193 238 291 346
#     4  10  21  37  58  86 118 152 193 241 290 343
#     4   9  20  38  60  83 116 152 185 235 288 337
#
# _framework density 21.502814000000001
#
# number of rings (size 3 to 8) (size 9 to 14) (size 15 to 20)
#    0.000    1.750    2.500    1.500    1.750    3.000 
#    0.000    4.375    0.000    0.000    0.000    3.500 
#    0.000    0.000    0.000    0.000    0.000    0.000 
#
# Total GULP energy -357558.339482 kJ/mol
# GULP energy per Si atom -5586.849054 kJ/mol
# Density = 2.145387 g / cm^3
# Si number density = 21.502814 Si / 1000 Ang^3
#
#
#
# Elastic Constant Matrix: (Units=GPa)
#
#
# Indices 1 2 3 4 5 6 
#
# 1 56.7037 -21.7626 -16.0441 0.0000 0.0000 0.0000
# 2 -21.7626 49.4465 -10.7127 0.0000 0.0000 0.0000
# 3 -16.0441 -10.7127 27.8780 0.0000 0.0000 0.0000
# 4 0.0000 0.0000 0.0000 15.3525 0.0000 0.0000
# 5 0.0000 0.0000 0.0000 0.0000 16.6351 0.0000
# 6 0.0000 0.0000 0.0000 0.0000 0.0000 17.6541
#
#
#
# Elastic Compliance Matrix: (Units=1/GPa)
#
#
# Indices 1 2 3 4 5 6 
#
# 1 0.033043 0.020358 0.026840 0.000000 0.000000 0.000000
# 2 0.020358 0.034603 0.025013 0.000000 0.000000 0.000000
# 3 0.026840 0.025013 0.060929 0.000000 0.000000 0.000000
# 4 0.000000 0.000000 0.000000 0.065136 0.000000 0.000000
# 5 0.000000 0.000000 0.000000 0.000000 0.060114 0.000000
# 6 0.000000 0.000000 0.000000 0.000000 0.000000 0.056644
#
#
# Mechanical properties :
#
#
# Convention : Reuss Voigt Hill
#
# Bulk Modulus (GPa) = 3.66306 4.10992 3.88649
# Shear Modulus (GPa) = 19.45175 22.09818 20.77496
#
# Velocity S-wave (km/s) = 3.01094 3.20923 3.11167
# Velocity P-wave (km/s) = 3.71415 3.95572 3.83684
#
# Compressibility (1/GPa) = 0.27299604
#
# Stress axis : x y z
#
# Youngs Moduli (GPa) = 30.26365 28.89915 16.41259
#
# Poissons Ratio (x) = -0.58833 -0.44051
# Poissons Ratio (y) = -0.61610 -0.41053
# Poissons Ratio (z) = -0.81226 -0.72286
#
# Static dielectric constant tensor:
#      x y z
#    x 1.776290 0.000000 0.000000 
#    y 0.000000 1.765870 0.000000 
#    z 0.000000 0.000000 1.793430 
# 
# From -- ./inp_files/11060.got.cif
#   From: 2010.05.17/outbox.cif.g08.bks.cpg/sg58_6_cif.got.tgz:11060.got - 2010.06.03 14:20:14.
