data_PCOD9444864
_publ_section_title
;
Structure prediction by ZEFSAII (Michael W. Deem and Ramdas Pophale) SiO2 
 PCOD9444864
Probable space group: P N N M
;
_chemical_formula_sum "Si O2"
_cell_formula_units_Z 64
_cell_length_a 11.654051
_cell_length_b 16.485415
_cell_length_c 15.278369
_cell_angle_alpha 90.000000
_cell_angle_beta 90.000000
_cell_angle_gamma 90.000000
_cell_volume 2935.308780
_symmetry_space_group_name_H-M "P N N M"
_symmetry_group_IT_number 58
_symmetry_cell_setting 'orthorhombic'
loop_
_space_group_symop_operation_xyz
x,y,z
-x,-y,z
1/2+x,1/2-y,1/2-z
1/2-x,1/2+y,1/2-z
-x,-y,-z
x,y,-z
1/2-x,1/2+y,1/2+z
1/2+x,1/2-y,1/2+z
loop_
_atom_site_type_symbol
_atom_site_label
_atom_site_fract_x
_atom_site_fract_y
_atom_site_fract_z
Si Si1 0.893300 0.455382 0.763021
Si Si2 0.523901 0.614601 0.827875
Si Si3 0.559564 0.420150 0.631132
Si Si4 0.014371 0.743011 0.905106
Si Si5 0.219870 0.485856 0.401026
Si Si6 0.686600 0.474619 0.897672
Si Si7 0.513148 0.206319 0.782625
Si Si8 0.238350 0.303116 0.599942
O O1 0.865636 0.512070 0.679762
O O2 0.789125 0.451764 0.831610
O O3 0.928917 0.370267 0.718768
O O4 0.000000 0.500000 0.808956
O O5 0.480973 0.587318 0.731638
O O6 0.627684 0.558382 0.861958
O O7 0.414803 0.592451 0.888482
O O8 0.546420 0.710069 0.815218
O O9 0.500000 0.500000 0.593803
O O10 0.527600 0.335442 0.589642
O O11 0.692301 0.442034 0.619787
O O12 0.953062 0.709200 0.820080
O O13 0.150581 0.748063 0.883147
O O14 0.998915 0.703620 0.000000
O O15 0.173774 0.493954 0.500000
O O16 0.278345 0.397254 0.396192
O O17 0.718664 0.481762 0.000000
O O18 0.629684 0.203342 0.837914
O O19 0.201980 0.287611 0.500000
#
# Coordination Sequence:
#
# PCOD9444864 Si02
#       8
#     8   8   8   8   8   8   8   8
#     4  12  26  46  67  95 140 192 234 275 340 425
#     4  10  21  42  71 103 134 169 229 298 348 395
#     4  11  17  33  64  99 129 156 203 269 340 402
#     4  10  23  39  63 100 136 171 218 277 343 406
#     4  11  22  38  65  96 129 167 214 272 335 407
#     4  11  24  45  73 104 139 184 240 293 343 408
#     4  11  26  40  68  98 137 180 227 286 341 405
#     4  10  22  40  64  97 132 174 219 270 341 413
#
# _framework density 21.803497
#
# number of rings (size 3 to 8) (size 9 to 14) (size 15 to 20)
#    0.000    1.250    5.000    1.125    3.500    3.000 
#    0.000    0.000    0.000    0.750    0.000    0.000 
#    0.000    0.000    0.000    0.000    0.000    0.000 
#
# Total GULP energy -357211.525120 kJ/mol
# GULP energy per Si atom -5581.430080 kJ/mol
# Density = 2.175387 g / cm^3
# Si number density = 21.803497 Si / 1000 Ang^3
#
#
#
# Elastic Constant Matrix: (Units=GPa)
#
#
# Indices 1 2 3 4 5 6 
#
# 1 92.4887 13.2377 41.7213 0.0000 0.0000 0.0000
# 2 13.2377 70.5082 4.8579 0.0000 0.0000 0.0000
# 3 41.7213 4.8579 156.1288 0.0000 0.0000 0.0000
# 4 0.0000 0.0000 0.0000 13.5228 0.0000 0.0000
# 5 0.0000 0.0000 0.0000 0.0000 -39.7640 0.0000
# 6 0.0000 0.0000 0.0000 0.0000 0.0000 12.0823
#
#
#
# Elastic Compliance Matrix: (Units=1/GPa)
#
#
# Indices 1 2 3 4 5 6 
#
# 1 0.012608 -0.002140 -0.003303 0.000000 0.000000 0.000000
# 2 -0.002140 0.014576 0.000118 0.000000 0.000000 0.000000
# 3 -0.003303 0.000118 0.007284 0.000000 0.000000 0.000000
# 4 0.000000 0.000000 0.000000 0.073949 0.000000 0.000000
# 5 0.000000 0.000000 0.000000 0.000000 -0.025148 0.000000
# 6 0.000000 0.000000 0.000000 0.000000 0.000000 0.082765
#
#
# Mechanical properties :
#
#
# Convention : Reuss Voigt Hill
#
# Bulk Modulus (GPa) = 41.98102 48.75104 45.36603
# Shear Modulus (GPa) = 27.08227 14.45549 20.76888
#
# Velocity S-wave (km/s) = 3.52818 2.57765 3.08969
# Velocity P-wave (km/s) = 5.99111 5.59168 5.79484
#
# Compressibility (1/GPa) = 0.02382029
#
# Stress axis : x y z
#
# Youngs Moduli (GPa) = 79.31364 68.60453 137.29040
#
# Poissons Ratio (x) = 0.14679 0.45342
# Poissons Ratio (y) = 0.16970 -0.01623
# Poissons Ratio (z) = 0.26194 -0.00811
#
# Static dielectric constant tensor:
#      x y z
#    x 1.860020 0.000000 0.000000 
#    y 0.000000 1.841610 0.000000 
#    z 0.000000 0.000000 1.824580 
# 
# From -- ./inp_files/21495.got.cif
#   From: 2010.05.17/outbox.cif.g08.bks.cpg/sg58_11_cif.got.tgz:21495.got - 2010.06.03 14:20:14.
