data_PCOD9444259
_publ_section_title
;
Structure prediction by ZEFSAII (Michael W. Deem and Ramdas Pophale) SiO2 
 PCOD9444259
Probable space group: P N N M
;
_chemical_formula_sum "Si O2"
_cell_formula_units_Z 48
_cell_length_a 8.049023
_cell_length_b 7.846166
_cell_length_c 33.838731
_cell_angle_alpha 90.000000
_cell_angle_beta 90.000000
_cell_angle_gamma 90.000000
_cell_volume 2137.050223
_symmetry_space_group_name_H-M "P N N M"
_symmetry_group_IT_number 58
_symmetry_cell_setting 'orthorhombic'
loop_
_space_group_symop_operation_xyz
x,y,z
-x,-y,z
1/2+x,1/2-y,1/2-z
1/2-x,1/2+y,1/2-z
-x,-y,-z
x,y,-z
1/2-x,1/2+y,1/2+z
1/2+x,1/2-y,1/2+z
loop_
_atom_site_type_symbol
_atom_site_label
_atom_site_fract_x
_atom_site_fract_y
_atom_site_fract_z
Si Si1 0.085767 0.685114 0.829476
Si Si2 0.295648 0.992409 0.955321
Si Si3 0.321085 0.405504 0.261541
Si Si4 0.722609 0.331095 0.908567
Si Si5 0.745035 0.801307 0.185883
Si Si6 0.666663 0.707595 0.899874
O O1 0.163342 0.732294 0.787258
O O2 0.210877 0.716180 0.865124
O O3 0.000000 0.500000 0.832401
O O4 0.930846 0.813250 0.831163
O O5 0.253115 0.136720 0.923398
O O6 0.500000 0.000000 0.955755
O O7 0.225358 0.810894 0.940277
O O8 0.241975 0.028582 0.000000
O O9 0.500000 0.500000 0.256703
O O10 0.260914 0.347397 0.218738
O O11 0.210728 0.528052 0.289409
O O12 0.761685 0.532623 0.910484
O O13 0.523925 0.318359 0.911894
O O14 0.648943 0.748831 0.146773
#
# Coordination Sequence:
#
# PCOD9444259 Si02
#       6
#     8   8   8   8   8   8
#     4  11  21  38  59  82 117 158 201 244 298 355
#     4   9  19  38  62  93 122 148 192 248 304 363
#     4  10  24  38  57  87 118 157 210 257 305 347
#     4  10  21  36  61  88 118 156 197 244 303 357
#     4  11  22  38  58  83 118 160 201 252 297 356
#     4  10  21  36  61  89 118 155 199 246 297 360
#
# _framework density 22.460867
#
# number of rings (size 3 to 8) (size 9 to 14) (size 15 to 20)
#    0.000    1.833    1.667    2.000    2.333    2.000 
#    0.000    9.167    0.000    2.500    0.000    0.000 
#    0.000    0.000    0.000    0.000    0.000    0.000 
#
# Total GULP energy -267680.304059 kJ/mol
# GULP energy per Si atom -5576.673001 kJ/mol
# Density = 2.240975 g / cm^3
# Si number density = 22.460867 Si / 1000 Ang^3
#
#
#
# Elastic Constant Matrix: (Units=GPa)
#
#
# Indices 1 2 3 4 5 6 
#
# 1 17.8643 6.1297 -4.2612 0.0000 0.0000 0.0000
# 2 6.1297 132.2971 68.5226 0.0000 0.0000 0.0000
# 3 -4.2612 68.5226 129.8086 0.0000 0.0000 0.0000
# 4 0.0000 0.0000 0.0000 33.3504 0.0000 0.0000
# 5 0.0000 0.0000 0.0000 0.0000 17.6052 0.0000
# 6 0.0000 0.0000 0.0000 0.0000 0.0000 16.7841
#
#
#
# Elastic Compliance Matrix: (Units=1/GPa)
#
#
# Indices 1 2 3 4 5 6 
#
# 1 0.058844 -0.005129 0.004639 0.000000 0.000000 0.000000
# 2 -0.005129 0.010850 -0.005896 0.000000 0.000000 0.000000
# 3 0.004639 -0.005896 0.010968 0.000000 0.000000 0.000000
# 4 0.000000 0.000000 0.000000 0.029985 0.000000 0.000000
# 5 0.000000 0.000000 0.000000 0.000000 0.056801 0.000000
# 6 0.000000 0.000000 0.000000 0.000000 0.000000 0.059580
#
#
# Mechanical properties :
#
#
# Convention : Reuss Voigt Hill
#
# Bulk Modulus (GPa) = 14.72958 46.75026 30.73992
# Shear Modulus (GPa) = 19.05264 27.51985 23.28625
#
# Velocity S-wave (km/s) = 2.91565 3.50413 3.22335
# Velocity P-wave (km/s) = 4.23164 6.10174 5.25062
#
# Compressibility (1/GPa) = 0.06789062
#
# Stress axis : x y z
#
# Youngs Moduli (GPa) = 16.99405 92.16461 91.17241
#
# Poissons Ratio (x) = 0.47274 -0.42297
# Poissons Ratio (y) = 0.08717 0.53754
# Poissons Ratio (z) = -0.07884 0.54339
#
# Static dielectric constant tensor:
#      x y z
#    x 1.913430 0.000000 0.000000 
#    y 0.000000 1.979580 0.000000 
#    z 0.000000 0.000000 1.815020 
# 
# From -- ./inp_files/34585.got.cif
#   From: 2010.05.17/outbox.cif.g08.bks.cpg/sg58_18_cif.got.tgz:34585.got - 2010.06.03 14:20:14.
