data_PCOD9444726
_publ_section_title
;
Structure prediction by ZEFSAII (Michael W. Deem and Ramdas Pophale) SiO2 
 PCOD9444726
Probable space group: P N N M
;
_chemical_formula_sum "Si O2"
_cell_formula_units_Z 56
_cell_length_a 14.918531
_cell_length_b 21.749781
_cell_length_c 8.887625
_cell_angle_alpha 90.000000
_cell_angle_beta 90.000000
_cell_angle_gamma 90.000000
_cell_volume 2883.810185
_symmetry_space_group_name_H-M "P N N M"
_symmetry_group_IT_number 58
_symmetry_cell_setting 'orthorhombic'
loop_
_space_group_symop_operation_xyz
x,y,z
-x,-y,z
1/2+x,1/2-y,1/2-z
1/2-x,1/2+y,1/2-z
-x,-y,-z
x,y,-z
1/2-x,1/2+y,1/2+z
1/2+x,1/2-y,1/2+z
loop_
_atom_site_type_symbol
_atom_site_label
_atom_site_fract_x
_atom_site_fract_y
_atom_site_fract_z
Si Si1 0.092740 0.878928 0.820759
Si Si2 0.551880 0.176086 0.680018
Si Si3 0.090802 0.463867 0.818942
Si Si4 0.385106 0.244198 0.179615
Si Si5 0.093667 0.091510 0.321075
Si Si6 0.221285 0.988876 0.820937
Si Si7 0.181870 0.211075 0.179538
O O1 0.102805 0.811318 0.752149
O O2 0.178212 0.921908 0.789472
O O3 0.004989 0.910686 0.750894
O O4 0.080933 0.874050 0.000000
O O5 0.536454 0.175838 0.500000
O O6 0.579158 0.107474 0.724902
O O7 0.462426 0.199836 0.759732
O O8 0.630032 0.225371 0.710742
O O9 0.178429 0.491369 0.741463
O O10 0.000000 0.500000 0.780655
O O11 0.102449 0.466859 0.000000
O O12 0.286410 0.218612 0.215598
O O13 0.392013 0.250271 0.000000
O O14 0.087346 0.087312 0.500000
O O15 0.135949 0.156562 0.270887
O O16 0.157697 0.038794 0.256610
O O17 0.220138 0.998697 0.000000
O O18 0.172908 0.198421 0.000000
#
# Coordination Sequence:
#
# PCOD9444726 Si02
#       7
#     8   8   8   8   8   8   8
#     4  11  23  42  65  93 129 168 208 257 321 382
#     4  10  21  40  64  89 127 172 207 255 316 372
#     4  10  23  43  66  95 130 169 215 264 314 373
#     4  11  23  38  63  96 126 163 209 257 308 371
#     4  12  25  40  64  95 126 164 212 265 317 379
#     4  11  25  43  65  92 126 170 212 261 321 381
#     4  10  22  40  61  89 128 170 208 256 318 378
#
# _framework density 19.418754
#
# number of rings (size 3 to 8) (size 9 to 14) (size 15 to 20)
#    0.000    1.286    1.429    3.857    2.000    7.143 
#    0.000    0.000    0.000    0.000    0.000    0.000 
#    0.000    0.000    0.000    0.000    0.000    0.000 
#
# Total GULP energy -313294.599681 kJ/mol
# GULP energy per Si atom -5594.546423 kJ/mol
# Density = 1.937456 g / cm^3
# Si number density = 19.418754 Si / 1000 Ang^3
#
#
#
# Elastic Constant Matrix: (Units=GPa)
#
#
# Indices 1 2 3 4 5 6 
#
# 1 99.5381 -13.4876 21.4733 0.0000 0.0000 0.0000
# 2 -13.4876 36.9377 4.9501 0.0000 0.0000 0.0000
# 3 21.4733 4.9501 27.5707 0.0000 0.0000 0.0000
# 4 0.0000 0.0000 0.0000 -20.9776 0.0000 0.0000
# 5 0.0000 0.0000 0.0000 0.0000 28.2389 0.0000
# 6 0.0000 0.0000 0.0000 0.0000 0.0000 24.4264
#
#
#
# Elastic Compliance Matrix: (Units=1/GPa)
#
#
# Indices 1 2 3 4 5 6 
#
# 1 0.013428 0.006460 -0.011618 0.000000 0.000000 0.000000
# 2 0.006460 0.030848 -0.010570 0.000000 0.000000 0.000000
# 3 -0.011618 -0.010570 0.047217 0.000000 0.000000 0.000000
# 4 0.000000 0.000000 0.000000 -0.047670 0.000000 0.000000
# 5 0.000000 0.000000 0.000000 0.000000 0.035412 0.000000
# 6 0.000000 0.000000 0.000000 0.000000 0.000000 0.040939
#
#
# Mechanical properties :
#
#
# Convention : Reuss Voigt Hill
#
# Bulk Modulus (GPa) = 16.65641 21.10201 18.87921
# Shear Modulus (GPa) = 29.13021 16.41159 22.77090
#
# Velocity S-wave (km/s) = 3.87732 2.91028 3.42807
# Velocity P-wave (km/s) = 5.35172 4.70993 5.04105
#
# Compressibility (1/GPa) = 0.06003696
#
# Stress axis : x y z
#
# Youngs Moduli (GPa) = 74.47026 32.41701 21.17886
#
# Poissons Ratio (x) = -0.20942 0.24606
# Poissons Ratio (y) = -0.48109 0.22386
# Poissons Ratio (z) = 0.86522 0.34265
#
# Static dielectric constant tensor:
#      x y z
#    x 1.649660 0.000000 0.000000 
#    y 0.000000 1.661400 0.000000 
#    z 0.000000 0.000000 1.649450 
# 
# From -- ./inp_files/6382.got.cif
#   From: 2010.05.17/outbox.cif.g08.bks.cpg/sg58_4_cif.got.tgz:6382.got - 2010.06.03 14:20:14.
