data_PCOD9444568
_publ_section_title
;
Structure prediction by ZEFSAII (Michael W. Deem and Ramdas Pophale) SiO2 
 PCOD9444568
Probable space group: P N N M
;
_chemical_formula_sum "Si O2"
_cell_formula_units_Z 48
_cell_length_a 7.347805
_cell_length_b 12.052685
_cell_length_c 21.807739
_cell_angle_alpha 90.000000
_cell_angle_beta 90.000000
_cell_angle_gamma 90.000000
_cell_volume 1931.310356
_symmetry_space_group_name_H-M "P N N M"
_symmetry_group_IT_number 58
_symmetry_cell_setting 'orthorhombic'
loop_
_space_group_symop_operation_xyz
x,y,z
-x,-y,z
1/2+x,1/2-y,1/2-z
1/2-x,1/2+y,1/2-z
-x,-y,-z
x,y,-z
1/2-x,1/2+y,1/2+z
1/2+x,1/2-y,1/2+z
loop_
_atom_site_type_symbol
_atom_site_label
_atom_site_fract_x
_atom_site_fract_y
_atom_site_fract_z
Si Si1 0.239157 0.858425 0.743424
Si Si2 0.751243 0.196523 0.930780
Si Si3 0.217773 0.512249 0.643903
Si Si4 0.125068 0.657980 0.823046
Si Si5 0.670935 0.555791 0.874392
Si Si6 0.688692 0.776602 0.070109
O O1 0.225785 0.738807 0.774705
O O2 0.104235 0.877919 0.686620
O O3 0.210979 0.955182 0.793865
O O4 0.564620 0.136720 0.710902
O O5 0.867670 0.267458 0.883817
O O6 0.533988 0.222656 0.924449
O O7 0.773221 0.069008 0.911223
O O8 0.804240 0.217220 0.000000
O O9 0.257113 0.636459 0.621592
O O10 0.000000 0.500000 0.650415
O O11 0.210738 0.543816 0.847035
O O12 0.500000 0.500000 0.907018
O O13 0.752152 0.651485 0.916486
O O14 0.729874 0.810417 0.000000
#
# Coordination Sequence:
#
# PCOD9444568 Si02
#       6
#     8   8   8   8   8   8
#     4  11  25  41  67  93 138 172 223 279 336 408
#     4   9  18  35  63  91 124 169 224 278 332 397
#     4   9  18  35  61  94 124 164 216 278 329 381
#     4  11  23  42  62  96 128 179 215 274 340 403
#     4  12  24  39  62  96 133 170 214 268 335 405
#     4  10  21  38  63  96 132 173 224 278 331 404
#
# _framework density 24.853591000000002
#
# number of rings (size 3 to 8) (size 9 to 14) (size 15 to 20)
#    0.000    1.667    1.667    3.000    7.000    3.000 
#    0.000    0.833    0.000    2.000    0.000    3.500 
#    0.000    0.000    0.000    0.000    0.000    0.000 
#
# Total GULP energy -268465.356509 kJ/mol
# GULP energy per Si atom -5593.028261 kJ/mol
# Density = 2.479702 g / cm^3
# Si number density = 24.853591 Si / 1000 Ang^3
#
#
#
# Elastic Constant Matrix: (Units=GPa)
#
#
# Indices 1 2 3 4 5 6 
#
# 1 70.2745 23.3300 -1.2513 0.0000 0.0000 0.0000
# 2 23.3300 146.7697 23.9863 0.0000 0.0000 0.0000
# 3 -1.2513 23.9863 111.3230 0.0000 0.0000 0.0000
# 4 0.0000 0.0000 0.0000 20.2755 0.0000 0.0000
# 5 0.0000 0.0000 0.0000 0.0000 6.9722 0.0000
# 6 0.0000 0.0000 0.0000 0.0000 0.0000 26.9007
#
#
#
# Elastic Compliance Matrix: (Units=1/GPa)
#
#
# Indices 1 2 3 4 5 6 
#
# 1 0.015077 -0.002513 0.000711 0.000000 0.000000 0.000000
# 2 -0.002513 0.007481 -0.001640 0.000000 0.000000 0.000000
# 3 0.000711 -0.001640 0.009344 0.000000 0.000000 0.000000
# 4 0.000000 0.000000 0.000000 0.049321 0.000000 0.000000
# 5 0.000000 0.000000 0.000000 0.000000 0.143427 0.000000
# 6 0.000000 0.000000 0.000000 0.000000 0.000000 0.037174
#
#
# Mechanical properties :
#
#
# Convention : Reuss Voigt Hill
#
# Bulk Modulus (GPa) = 39.97135 46.72193 43.34664
# Shear Modulus (GPa) = 18.04752 29.64982 23.84867
#
# Velocity S-wave (km/s) = 2.69765 3.45770 3.10105
# Velocity P-wave (km/s) = 5.08141 5.89751 5.50460
#
# Compressibility (1/GPa) = 0.02501792
#
# Stress axis : x y z
#
# Youngs Moduli (GPa) = 66.32722 133.67467 107.01774
#
# Poissons Ratio (x) = 0.33589 -0.07608
# Poissons Ratio (y) = 0.16666 0.17552
# Poissons Ratio (z) = -0.04715 0.21924
#
# Static dielectric constant tensor:
#      x y z
#    x 2.048440 0.000000 0.000000 
#    y 0.000000 1.997850 0.000000 
#    z 0.000000 0.000000 1.925540 
# 
# From -- ./inp_files/29541.got.cif
#   From: 2010.05.17/outbox.cif.g08.bks.cpg/sg58_15_cif.got.tgz:29541.got - 2010.06.03 14:20:14.
