data_PCOD9444934
_publ_section_title
;
Structure prediction by ZEFSAII (Michael W. Deem and Ramdas Pophale) SiO2 
 PCOD9444934
Probable space group: P N N M
;
_chemical_formula_sum "Si O2"
_cell_formula_units_Z 48
_cell_length_a 8.213808
_cell_length_b 7.513382
_cell_length_c 33.239724
_cell_angle_alpha 90.000000
_cell_angle_beta 90.000000
_cell_angle_gamma 90.000000
_cell_volume 2051.338948
_symmetry_space_group_name_H-M "P N N M"
_symmetry_group_IT_number 58
_symmetry_cell_setting 'orthorhombic'
loop_
_space_group_symop_operation_xyz
x,y,z
-x,-y,z
1/2+x,1/2-y,1/2-z
1/2-x,1/2+y,1/2-z
-x,-y,-z
x,y,-z
1/2-x,1/2+y,1/2+z
1/2+x,1/2-y,1/2+z
loop_
_atom_site_type_symbol
_atom_site_label
_atom_site_fract_x
_atom_site_fract_y
_atom_site_fract_z
Si Si1 0.335582 0.877283 0.044877
Si Si2 0.749665 0.602981 0.285068
Si Si3 0.378050 0.782718 0.132084
Si Si4 0.304269 0.974155 0.542272
Si Si5 0.918589 0.725293 0.206595
Si Si6 0.234039 0.874603 0.372337
O O1 0.304685 0.890227 0.093673
O O2 0.302789 0.658193 0.044239
O O3 0.500000 0.000000 0.042795
O O4 0.257656 0.921326 0.000000
O O5 0.850100 0.626057 0.325495
O O6 0.845065 0.618004 0.243712
O O7 0.609750 0.752086 0.288370
O O8 0.660439 0.417068 0.286979
O O9 0.569424 0.738473 0.130470
O O10 0.300843 0.584976 0.132621
O O11 0.254573 0.886694 0.500000
O O12 0.500000 0.000000 0.541069
O O13 0.281725 0.855360 0.581235
O O14 0.863460 0.670114 0.162034
#
# Coordination Sequence:
#
# PCOD9444934 Si02
#       6
#     8   8   8   8   8   8
#     4   9  19  35  59  90 125 168 219 266 320 390
#     4  11  25  43  63  91 125 163 215 267 326 396
#     4  10  22  38  61  91 127 166 212 267 319 386
#     4   9  19  37  63  94 131 174 220 272 330 394
#     4  11  25  42  64  91 122 164 213 270 328 393
#     4  10  22  37  60  94 125 164 216 262 319 386
#
# _framework density 23.399352
#
# number of rings (size 3 to 8) (size 9 to 14) (size 15 to 20)
#    0.000    2.000    0.000    2.000    7.000    6.667 
#    0.000    3.333    0.000    0.000    0.000    7.000 
#    0.000    0.000    0.000    0.000    0.000    0.000 
#
# Total GULP energy -267283.551666 kJ/mol
# GULP energy per Si atom -5568.407326 kJ/mol
# Density = 2.334609 g / cm^3
# Si number density = 23.399352 Si / 1000 Ang^3
#
#
#
# Elastic Constant Matrix: (Units=GPa)
#
#
# Indices 1 2 3 4 5 6 
#
# 1 83.6994 37.3361 54.5367 0.0000 0.0000 0.0000
# 2 37.3361 75.1507 60.9594 0.0000 0.0000 0.0000
# 3 54.5367 60.9594 217.5773 0.0000 0.0000 0.0000
# 4 0.0000 0.0000 0.0000 39.1572 0.0000 0.0000
# 5 0.0000 0.0000 0.0000 0.0000 8.1692 0.0000
# 6 0.0000 0.0000 0.0000 0.0000 0.0000 31.2281
#
#
#
# Elastic Compliance Matrix: (Units=1/GPa)
#
#
# Indices 1 2 3 4 5 6 
#
# 1 0.016220 -0.006161 -0.002340 0.000000 0.000000 0.000000
# 2 -0.006161 0.019560 -0.003936 0.000000 0.000000 0.000000
# 3 -0.002340 -0.003936 0.006285 0.000000 0.000000 0.000000
# 4 0.000000 0.000000 0.000000 0.025538 0.000000 0.000000
# 5 0.000000 0.000000 0.000000 0.000000 0.122411 0.000000
# 6 0.000000 0.000000 0.000000 0.000000 0.000000 0.032022
#
#
# Mechanical properties :
#
#
# Convention : Reuss Voigt Hill
#
# Bulk Modulus (GPa) = 58.16351 75.78798 66.97574
# Shear Modulus (GPa) = 19.79097 30.61726 25.20411
#
# Velocity S-wave (km/s) = 2.91140 3.62120 3.28552
# Velocity P-wave (km/s) = 6.01769 7.06706 6.56338
#
# Compressibility (1/GPa) = 0.01719291
#
# Stress axis : x y z
#
# Youngs Moduli (GPa) = 61.65218 51.12468 159.10237
#
# Poissons Ratio (x) = 0.31496 0.37223
# Poissons Ratio (y) = 0.37981 0.62623
# Poissons Ratio (z) = 0.14424 0.20123
#
# Static dielectric constant tensor:
#      x y z
#    x 1.921830 0.000000 0.000000 
#    y 0.000000 1.977260 0.000000 
#    z 0.000000 0.000000 1.904960 
# 
# From -- ./inp_files/34548.got.cif
#   From: 2010.05.17/outbox.cif.g08.bks.cpg/sg58_18_cif.got.tgz:34548.got - 2010.06.03 14:20:14.
