data_PCOD9444674
_publ_section_title
;
Structure prediction by ZEFSAII (Michael W. Deem and Ramdas Pophale) SiO2 
 PCOD9444674
Probable space group: P N N M
;
_chemical_formula_sum "Si O2"
_cell_formula_units_Z 64
_cell_length_a 12.584502
_cell_length_b 13.429393
_cell_length_c 17.663359
_cell_angle_alpha 90.000000
_cell_angle_beta 90.000000
_cell_angle_gamma 90.000000
_cell_volume 2985.146938
_symmetry_space_group_name_H-M "P N N M"
_symmetry_group_IT_number 58
_symmetry_cell_setting 'orthorhombic'
loop_
_space_group_symop_operation_xyz
x,y,z
-x,-y,z
1/2+x,1/2-y,1/2-z
1/2-x,1/2+y,1/2-z
-x,-y,-z
x,y,-z
1/2-x,1/2+y,1/2+z
1/2+x,1/2-y,1/2+z
loop_
_atom_site_type_symbol
_atom_site_label
_atom_site_fract_x
_atom_site_fract_y
_atom_site_fract_z
Si Si1 0.933526 0.733199 0.412250
Si Si2 0.579685 0.634351 0.186910
Si Si3 0.265392 0.698121 0.668087
Si Si4 0.407561 0.934846 0.763446
Si Si5 0.615505 0.937134 0.084841
Si Si6 0.779844 0.955290 0.689529
Si Si7 0.295160 0.210514 0.589443
Si Si8 0.993630 0.753910 0.185773
O O1 0.922763 0.759250 0.500000
O O2 0.809080 0.722189 0.386848
O O3 0.992147 0.823423 0.370473
O O4 0.016682 0.640597 0.410550
O O5 0.678253 0.715111 0.182654
O O6 0.617999 0.522649 0.176147
O O7 0.529943 0.648264 0.269891
O O8 0.217254 0.629099 0.602991
O O9 0.278654 0.629679 0.744211
O O10 0.381749 0.734228 0.644471
O O11 0.389062 0.985546 0.845567
O O12 0.457055 0.825521 0.751785
O O13 0.500000 0.000000 0.726230
O O14 0.303510 0.961296 0.717584
O O15 0.618863 0.980014 0.000000
O O16 0.742950 0.899025 0.614429
O O17 0.313454 0.222218 0.500000
O O18 0.404768 0.226318 0.635416
#
# Coordination Sequence:
#
# PCOD9444674 Si02
#       8
#     8   8   8   8   8   8   8   8
#     4   9  20  39  62  92 129 168 216 265 328 388
#     4  11  22  38  68  91 125 168 211 278 320 375
#     4  10  21  39  64  94 130 165 212 274 316 384
#     4  11  20  37  63  90 127 163 208 274 318 380
#     4   9  20  39  66  99 127 166 217 271 335 387
#     4  11  22  40  64  96 123 169 222 262 321 383
#     4  11  24  42  61  90 134 176 217 263 318 393
#     4  12  23  39  62  96 131 171 216 266 329 386
#
# _framework density 21.439481000000001
#
# number of rings (size 3 to 8) (size 9 to 14) (size 15 to 20)
#    0.000    1.500    3.750    2.250    0.000    4.250 
#    0.000    3.125    0.000    8.250    0.000    4.375 
#    0.000    0.000    0.000    0.000    0.000    0.000 
#
# Total GULP energy -356877.936958 kJ/mol
# GULP energy per Si atom -5576.217765 kJ/mol
# Density = 2.139068 g / cm^3
# Si number density = 21.439481 Si / 1000 Ang^3
#
#
#
# Elastic Constant Matrix: (Units=GPa)
#
#
# Indices 1 2 3 4 5 6 
#
# 1 179.6110 37.0333 49.1059 0.0000 0.0000 0.0000
# 2 37.0333 72.1623 24.2312 0.0000 0.0000 0.0000
# 3 49.1059 24.2312 81.5539 0.0000 0.0000 0.0000
# 4 0.0000 0.0000 0.0000 -1.1684 0.0000 0.0000
# 5 0.0000 0.0000 0.0000 0.0000 25.5365 0.0000
# 6 0.0000 0.0000 0.0000 0.0000 0.0000 45.8791
#
#
#
# Elastic Compliance Matrix: (Units=1/GPa)
#
#
# Indices 1 2 3 4 5 6 
#
# 1 0.007028 -0.002428 -0.003510 0.000000 0.000000 0.000000
# 2 -0.002428 0.016232 -0.003361 0.000000 0.000000 0.000000
# 3 -0.003510 -0.003361 0.015374 0.000000 0.000000 0.000000
# 4 0.000000 0.000000 0.000000 -0.855851 0.000000 0.000000
# 5 0.000000 0.000000 0.000000 0.000000 0.039160 0.000000
# 6 0.000000 0.000000 0.000000 0.000000 0.000000 0.021796
#
#
# Mechanical properties :
#
#
# Convention : Reuss Voigt Hill
#
# Bulk Modulus (GPa) = 49.91070 61.56310 55.73690
# Shear Modulus (GPa) = -6.84010 28.91322 11.03656
#
# Velocity S-wave (km/s) = -1.78811 3.67631 2.27133
# Velocity P-wave (km/s) = 4.36660 6.84087 5.73867
#
# Compressibility (1/GPa) = 0.02003578
#
# Stress axis : x y z
#
# Youngs Moduli (GPa) = 142.28943 61.60577 65.04450
#
# Poissons Ratio (x) = 0.14958 0.22833
# Poissons Ratio (y) = 0.34548 0.21861
# Poissons Ratio (z) = 0.49948 0.20705
#
# Static dielectric constant tensor:
#      x y z
#    x 1.848680 0.000000 0.000000 
#    y 0.000000 1.833700 0.000000 
#    z 0.000000 0.000000 1.792370 
# 
# From -- ./inp_files/26363.got.cif
#   From: 2010.05.17/outbox.cif.g08.bks.cpg/sg58_14_cif.got.tgz:26363.got - 2010.06.03 14:20:14.
