data_PCOD9444469
_publ_section_title
;
Structure prediction by ZEFSAII (Michael W. Deem and Ramdas Pophale) SiO2 
 PCOD9444469
Probable space group: P N N M
;
_chemical_formula_sum "Si O2"
_cell_formula_units_Z 30
_cell_length_a 32.211160
_cell_length_b 7.902688
_cell_length_c 5.241895
_cell_angle_alpha 90.000000
_cell_angle_beta 90.000000
_cell_angle_gamma 90.000000
_cell_volume 1334.349259
_symmetry_space_group_name_H-M "P N N M"
_symmetry_group_IT_number 58
_symmetry_cell_setting 'orthorhombic'
loop_
_space_group_symop_operation_xyz
x,y,z
-x,-y,z
1/2+x,1/2-y,1/2-z
1/2-x,1/2+y,1/2-z
-x,-y,-z
x,y,-z
1/2-x,1/2+y,1/2+z
1/2+x,1/2-y,1/2+z
loop_
_atom_site_type_symbol
_atom_site_label
_atom_site_fract_x
_atom_site_fract_y
_atom_site_fract_z
Si Si1 0.872295 0.473655 0.500000
Si Si2 0.787949 0.366060 0.500000
Si Si3 0.473042 0.305762 0.500000
Si Si4 0.599687 0.413550 0.500000
Si Si5 0.574666 0.024405 0.500000
Si Si6 0.345570 0.644257 0.000000
Si Si7 0.500000 0.500000 0.000000
Si Si8 0.247307 0.999306 0.500000
O O1 0.836957 0.332750 0.500000
O O2 0.899801 0.472960 0.749483
O O3 0.848028 0.652341 0.500000
O O4 0.774054 0.459257 0.246358
O O5 0.762790 0.195307 0.500000
O O6 0.431471 0.427278 0.500000
O O7 0.463061 0.107233 0.500000
O O8 0.494481 0.357616 0.768025
O O9 0.628823 0.414921 0.750246
O O10 0.574968 0.231307 0.500000
O O11 0.297677 0.590016 0.000000
#
# Coordination Sequence:
#
# PCOD9444469 Si02
#       8
#     4   4   4   4   4   4   2   4
#     4  10  21  38  59  86 118 149 204 258 309 358
#     4  12  25  40  60  84 121 166 213 259 323 383
#     4  11  22  42  66  86 134 152 206 236 308 352
#     4  10  22  38  63  93 120 157 198 256 302 357
#     4  10  22  38  63  93 120 157 198 256 302 357
#     4  10  21  38  59  86 118 149 204 258 309 358
#     4  10  24  42  62  98 120 172 188 246 286 378
#     4  12  25  40  60  84 121 166 213 259 323 383
#
# _framework density 22.482868
#
# number of rings (size 3 to 8) (size 9 to 14) (size 15 to 20)
#    0.000    1.333    0.000    5.600    3.733    2.133 
#    0.000    4.000    0.000    0.000    0.000    0.000 
#    0.000    0.000    0.000    0.000    0.000    0.000 
#
# Total GULP energy -167245.335082 kJ/mol
# GULP energy per Si atom -5574.844503 kJ/mol
# Density = 2.243170 g / cm^3
# Si number density = 22.482868 Si / 1000 Ang^3
#
#
#
# Elastic Constant Matrix: (Units=GPa)
#
#
# Indices 1 2 3 4 5 6 
#
# 1 75.8360 38.1481 64.4665 0.0000 0.0000 0.0000
# 2 38.1481 65.6088 33.6764 0.0000 0.0000 0.0000
# 3 64.4665 33.6764 247.5275 0.0000 0.0000 0.0000
# 4 0.0000 0.0000 0.0000 -26.5841 0.0000 0.0000
# 5 0.0000 0.0000 0.0000 0.0000 13.8574 0.0000
# 6 0.0000 0.0000 0.0000 0.0000 0.0000 57.0375
#
#
#
# Elastic Compliance Matrix: (Units=1/GPa)
#
#
# Indices 1 2 3 4 5 6 
#
# 1 0.022270 -0.010720 -0.004341 0.000000 0.000000 0.000000
# 2 -0.010720 0.021547 -0.000139 0.000000 0.000000 0.000000
# 3 -0.004341 -0.000139 0.005190 0.000000 0.000000 0.000000
# 4 0.000000 0.000000 0.000000 -0.037617 0.000000 0.000000
# 5 0.000000 0.000000 0.000000 0.000000 0.072163 0.000000
# 6 0.000000 0.000000 0.000000 0.000000 0.000000 0.017532
#
#
# Mechanical properties :
#
#
# Convention : Reuss Voigt Hill
#
# Bulk Modulus (GPa) = 53.75276 73.50603 63.62940
# Shear Modulus (GPa) = 36.31390 25.70758 31.01074
#
# Velocity S-wave (km/s) = 4.02329 3.38513 3.71793
# Velocity P-wave (km/s) = 6.74853 6.93138 6.84057
#
# Compressibility (1/GPa) = 0.01860370
#
# Stress axis : x y z
#
# Youngs Moduli (GPa) = 44.90446 46.41092 192.69235
#
# Poissons Ratio (x) = 0.49753 0.83656
# Poissons Ratio (y) = 0.48138 0.02688
# Poissons Ratio (z) = 0.19495 0.00647
#
# Static dielectric constant tensor:
#      x y z
#    x 1.860400 0.000000 0.000000 
#    y 0.000000 1.865560 0.000000 
#    z 0.000000 0.000000 1.741910 
# 
# From -- ./inp_files/999.got.cif
#   From: 2010.05.17/outbox.cif.g08.bks.cpg/sg58_1_cif.got.tgz:999.got - 2010.06.03 14:20:14.
