data_PCOD9444304
_publ_section_title
;
Structure prediction by ZEFSAII (Michael W. Deem and Ramdas Pophale) SiO2 
 PCOD9444304
Probable space group: P N N M
;
_chemical_formula_sum "Si O2"
_cell_formula_units_Z 48
_cell_length_a 14.638690
_cell_length_b 11.904019
_cell_length_c 13.677287
_cell_angle_alpha 90.000000
_cell_angle_beta 90.000000
_cell_angle_gamma 90.000000
_cell_volume 2383.393691
_symmetry_space_group_name_H-M "P N N M"
_symmetry_group_IT_number 58
_symmetry_cell_setting 'orthorhombic'
loop_
_space_group_symop_operation_xyz
x,y,z
-x,-y,z
1/2+x,1/2-y,1/2-z
1/2-x,1/2+y,1/2-z
-x,-y,-z
x,y,-z
1/2-x,1/2+y,1/2+z
1/2+x,1/2-y,1/2+z
loop_
_atom_site_type_symbol
_atom_site_label
_atom_site_fract_x
_atom_site_fract_y
_atom_site_fract_z
Si Si1 0.445207 0.402001 0.110172
Si Si2 0.666843 0.785507 0.116166
Si Si3 0.898090 0.532726 0.614009
Si Si4 0.775376 0.939725 0.611469
Si Si5 0.091470 0.427649 0.885217
Si Si6 0.167406 0.267321 0.256217
O O1 0.500000 0.500000 0.163919
O O2 0.428397 0.276485 0.145380
O O3 0.345086 0.456370 0.105288
O O4 0.485416 0.390777 0.000000
O O5 0.658495 0.918280 0.123614
O O6 0.743386 0.740181 0.188130
O O7 0.681404 0.761086 0.000000
O O8 0.909279 0.561775 0.500000
O O9 0.845448 0.633220 0.665937
O O10 0.000000 0.500000 0.650632
O O11 0.764794 0.895048 0.500000
O O12 0.822898 0.847261 0.681169
O O13 0.677706 0.991579 0.643101
O O14 0.092949 0.312165 0.823234
O O15 0.000000 0.500000 0.873875
O O16 0.103501 0.401670 0.000000
#
# Coordination Sequence:
#
# PCOD9444304 Si02
#       6
#     8   8   8   8   8   8
#     4   9  18  34  57  82 112 150 190 234 290 351
#     4  10  21  37  57  81 116 154 192 238 292 354
#     4  10  23  40  58  86 122 158 195 243 304 364
#     4  10  21  37  56  84 117 151 192 244 298 353
#     4  10  21  40  62  85 118 159 204 247 290 348
#     4  12  21  34  57  84 115 150 193 246 293 350
#
# _framework density 20.13935
#
# number of rings (size 3 to 8) (size 9 to 14) (size 15 to 20)
#    0.000    1.833    1.667    2.500    2.333    0.000 
#    0.000    0.000    0.000    0.000    0.000    0.000 
#    0.000   16.000    0.000    0.000    0.000    0.000 
#
# Total GULP energy -267245.177959 kJ/mol
# GULP energy per Si atom -5567.607874 kJ/mol
# Density = 2.009351 g / cm^3
# Si number density = 20.139350 Si / 1000 Ang^3
#
#
#
# Elastic Constant Matrix: (Units=GPa)
#
#
# Indices 1 2 3 4 5 6 
#
# 1 66.3846 18.7701 5.5726 0.0000 0.0000 0.0000
# 2 18.7701 98.5584 41.1380 0.0000 0.0000 0.0000
# 3 5.5726 41.1380 102.6163 0.0000 0.0000 0.0000
# 4 0.0000 0.0000 0.0000 33.5886 0.0000 0.0000
# 5 0.0000 0.0000 0.0000 0.0000 -12.5906 0.0000
# 6 0.0000 0.0000 0.0000 0.0000 0.0000 26.8620
#
#
#
# Elastic Compliance Matrix: (Units=1/GPa)
#
#
# Indices 1 2 3 4 5 6 
#
# 1 0.015936 -0.003211 0.000422 0.000000 0.000000 0.000000
# 2 -0.003211 0.012832 -0.004970 0.000000 0.000000 0.000000
# 3 0.000422 -0.004970 0.011715 0.000000 0.000000 0.000000
# 4 0.000000 0.000000 0.000000 0.029772 0.000000 0.000000
# 5 0.000000 0.000000 0.000000 0.000000 -0.079424 0.000000
# 6 0.000000 0.000000 0.000000 0.000000 0.000000 0.037227
#
#
# Mechanical properties :
#
#
# Convention : Reuss Voigt Hill
#
# Bulk Modulus (GPa) = 40.05655 44.28008 42.16832
# Shear Modulus (GPa) = 96.34292 23.04390 59.69341
#
# Velocity S-wave (km/s) = 6.92402 3.38631 5.45019
# Velocity P-wave (km/s) = 9.15727 6.10934 7.78394
#
# Compressibility (1/GPa) = 0.02496470
#
# Stress axis : x y z
#
# Youngs Moduli (GPa) = 62.74997 77.92857 85.36395
#
# Poissons Ratio (x) = 0.25024 -0.03601
# Poissons Ratio (y) = 0.20150 0.42426
# Poissons Ratio (z) = -0.02647 0.38730
#
# Static dielectric constant tensor:
#      x y z
#    x 1.757330 0.000000 0.000000 
#    y 0.000000 1.744780 0.000000 
#    z 0.000000 0.000000 1.776380 
# 
# From -- ./inp_files/21177.got.cif
#   From: 2010.05.17/outbox.cif.g08.bks.cpg/sg58_11_cif.got.tgz:21177.got - 2010.06.03 14:20:14.
