data_PCOD9444407
_publ_section_title
;
Structure prediction by ZEFSAII (Michael W. Deem and Ramdas Pophale) SiO2 
 PCOD9444407
Probable space group: P N N M
;
_chemical_formula_sum "Si O2"
_cell_formula_units_Z 56
_cell_length_a 13.420783
_cell_length_b 13.878915
_cell_length_c 14.241427
_cell_angle_alpha 90.000000
_cell_angle_beta 90.000000
_cell_angle_gamma 90.000000
_cell_volume 2652.692310
_symmetry_space_group_name_H-M "P N N M"
_symmetry_group_IT_number 58
_symmetry_cell_setting 'orthorhombic'
loop_
_space_group_symop_operation_xyz
x,y,z
-x,-y,z
1/2+x,1/2-y,1/2-z
1/2-x,1/2+y,1/2-z
-x,-y,-z
x,y,-z
1/2-x,1/2+y,1/2+z
1/2+x,1/2-y,1/2+z
loop_
_atom_site_type_symbol
_atom_site_label
_atom_site_fract_x
_atom_site_fract_y
_atom_site_fract_z
Si Si1 0.094882 0.947132 0.240929
Si Si2 0.195284 0.250906 0.898139
Si Si3 0.170112 0.784435 0.892294
Si Si4 0.771085 0.879071 0.263014
Si Si5 0.943941 0.409769 0.693175
Si Si6 0.003279 0.357762 0.101323
Si Si7 0.430329 0.293668 0.106976
O O1 0.160434 0.879613 0.171551
O O2 0.048242 0.877859 0.320359
O O3 0.166078 0.027307 0.288680
O O4 0.000000 0.000000 0.193923
O O5 0.167837 0.184105 0.811556
O O6 0.309669 0.282637 0.889753
O O7 0.120501 0.339995 0.897767
O O8 0.183887 0.202223 0.000000
O O9 0.232275 0.697309 0.841599
O O10 0.057374 0.742659 0.895412
O O11 0.203013 0.800297 0.000000
O O12 0.675243 0.914846 0.202453
O O13 0.974968 0.405519 0.802035
O O14 0.970124 0.309043 0.643557
O O15 0.000000 0.500000 0.648476
O O16 0.972863 0.400353 0.000000
O O17 0.460807 0.312070 0.000000
#
# Coordination Sequence:
#
# PCOD9444407 Si02
#       7
#     8   8   8   8   8   8   8
#     4  12  24  41  68  96 125 174 218 263 322 382
#     4   9  17  34  61  86 118 161 205 253 307 365
#     4  10  21  42  63  95 136 164 205 270 330 386
#     4  10  22  38  61  92 129 166 207 257 317 383
#     4  10  21  37  61  90 123 164 205 261 320 378
#     4   9  17  32  60  92 121 158 200 252 321 378
#     4  10  22  42  60  86 128 167 217 266 305 372
#
# _framework density 21.110627000000001
#
# number of rings (size 3 to 8) (size 9 to 14) (size 15 to 20)
#    0.000    2.000    4.286    0.857    2.000    2.286 
#    0.000    0.000    0.000    0.000    0.000    0.000 
#    0.000    0.000    0.000    0.000    0.000    0.000 
#
# Total GULP energy -312077.920328 kJ/mol
# GULP energy per Si atom -5572.820006 kJ/mol
# Density = 2.106258 g / cm^3
# Si number density = 21.110627 Si / 1000 Ang^3
#
#
#
# Elastic Constant Matrix: (Units=GPa)
#
#
# Indices 1 2 3 4 5 6 
#
# 1 35.7062 24.4795 1.6625 0.0000 0.0000 0.0000
# 2 24.4795 91.9012 22.5858 0.0000 0.0000 0.0000
# 3 1.6625 22.5858 81.2398 0.0000 0.0000 0.0000
# 4 0.0000 0.0000 0.0000 80.4139 0.0000 0.0000
# 5 0.0000 0.0000 0.0000 0.0000 14.7400 0.0000
# 6 0.0000 0.0000 0.0000 0.0000 0.0000 26.6734
#
#
#
# Elastic Compliance Matrix: (Units=1/GPa)
#
#
# Indices 1 2 3 4 5 6 
#
# 1 0.034560 -0.009694 0.001988 0.000000 0.000000 0.000000
# 2 -0.009694 0.014398 -0.003805 0.000000 0.000000 0.000000
# 3 0.001988 -0.003805 0.013326 0.000000 0.000000 0.000000
# 4 0.000000 0.000000 0.000000 0.012436 0.000000 0.000000
# 5 0.000000 0.000000 0.000000 0.000000 0.067843 0.000000
# 6 0.000000 0.000000 0.000000 0.000000 0.000000 0.037491
#
#
# Mechanical properties :
#
#
# Convention : Reuss Voigt Hill
#
# Bulk Modulus (GPa) = 25.46935 34.03365 29.75150
# Shear Modulus (GPa) = 23.13068 35.04008 29.08538
#
# Velocity S-wave (km/s) = 3.31371 4.07852 3.71585
# Velocity P-wave (km/s) = 5.17028 6.19158 5.70384
#
# Compressibility (1/GPa) = 0.03926289
#
# Stress axis : x y z
#
# Youngs Moduli (GPa) = 28.93525 69.45171 75.03963
#
# Poissons Ratio (x) = 0.67328 -0.14917
# Poissons Ratio (y) = 0.28050 0.28550
# Poissons Ratio (z) = -0.05752 0.26424
#
# Static dielectric constant tensor:
#      x y z
#    x 1.787930 0.000000 0.000000 
#    y 0.000000 1.814510 0.000000 
#    z 0.000000 0.000000 1.776280 
# 
# From -- ./inp_files/22179.got.cif
#   From: 2010.05.17/outbox.cif.g08.bks.cpg/sg58_12_cif.got.tgz:22179.got - 2010.06.03 14:20:14.
