data_PCOD9444494
_publ_section_title
;
Structure prediction by ZEFSAII (Michael W. Deem and Ramdas Pophale) SiO2 
 PCOD9444494
Probable space group: P N N M
;
_chemical_formula_sum "Si O2"
_cell_formula_units_Z 56
_cell_length_a 14.075482
_cell_length_b 9.746456
_cell_length_c 19.493312
_cell_angle_alpha 90.000000
_cell_angle_beta 90.000000
_cell_angle_gamma 90.000000
_cell_volume 2674.210786
_symmetry_space_group_name_H-M "P N N M"
_symmetry_group_IT_number 58
_symmetry_cell_setting 'orthorhombic'
loop_
_space_group_symop_operation_xyz
x,y,z
-x,-y,z
1/2+x,1/2-y,1/2-z
1/2-x,1/2+y,1/2-z
-x,-y,-z
x,y,-z
1/2-x,1/2+y,1/2+z
1/2+x,1/2-y,1/2+z
loop_
_atom_site_type_symbol
_atom_site_label
_atom_site_fract_x
_atom_site_fract_y
_atom_site_fract_z
Si Si1 0.695428 0.066606 0.076187
Si Si2 0.090704 0.920335 0.880606
Si Si3 0.876785 0.152937 0.573817
Si Si4 0.403527 0.651613 0.105996
Si Si5 0.157224 0.648219 0.307879
Si Si6 0.366998 0.631587 0.736413
Si Si7 0.511597 0.842975 0.315861
O O1 0.809604 0.059156 0.081954
O O2 0.661847 0.221181 0.087944
O O3 0.652455 0.977212 0.138175
O O4 0.664698 0.023123 0.000000
O O5 0.066378 0.761690 0.866492
O O6 0.105321 0.996948 0.807035
O O7 0.000000 0.000000 0.911868
O O8 0.841121 0.204251 0.500000
O O9 0.834777 0.222772 0.641104
O O10 0.990220 0.177476 0.579167
O O11 0.864975 0.990214 0.576618
O O12 0.407104 0.629904 0.187544
O O13 0.253546 0.639032 0.264319
O O14 0.070175 0.652639 0.255665
O O15 0.412880 0.763930 0.699119
O O16 0.500000 0.000000 0.339234
#
# Coordination Sequence:
#
# PCOD9444494 Si02
#       7
#     8   8   8   8   8   8   8
#     4  11  23  39  59  86 121 161 203 245 297 361
#     4   9  21  39  61  86 116 158 201 249 302 363
#     4  11  23  38  58  85 121 167 201 235 295 369
#     4  11  21  37  58  86 117 158 203 247 292 362
#     4  11  23  38  59  88 121 160 194 254 298 354
#     4  10  21  38  60  86 119 155 202 242 308 354
#     4  11  21  36  58  90 118 145 194 253 308 349
#
# _framework density 20.940757000000001
#
# number of rings (size 3 to 8) (size 9 to 14) (size 15 to 20)
#    0.000    1.429    1.429    4.714    4.000    4.857 
#    0.000    1.429    0.000    0.429    0.000    0.000 
#    0.000    0.000    0.000    0.000    0.000    0.000 
#
# Total GULP energy -313004.015023 kJ/mol
# GULP energy per Si atom -5589.357411 kJ/mol
# Density = 2.089309 g / cm^3
# Si number density = 20.940757 Si / 1000 Ang^3
#
#
#
# Elastic Constant Matrix: (Units=GPa)
#
#
# Indices 1 2 3 4 5 6 
#
# 1 40.5146 15.7542 -8.8574 0.0000 0.0000 0.0000
# 2 15.7542 95.1760 -4.5259 0.0000 0.0000 0.0000
# 3 -8.8574 -4.5259 46.5572 0.0000 0.0000 0.0000
# 4 0.0000 0.0000 0.0000 16.5827 0.0000 0.0000
# 5 0.0000 0.0000 0.0000 0.0000 33.1566 0.0000
# 6 0.0000 0.0000 0.0000 0.0000 0.0000 18.3168
#
#
#
# Elastic Compliance Matrix: (Units=1/GPa)
#
#
# Indices 1 2 3 4 5 6 
#
# 1 0.027406 -0.004308 0.004795 0.000000 0.000000 0.000000
# 2 -0.004308 0.011233 0.000272 0.000000 0.000000 0.000000
# 3 0.004795 0.000272 0.022418 0.000000 0.000000 0.000000
# 4 0.000000 0.000000 0.000000 0.060304 0.000000 0.000000
# 5 0.000000 0.000000 0.000000 0.000000 0.030160 0.000000
# 6 0.000000 0.000000 0.000000 0.000000 0.000000 0.054595
#
#
# Mechanical properties :
#
#
# Convention : Reuss Voigt Hill
#
# Bulk Modulus (GPa) = 15.98090 20.77663 18.37877
# Shear Modulus (GPa) = 22.17735 25.60302 23.89019
#
# Velocity S-wave (km/s) = 3.25784 3.50042 3.38131
# Velocity P-wave (km/s) = 4.66898 5.12644 4.90305
#
# Compressibility (1/GPa) = 0.06257470
#
# Stress axis : x y z
#
# Youngs Moduli (GPa) = 36.48816 89.02368 44.60769
#
# Poissons Ratio (x) = 0.38355 -0.21390
# Poissons Ratio (y) = 0.15721 -0.01215
# Poissons Ratio (z) = -0.17496 -0.02424
#
# Static dielectric constant tensor:
#      x y z
#    x 1.739060 0.000000 0.000000 
#    y 0.000000 1.768790 0.000000 
#    z 0.000000 0.000000 1.739300 
# 
# From -- ./inp_files/30034.got.cif
#   From: 2010.05.17/outbox.cif.g08.bks.cpg/sg58_16_cif.got.tgz:30034.got - 2010.06.03 14:20:14.
