data_PCOD9444714
_publ_section_title
;
Structure prediction by ZEFSAII (Michael W. Deem and Ramdas Pophale) SiO2 
 PCOD9444714
Probable space group: P N N M
;
_chemical_formula_sum "Si O2"
_cell_formula_units_Z 40
_cell_length_a 22.125184
_cell_length_b 5.202640
_cell_length_c 15.219735
_cell_angle_alpha 90.000000
_cell_angle_beta 90.000000
_cell_angle_gamma 90.000000
_cell_volume 1751.934066
_symmetry_space_group_name_H-M "P N N M"
_symmetry_group_IT_number 58
_symmetry_cell_setting 'orthorhombic'
loop_
_space_group_symop_operation_xyz
x,y,z
-x,-y,z
1/2+x,1/2-y,1/2-z
1/2-x,1/2+y,1/2-z
-x,-y,-z
x,y,-z
1/2-x,1/2+y,1/2+z
1/2+x,1/2-y,1/2+z
loop_
_atom_site_type_symbol
_atom_site_label
_atom_site_fract_x
_atom_site_fract_y
_atom_site_fract_z
Si Si1 0.541758 0.753123 0.597911
Si Si2 0.555794 0.199050 0.901800
Si Si3 0.727495 0.259123 0.296291
Si Si4 0.666958 0.821707 0.904535
Si Si5 0.107508 0.004518 0.251784
O O1 0.500000 0.500000 0.594651
O O2 0.569538 0.784543 0.500000
O O3 0.585319 0.692359 0.678404
O O4 0.500000 0.000000 0.614163
O O5 0.556926 0.355865 0.810982
O O6 0.500000 0.000000 0.897556
O O7 0.621870 0.063493 0.901884
O O8 0.550690 0.321822 0.000000
O O9 0.756944 0.464000 0.226825
O O10 0.762357 0.351901 0.383693
O O11 0.655964 0.304647 0.292850
O O12 0.642828 0.646193 0.827295
O O13 0.659612 0.702398 0.000000
#
# Coordination Sequence:
#
# PCOD9444714 Si02
#       5
#     8   8   8   8   8
#     4  10  25  45  66  94 130 171 223 287 346 401
#     4  10  22  39  62  99 143 187 232 279 344 421
#     4  10  21  40  62  92 128 173 224 276 328 391
#     4  10  22  39  61  97 140 177 220 279 341 409
#     4  11  23  38  70  94 135 180 236 280 344 413
#
# _framework density 22.831907000000001
#
# number of rings (size 3 to 8) (size 9 to 14) (size 15 to 20)
#    0.000    1.800    2.000    0.600    5.600    0.800 
#    0.000    3.000    0.000    3.000    0.000    0.000 
#    0.000    0.000    0.000    0.000    0.000    0.000 
#
# Total GULP energy -223190.305117 kJ/mol
# GULP energy per Si atom -5579.757628 kJ/mol
# Density = 2.277994 g / cm^3
# Si number density = 22.831907 Si / 1000 Ang^3
#
#
#
# Elastic Constant Matrix: (Units=GPa)
#
#
# Indices 1 2 3 4 5 6 
#
# 1 89.5925 27.2317 63.7287 0.0000 0.0000 0.0000
# 2 27.2317 70.2836 23.8859 0.0000 0.0000 0.0000
# 3 63.7287 23.8859 168.0930 0.0000 0.0000 0.0000
# 4 0.0000 0.0000 0.0000 17.4375 0.0000 0.0000
# 5 0.0000 0.0000 0.0000 0.0000 25.2609 0.0000
# 6 0.0000 0.0000 0.0000 0.0000 0.0000 32.8399
#
#
#
# Elastic Compliance Matrix: (Units=1/GPa)
#
#
# Indices 1 2 3 4 5 6 
#
# 1 0.016531 -0.004492 -0.005629 0.000000 0.000000 0.000000
# 2 -0.004492 0.016171 -0.000595 0.000000 0.000000 0.000000
# 3 -0.005629 -0.000595 0.008168 0.000000 0.000000 0.000000
# 4 0.000000 0.000000 0.000000 0.057348 0.000000 0.000000
# 5 0.000000 0.000000 0.000000 0.000000 0.039587 0.000000
# 6 0.000000 0.000000 0.000000 0.000000 0.000000 0.030451
#
#
# Mechanical properties :
#
#
# Convention : Reuss Voigt Hill
#
# Bulk Modulus (GPa) = 51.44634 61.96241 56.70438
# Shear Modulus (GPa) = 25.48868 29.31586 27.40227
#
# Velocity S-wave (km/s) = 3.34483 3.58716 3.46811
# Velocity P-wave (km/s) = 6.12362 6.65991 6.39739
#
# Compressibility (1/GPa) = 0.01943773
#
# Stress axis : x y z
#
# Youngs Moduli (GPa) = 60.49228 61.84039 122.43287
#
# Poissons Ratio (x) = 0.27779 0.68918
# Poissons Ratio (y) = 0.27173 0.07282
# Poissons Ratio (z) = 0.34051 0.03678
#
# Static dielectric constant tensor:
#      x y z
#    x 1.937610 0.000000 0.000000 
#    y 0.000000 1.914840 0.000000 
#    z 0.000000 0.000000 1.881330 
# 
# From -- ./inp_files/23433.got.cif
#   From: 2010.05.17/outbox.cif.g08.bks.cpg/sg58_12_cif.got.tgz:23433.got - 2010.06.03 14:20:14.
