data_PCOD9444339
_publ_section_title
;
Structure prediction by ZEFSAII (Michael W. Deem and Ramdas Pophale) SiO2 
 PCOD9444339
Probable space group: P N N M
;
_chemical_formula_sum "Si O2"
_cell_formula_units_Z 64
_cell_length_a 23.158406
_cell_length_b 15.221231
_cell_length_c 7.540410
_cell_angle_alpha 90.000000
_cell_angle_beta 90.000000
_cell_angle_gamma 90.000000
_cell_volume 2657.990358
_symmetry_space_group_name_H-M "P N N M"
_symmetry_group_IT_number 58
_symmetry_cell_setting 'orthorhombic'
loop_
_space_group_symop_operation_xyz
x,y,z
-x,-y,z
1/2+x,1/2-y,1/2-z
1/2-x,1/2+y,1/2-z
-x,-y,-z
x,y,-z
1/2-x,1/2+y,1/2+z
1/2+x,1/2-y,1/2+z
loop_
_atom_site_type_symbol
_atom_site_label
_atom_site_fract_x
_atom_site_fract_y
_atom_site_fract_z
Si Si1 0.404491 0.936944 0.794683
Si Si2 0.501058 0.182159 0.707528
Si Si3 0.750978 0.873515 0.210313
Si Si4 0.531777 0.367550 0.716369
Si Si5 0.587433 0.540536 0.715865
Si Si6 0.286672 0.432468 0.283114
Si Si7 0.622981 0.867570 0.785556
Si Si8 0.811747 0.700301 0.286770
O O1 0.470249 0.904655 0.786734
O O2 0.365971 0.856793 0.719777
O O3 0.390732 0.032804 0.720264
O O4 0.387378 0.944912 0.000000
O O5 0.512489 0.176754 0.500000
O O6 0.532676 0.268470 0.782392
O O7 0.432330 0.188888 0.729947
O O8 0.687489 0.843527 0.276815
O O9 0.800113 0.800639 0.236209
O O10 0.765994 0.970921 0.276985
O O11 0.744628 0.883972 0.000000
O O12 0.533074 0.364462 0.500000
O O13 0.578982 0.438947 0.771414
O O14 0.469699 0.407513 0.768738
O O15 0.587577 0.540791 0.500000
O O16 0.647629 0.579807 0.775917
O O17 0.285974 0.432644 0.500000
O O18 0.243649 0.356359 0.226714
O O19 0.622181 0.865874 0.000000
O O20 0.813958 0.700785 0.500000
#
# Coordination Sequence:
#
# PCOD9444339 Si02
#       8
#     8   8   8   8   8   8   8   8
#     4  10  21  40  59  76 106 151 192 223 268 339
#     4  11  23  34  54  88 113 134 178 241 291 323
#     4  10  21  37  58  85 113 146 189 234 278 332
#     4   8  16  29  44  75 111 136 165 212 272 325
#     4   8  14  27  48  71 104 140 170 210 263 318
#     4   9  17  32  56  80 105 144 190 227 267 329
#     4  10  21  40  59  76 106 151 192 223 268 339
#     4  10  21  37  58  85 113 146 189 234 278 332
#
# _framework density 24.078341999999999
#
# number of rings (size 3 to 8) (size 9 to 14) (size 15 to 20)
#    0.000    2.500    1.250    1.500    3.500    3.000 
#    0.000    0.625    0.000    0.000    0.000    7.000 
#    0.000    0.000    0.000    0.000    0.000    0.000 
#
# Total GULP energy -357528.695645 kJ/mol
# GULP energy per Si atom -5586.385869 kJ/mol
# Density = 2.402354 g / cm^3
# Si number density = 24.078342 Si / 1000 Ang^3
#
#
#
# Elastic Constant Matrix: (Units=GPa)
#
#
# Indices 1 2 3 4 5 6 
#
# 1 55.9883 -17.9400 -6.3485 0.0000 0.0000 0.0000
# 2 -17.9400 76.0604 -3.8897 0.0000 0.0000 0.0000
# 3 -6.3485 -3.8897 59.7300 0.0000 0.0000 0.0000
# 4 0.0000 0.0000 0.0000 6.1697 0.0000 0.0000
# 5 0.0000 0.0000 0.0000 0.0000 10.6731 0.0000
# 6 0.0000 0.0000 0.0000 0.0000 0.0000 338.8055
#
#
#
# Elastic Compliance Matrix: (Units=1/GPa)
#
#
# Indices 1 2 3 4 5 6 
#
# 1 0.019658 0.004759 0.002399 0.000000 0.000000 0.000000
# 2 0.004759 0.014344 0.001440 0.000000 0.000000 0.000000
# 3 0.002399 0.001440 0.017091 0.000000 0.000000 0.000000
# 4 0.000000 0.000000 0.000000 0.162084 0.000000 0.000000
# 5 0.000000 0.000000 0.000000 0.000000 0.093694 0.000000
# 6 0.000000 0.000000 0.000000 0.000000 0.000000 0.002952
#
#
# Mechanical properties :
#
#
# Convention : Reuss Voigt Hill
#
# Bulk Modulus (GPa) = 14.64353 15.04691 14.84522
# Shear Modulus (GPa) = 15.85351 85.79343 50.82347
#
# Velocity S-wave (km/s) = 2.56874 5.97564 4.59928
# Velocity P-wave (km/s) = 3.85911 7.33988 5.86372
#
# Compressibility (1/GPa) = 0.06828953
#
# Stress axis : x y z
#
# Youngs Moduli (GPa) = 50.87005 69.71726 58.51106
#
# Poissons Ratio (x) = -0.33181 -0.14039
# Poissons Ratio (y) = -0.24211 -0.08425
# Poissons Ratio (z) = -0.12205 -0.10039
#
# Static dielectric constant tensor:
#      x y z
#    x 1.908820 0.000000 0.000000 
#    y 0.000000 1.916440 0.000000 
#    z 0.000000 0.000000 1.925060 
# 
# From -- ./inp_files/9998.got.cif
#   From: 2010.05.17/outbox.cif.g08.bks.cpg/sg58_5_cif.got.tgz:9998.got - 2010.06.03 14:20:14.
