data_PCOD9444505
_publ_section_title
;
Structure prediction by ZEFSAII (Michael W. Deem and Ramdas Pophale) SiO2 
 PCOD9444505
Probable space group: P N N M
;
_chemical_formula_sum "Si O2"
_cell_formula_units_Z 36
_cell_length_a 22.733358
_cell_length_b 6.049329
_cell_length_c 12.922039
_cell_angle_alpha 90.000000
_cell_angle_beta 90.000000
_cell_angle_gamma 90.000000
_cell_volume 1777.058985
_symmetry_space_group_name_H-M "P N N M"
_symmetry_group_IT_number 58
_symmetry_cell_setting 'orthorhombic'
loop_
_space_group_symop_operation_xyz
x,y,z
-x,-y,z
1/2+x,1/2-y,1/2-z
1/2-x,1/2+y,1/2-z
-x,-y,-z
x,y,-z
1/2-x,1/2+y,1/2+z
1/2+x,1/2-y,1/2+z
loop_
_atom_site_type_symbol
_atom_site_label
_atom_site_fract_x
_atom_site_fract_y
_atom_site_fract_z
Si Si1 0.066010 0.914488 0.292289
Si Si2 0.236828 0.969256 0.116218
Si Si3 0.338347 0.766374 0.232582
Si Si4 0.968599 0.256522 0.500000
Si Si5 0.128544 0.645007 0.118290
O O1 0.065813 0.754308 0.391605
O O2 0.087694 0.802601 0.186847
O O3 0.112121 0.109737 0.314485
O O4 0.000000 0.000000 0.278142
O O5 0.302323 0.902644 0.147884
O O6 0.193276 0.757518 0.117059
O O7 0.210236 0.127726 0.203410
O O8 0.234119 0.064540 0.000000
O O9 0.367925 0.919698 0.318764
O O10 0.000000 0.500000 0.500000
O O11 0.000000 0.000000 0.500000
O O12 0.109339 0.619825 0.000000
#
# Coordination Sequence:
#
# PCOD9444505 Si02
#       5
#     8   8   8   4   8
#     4  10  25  43  66  97 134 174 227 279 343 414
#     4  10  21  38  60  91 128 168 218 272 334 407
#     4  11  21  40  63  96 130 170 219 277 343 408
#     4  10  24  46  74  98 142 184 226 294 345 402
#     4  10  22  41  67  92 132 174 219 282 339 407
#
# _framework density 20.258189999999999
#
# number of rings (size 3 to 8) (size 9 to 14) (size 15 to 20)
#    0.000    1.778    2.222    0.667    7.778    1.333 
#    2.000    1.111    0.000    0.000    0.000    0.000 
#    0.000    0.000    0.000    0.000    0.000    0.000 
#
# Total GULP energy -200832.082605 kJ/mol
# GULP energy per Si atom -5578.668961 kJ/mol
# Density = 2.021208 g / cm^3
# Si number density = 20.258190 Si / 1000 Ang^3
#
#
#
# Elastic Constant Matrix: (Units=GPa)
#
#
# Indices 1 2 3 4 5 6 
#
# 1 103.1726 17.3248 33.4964 0.0000 0.0000 0.0000
# 2 17.3248 47.2893 -2.0505 0.0000 0.0000 0.0000
# 3 33.4964 -2.0505 93.4440 0.0000 0.0000 0.0000
# 4 0.0000 0.0000 0.0000 28.3951 0.0000 0.0000
# 5 0.0000 0.0000 0.0000 0.0000 53.7361 0.0000
# 6 0.0000 0.0000 0.0000 0.0000 0.0000 19.9049
#
#
#
# Elastic Compliance Matrix: (Units=1/GPa)
#
#
# Indices 1 2 3 4 5 6 
#
# 1 0.011868 -0.004537 -0.004354 0.000000 0.000000 0.000000
# 2 -0.004537 0.022901 0.002129 0.000000 0.000000 0.000000
# 3 -0.004354 0.002129 0.012309 0.000000 0.000000 0.000000
# 4 0.000000 0.000000 0.000000 0.035217 0.000000 0.000000
# 5 0.000000 0.000000 0.000000 0.000000 0.018609 0.000000
# 6 0.000000 0.000000 0.000000 0.000000 0.000000 0.050239
#
#
# Mechanical properties :
#
#
# Convention : Reuss Voigt Hill
#
# Bulk Modulus (GPa) = 29.80247 37.93861 33.87054
# Shear Modulus (GPa) = 28.43313 33.41623 30.92468
#
# Velocity S-wave (km/s) = 3.75045 4.06583 3.91132
# Velocity P-wave (km/s) = 5.78772 6.38823 6.09538
#
# Compressibility (1/GPa) = 0.03355427
#
# Stress axis : x y z
#
# Youngs Moduli (GPa) = 84.26165 43.66663 81.24159
#
# Poissons Ratio (x) = 0.19810 0.35370
# Poissons Ratio (y) = 0.38227 -0.17294
# Poissons Ratio (z) = 0.36685 -0.09296
#
# Static dielectric constant tensor:
#      x y z
#    x 1.707980 0.000000 0.000000 
#    y 0.000000 1.779620 0.000000 
#    z 0.000000 0.000000 1.714180 
# 
# From -- ./inp_files/11688.got.cif
#   From: 2010.05.17/outbox.cif.g08.bks.cpg/sg58_6_cif.got.tgz:11688.got - 2010.06.03 14:20:14.
