data_PCOD9444296
_publ_section_title
;
Structure prediction by ZEFSAII (Michael W. Deem and Ramdas Pophale) SiO2 
 PCOD9444296
Probable space group: P N N M
;
_chemical_formula_sum "Si O2"
_cell_formula_units_Z 40
_cell_length_a 7.963820
_cell_length_b 20.605474
_cell_length_c 10.761374
_cell_angle_alpha 90.000000
_cell_angle_beta 90.000000
_cell_angle_gamma 90.000000
_cell_volume 1765.923028
_symmetry_space_group_name_H-M "P N N M"
_symmetry_group_IT_number 58
_symmetry_cell_setting 'orthorhombic'
loop_
_space_group_symop_operation_xyz
x,y,z
-x,-y,z
1/2+x,1/2-y,1/2-z
1/2-x,1/2+y,1/2-z
-x,-y,-z
x,y,-z
1/2-x,1/2+y,1/2+z
1/2+x,1/2-y,1/2+z
loop_
_atom_site_type_symbol
_atom_site_label
_atom_site_fract_x
_atom_site_fract_y
_atom_site_fract_z
Si Si1 0.897089 0.568316 0.140724
Si Si2 0.178435 0.255291 0.135093
Si Si3 0.301656 0.486874 0.637687
Si Si4 0.481189 0.691793 0.141338
Si Si5 0.700970 0.876280 0.228131
O O1 0.762510 0.556805 0.249329
O O2 0.000000 0.500000 0.136178
O O3 0.036350 0.620073 0.186048
O O4 0.836540 0.579220 0.000000
O O5 0.317788 0.310972 0.146989
O O6 0.067763 0.245511 0.256217
O O7 0.132943 0.131332 0.315912
O O8 0.094216 0.259128 0.000000
O O9 0.500000 0.500000 0.645141
O O10 0.264166 0.459883 0.500000
O O11 0.213486 0.556948 0.653513
O O12 0.719123 0.813539 0.140912
O O13 0.437076 0.708591 0.000000
#
# Coordination Sequence:
#
# PCOD9444296 Si02
#       5
#     8   8   8   8   8
#     4   9  18  34  57  81 106 139 180 218 266 324
#     4   9  19  35  56  81 107 142 183 221 270 324
#     4  10  21  37  56  81 112 143 181 228 275 322
#     4   9  19  36  56  79 109 141 179 225 269 321
#     4   9  19  35  58  76 108 144 182 221 272 320
#
# _framework density 22.651045
#
# number of rings (size 3 to 8) (size 9 to 14) (size 15 to 20)
#    1.200    1.600    0.000    1.200    0.000    6.400 
#    3.600    0.000    0.000    0.000    0.000    0.000 
#    0.000    0.000    0.000    0.000    0.000    0.000 
#
# Total GULP energy -222948.951274 kJ/mol
# GULP energy per Si atom -5573.723782 kJ/mol
# Density = 2.259949 g / cm^3
# Si number density = 22.651045 Si / 1000 Ang^3
#
#
#
# Elastic Constant Matrix: (Units=GPa)
#
#
# Indices 1 2 3 4 5 6 
#
# 1 51.1022 -9.7621 50.7644 0.0000 0.0000 0.0000
# 2 -9.7621 80.0569 26.0482 0.0000 0.0000 0.0000
# 3 50.7644 26.0482 216.7340 0.0000 0.0000 0.0000
# 4 0.0000 0.0000 0.0000-1260.9598 0.0000 0.0000
# 5 0.0000 0.0000 0.0000 0.0000 22.8601 0.0000
# 6 0.0000 0.0000 0.0000 0.0000 0.0000 36.1120
#
#
#
# Elastic Compliance Matrix: (Units=1/GPa)
#
#
# Indices 1 2 3 4 5 6 
#
# 1 0.027824 0.005738 -0.007207 0.000000 0.000000 0.000000
# 2 0.005738 0.014183 -0.003048 0.000000 0.000000 0.000000
# 3 -0.007207 -0.003048 0.006668 0.000000 0.000000 0.000000
# 4 0.000000 0.000000 0.000000 -0.000793 0.000000 0.000000
# 5 0.000000 0.000000 0.000000 0.000000 0.043744 0.000000
# 6 0.000000 0.000000 0.000000 0.000000 0.000000 0.027692
#
#
# Mechanical properties :
#
#
# Convention : Reuss Voigt Hill
#
# Bulk Modulus (GPa) = 25.22726 53.55490 39.39108
# Shear Modulus (GPa) = 35.31942 -221.67469 -93.17763
#
# Velocity S-wave (km/s) = 3.95306 -9.90341 -6.42070
# Velocity P-wave (km/s) = 5.65660 10.34772 6.12692
#
# Compressibility (1/GPa) = 0.03963966
#
# Stress axis : x y z
#
# Youngs Moduli (GPa) = 35.94082 70.50890 149.96408
#
# Poissons Ratio (x) = -0.40455 1.08072
# Poissons Ratio (y) = -0.20621 0.45715
# Poissons Ratio (z) = 0.25901 0.21494
#
# Static dielectric constant tensor:
#      x y z
#    x 1.870090 0.000000 0.000000 
#    y 0.000000 1.907490 0.000000 
#    z 0.000000 0.000000 1.796960 
# 
# From -- ./inp_files/2614.got.cif
#   From: 2010.05.17/outbox.cif.g08.bks.cpg/sg58_2_cif.got.tgz:2614.got - 2010.06.03 14:20:14.
