data_PCOD9444387
_publ_section_title
;
Structure prediction by ZEFSAII (Michael W. Deem and Ramdas Pophale) SiO2 
 PCOD9444387
Probable space group: P N N M
;
_chemical_formula_sum "Si O2"
_cell_formula_units_Z 48
_cell_length_a 23.228778
_cell_length_b 12.177729
_cell_length_c 8.524293
_cell_angle_alpha 90.000000
_cell_angle_beta 90.000000
_cell_angle_gamma 90.000000
_cell_volume 2411.298842
_symmetry_space_group_name_H-M "P N N M"
_symmetry_group_IT_number 58
_symmetry_cell_setting 'orthorhombic'
loop_
_space_group_symop_operation_xyz
x,y,z
-x,-y,z
1/2+x,1/2-y,1/2-z
1/2-x,1/2+y,1/2-z
-x,-y,-z
x,y,-z
1/2-x,1/2+y,1/2+z
1/2+x,1/2-y,1/2+z
loop_
_atom_site_type_symbol
_atom_site_label
_atom_site_fract_x
_atom_site_fract_y
_atom_site_fract_z
Si Si1 0.059889 0.937737 0.179450
Si Si2 0.567219 0.994717 0.687761
Si Si3 0.840846 0.931171 0.680937
Si Si4 0.649676 0.181914 0.190097
Si Si5 0.779711 0.130639 0.814576
Si Si6 0.888756 0.265421 0.686542
O O1 0.063012 0.811269 0.230205
O O2 0.101189 0.999587 0.299570
O O3 0.082443 0.945388 0.000000
O O4 0.000000 0.000000 0.182873
O O5 0.568129 0.983815 0.500000
O O6 0.599960 0.889584 0.760354
O O7 0.500000 0.000000 0.738244
O O8 0.601717 0.103562 0.737496
O O9 0.822242 0.925324 0.500000
O O10 0.854384 0.809252 0.737182
O O11 0.796087 0.004982 0.776159
O O12 0.714410 0.148748 0.237697
O O13 0.645202 0.174829 0.000000
O O14 0.827322 0.211616 0.737469
O O15 0.782336 0.150487 0.000000
O O16 0.893465 0.257519 0.500000
#
# Coordination Sequence:
#
# PCOD9444387 Si02
#       6
#     8   8   8   8   8   8
#     4  10  21  37  60  88 120 157 201 250 301 358
#     4  11  26  45  65  91 125 168 214 257 312 376
#     4  10  21  38  59  89 123 155 202 252 304 361
#     4  10  24  42  63  93 126 162 203 255 310 368
#     4  10  21  40  64  93 126 161 204 252 310 369
#     4  11  23  40  64  92 124 162 205 253 310 368
#
# _framework density 19.906283999999999
#
# number of rings (size 3 to 8) (size 9 to 14) (size 15 to 20)
#    0.000    1.667    0.000    5.500    4.667    5.333 
#    0.000    0.000    0.000    0.000    0.000    0.000 
#    0.000    0.000    0.000    0.000    0.000    0.000 
#
# Total GULP energy -267988.691133 kJ/mol
# GULP energy per Si atom -5583.097732 kJ/mol
# Density = 1.986098 g / cm^3
# Si number density = 19.906284 Si / 1000 Ang^3
#
#
#
# Elastic Constant Matrix: (Units=GPa)
#
#
# Indices 1 2 3 4 5 6 
#
# 1 70.4833 32.9288 17.1207 0.0000 0.0000 0.0000
# 2 32.9288 136.9219 18.5819 0.0000 0.0000 0.0000
# 3 17.1207 18.5819 63.2750 0.0000 0.0000 0.0000
# 4 0.0000 0.0000 0.0000 44.1671 0.0000 0.0000
# 5 0.0000 0.0000 0.0000 0.0000 -3.7490 0.0000
# 6 0.0000 0.0000 0.0000 0.0000 0.0000 13.4802
#
#
#
# Elastic Compliance Matrix: (Units=1/GPa)
#
#
# Indices 1 2 3 4 5 6 
#
# 1 0.016686 -0.003541 -0.003475 0.000000 0.000000 0.000000
# 2 -0.003541 0.008358 -0.001496 0.000000 0.000000 0.000000
# 3 -0.003475 -0.001496 0.017184 0.000000 0.000000 0.000000
# 4 0.000000 0.000000 0.000000 0.022641 0.000000 0.000000
# 5 0.000000 0.000000 0.000000 0.000000 -0.266735 0.000000
# 6 0.000000 0.000000 0.000000 0.000000 0.000000 0.074183
#
#
# Mechanical properties :
#
#
# Convention : Reuss Voigt Hill
#
# Bulk Modulus (GPa) = 39.67790 45.32698 42.50244
# Shear Modulus (GPa) = -48.89652 24.24958 -12.32347
#
# Velocity S-wave (km/s) = -4.96152 3.49404 -2.49082
# Velocity P-wave (km/s) = 3.58422 6.25279 3.62290
#
# Compressibility (1/GPa) = 0.02520295
#
# Stress axis : x y z
#
# Youngs Moduli (GPa) = 59.92937 119.64338 58.19476
#
# Poissons Ratio (x) = 0.42370 0.20222
# Poissons Ratio (y) = 0.21223 0.08708
# Poissons Ratio (z) = 0.20825 0.17903
#
# Static dielectric constant tensor:
#      x y z
#    x 1.705790 0.000000 0.000000 
#    y 0.000000 1.718170 0.000000 
#    z 0.000000 0.000000 1.678410 
# 
# From -- ./inp_files/9731.got.cif
#   From: 2010.05.17/outbox.cif.g08.bks.cpg/sg58_5_cif.got.tgz:9731.got - 2010.06.03 14:20:14.
