data_PCOD9444054
_publ_section_title
;
Structure prediction by ZEFSAII (Michael W. Deem and Ramdas Pophale) SiO2 
 PCOD9444054
Probable space group: P N N M
;
_chemical_formula_sum "Si O2"
_cell_formula_units_Z 58
_cell_length_a 29.431910
_cell_length_b 12.522287
_cell_length_c 7.491457
_cell_angle_alpha 90.000000
_cell_angle_beta 90.000000
_cell_angle_gamma 90.000000
_cell_volume 2761.012616
_symmetry_space_group_name_H-M "P N N M"
_symmetry_group_IT_number 58
_symmetry_cell_setting 'orthorhombic'
loop_
_space_group_symop_operation_xyz
x,y,z
-x,-y,z
1/2+x,1/2-y,1/2-z
1/2-x,1/2+y,1/2-z
-x,-y,-z
x,y,-z
1/2-x,1/2+y,1/2+z
1/2+x,1/2-y,1/2+z
loop_
_atom_site_type_symbol
_atom_site_label
_atom_site_fract_x
_atom_site_fract_y
_atom_site_fract_z
Si Si1 0.777442 0.866816 0.715819
Si Si2 0.990067 0.316160 0.801370
Si Si3 0.077643 0.190894 0.715745
Si Si4 0.137285 0.993550 0.282324
Si Si5 0.889387 0.241613 0.716852
Si Si6 0.824720 0.429568 0.708630
Si Si7 0.000000 0.500000 0.500000
Si Si8 0.163825 0.331089 0.282194
O O1 0.776671 0.867036 0.500000
O O2 0.727235 0.892902 0.778613
O O3 0.796941 0.751716 0.774051
O O4 0.814658 0.954891 0.772929
O O5 0.940838 0.264316 0.770438
O O6 0.998418 0.406401 0.654755
O O7 0.029130 0.226760 0.784280
O O8 0.991757 0.361613 0.000000
O O9 0.075741 0.190348 0.500000
O O10 0.115727 0.278630 0.767603
O O11 0.097927 0.076713 0.772158
O O12 0.137618 0.993386 0.500000
O O13 0.128361 0.873669 0.221816
O O14 0.887538 0.240550 0.500000
O O15 0.857561 0.338232 0.782629
O O16 0.837110 0.439086 0.500000
O O17 0.830397 0.548664 0.783964
O O18 0.165135 0.332114 0.500000
#
# Coordination Sequence:
#
# PCOD9444054 Si02
#       8
#     8   8   8   8   8   8   2   8
#     4   9  18  35  55  80 111 154 210 262 308 380
#     4  12  26  42  67 100 128 168 224 263 325 390
#     4   9  17  37  65  87 118 164 215 265 320 383
#     4   8  17  35  62  88 117 169 218 259 323 395
#     4  10  21  39  59  87 128 167 212 267 326 387
#     4  10  21  33  54  81 115 159 203 257 324 386
#     4  12  26  48  68  88 136 180 198 268 322 378
#     4   8  17  33  55  79 110 156 205 245 311 387
#
# _framework density 21.006786000000002
#
# number of rings (size 3 to 8) (size 9 to 14) (size 15 to 20)
#    0.000    2.483    1.379    1.862    3.862    1.103 
#    0.000    7.586    0.000    0.000    0.000    0.000 
#    0.000    0.000    0.000    0.000    0.000    0.000 
#
# Total GULP energy -323427.529251 kJ/mol
# GULP energy per Si atom -5576.336711 kJ/mol
# Density = 2.095897 g / cm^3
# Si number density = 21.006786 Si / 1000 Ang^3
#
#
#
# Elastic Constant Matrix: (Units=GPa)
#
#
# Indices 1 2 3 4 5 6 
#
# 1 410.5564 317.1567 -49.6177 0.0000 0.0000 0.0000
# 2 317.1567 371.5668 -14.8844 0.0000 0.0000 0.0000
# 3 -49.6177 -14.8844 90.4332 0.0000 0.0000 0.0000
# 4 0.0000 0.0000 0.0000 -16.0929 0.0000 0.0000
# 5 0.0000 0.0000 0.0000 0.0000 19.4663 0.0000
# 6 0.0000 0.0000 0.0000 0.0000 0.0000 -9.7072
#
#
#
# Elastic Compliance Matrix: (Units=1/GPa)
#
#
# Indices 1 2 3 4 5 6 
#
# 1 0.008021 -0.006714 0.003296 0.000000 0.000000 0.000000
# 2 -0.006714 0.008330 -0.002313 0.000000 0.000000 0.000000
# 3 0.003296 -0.002313 0.012485 0.000000 0.000000 0.000000
# 4 0.000000 0.000000 0.000000 -0.062139 0.000000 0.000000
# 5 0.000000 0.000000 0.000000 0.000000 0.051371 0.000000
# 6 0.000000 0.000000 0.000000 0.000000 0.000000 -0.103016
#
#
# Mechanical properties :
#
#
# Convention : Reuss Voigt Hill
#
# Bulk Modulus (GPa) = 57.56088 153.09617 105.32853
# Shear Modulus (GPa) = -73.86110 40.06003 -16.90054
#
# Velocity S-wave (km/s) = -5.93607 4.37166 -2.83950
# Velocity P-wave (km/s) = 4.41837 9.92570 6.28480
#
# Compressibility (1/GPa) = 0.01737291
#
# Stress axis : x y z
#
# Youngs Moduli (GPa) = 124.67532 120.05176 80.09341
#
# Poissons Ratio (x) = 0.80606 -0.26396
# Poissons Ratio (y) = 0.83711 0.18525
# Poissons Ratio (z) = -0.41089 0.27767
#
# Static dielectric constant tensor:
#      x y z
#    x 1.706540 0.000000 0.000000 
#    y 0.000000 1.733730 0.000000 
#    z 0.000000 0.000000 1.803390 
# 
# From -- ./inp_files/10875.got.cif
#   From: 2010.05.17/outbox.cif.g08.bks.cpg/sg58_6_cif.got.tgz:10875.got - 2010.06.03 14:20:14.
