data_PCOD9444528
_publ_section_title
;
Structure prediction by ZEFSAII (Michael W. Deem and Ramdas Pophale) SiO2 
 PCOD9444528
Probable space group: P N N M
;
_chemical_formula_sum "Si O2"
_cell_formula_units_Z 32
_cell_length_a 23.419495
_cell_length_b 5.106808
_cell_length_c 11.554815
_cell_angle_alpha 90.000000
_cell_angle_beta 90.000000
_cell_angle_gamma 90.000000
_cell_volume 1381.942753
_symmetry_space_group_name_H-M "P N N M"
_symmetry_group_IT_number 58
_symmetry_cell_setting 'orthorhombic'
loop_
_space_group_symop_operation_xyz
x,y,z
-x,-y,z
1/2+x,1/2-y,1/2-z
1/2-x,1/2+y,1/2-z
-x,-y,-z
x,y,-z
1/2-x,1/2+y,1/2+z
1/2+x,1/2-y,1/2+z
loop_
_atom_site_type_symbol
_atom_site_label
_atom_site_fract_x
_atom_site_fract_y
_atom_site_fract_z
Si Si1 0.063725 0.959820 0.727500
Si Si2 0.404918 0.950429 0.370067
Si Si3 0.705440 0.762272 0.624929
Si Si4 0.820290 0.031388 0.376175
O O1 0.075145 0.167526 0.830013
O O2 0.072465 0.670477 0.781034
O O3 0.112877 0.026723 0.635280
O O4 0.000000 0.000000 0.683714
O O5 0.424882 0.007698 0.500000
O O6 0.335676 0.980655 0.371726
O O7 0.688964 0.634394 0.500000
O O8 0.692990 0.647514 0.750191
O O9 0.772810 0.806676 0.619434
O O10 0.811657 0.176501 0.500000
#
# Coordination Sequence:
#
# PCOD9444528 Si02
#       4
#     8   8   8   8
#     4  11  23  38  58  88 125 166 211 254 301 366
#     4  10  21  38  62  91 123 161 207 261 316 367
#     4   9  19  36  60  91 122 156 203 258 314 368
#     4  10  21  38  61  90 126 166 206 254 312 372
#
# _framework density 23.155805999999998
#
# number of rings (size 3 to 8) (size 9 to 14) (size 15 to 20)
#    0.000    2.000    0.000    3.000    0.000    5.500 
#    0.000    7.500    0.000    7.500    0.000    0.000 
#    0.000    0.000    0.000    0.000    0.000    0.000 
#
# Total GULP energy -178262.112946 kJ/mol
# GULP energy per Si atom -5570.691030 kJ/mol
# Density = 2.310310 g / cm^3
# Si number density = 23.155806 Si / 1000 Ang^3
#
#
#
# Elastic Constant Matrix: (Units=GPa)
#
#
# Indices 1 2 3 4 5 6 
#
# 1 142.0231 6.7597 65.2117 0.0000 0.0000 0.0000
# 2 6.7597 44.3149 14.2315 0.0000 0.0000 0.0000
# 3 65.2117 14.2315 168.9602 0.0000 0.0000 0.0000
# 4 0.0000 0.0000 0.0000 20.4803 0.0000 0.0000
# 5 0.0000 0.0000 0.0000 0.0000 4.1177 0.0000
# 6 0.0000 0.0000 0.0000 0.0000 0.0000 21.0000
#
#
#
# Elastic Compliance Matrix: (Units=1/GPa)
#
#
# Indices 1 2 3 4 5 6 
#
# 1 0.008560 -0.000252 -0.003283 0.000000 0.000000 0.000000
# 2 -0.000252 0.023201 -0.001857 0.000000 0.000000 0.000000
# 3 -0.003283 -0.001857 0.007342 0.000000 0.000000 0.000000
# 4 0.000000 0.000000 0.000000 0.048827 0.000000 0.000000
# 5 0.000000 0.000000 0.000000 0.000000 0.242852 0.000000
# 6 0.000000 0.000000 0.000000 0.000000 0.000000 0.047619
#
#
# Mechanical properties :
#
#
# Convention : Reuss Voigt Hill
#
# Bulk Modulus (GPa) = 35.31056 58.63375 46.97216
# Shear Modulus (GPa) = 12.54315 27.05930 19.80123
#
# Velocity S-wave (km/s) = 2.32994 3.42215 2.92743
# Velocity P-wave (km/s) = 4.74556 6.40244 5.63523
#
# Compressibility (1/GPa) = 0.02832014
#
# Stress axis : x y z
#
# Youngs Moduli (GPa) = 116.81682 43.10241 136.20273
#
# Poissons Ratio (x) = 0.01084 0.44712
# Poissons Ratio (y) = 0.02938 0.25294
# Poissons Ratio (z) = 0.38348 0.08005
#
# Static dielectric constant tensor:
#      x y z
#    x 1.944310 0.000000 0.000000 
#    y 0.000000 1.890620 0.000000 
#    z 0.000000 0.000000 1.890180 
# 
# From -- ./inp_files/11609.got.cif
#   From: 2010.05.17/outbox.cif.g08.bks.cpg/sg58_6_cif.got.tgz:11609.got - 2010.06.03 14:20:14.
