data_PCOD9444434
_publ_section_title
;
Structure prediction by ZEFSAII (Michael W. Deem and Ramdas Pophale) SiO2 
 PCOD9444434
Probable space group: P N N M
;
_chemical_formula_sum "Si O2"
_cell_formula_units_Z 58
_cell_length_a 11.958818
_cell_length_b 14.768965
_cell_length_c 16.909920
_cell_angle_alpha 90.000000
_cell_angle_beta 90.000000
_cell_angle_gamma 90.000000
_cell_volume 2986.619324
_symmetry_space_group_name_H-M "P N N M"
_symmetry_group_IT_number 58
_symmetry_cell_setting 'orthorhombic'
loop_
_space_group_symop_operation_xyz
x,y,z
-x,-y,z
1/2+x,1/2-y,1/2-z
1/2-x,1/2+y,1/2-z
-x,-y,-z
x,y,-z
1/2-x,1/2+y,1/2+z
1/2+x,1/2-y,1/2+z
loop_
_atom_site_type_symbol
_atom_site_label
_atom_site_fract_x
_atom_site_fract_y
_atom_site_fract_z
Si Si1 0.038857 0.716153 0.586948
Si Si2 0.325503 0.098909 0.381343
Si Si3 0.615108 0.692322 0.408496
Si Si4 0.500000 0.000000 0.500000
Si Si5 0.437004 0.590357 0.119215
Si Si6 0.834983 0.576675 0.408662
Si Si7 0.442478 0.594022 0.691150
Si Si8 0.680258 0.903381 0.192683
O O1 0.089800 0.698897 0.500000
O O2 0.121443 0.684945 0.656104
O O3 0.994981 0.818388 0.589364
O O4 0.930978 0.651857 0.595181
O O5 0.348993 0.203866 0.400986
O O6 0.194341 0.083036 0.400314
O O7 0.337365 0.087683 0.286446
O O8 0.411328 0.037945 0.431019
O O9 0.585377 0.674228 0.500000
O O10 0.719097 0.626919 0.387356
O O11 0.512476 0.671687 0.351295
O O12 0.500000 0.500000 0.093142
O O13 0.449353 0.597454 0.214264
O O14 0.827396 0.545658 0.500000
O O15 0.861339 0.492789 0.352675
O O16 0.500000 0.500000 0.664744
O O17 0.311932 0.599556 0.673168
#
# Coordination Sequence:
#
# PCOD9444434 Si02
#       8
#     8   8   8   2   8   8   8   8
#     4  11  23  40  64  95 130 170 220 274 325 403
#     4  11  25  47  68  92 133 176 224 280 330 403
#     4  11  21  40  67  91 131 184 221 265 341 412
#     4  12  28  48  70  96 124 170 240 276 322 396
#     4  10  23  45  69  92 129 177 225 275 337 398
#     4  10  21  37  66  94 132 174 216 266 334 416
#     4  10  21  40  62  95 132 170 220 268 329 409
#     4  11  23  41  65 102 134 170 217 280 340 389
#
# _framework density 19.419951000000001
#
# number of rings (size 3 to 8) (size 9 to 14) (size 15 to 20)
#    0.000    1.379    3.448    1.655    2.897    2.759 
#    2.483    0.000    0.000    0.000    0.000    0.000 
#    0.000    0.000    0.000    0.000    0.000    0.000 
#
# Total GULP energy -323502.114423 kJ/mol
# GULP energy per Si atom -5577.622662 kJ/mol
# Density = 1.937575 g / cm^3
# Si number density = 19.419951 Si / 1000 Ang^3
#
#
#
# Elastic Constant Matrix: (Units=GPa)
#
#
# Indices 1 2 3 4 5 6 
#
# 1 132.1046 59.5886 69.6721 0.0000 0.0000 0.0000
# 2 59.5886 107.6693 46.4785 0.0000 0.0000 0.0000
# 3 69.6721 46.4785 92.5504 0.0000 0.0000 0.0000
# 4 0.0000 0.0000 0.0000 20.9873 0.0000 0.0000
# 5 0.0000 0.0000 0.0000 0.0000 10.8482 0.0000
# 6 0.0000 0.0000 0.0000 0.0000 0.0000 36.0406
#
#
#
# Elastic Compliance Matrix: (Units=1/GPa)
#
#
# Indices 1 2 3 4 5 6 
#
# 1 0.013797 -0.004025 -0.008365 0.000000 0.000000 0.000000
# 2 -0.004025 0.013033 -0.003515 0.000000 0.000000 0.000000
# 3 -0.008365 -0.003515 0.018867 0.000000 0.000000 0.000000
# 4 0.000000 0.000000 0.000000 0.047648 0.000000 0.000000
# 5 0.000000 0.000000 0.000000 0.000000 0.092181 0.000000
# 6 0.000000 0.000000 0.000000 0.000000 0.000000 0.027746
#
#
# Mechanical properties :
#
#
# Convention : Reuss Voigt Hill
#
# Bulk Modulus (GPa) = 72.00955 75.97807 73.99381
# Shear Modulus (GPa) = 20.02309 24.01423 22.01866
#
# Velocity S-wave (km/s) = 3.21449 3.52031 3.37087
# Velocity P-wave (km/s) = 7.13708 7.46539 7.30308
#
# Compressibility (1/GPa) = 0.01388705
#
# Stress axis : x y z
#
# Youngs Moduli (GPa) = 72.47941 76.73098 53.00122
#
# Poissons Ratio (x) = 0.30882 0.44337
# Poissons Ratio (y) = 0.29171 0.18630
# Poissons Ratio (z) = 0.60630 0.26971
#
# Static dielectric constant tensor:
#      x y z
#    x 1.678710 0.000000 0.000000 
#    y 0.000000 1.662660 0.000000 
#    z 0.000000 0.000000 1.684070 
# 
# From -- ./inp_files/26341.got.cif
#   From: 2010.05.17/outbox.cif.g08.bks.cpg/sg58_14_cif.got.tgz:26341.got - 2010.06.03 14:20:14.
