data_PCOD9444538
_publ_section_title
;
Structure prediction by ZEFSAII (Michael W. Deem and Ramdas Pophale) SiO2 
 PCOD9444538
Probable space group: P N N M
;
_chemical_formula_sum "Si O2"
_cell_formula_units_Z 48
_cell_length_a 9.891752
_cell_length_b 15.172998
_cell_length_c 13.068584
_cell_angle_alpha 90.000000
_cell_angle_beta 90.000000
_cell_angle_gamma 90.000000
_cell_volume 1961.431536
_symmetry_space_group_name_H-M "P N N M"
_symmetry_group_IT_number 58
_symmetry_cell_setting 'orthorhombic'
loop_
_space_group_symop_operation_xyz
x,y,z
-x,-y,z
1/2+x,1/2-y,1/2-z
1/2-x,1/2+y,1/2-z
-x,-y,-z
x,y,-z
1/2-x,1/2+y,1/2+z
1/2+x,1/2-y,1/2+z
loop_
_atom_site_type_symbol
_atom_site_label
_atom_site_fract_x
_atom_site_fract_y
_atom_site_fract_z
Si Si1 0.047245 0.172380 0.321410
Si Si2 0.332592 0.207692 0.385041
Si Si3 0.353577 0.452131 0.889598
Si Si4 0.749447 0.089658 0.824979
Si Si5 0.839165 0.910076 0.886266
Si Si6 0.041515 0.629947 0.696649
O O1 0.185552 0.161541 0.382538
O O2 0.075006 0.128079 0.209801
O O3 0.916073 0.144827 0.384265
O O4 0.022910 0.273968 0.310558
O O5 0.382632 0.217006 0.500000
O O6 0.303528 0.309118 0.341639
O O7 0.419377 0.139395 0.316953
O O8 0.500000 0.500000 0.873258
O O9 0.262063 0.449012 0.790702
O O10 0.297071 0.474067 0.000000
O O11 0.589169 0.077867 0.844640
O O12 0.835878 0.016793 0.884998
O O13 0.682954 0.882451 0.861518
O O14 0.877466 0.879070 0.000000
#
# Coordination Sequence:
#
# PCOD9444538 Si02
#       6
#     8   8   8   8   8   8
#     4  10  21  42  59  89 123 158 210 261 301 376
#     4  10  21  38  62  88 122 167 206 256 320 367
#     4  11  22  39  63  86 119 168 212 255 313 376
#     4  11  22  41  63  95 130 161 211 271 312 381
#     4  11  24  42  68  94 125 167 209 264 328 383
#     4  10  23  40  60  91 129 159 207 259 311 381
#
# _framework density 24.471923
#
# number of rings (size 3 to 8) (size 9 to 14) (size 15 to 20)
#    0.000    1.500    3.333    1.500    0.000    6.000 
#    0.000    0.833    0.000    3.000    0.000    0.000 
#    0.000    0.000    0.000    0.000    0.000    0.000 
#
# Total GULP energy -267277.634066 kJ/mol
# GULP energy per Si atom -5568.284043 kJ/mol
# Density = 2.441622 g / cm^3
# Si number density = 24.471923 Si / 1000 Ang^3
#
#
#
# Elastic Constant Matrix: (Units=GPa)
#
#
# Indices 1 2 3 4 5 6 
#
# 1 54.4135 1.0436 -8.8750 0.0000 0.0000 0.0000
# 2 1.0436 51.1802 22.2996 0.0000 0.0000 0.0000
# 3 -8.8750 22.2996 145.8179 0.0000 0.0000 0.0000
# 4 0.0000 0.0000 0.0000 15.6752 0.0000 0.0000
# 5 0.0000 0.0000 0.0000 0.0000-1929.1720 0.0000
# 6 0.0000 0.0000 0.0000 0.0000 0.0000 32.5952
#
#
#
# Elastic Compliance Matrix: (Units=1/GPa)
#
#
# Indices 1 2 3 4 5 6 
#
# 1 0.018604 -0.000935 0.001275 0.000000 0.000000 0.000000
# 2 -0.000935 0.020981 -0.003265 0.000000 0.000000 0.000000
# 3 0.001275 -0.003265 0.007435 0.000000 0.000000 0.000000
# 4 0.000000 0.000000 0.000000 0.063795 0.000000 0.000000
# 5 0.000000 0.000000 0.000000 0.000000 -0.000518 0.000000
# 6 0.000000 0.000000 0.000000 0.000000 0.000000 0.030679
#
#
# Mechanical properties :
#
#
# Convention : Reuss Voigt Hill
#
# Bulk Modulus (GPa) = 24.29016 31.14976 27.71996
# Shear Modulus (GPa) = 31.14320 -360.38410 -164.62045
#
# Velocity S-wave (km/s) = 3.57124 -12.14842 -8.21067
# Velocity P-wave (km/s) = 5.19155 13.56548 8.86200
#
# Compressibility (1/GPa) = 0.04116894
#
# Stress axis : x y z
#
# Youngs Moduli (GPa) = 53.75265 47.66299 134.50147
#
# Poissons Ratio (x) = 0.04457 -0.17153
# Poissons Ratio (y) = 0.05026 0.43920
# Poissons Ratio (z) = -0.06855 0.15564
#
# Static dielectric constant tensor:
#      x y z
#    x 2.106920 0.000000 0.000000 
#    y 0.000000 2.617920 0.000000 
#    z 0.000000 0.000000 2.025310 
# 
# From -- ./inp_files/14381.got.cif
#   From: 2010.05.17/outbox.cif.g08.bks.cpg/sg58_8_cif.got.tgz:14381.got - 2010.06.03 14:20:14.
