data_PCOD9444071
_publ_section_title
;
Structure prediction by ZEFSAII (Michael W. Deem and Ramdas Pophale) SiO2 
 PCOD9444071
Probable space group: P N N M
;
_chemical_formula_sum "Si O2"
_cell_formula_units_Z 56
_cell_length_a 8.336445
_cell_length_b 13.576070
_cell_length_c 22.862000
_cell_angle_alpha 90.000000
_cell_angle_beta 90.000000
_cell_angle_gamma 90.000000
_cell_volume 2587.433390
_symmetry_space_group_name_H-M "P N N M"
_symmetry_group_IT_number 58
_symmetry_cell_setting 'orthorhombic'
loop_
_space_group_symop_operation_xyz
x,y,z
-x,-y,z
1/2+x,1/2-y,1/2-z
1/2-x,1/2+y,1/2-z
-x,-y,-z
x,y,-z
1/2-x,1/2+y,1/2+z
1/2+x,1/2-y,1/2+z
loop_
_atom_site_type_symbol
_atom_site_label
_atom_site_fract_x
_atom_site_fract_y
_atom_site_fract_z
Si Si1 0.801570 0.503824 0.255553
Si Si2 0.630255 0.209126 0.208767
Si Si3 0.608070 0.406139 0.360490
Si Si4 0.529633 0.323950 0.000000
Si Si5 0.261331 0.497878 0.000000
Si Si6 0.618264 0.775342 0.108427
Si Si7 0.818046 0.572943 0.872423
Si Si8 0.060534 0.714333 0.171235
O O1 0.764707 0.611631 0.281545
O O2 0.697626 0.431907 0.297613
O O3 0.763999 0.514236 0.186175
O O4 0.000000 0.500000 0.260656
O O5 0.495847 0.194530 0.160928
O O6 0.540292 0.225159 0.269133
O O7 0.754496 0.290700 0.187717
O O8 0.500000 0.500000 0.376719
O O9 0.754944 0.363983 0.399881
O O10 0.487862 0.313069 0.361893
O O11 0.402725 0.414883 0.000000
O O12 0.691251 0.386977 0.000000
O O13 0.493252 0.256011 0.944947
O O14 0.187468 0.475755 0.936193
O O15 0.711691 0.674084 0.125018
O O16 0.993672 0.617741 0.859895
#
# Coordination Sequence:
#
# PCOD9444071 Si02
#       8
#     8   8   8   4   4   8   8   8
#     4  11  21  35  55  88 122 160 196 255 310 376
#     4  11  20  36  54  81 122 161 205 248 317 380
#     4  11  21  35  57  90 119 155 203 254 322 385
#     4   9  20  40  66  87 113 162 215 260 315 372
#     4   9  18  42  64  87 120 160 219 262 304 378
#     4  10  21  39  61  85 117 159 208 259 314 382
#     4   9  21  38  58  88 119 162 208 260 314 372
#     4  10  21  34  55  84 121 163 202 256 318 385
#
# _framework density 21.643070000000002
#
# number of rings (size 3 to 8) (size 9 to 14) (size 15 to 20)
#    0.000    1.857    2.857    2.571    2.000    1.143 
#    2.571    1.429    0.000    1.714    0.000    0.000 
#    0.000    0.000    0.000    0.000    0.000    0.000 
#
# Total GULP energy -312196.192298 kJ/mol
# GULP energy per Si atom -5574.932005 kJ/mol
# Density = 2.159381 g / cm^3
# Si number density = 21.643070 Si / 1000 Ang^3
#
#
#
# Elastic Constant Matrix: (Units=GPa)
#
#
# Indices 1 2 3 4 5 6 
#
# 1 71.2432 21.7974 24.7471 0.0000 0.0000 0.0000
# 2 21.7974 111.9764 47.1739 0.0000 0.0000 0.0000
# 3 24.7471 47.1739 108.2861 0.0000 0.0000 0.0000
# 4 0.0000 0.0000 0.0000 26.3232 0.0000 0.0000
# 5 0.0000 0.0000 0.0000 0.0000 20.1095 0.0000
# 6 0.0000 0.0000 0.0000 0.0000 0.0000 40.2649
#
#
#
# Elastic Compliance Matrix: (Units=1/GPa)
#
#
# Indices 1 2 3 4 5 6 
#
# 1 0.015562 -0.001875 -0.002740 0.000000 0.000000 0.000000
# 2 -0.001875 0.011164 -0.004435 0.000000 0.000000 0.000000
# 3 -0.002740 -0.004435 0.011793 0.000000 0.000000 0.000000
# 4 0.000000 0.000000 0.000000 0.037989 0.000000 0.000000
# 5 0.000000 0.000000 0.000000 0.000000 0.049728 0.000000
# 6 0.000000 0.000000 0.000000 0.000000 0.000000 0.024836
#
#
# Mechanical properties :
#
#
# Convention : Reuss Voigt Hill
#
# Bulk Modulus (GPa) = 48.97312 53.21585 51.09448
# Shear Modulus (GPa) = 28.41288 30.52533 29.46911
#
# Velocity S-wave (km/s) = 3.62718 3.75960 3.69398
# Velocity P-wave (km/s) = 6.34182 6.59450 6.46939
#
# Compressibility (1/GPa) = 0.02041937
#
# Stress axis : x y z
#
# Youngs Moduli (GPa) = 64.26015 89.57504 84.79681
#
# Poissons Ratio (x) = 0.16797 0.23230
# Poissons Ratio (y) = 0.12050 0.37606
# Poissons Ratio (z) = 0.17604 0.39726
#
# Static dielectric constant tensor:
#      x y z
#    x 1.843170 0.000000 0.000000 
#    y 0.000000 1.859630 0.000000 
#    z 0.000000 0.000000 1.791430 
# 
# From -- ./inp_files/29010.got.cif
#   From: 2010.05.17/outbox.cif.g08.bks.cpg/sg58_15_cif.got.tgz:29010.got - 2010.06.03 14:20:14.
