data_PCOD9444599
_publ_section_title
;
Structure prediction by ZEFSAII (Michael W. Deem and Ramdas Pophale) SiO2 
 PCOD9444599
Probable space group: P N N M
;
_chemical_formula_sum "Si O2"
_cell_formula_units_Z 44
_cell_length_a 5.658464
_cell_length_b 14.608700
_cell_length_c 28.882390
_cell_angle_alpha 90.000000
_cell_angle_beta 90.000000
_cell_angle_gamma 90.000000
_cell_volume 2387.499316
_symmetry_space_group_name_H-M "P N N M"
_symmetry_group_IT_number 58
_symmetry_cell_setting 'orthorhombic'
loop_
_space_group_symop_operation_xyz
x,y,z
-x,-y,z
1/2+x,1/2-y,1/2-z
1/2-x,1/2+y,1/2-z
-x,-y,-z
x,y,-z
1/2-x,1/2+y,1/2+z
1/2+x,1/2-y,1/2+z
loop_
_atom_site_type_symbol
_atom_site_label
_atom_site_fract_x
_atom_site_fract_y
_atom_site_fract_z
Si Si1 0.951279 0.198857 0.319631
Si Si2 0.500000 0.000000 0.251561
Si Si3 0.500000 0.500000 0.808987
Si Si4 0.353574 0.639243 0.358704
Si Si5 0.224141 0.838678 0.784331
Si Si6 0.000000 0.500000 0.400172
Si Si7 0.878720 0.100844 0.948663
O O1 0.790418 0.268940 0.347603
O O2 0.855045 0.189635 0.266856
O O3 0.199417 0.249551 0.312854
O O4 0.969776 0.094886 0.336259
O O5 0.750515 0.988373 0.279906
O O6 0.441347 0.908681 0.222549
O O7 0.517860 0.618048 0.314682
O O8 0.190929 0.551783 0.369405
O O9 0.502354 0.652148 0.405881
O O10 0.114314 0.422941 0.432778
O O11 0.894586 0.141101 0.000000
O O12 0.000000 0.000000 0.950578
#
# Coordination Sequence:
#
# PCOD9444599 Si02
#       7
#     8   4   4   8   8   4   8
#     4  11  22  39  54  78 115 159 204 257 298 357
#     4  10  24  39  57  82 111 162 207 251 298 363
#     4  10  24  42  60  78 109 162 213 248 314 352
#     4  11  23  37  57  87 120 162 208 250 309 367
#     4  11  22  38  56  80 118 160 203 251 299 359
#     4  10  21  39  55  90 124 158 206 251 307 373
#     4   9  19  37  59  85 120 159 197 251 314 378
#
# _framework density 18.429323
#
# number of rings (size 3 to 8) (size 9 to 14) (size 15 to 20)
#    0.000    1.636    1.818    2.455    5.091    6.545 
#   11.455    0.000    0.000    0.000    0.000    0.636 
#    0.000    5.818    0.000    0.364    0.000    0.000 
#
# Total GULP energy -245549.432476 kJ/mol
# GULP energy per Si atom -5580.668920 kJ/mol
# Density = 1.838738 g / cm^3
# Si number density = 18.429323 Si / 1000 Ang^3
#
#
#
# Elastic Constant Matrix: (Units=GPa)
#
#
# Indices 1 2 3 4 5 6 
#
# 1 68.3530 13.5663 20.2221 0.0000 0.0000 0.0000
# 2 13.5663 91.0835 15.8219 0.0000 0.0000 0.0000
# 3 20.2221 15.8219 96.3123 0.0000 0.0000 0.0000
# 4 0.0000 0.0000 0.0000 18.7893 0.0000 0.0000
# 5 0.0000 0.0000 0.0000 0.0000 13.8728 0.0000
# 6 0.0000 0.0000 0.0000 0.0000 0.0000 29.5483
#
#
#
# Elastic Compliance Matrix: (Units=1/GPa)
#
#
# Indices 1 2 3 4 5 6 
#
# 1 0.015893 -0.001840 -0.003035 0.000000 0.000000 0.000000
# 2 -0.001840 0.011514 -0.001505 0.000000 0.000000 0.000000
# 3 -0.003035 -0.001505 0.011267 0.000000 0.000000 0.000000
# 4 0.000000 0.000000 0.000000 0.053222 0.000000 0.000000
# 5 0.000000 0.000000 0.000000 0.000000 0.072084 0.000000
# 6 0.000000 0.000000 0.000000 0.000000 0.000000 0.033843
#
#
# Mechanical properties :
#
#
# Convention : Reuss Voigt Hill
#
# Bulk Modulus (GPa) = 38.58781 39.44105 39.01443
# Shear Modulus (GPa) = 22.80801 26.18464 24.49632
#
# Velocity S-wave (km/s) = 3.52176 3.77346 3.64978
# Velocity P-wave (km/s) = 6.12542 6.35870 6.24315
#
# Compressibility (1/GPa) = 0.02591492
#
# Stress axis : x y z
#
# Youngs Moduli (GPa) = 62.92111 86.84730 88.75216
#
# Poissons Ratio (x) = 0.15980 0.26933
# Poissons Ratio (y) = 0.11578 0.13359
# Poissons Ratio (z) = 0.19094 0.13073
#
# Static dielectric constant tensor:
#      x y z
#    x 1.748550 0.000000 0.000000 
#    y 0.000000 1.674340 0.000000 
#    z 0.000000 0.000000 1.632020 
# 
# From -- ./inp_files/34146.got.cif
#   From: 2010.05.17/outbox.cif.g08.bks.cpg/sg58_18_cif.got.tgz:34146.got - 2010.06.03 14:20:14.
