data_PCOD9444977
_publ_section_title
;
Structure prediction by ZEFSAII (Michael W. Deem and Ramdas Pophale) SiO2 
 PCOD9444977
Probable space group: P N N M
;
_chemical_formula_sum "Si O2"
_cell_formula_units_Z 32
_cell_length_a 18.233958
_cell_length_b 7.267018
_cell_length_c 12.080908
_cell_angle_alpha 90.000000
_cell_angle_beta 90.000000
_cell_angle_gamma 90.000000
_cell_volume 1600.798848
_symmetry_space_group_name_H-M "P N N M"
_symmetry_group_IT_number 58
_symmetry_cell_setting 'orthorhombic'
loop_
_space_group_symop_operation_xyz
x,y,z
-x,-y,z
1/2+x,1/2-y,1/2-z
1/2-x,1/2+y,1/2-z
-x,-y,-z
x,y,-z
1/2-x,1/2+y,1/2+z
1/2+x,1/2-y,1/2+z
loop_
_atom_site_type_symbol
_atom_site_label
_atom_site_fract_x
_atom_site_fract_y
_atom_site_fract_z
Si Si1 0.190910 0.234487 0.868947
Si Si2 0.086551 0.533411 0.500000
Si Si3 0.656377 0.922449 0.222153
Si Si4 0.586929 0.531925 0.244137
Si Si5 0.587369 0.530751 0.000000
O O1 0.266530 0.165742 0.814359
O O2 0.168729 0.430926 0.818261
O O3 0.129748 0.086143 0.833979
O O4 0.200138 0.244291 0.000000
O O5 0.122360 0.472753 0.384911
O O6 0.099983 0.751751 0.500000
O O7 0.000000 0.500000 0.500000
O O8 0.605062 0.749017 0.253112
O O9 0.500000 0.500000 0.250075
O O10 0.613837 0.467978 0.120503
O O11 0.500000 0.500000 0.000000
#
# Coordination Sequence:
#
# PCOD9444977 Si02
#       5
#     8   4   8   8   4
#     4  12  26  45  66  98 135 177 224 268 334 413
#     4  10  22  38  68 102 131 159 224 285 337 385
#     4  11  24  43  68  99 134 172 224 278 334 398
#     4  10  23  43  67 100 138 172 221 278 331 391
#     4   8  18  36  62  98 128 158 212 272 327 379
#
# _framework density 19.990020000000001
#
# number of rings (size 3 to 8) (size 9 to 14) (size 15 to 20)
#    0.000    1.500    3.750    0.000   10.500    1.500 
#    2.250    1.250    0.000    0.000    0.000    0.000 
#    0.000    0.000    0.000    0.000    0.000    0.000 
#
# Total GULP energy -178753.777660 kJ/mol
# GULP energy per Si atom -5586.055552 kJ/mol
# Density = 1.994452 g / cm^3
# Si number density = 19.990020 Si / 1000 Ang^3
#
#
#
# Elastic Constant Matrix: (Units=GPa)
#
#
# Indices 1 2 3 4 5 6 
#
# 1 89.9793 23.5337 0.8502 0.0000 0.0000 0.0000
# 2 23.5337 104.5498 32.4882 0.0000 0.0000 0.0000
# 3 0.8502 32.4882 58.0494 0.0000 0.0000 0.0000
# 4 0.0000 0.0000 0.0000 34.0934 0.0000 0.0000
# 5 0.0000 0.0000 0.0000 0.0000 30.4327 0.0000
# 6 0.0000 0.0000 0.0000 0.0000 0.0000 38.4117
#
#
#
# Elastic Compliance Matrix: (Units=1/GPa)
#
#
# Indices 1 2 3 4 5 6 
#
# 1 0.011932 -0.003185 0.001608 0.000000 0.000000 0.000000
# 2 -0.003185 0.012429 -0.006909 0.000000 0.000000 0.000000
# 3 0.001608 -0.006909 0.021070 0.000000 0.000000 0.000000
# 4 0.000000 0.000000 0.000000 0.029331 0.000000 0.000000
# 5 0.000000 0.000000 0.000000 0.000000 0.032859 0.000000
# 6 0.000000 0.000000 0.000000 0.000000 0.000000 0.026034
#
#
# Mechanical properties :
#
#
# Convention : Reuss Voigt Hill
#
# Bulk Modulus (GPa) = 35.14066 40.70251 37.92159
# Shear Modulus (GPa) = 31.22773 33.63465 32.43119
#
# Velocity S-wave (km/s) = 3.95671 4.10637 4.03223
# Velocity P-wave (km/s) = 6.20414 6.54894 6.37887
#
# Compressibility (1/GPa) = 0.02845706
#
# Stress axis : x y z
#
# Youngs Moduli (GPa) = 83.81092 80.45771 47.46067
#
# Poissons Ratio (x) = 0.25629 -0.07632
# Poissons Ratio (y) = 0.26698 0.32792
# Poissons Ratio (z) = -0.13477 0.55591
#
# Static dielectric constant tensor:
#      x y z
#    x 1.698680 0.000000 0.000000 
#    y 0.000000 1.740860 0.000000 
#    z 0.000000 0.000000 1.732820 
# 
# From -- ./inp_files/12372.got.cif
#   From: 2010.05.17/outbox.cif.g08.bks.cpg/sg58_7_cif.got.tgz:12372.got - 2010.06.03 14:20:14.
