data_PCOD9444884
_publ_section_title
;
Structure prediction by ZEFSAII (Michael W. Deem and Ramdas Pophale) SiO2 
 PCOD9444884
Probable space group: P N N M
;
_chemical_formula_sum "Si O2"
_cell_formula_units_Z 38
_cell_length_a 16.508484
_cell_length_b 9.699652
_cell_length_c 9.757980
_cell_angle_alpha 90.000000
_cell_angle_beta 90.000000
_cell_angle_gamma 90.000000
_cell_volume 1562.511671
_symmetry_space_group_name_H-M "P N N M"
_symmetry_group_IT_number 58
_symmetry_cell_setting 'orthorhombic'
loop_
_space_group_symop_operation_xyz
x,y,z
-x,-y,z
1/2+x,1/2-y,1/2-z
1/2-x,1/2+y,1/2-z
-x,-y,-z
x,y,-z
1/2-x,1/2+y,1/2+z
1/2+x,1/2-y,1/2+z
loop_
_atom_site_type_symbol
_atom_site_label
_atom_site_fract_x
_atom_site_fract_y
_atom_site_fract_z
Si Si1 0.589152 0.667921 0.500000
Si Si2 0.261406 0.979196 0.500000
Si Si3 0.841802 0.870499 0.000000
Si Si4 0.334947 0.189466 0.000000
Si Si5 0.500000 0.500000 0.000000
Si Si6 0.971653 0.259325 0.707156
Si Si7 0.725294 0.230390 0.000000
Si Si8 0.638810 0.141211 0.730738
O O1 0.603774 0.504415 0.500000
O O2 0.547345 0.716552 0.638127
O O3 0.678719 0.730924 0.500000
O O4 0.204323 0.843691 0.500000
O O5 0.319881 0.971367 0.632147
O O6 0.201645 0.107907 0.500000
O O7 0.745526 0.902793 0.000000
O O8 0.857372 0.777096 0.133214
O O9 0.392949 0.177458 0.131217
O O10 0.493827 0.376608 0.881158
O O11 0.047386 0.362888 0.716331
O O12 0.693159 0.164399 0.137601
#
# Coordination Sequence:
#
# PCOD9444884 Si02
#       8
#     4   4   4   4   2   8   4   8
#     4  12  24  38  67  99 132 164 228 277 328 394
#     4  10  24  46  64  92 141 175 219 272 337 403
#     4  10  22  40  62  93 137 172 206 273 335 395
#     4   9  21  40  63  90 132 177 212 267 333 397
#     4  10  22  34  64  96 134 170 204 276 338 374
#     4  11  22  39  63 102 128 169 224 277 330 389
#     4  12  26  41  71  98 127 182 226 269 333 404
#     4  10  23  42  65  96 133 172 215 278 332 396
#
# _framework density 24.319818000000001
#
# number of rings (size 3 to 8) (size 9 to 14) (size 15 to 20)
#    0.000    1.684    0.000    6.316   11.789    1.263 
#    0.000    2.105    0.000    1.263    0.000    0.000 
#    0.000    0.000    0.000    0.000    0.000    0.000 
#
# Total GULP energy -212438.082598 kJ/mol
# GULP energy per Si atom -5590.475858 kJ/mol
# Density = 2.426446 g / cm^3
# Si number density = 24.319818 Si / 1000 Ang^3
#
#
#
# Elastic Constant Matrix: (Units=GPa)
#
#
# Indices 1 2 3 4 5 6 
#
# 1 146.8664 18.2311 58.3359 0.0000 0.0000 0.0000
# 2 18.2311 66.5673 32.4226 0.0000 0.0000 0.0000
# 3 58.3359 32.4226 212.1753 0.0000 0.0000 0.0000
# 4 0.0000 0.0000 0.0000 29.1526 0.0000 0.0000
# 5 0.0000 0.0000 0.0000 0.0000 43.1527 0.0000
# 6 0.0000 0.0000 0.0000 0.0000 0.0000 18.5519
#
#
#
# Elastic Compliance Matrix: (Units=1/GPa)
#
#
# Indices 1 2 3 4 5 6 
#
# 1 0.007727 -0.001168 -0.001946 0.000000 0.000000 0.000000
# 2 -0.001168 0.016407 -0.002186 0.000000 0.000000 0.000000
# 3 -0.001946 -0.002186 0.005582 0.000000 0.000000 0.000000
# 4 0.000000 0.000000 0.000000 0.034302 0.000000 0.000000
# 5 0.000000 0.000000 0.000000 0.000000 0.023173 0.000000
# 6 0.000000 0.000000 0.000000 0.000000 0.000000 0.053903
#
#
# Mechanical properties :
#
#
# Convention : Reuss Voigt Hill
#
# Bulk Modulus (GPa) = 52.31331 71.50979 61.91155
# Shear Modulus (GPa) = 31.63219 39.27943 35.45581
#
# Velocity S-wave (km/s) = 3.61040 4.02322 3.82238
# Velocity P-wave (km/s) = 6.23997 7.14489 6.70771
#
# Compressibility (1/GPa) = 0.01911559
#
# Stress axis : x y z
#
# Youngs Moduli (GPa) = 129.41857 60.94933 179.14335
#
# Poissons Ratio (x) = 0.07121 0.34859
# Poissons Ratio (y) = 0.15122 0.39159
# Poissons Ratio (z) = 0.25183 0.13323
#
# Static dielectric constant tensor:
#      x y z
#    x 1.442390 0.000000 0.000000 
#    y 0.000000 2.034430 0.000000 
#    z 0.000000 0.000000 1.743690 
# 
# From -- ./inp_files/7497.got.cif
#   From: 2010.05.17/outbox.cif.g08.bks.cpg/sg58_4_cif.got.tgz:7497.got - 2010.06.03 14:20:14.
