data_PCOD9444431
_publ_section_title
;
Structure prediction by ZEFSAII (Michael W. Deem and Ramdas Pophale) SiO2 
 PCOD9444431
Probable space group: P N N M
;
_chemical_formula_sum "Si O2"
_cell_formula_units_Z 48
_cell_length_a 8.872733
_cell_length_b 18.214298
_cell_length_c 14.583954
_cell_angle_alpha 90.000000
_cell_angle_beta 90.000000
_cell_angle_gamma 90.000000
_cell_volume 2356.921599
_symmetry_space_group_name_H-M "P N N M"
_symmetry_group_IT_number 58
_symmetry_cell_setting 'orthorhombic'
loop_
_space_group_symop_operation_xyz
x,y,z
-x,-y,z
1/2+x,1/2-y,1/2-z
1/2-x,1/2+y,1/2-z
-x,-y,-z
x,y,-z
1/2-x,1/2+y,1/2+z
1/2+x,1/2-y,1/2+z
loop_
_atom_site_type_symbol
_atom_site_label
_atom_site_fract_x
_atom_site_fract_y
_atom_site_fract_z
Si Si1 0.439730 0.159566 0.209422
Si Si2 0.371960 0.560805 0.000000
Si Si3 0.840272 0.474697 0.166668
Si Si4 0.768426 0.211549 0.810664
Si Si5 0.379444 0.730348 0.000000
Si Si6 0.619137 0.850674 0.000000
Si Si7 0.150233 0.949129 0.814741
Si Si8 0.678118 0.482595 0.500000
O O1 0.378016 0.093489 0.268926
O O2 0.610521 0.182520 0.229039
O O3 0.341192 0.230114 0.240883
O O4 0.434335 0.131867 0.103860
O O5 0.500000 0.500000 0.000000
O O6 0.271440 0.548751 0.911463
O O7 0.417765 0.645136 0.000000
O O8 0.756624 0.534367 0.229120
O O9 0.000000 0.500000 0.128034
O O10 0.717870 0.246316 0.909506
O O11 0.872190 0.138568 0.823206
O O12 0.544274 0.769120 0.000000
O O13 0.777258 0.896676 0.000000
O O14 0.000000 0.000000 0.804092
O O15 0.231657 0.977721 0.907481
O O16 0.500000 0.500000 0.500000
#
# Coordination Sequence:
#
# PCOD9444431 Si02
#       8
#     8   4   8   8   4   4   8   4
#     4  11  24  43  68  98 142 182 236 290 360 418
#     4  12  27  48  78 106 139 190 241 296 350 418
#     4  12  24  46  69 101 138 183 238 293 349 419
#     4  11  24  43  68  99 135 188 235 291 360 424
#     4  10  23  45  70 100 141 180 235 293 353 419
#     4  10  22  40  68 103 136 179 226 289 349 430
#     4  11  24  40  67 101 140 183 234 289 352 422
#     4  10  21  37  64  99 139 178 225 283 343 411
#
# _framework density 20.365548
#
# number of rings (size 3 to 8) (size 9 to 14) (size 15 to 20)
#    0.000    1.000    5.000    1.250    2.333    2.667 
#    0.000    4.167    0.000    0.000    0.000    0.000 
#    0.000    0.000    0.000    0.000    0.000    0.000 
#
# Total GULP energy -267393.129193 kJ/mol
# GULP energy per Si atom -5570.690192 kJ/mol
# Density = 2.031920 g / cm^3
# Si number density = 20.365548 Si / 1000 Ang^3
#
#
#
# Elastic Constant Matrix: (Units=GPa)
#
#
# Indices 1 2 3 4 5 6 
#
# 1 83.1487 45.3944 11.1633 0.0000 0.0000 0.0000
# 2 45.3944 132.4362 17.3438 0.0000 0.0000 0.0000
# 3 11.1633 17.3438 66.6003 0.0000 0.0000 0.0000
# 4 0.0000 0.0000 0.0000 3.0257 0.0000 0.0000
# 5 0.0000 0.0000 0.0000 0.0000 20.6081 0.0000
# 6 0.0000 0.0000 0.0000 0.0000 0.0000 46.9046
#
#
#
# Elastic Compliance Matrix: (Units=1/GPa)
#
#
# Indices 1 2 3 4 5 6 
#
# 1 0.014889 -0.004945 -0.001208 0.000000 0.000000 0.000000
# 2 -0.004945 0.009460 -0.001635 0.000000 0.000000 0.000000
# 3 -0.001208 -0.001635 0.015643 0.000000 0.000000 0.000000
# 4 0.000000 0.000000 0.000000 0.330507 0.000000 0.000000
# 5 0.000000 0.000000 0.000000 0.000000 0.048525 0.000000
# 6 0.000000 0.000000 0.000000 0.000000 0.000000 0.021320
#
#
# Mechanical properties :
#
#
# Convention : Reuss Voigt Hill
#
# Bulk Modulus (GPa) = 40.95592 47.77648 44.36620
# Shear Modulus (GPa) = 10.77454 27.99326 19.38390
#
# Velocity S-wave (km/s) = 2.30262 3.71150 3.08847
# Velocity P-wave (km/s) = 5.21761 6.47127 5.87796
#
# Compressibility (1/GPa) = 0.02441649
#
# Stress axis : x y z
#
# Youngs Moduli (GPa) = 67.16578 105.70963 63.92604
#
# Poissons Ratio (x) = 0.52274 0.07721
# Poissons Ratio (y) = 0.33214 0.10450
# Poissons Ratio (z) = 0.08112 0.17280
#
# Static dielectric constant tensor:
#      x y z
#    x 1.738920 0.000000 0.000000 
#    y 0.000000 1.806320 0.000000 
#    z 0.000000 0.000000 1.734860 
# 
# From -- ./inp_files/19910.got.cif
#   From: 2010.05.17/outbox.cif.g08.bks.cpg/sg58_10_cif.got.tgz:19910.got - 2010.06.03 14:20:14.
