data_PCOD9444753
_publ_section_title
;
Structure prediction by ZEFSAII (Michael W. Deem and Ramdas Pophale) SiO2 
 PCOD9444753
Probable space group: P N N M
;
_chemical_formula_sum "Si O2"
_cell_formula_units_Z 56
_cell_length_a 14.718332
_cell_length_b 11.444896
_cell_length_c 15.873543
_cell_angle_alpha 90.000000
_cell_angle_beta 90.000000
_cell_angle_gamma 90.000000
_cell_volume 2673.894811
_symmetry_space_group_name_H-M "P N N M"
_symmetry_group_IT_number 58
_symmetry_cell_setting 'orthorhombic'
loop_
_space_group_symop_operation_xyz
x,y,z
-x,-y,z
1/2+x,1/2-y,1/2-z
1/2-x,1/2+y,1/2-z
-x,-y,-z
x,y,-z
1/2-x,1/2+y,1/2+z
1/2+x,1/2-y,1/2+z
loop_
_atom_site_type_symbol
_atom_site_label
_atom_site_fract_x
_atom_site_fract_y
_atom_site_fract_z
Si Si1 0.888872 0.747825 0.905769
Si Si2 0.972836 0.252901 0.595890
Si Si3 0.525082 0.866257 0.275789
Si Si4 0.285524 0.365374 0.857429
Si Si5 0.202446 0.767907 0.822771
Si Si6 0.848667 0.889995 0.597770
Si Si7 0.604031 0.508600 0.400083
O O1 0.806212 0.657158 0.907737
O O2 0.854215 0.879618 0.887406
O O3 0.958437 0.710980 0.833614
O O4 0.931560 0.751985 0.000000
O O5 0.986919 0.298723 0.500000
O O6 0.983964 0.337191 0.676333
O O7 0.871924 0.200555 0.603041
O O8 0.047909 0.151245 0.609064
O O9 0.625670 0.830114 0.306136
O O10 0.500000 0.000000 0.290600
O O11 0.263087 0.308430 0.767831
O O12 0.317011 0.498734 0.849175
O O13 0.282882 0.716843 0.878791
O O14 0.155601 0.883002 0.860542
O O15 0.837051 0.922922 0.500000
O O16 0.500000 0.500000 0.368577
O O17 0.600941 0.529354 0.500000
#
# Coordination Sequence:
#
# PCOD9444753 Si02
#       7
#     8   8   8   8   8   8   8
#     4  11  23  41  66  94 130 168 209 264 317 382
#     4  10  23  44  66  91 125 169 218 265 313 373
#     4  11  24  41  63  96 129 164 210 258 325 388
#     4  11  24  39  65  95 127 168 214 259 318 376
#     4  11  24  38  64  94 129 167 205 266 316 379
#     4  11  23  41  65  92 126 166 212 265 314 374
#     4  10  21  40  66  93 125 166 213 258 315 384
#
# _framework density 20.943232999999999
#
# number of rings (size 3 to 8) (size 9 to 14) (size 15 to 20)
#    0.000    1.286    1.429    3.857    4.000    2.286 
#    2.571    0.000    0.000    0.000    0.000    0.000 
#    0.000    0.000    0.000    0.000    0.000    0.000 
#
# Total GULP energy -312940.840056 kJ/mol
# GULP energy per Si atom -5588.229287 kJ/mol
# Density = 2.089557 g / cm^3
# Si number density = 20.943233 Si / 1000 Ang^3
#
#
#
# Elastic Constant Matrix: (Units=GPa)
#
#
# Indices 1 2 3 4 5 6 
#
# 1 44.5368 -20.1742 10.0421 0.0000 0.0000 0.0000
# 2 -20.1742 51.6620 12.3944 0.0000 0.0000 0.0000
# 3 10.0421 12.3944 69.3948 0.0000 0.0000 0.0000
# 4 0.0000 0.0000 0.0000 25.1815 0.0000 0.0000
# 5 0.0000 0.0000 0.0000 0.0000 20.6990 0.0000
# 6 0.0000 0.0000 0.0000 0.0000 0.0000 24.4418
#
#
#
# Elastic Compliance Matrix: (Units=1/GPa)
#
#
# Indices 1 2 3 4 5 6 
#
# 1 0.030008 0.013331 -0.006724 0.000000 0.000000 0.000000
# 2 0.013331 0.026146 -0.006599 0.000000 0.000000 0.000000
# 3 -0.006724 -0.006599 0.016562 0.000000 0.000000 0.000000
# 4 0.000000 0.000000 0.000000 0.039712 0.000000 0.000000
# 5 0.000000 0.000000 0.000000 0.000000 0.048311 0.000000
# 6 0.000000 0.000000 0.000000 0.000000 0.000000 0.040914
#
#
# Mechanical properties :
#
#
# Convention : Reuss Voigt Hill
#
# Bulk Modulus (GPa) = 13.74882 18.90201 16.32541
# Shear Modulus (GPa) = 22.13572 24.95322 23.54447
#
# Velocity S-wave (km/s) = 3.25459 3.45551 3.35655
# Velocity P-wave (km/s) = 4.54996 4.99657 4.77849
#
# Compressibility (1/GPa) = 0.07273354
#
# Stress axis : x y z
#
# Youngs Moduli (GPa) = 33.32423 38.24718 60.37963
#
# Poissons Ratio (x) = -0.50989 0.40596
# Poissons Ratio (y) = -0.44426 0.39844
# Poissons Ratio (z) = 0.22406 0.25239
#
# Static dielectric constant tensor:
#      x y z
#    x 1.741240 0.000000 0.000000 
#    y 0.000000 1.732900 0.000000 
#    z 0.000000 0.000000 1.768980 
# 
# From -- ./inp_files/21295.got.cif
#   From: 2010.05.17/outbox.cif.g08.bks.cpg/sg58_11_cif.got.tgz:21295.got - 2010.06.03 14:20:14.
