data_PCOD9444379
_publ_section_title
;
Structure prediction by ZEFSAII (Michael W. Deem and Ramdas Pophale) SiO2 
 PCOD9444379
Probable space group: P N N M
;
_chemical_formula_sum "Si O2"
_cell_formula_units_Z 56
_cell_length_a 14.779133
_cell_length_b 21.505130
_cell_length_c 8.966044
_cell_angle_alpha 90.000000
_cell_angle_beta 90.000000
_cell_angle_gamma 90.000000
_cell_volume 2849.652448
_symmetry_space_group_name_H-M "P N N M"
_symmetry_group_IT_number 58
_symmetry_cell_setting 'orthorhombic'
loop_
_space_group_symop_operation_xyz
x,y,z
-x,-y,z
1/2+x,1/2-y,1/2-z
1/2-x,1/2+y,1/2-z
-x,-y,-z
x,y,-z
1/2-x,1/2+y,1/2+z
1/2+x,1/2-y,1/2+z
loop_
_atom_site_type_symbol
_atom_site_label
_atom_site_fract_x
_atom_site_fract_y
_atom_site_fract_z
Si Si1 0.388002 0.619875 0.822085
Si Si2 0.095436 0.532175 0.179310
Si Si3 0.069136 0.674397 0.821050
Si Si4 0.594425 0.590496 0.177215
Si Si5 0.280389 0.513296 0.322978
Si Si6 0.892950 0.734743 0.320891
Si Si7 0.810845 0.208288 0.820767
O O1 0.486974 0.590581 0.794673
O O2 0.313926 0.580202 0.735950
O O3 0.392257 0.692263 0.779217
O O4 0.369055 0.616723 0.000000
O O5 0.090757 0.604388 0.226660
O O6 0.180972 0.500864 0.257513
O O7 0.000000 0.500000 0.214239
O O8 0.108209 0.529497 0.000000
O O9 0.147210 0.724224 0.784892
O O10 0.975841 0.699298 0.753261
O O11 0.060327 0.673252 0.000000
O O12 0.648559 0.536463 0.259496
O O13 0.633925 0.655772 0.234995
O O14 0.607573 0.584520 0.000000
O O15 0.279096 0.511168 0.500000
O O16 0.903318 0.732274 0.500000
O O17 0.795044 0.706845 0.282613
O O18 0.819752 0.199085 0.000000
#
# Coordination Sequence:
#
# PCOD9444379 Si02
#       7
#     8   8   8   8   8   8   8
#     4  10  21  41  65  91 124 165 209 250 305 371
#     4  10  23  44  67  91 124 167 214 256 302 366
#     4  10  21  39  63  91 124 162 204 254 305 360
#     4  11  23  40  64  90 121 162 209 256 307 374
#     4  12  26  41  62  92 126 163 204 258 315 367
#     4  10  21  38  62  91 124 162 202 251 305 364
#     4  10  21  37  59  89 127 163 200 255 316 362
#
# _framework density 19.651520000000001
#
# number of rings (size 3 to 8) (size 9 to 14) (size 15 to 20)
#    0.000    1.571    1.429    3.000    2.000    7.143 
#    0.000    1.429    0.000    0.000    0.000    0.000 
#    0.000    0.000    0.000    0.000    0.000    0.000 
#
# Total GULP energy -313152.581215 kJ/mol
# GULP energy per Si atom -5592.010379 kJ/mol
# Density = 1.960679 g / cm^3
# Si number density = 19.651520 Si / 1000 Ang^3
#
#
#
# Elastic Constant Matrix: (Units=GPa)
#
#
# Indices 1 2 3 4 5 6 
#
# 1 86.2330 -1.3112 40.9574 0.0000 0.0000 0.0000
# 2 -1.3112 50.2367 14.7970 0.0000 0.0000 0.0000
# 3 40.9574 14.7970 36.2054 0.0000 0.0000 0.0000
# 4 0.0000 0.0000 0.0000 28.5424 0.0000 0.0000
# 5 0.0000 0.0000 0.0000 0.0000 28.6868 0.0000
# 6 0.0000 0.0000 0.0000 0.0000 0.0000 25.5856
#
#
#
# Elastic Compliance Matrix: (Units=1/GPa)
#
#
# Indices 1 2 3 4 5 6 
#
# 1 0.030744 0.012558 -0.039912 0.000000 0.000000 0.000000
# 2 0.012558 0.027760 -0.025552 0.000000 0.000000 0.000000
# 3 -0.039912 -0.025552 0.083213 0.000000 0.000000 0.000000
# 4 0.000000 0.000000 0.000000 0.035036 0.000000 0.000000
# 5 0.000000 0.000000 0.000000 0.000000 0.034859 0.000000
# 6 0.000000 0.000000 0.000000 0.000000 0.000000 0.039084
#
#
# Mechanical properties :
#
#
# Convention : Reuss Voigt Hill
#
# Bulk Modulus (GPa) = 27.85013 31.28460 29.56737
# Shear Modulus (GPa) = 13.56943 24.44509 19.00726
#
# Velocity S-wave (km/s) = 2.63059 3.53076 3.11338
# Velocity P-wave (km/s) = 4.84040 5.70754 5.29176
#
# Compressibility (1/GPa) = 0.03590647
#
# Stress axis : x y z
#
# Youngs Moduli (GPa) = 32.52674 36.02341 12.01732
#
# Poissons Ratio (x) = -0.45239 0.47963
# Poissons Ratio (y) = -0.40848 0.30706
# Poissons Ratio (z) = 1.29819 0.92046
#
# Static dielectric constant tensor:
#      x y z
#    x 1.669950 0.000000 0.000000 
#    y 0.000000 1.689250 0.000000 
#    z 0.000000 0.000000 1.652180 
# 
# From -- ./inp_files/6441.got.cif
#   From: 2010.05.17/outbox.cif.g08.bks.cpg/sg58_4_cif.got.tgz:6441.got - 2010.06.03 14:20:14.
