data_PCOD9444065
_publ_section_title
;
Structure prediction by ZEFSAII (Michael W. Deem and Ramdas Pophale) SiO2 
 PCOD9444065
Probable space group: P N N M
;
_chemical_formula_sum "Si O2"
_cell_formula_units_Z 56
_cell_length_a 14.565759
_cell_length_b 12.172897
_cell_length_c 16.009487
_cell_angle_alpha 90.000000
_cell_angle_beta 90.000000
_cell_angle_gamma 90.000000
_cell_volume 2838.601861
_symmetry_space_group_name_H-M "P N N M"
_symmetry_group_IT_number 58
_symmetry_cell_setting 'orthorhombic'
loop_
_space_group_symop_operation_xyz
x,y,z
-x,-y,z
1/2+x,1/2-y,1/2-z
1/2-x,1/2+y,1/2-z
-x,-y,-z
x,y,-z
1/2-x,1/2+y,1/2+z
1/2+x,1/2-y,1/2+z
loop_
_atom_site_type_symbol
_atom_site_label
_atom_site_fract_x
_atom_site_fract_y
_atom_site_fract_z
Si Si1 0.401779 0.482241 0.596203
Si Si2 0.322562 0.333877 0.828677
Si Si3 0.288170 0.558947 0.901154
Si Si4 0.202512 0.781369 0.135128
Si Si5 0.217442 0.597811 0.399367
Si Si6 0.607749 0.099495 0.095918
Si Si7 0.020561 0.182328 0.601870
O O1 0.500000 0.500000 0.637990
O O2 0.408118 0.520625 0.500000
O O3 0.378735 0.353217 0.596627
O O4 0.314199 0.547467 0.632830
O O5 0.271748 0.445492 0.853981
O O6 0.304917 0.305167 0.732983
O O7 0.293678 0.224421 0.878235
O O8 0.428643 0.355607 0.853173
O O9 0.213660 0.653225 0.882341
O O10 0.388251 0.611550 0.879438
O O11 0.290173 0.537314 0.000000
O O12 0.294581 0.836919 0.097917
O O13 0.216560 0.584678 0.500000
O O14 0.134199 0.519188 0.367587
O O15 0.539516 0.191578 0.130282
O O16 0.579286 0.083727 0.000000
O O17 0.008616 0.179976 0.500000
#
# Coordination Sequence:
#
# PCOD9444065 Si02
#       7
#     8   8   8   8   8   8   8
#     4   9  18  36  62  82  99 133 186 241 278 321
#     4  12  23  31  52  86 120 145 180 233 289 329
#     4  10  21  39  60  79 112 161 196 223 272 349
#     4  10  21  34  53  80 113 145 187 225 281 334
#     4   9  18  33  54  81 109 139 180 224 277 335
#     4   8  16  35  60  76 103 149 188 228 270 334
#     4   9  18  35  57  84 112 147 189 224 271 343
#
# _framework density 19.728021999999999
#
# number of rings (size 3 to 8) (size 9 to 14) (size 15 to 20)
#    0.000    2.429    0.000    4.714    4.000    2.857 
#    2.571    2.143    0.000    0.857    0.000    4.000 
#    0.000    0.000    0.000    0.000    0.000    0.000 
#
# Total GULP energy -312163.660401 kJ/mol
# GULP energy per Si atom -5574.351079 kJ/mol
# Density = 1.968312 g / cm^3
# Si number density = 19.728022 Si / 1000 Ang^3
#
#
#
# Elastic Constant Matrix: (Units=GPa)
#
#
# Indices 1 2 3 4 5 6 
#
# 1 29.3677 19.6385 -0.6254 0.0000 0.0000 0.0000
# 2 19.6385 118.3436 1.2391 0.0000 0.0000 0.0000
# 3 -0.6254 1.2391 36.4963 0.0000 0.0000 0.0000
# 4 0.0000 0.0000 0.0000 21.2681 0.0000 0.0000
# 5 0.0000 0.0000 0.0000 0.0000 -8.6936 0.0000
# 6 0.0000 0.0000 0.0000 0.0000 0.0000 18.3376
#
#
#
# Elastic Compliance Matrix: (Units=1/GPa)
#
#
# Indices 1 2 3 4 5 6 
#
# 1 0.038329 -0.006370 0.000873 0.000000 0.000000 0.000000
# 2 -0.006370 0.009511 -0.000432 0.000000 0.000000 0.000000
# 3 0.000873 -0.000432 0.027430 0.000000 0.000000 0.000000
# 4 0.000000 0.000000 0.000000 0.047019 0.000000 0.000000
# 5 0.000000 0.000000 0.000000 0.000000 -0.115027 0.000000
# 6 0.000000 0.000000 0.000000 0.000000 0.000000 0.054533
#
#
# Mechanical properties :
#
#
# Convention : Reuss Voigt Hill
#
# Bulk Modulus (GPa) = 15.76967 24.96799 20.36883
# Shear Modulus (GPa) = 52.74813 17.11276 34.93045
#
# Velocity S-wave (km/s) = 5.17646 2.94842 4.21242
# Velocity P-wave (km/s) = 6.61351 4.92691 5.83151
#
# Compressibility (1/GPa) = 0.06341286
#
# Stress axis : x y z
#
# Youngs Moduli (GPa) = 26.08991 105.13593 36.45684
#
# Poissons Ratio (x) = 0.66968 -0.03183
# Poissons Ratio (y) = 0.16618 0.01575
# Poissons Ratio (z) = -0.02278 0.04543
#
# Static dielectric constant tensor:
#      x y z
#    x 1.730360 0.000000 0.000000 
#    y 0.000000 1.741880 0.000000 
#    z 0.000000 0.000000 1.673750 
# 
# From -- ./inp_files/22191.got.cif
#   From: 2010.05.17/outbox.cif.g08.bks.cpg/sg58_12_cif.got.tgz:22191.got - 2010.06.03 14:20:14.
