data_PCOD9444404
_publ_section_title
;
Structure prediction by ZEFSAII (Michael W. Deem and Ramdas Pophale) SiO2 
 PCOD9444404
Probable space group: P N N M
;
_chemical_formula_sum "Si O2"
_cell_formula_units_Z 48
_cell_length_a 7.418380
_cell_length_b 8.086667
_cell_length_c 32.684302
_cell_angle_alpha 90.000000
_cell_angle_beta 90.000000
_cell_angle_gamma 90.000000
_cell_volume 1960.730255
_symmetry_space_group_name_H-M "P N N M"
_symmetry_group_IT_number 58
_symmetry_cell_setting 'orthorhombic'
loop_
_space_group_symop_operation_xyz
x,y,z
-x,-y,z
1/2+x,1/2-y,1/2-z
1/2-x,1/2+y,1/2-z
-x,-y,-z
x,y,-z
1/2-x,1/2+y,1/2+z
1/2+x,1/2-y,1/2+z
loop_
_atom_site_type_symbol
_atom_site_label
_atom_site_fract_x
_atom_site_fract_y
_atom_site_fract_z
Si Si1 0.131356 0.840045 0.838349
Si Si2 0.283187 0.029313 0.954364
Si Si3 0.283608 0.521129 0.264907
Si Si4 0.721506 0.303724 0.920628
Si Si5 0.789399 0.651810 0.186491
Si Si6 0.695324 0.660592 0.905789
O O1 0.259318 0.887718 0.800335
O O2 0.241521 0.778378 0.876642
O O3 0.988871 0.699113 0.827670
O O4 0.000000 0.000000 0.846309
O O5 0.221603 0.165333 0.921020
O O6 0.500000 0.000000 0.949710
O O7 0.209166 0.842423 0.949796
O O8 0.249396 0.092943 0.000000
O O9 0.500000 0.500000 0.261731
O O10 0.216701 0.492321 0.219562
O O11 0.228202 0.693282 0.285190
O O12 0.788690 0.492687 0.921835
O O13 0.506189 0.327476 0.923644
O O14 0.685577 0.641474 0.143520
#
# Coordination Sequence:
#
# PCOD9444404 Si02
#       6
#     8   8   8   8   8   8
#     4   9  20  39  58  82 117 156 203 250 298 357
#     4   9  18  36  61  92 123 152 192 242 300 363
#     4   9  21  37  53  80 113 148 202 251 292 339
#     4  10  21  37  61  86 121 157 195 245 303 352
#     4  10  21  38  57  81 114 158 199 246 298 342
#     4  10  22  36  59  90 118 157 198 246 298 358
#
# _framework density 24.480675000000002
#
# number of rings (size 3 to 8) (size 9 to 14) (size 15 to 20)
#    0.000    2.833    0.000    2.000    4.667    2.667 
#    3.000   10.000    0.000    4.500    0.000    5.833 
#    0.000    0.000    0.000    0.000    0.000    0.000 
#
# Total GULP energy -267912.506266 kJ/mol
# GULP energy per Si atom -5581.510547 kJ/mol
# Density = 2.442496 g / cm^3
# Si number density = 24.480675 Si / 1000 Ang^3
#
#
#
# Elastic Constant Matrix: (Units=GPa)
#
#
# Indices 1 2 3 4 5 6 
#
# 1 39.9212 5.9611 -15.8475 0.0000 0.0000 0.0000
# 2 5.9611 159.3019 43.3006 0.0000 0.0000 0.0000
# 3 -15.8475 43.3006 91.5306 0.0000 0.0000 0.0000
# 4 0.0000 0.0000 0.0000 34.3325 0.0000 0.0000
# 5 0.0000 0.0000 0.0000 0.0000 18.1693 0.0000
# 6 0.0000 0.0000 0.0000 0.0000 0.0000 10.0459
#
#
#
# Elastic Compliance Matrix: (Units=1/GPa)
#
#
# Indices 1 2 3 4 5 6 
#
# 1 0.027876 -0.002703 0.006105 0.000000 0.000000 0.000000
# 2 -0.002703 0.007466 -0.004000 0.000000 0.000000 0.000000
# 3 0.006105 -0.004000 0.013874 0.000000 0.000000 0.000000
# 4 0.000000 0.000000 0.000000 0.029127 0.000000 0.000000
# 5 0.000000 0.000000 0.000000 0.000000 0.055038 0.000000
# 6 0.000000 0.000000 0.000000 0.000000 0.000000 0.099543
#
#
# Mechanical properties :
#
#
# Convention : Reuss Voigt Hill
#
# Bulk Modulus (GPa) = 20.82380 39.73134 30.27757
# Shear Modulus (GPa) = 19.98986 29.66549 24.82768
#
# Velocity S-wave (km/s) = 2.86065 3.48486 3.18807
# Velocity P-wave (km/s) = 4.40860 5.69712 5.09377
#
# Compressibility (1/GPa) = 0.04802197
#
# Stress axis : x y z
#
# Youngs Moduli (GPa) = 35.87265 133.94578 72.07473
#
# Poissons Ratio (x) = 0.36200 -0.44002
# Poissons Ratio (y) = 0.09695 0.28828
# Poissons Ratio (z) = -0.21900 0.53575
#
# Static dielectric constant tensor:
#      x y z
#    x 1.946670 0.000000 0.000000 
#    y 0.000000 2.558240 0.000000 
#    z 0.000000 0.000000 1.940830 
# 
# From -- ./inp_files/34586.got.cif
#   From: 2010.05.17/outbox.cif.g08.bks.cpg/sg58_18_cif.got.tgz:34586.got - 2010.06.03 14:20:14.
