data_PCOD9444114
_publ_section_title
;
Structure prediction by ZEFSAII (Michael W. Deem and Ramdas Pophale) SiO2 
 PCOD9444114
Probable space group: P N N M
;
_chemical_formula_sum "Si O2"
_cell_formula_units_Z 48
_cell_length_a 9.197229
_cell_length_b 11.211016
_cell_length_c 20.423978
_cell_angle_alpha 90.000000
_cell_angle_beta 90.000000
_cell_angle_gamma 90.000000
_cell_volume 2105.922120
_symmetry_space_group_name_H-M "P N N M"
_symmetry_group_IT_number 58
_symmetry_cell_setting 'orthorhombic'
loop_
_space_group_symop_operation_xyz
x,y,z
-x,-y,z
1/2+x,1/2-y,1/2-z
1/2-x,1/2+y,1/2-z
-x,-y,-z
x,y,-z
1/2-x,1/2+y,1/2+z
1/2+x,1/2-y,1/2+z
loop_
_atom_site_type_symbol
_atom_site_label
_atom_site_fract_x
_atom_site_fract_y
_atom_site_fract_z
Si Si1 0.113403 0.154406 0.743656
Si Si2 0.900758 0.618200 0.077647
Si Si3 0.437547 0.121669 0.252105
Si Si4 0.067413 0.880797 0.612324
Si Si5 0.912578 0.885860 0.107143
Si Si6 0.916487 0.381731 0.405574
O O1 0.279297 0.150625 0.719807
O O2 0.103885 0.091826 0.814144
O O3 0.065070 0.286007 0.762629
O O4 0.001259 0.122624 0.685851
O O5 0.742525 0.610654 0.112634
O O6 0.968277 0.749717 0.095043
O O7 0.000000 0.500000 0.087367
O O8 0.869348 0.621802 0.000000
O O9 0.419140 0.114713 0.173730
O O10 0.500000 0.000000 0.277127
O O11 0.028451 0.752635 0.579901
O O12 0.000000 0.000000 0.581362
O O13 0.752000 0.887481 0.076735
O O14 0.000000 0.000000 0.081779
O O15 0.000000 0.500000 0.427943
#
# Coordination Sequence:
#
# PCOD9444114 Si02
#       6
#     8   8   8   8   8   8
#     4  10  21  35  55  91 132 168 209 256 323 401
#     4  10  24  47  69  91 122 165 222 278 324 378
#     4   9  19  33  51  77 122 175 214 251 301 373
#     4  10  21  37  61  91 125 167 212 262 323 388
#     4  10  21  36  60  91 125 160 199 255 319 383
#     4   8  17  34  52  78 118 161 201 244 297 365
#
# _framework density 22.792864999999999
#
# number of rings (size 3 to 8) (size 9 to 14) (size 15 to 20)
#    0.000    2.500    0.000    1.500    0.000   14.667 
#    0.000    3.333    0.000    8.000    0.000    0.000 
#    0.000    0.000    0.000    0.000    0.000    0.000 
#
# Total GULP energy -267643.936754 kJ/mol
# GULP energy per Si atom -5575.915349 kJ/mol
# Density = 2.274099 g / cm^3
# Si number density = 22.792865 Si / 1000 Ang^3
#
#
#
# Elastic Constant Matrix: (Units=GPa)
#
#
# Indices 1 2 3 4 5 6 
#
# 1 124.6942 99.0844 31.6210 0.0000 0.0000 0.0000
# 2 99.0844 242.9051 0.6294 0.0000 0.0000 0.0000
# 3 31.6210 0.6294 105.3127 0.0000 0.0000 0.0000
# 4 0.0000 0.0000 0.0000 11.8643 0.0000 0.0000
# 5 0.0000 0.0000 0.0000 0.0000 -2.4636 0.0000
# 6 0.0000 0.0000 0.0000 0.0000 0.0000 41.5734
#
#
#
# Elastic Compliance Matrix: (Units=1/GPa)
#
#
# Indices 1 2 3 4 5 6 
#
# 1 0.013345 -0.005433 -0.003974 0.000000 0.000000 0.000000
# 2 -0.005433 0.006329 0.001594 0.000000 0.000000 0.000000
# 3 -0.003974 0.001594 0.010679 0.000000 0.000000 0.000000
# 4 0.000000 0.000000 0.000000 0.084286 0.000000 0.000000
# 5 0.000000 0.000000 0.000000 0.000000 -0.405911 0.000000
# 6 0.000000 0.000000 0.000000 0.000000 0.000000 0.024054
#
#
# Mechanical properties :
#
#
# Convention : Reuss Voigt Hill
#
# Bulk Modulus (GPa) = 67.91186 81.73126 74.82156
# Shear Modulus (GPa) = -20.26912 32.96665 6.34876
#
# Velocity S-wave (km/s) = -2.98531 3.80723 1.67077
# Velocity P-wave (km/s) = 4.23995 7.43389 6.05144
#
# Compressibility (1/GPa) = 0.01472497
#
# Stress axis : x y z
#
# Youngs Moduli (GPa) = 74.93531 158.00274 93.63853
#
# Poissons Ratio (x) = 0.85847 0.37216
# Poissons Ratio (y) = 0.40714 -0.14922
# Poissons Ratio (z) = 0.29782 -0.25179
#
# Static dielectric constant tensor:
#      x y z
#    x 1.785860 0.000000 0.000000 
#    y 0.000000 1.856830 0.000000 
#    z 0.000000 0.000000 1.906270 
# 
# From -- ./inp_files/31446.got.cif
#   From: 2010.05.17/outbox.cif.g08.bks.cpg/sg58_16_cif.got.tgz:31446.got - 2010.06.03 14:20:14.
