data_PCOD9444186
_publ_section_title
;
Structure prediction by ZEFSAII (Michael W. Deem and Ramdas Pophale) SiO2 
 PCOD9444186
Probable space group: P N N M
;
_chemical_formula_sum "Si O2"
_cell_formula_units_Z 64
_cell_length_a 9.242079
_cell_length_b 21.957748
_cell_length_c 15.889911
_cell_angle_alpha 90.000000
_cell_angle_beta 90.000000
_cell_angle_gamma 90.000000
_cell_volume 3224.622929
_symmetry_space_group_name_H-M "P N N M"
_symmetry_group_IT_number 58
_symmetry_cell_setting 'orthorhombic'
loop_
_space_group_symop_operation_xyz
x,y,z
-x,-y,z
1/2+x,1/2-y,1/2-z
1/2-x,1/2+y,1/2-z
-x,-y,-z
x,y,-z
1/2-x,1/2+y,1/2+z
1/2+x,1/2-y,1/2+z
loop_
_atom_site_type_symbol
_atom_site_label
_atom_site_fract_x
_atom_site_fract_y
_atom_site_fract_z
Si Si1 0.558235 0.707239 0.593308
Si Si2 0.057207 0.190851 0.725810
Si Si3 0.671842 0.501818 0.907317
Si Si4 0.954041 0.659794 0.091171
Si Si5 0.534155 0.070206 0.165641
Si Si6 0.233475 0.886422 0.296704
Si Si7 0.899209 0.698680 0.597180
Si Si8 0.688015 0.898139 0.689617
O O1 0.518681 0.682050 0.500000
O O2 0.455364 0.694931 0.672675
O O3 0.547434 0.779511 0.586901
O O4 0.725555 0.691855 0.611081
O O5 0.921951 0.144986 0.710574
O O6 0.044780 0.252277 0.667553
O O7 0.209432 0.159953 0.702028
O O8 0.500000 0.500000 0.912867
O O9 0.725175 0.565742 0.872461
O O10 0.712743 0.452819 0.838350
O O11 0.731137 0.488737 0.000000
O O12 0.068907 0.609114 0.116568
O O13 0.843588 0.664317 0.168437
O O14 0.884800 0.651457 0.000000
O O15 0.685153 0.078976 0.219507
O O16 0.539005 0.129835 0.105672
O O17 0.403842 0.085294 0.229086
O O18 0.500000 0.000000 0.136574
O O19 0.920944 0.720324 0.500000
#
# Coordination Sequence:
#
# PCOD9444186 Si02
#       8
#     8   8   8   8   8   8   8   8
#     4  10  22  41  64  93 128 167 209 261 329 396
#     4  12  23  40  67  95 133 168 212 272 329 391
#     4  11  22  35  54  89 129 169 218 264 318 394
#     4  10  21  36  55  84 124 164 203 254 316 380
#     4  11  23  42  66  90 126 168 225 270 321 384
#     4  11  22  38  60  92 125 171 218 264 322 386
#     4  11  25  42  67 100 131 172 221 269 332 394
#     4  11  22  37  60  88 124 169 211 259 328 391
#
# _framework density 19.847280999999999
#
# number of rings (size 3 to 8) (size 9 to 14) (size 15 to 20)
#    0.000    1.125    5.000    2.250    0.000    1.750 
#    0.000    3.750    0.000    0.000    0.000    2.625 
#    0.000    0.000    0.000    0.000    0.000    0.000 
#
# Total GULP energy -356293.392552 kJ/mol
# GULP energy per Si atom -5567.084259 kJ/mol
# Density = 1.980211 g / cm^3
# Si number density = 19.847281 Si / 1000 Ang^3
#
#
#
# Elastic Constant Matrix: (Units=GPa)
#
#
# Indices 1 2 3 4 5 6 
#
# 1 39.7030 7.0418 11.7674 0.0000 0.0000 0.0000
# 2 7.0418 79.5162 25.1054 0.0000 0.0000 0.0000
# 3 11.7674 25.1054 92.0405 0.0000 0.0000 0.0000
# 4 0.0000 0.0000 0.0000 25.3024 0.0000 0.0000
# 5 0.0000 0.0000 0.0000 0.0000 22.8119 0.0000
# 6 0.0000 0.0000 0.0000 0.0000 0.0000 28.5097
#
#
#
# Elastic Compliance Matrix: (Units=1/GPa)
#
#
# Indices 1 2 3 4 5 6 
#
# 1 0.026318 -0.001388 -0.002986 0.000000 0.000000 0.000000
# 2 -0.001388 0.013834 -0.003596 0.000000 0.000000 0.000000
# 3 -0.002986 -0.003596 0.012227 0.000000 0.000000 0.000000
# 4 0.000000 0.000000 0.000000 0.039522 0.000000 0.000000
# 5 0.000000 0.000000 0.000000 0.000000 0.043837 0.000000
# 6 0.000000 0.000000 0.000000 0.000000 0.000000 0.035076
#
#
# Mechanical properties :
#
#
# Convention : Reuss Voigt Hill
#
# Bulk Modulus (GPa) = 27.44260 33.23210 30.33735
# Shear Modulus (GPa) = 25.13808 26.48114 25.80961
#
# Velocity S-wave (km/s) = 3.56276 3.65669 3.61003
# Velocity P-wave (km/s) = 5.54808 5.88293 5.71796
#
# Compressibility (1/GPa) = 0.03643969
#
# Stress axis : x y z
#
# Youngs Moduli (GPa) = 37.99649 72.28390 81.78318
#
# Poissons Ratio (x) = 0.10032 0.24422
# Poissons Ratio (y) = 0.05273 0.29410
# Poissons Ratio (z) = 0.11347 0.25994
#
# Static dielectric constant tensor:
#      x y z
#    x 1.718690 0.000000 0.000000 
#    y 0.000000 1.750950 0.000000 
#    z 0.000000 0.000000 1.754790 
# 
# From -- ./inp_files/20293.got.cif
#   From: 2010.05.17/outbox.cif.g08.bks.cpg/sg58_11_cif.got.tgz:20293.got - 2010.06.03 14:20:14.
