data_PCOD9444082
_publ_section_title
;
Structure prediction by ZEFSAII (Michael W. Deem and Ramdas Pophale) SiO2 
 PCOD9444082
Probable space group: P N N M
;
_chemical_formula_sum "Si O2"
_cell_formula_units_Z 64
_cell_length_a 34.761432
_cell_length_b 12.255290
_cell_length_c 7.826882
_cell_angle_alpha 90.000000
_cell_angle_beta 90.000000
_cell_angle_gamma 90.000000
_cell_volume 3334.341193
_symmetry_space_group_name_H-M "P N N M"
_symmetry_group_IT_number 58
_symmetry_cell_setting 'orthorhombic'
loop_
_space_group_symop_operation_xyz
x,y,z
-x,-y,z
1/2+x,1/2-y,1/2-z
1/2-x,1/2+y,1/2-z
-x,-y,-z
x,y,-z
1/2-x,1/2+y,1/2+z
1/2+x,1/2-y,1/2+z
loop_
_atom_site_type_symbol
_atom_site_label
_atom_site_fract_x
_atom_site_fract_y
_atom_site_fract_z
Si Si1 0.664413 0.052894 0.207987
Si Si2 0.450448 0.105703 0.293785
Si Si3 0.181243 0.119899 0.800355
Si Si4 0.366372 0.177894 0.203405
Si Si5 0.535085 0.144459 0.290842
Si Si6 0.736673 0.194019 0.801329
Si Si7 0.890173 0.749802 0.200392
Si Si8 0.817839 0.125812 0.696324
O O1 0.705617 0.103125 0.257225
O O2 0.632314 0.135135 0.279371
O O3 0.655425 0.930778 0.267377
O O4 0.662249 0.057084 0.000000
O O5 0.449784 0.105951 0.500000
O O6 0.411529 0.161161 0.232533
O O7 0.490824 0.159628 0.238429
O O8 0.452650 0.978534 0.239702
O O9 0.215076 0.190429 0.716251
O O10 0.140084 0.162203 0.728761
O O11 0.185240 0.991330 0.783404
O O12 0.182517 0.150284 0.000000
O O13 0.348642 0.289697 0.273084
O O14 0.359377 0.180572 0.000000
O O15 0.535656 0.145493 0.500000
O O16 0.567240 0.229042 0.227997
O O17 0.776535 0.184638 0.704244
O O18 0.745026 0.173750 0.000000
O O19 0.895105 0.774965 0.000000
O O20 0.828001 0.102792 0.500000
#
# Coordination Sequence:
#
# PCOD9444082 Si02
#       8
#     8   8   8   8   8   8   8   8
#     4   9  18  32  50  74 104 133 163 206 259 310
#     4   9  16  28  49  75 107 139 170 208 255 317
#     4  10  21  37  56  78 105 136 177 223 261 312
#     4  10  21  35  50  73 107 142 171 212 264 310
#     4   8  14  26  47  78 108 134 165 209 261 307
#     4  10  21  37  58  81 104 133 171 218 268 320
#     4   9  16  30  53  77 102 134 169 209 257 308
#     4  11  24  39  55  75 104 143 181 221 268 312
#
# _framework density 19.194198
#
# number of rings (size 3 to 8) (size 9 to 14) (size 15 to 20)
#    0.000    2.500    1.250    1.875    1.750    2.000 
#    0.000    1.875    0.000    0.750    0.000    5.250 
#    0.000    0.000    0.000    0.000    0.000    0.000 
#
# Total GULP energy -356931.316782 kJ/mol
# GULP energy per Si atom -5577.051825 kJ/mol
# Density = 1.915051 g / cm^3
# Si number density = 19.194198 Si / 1000 Ang^3
#
#
#
# Elastic Constant Matrix: (Units=GPa)
#
#
# Indices 1 2 3 4 5 6 
#
# 1 112.4129 50.4924 -5.4871 0.0000 0.0000 0.0000
# 2 50.4924 92.9482 -1.8806 0.0000 0.0000 0.0000
# 3 -5.4871 -1.8806 22.7899 0.0000 0.0000 0.0000
# 4 0.0000 0.0000 0.0000 13.9099 0.0000 0.0000
# 5 0.0000 0.0000 0.0000 0.0000 18.9004 0.0000
# 6 0.0000 0.0000 0.0000 0.0000 0.0000 20.8120
#
#
#
# Elastic Compliance Matrix: (Units=1/GPa)
#
#
# Indices 1 2 3 4 5 6 
#
# 1 0.011890 -0.006412 0.002334 0.000000 0.000000 0.000000
# 2 -0.006412 0.014234 -0.000369 0.000000 0.000000 0.000000
# 3 0.002334 -0.000369 0.044410 0.000000 0.000000 0.000000
# 4 0.000000 0.000000 0.000000 0.071891 0.000000 0.000000
# 5 0.000000 0.000000 0.000000 0.000000 0.052909 0.000000
# 6 0.000000 0.000000 0.000000 0.000000 0.000000 0.048049
#
#
# Mechanical properties :
#
#
# Convention : Reuss Voigt Hill
#
# Bulk Modulus (GPa) = 16.22326 34.93339 25.57833
# Shear Modulus (GPa) = 18.32681 23.05955 20.69318
#
# Velocity S-wave (km/s) = 3.09335 3.46986 3.28700
# Velocity P-wave (km/s) = 4.60749 5.85600 5.26885
#
# Compressibility (1/GPa) = 0.06163988
#
# Stress axis : x y z
#
# Youngs Moduli (GPa) = 84.10741 70.25339 22.51724
#
# Poissons Ratio (x) = 0.45043 -0.05255
# Poissons Ratio (y) = 0.53926 0.00831
# Poissons Ratio (z) = -0.19627 0.02593
#
# Static dielectric constant tensor:
#      x y z
#    x 1.687710 0.000000 0.000000 
#    y 0.000000 1.651610 0.000000 
#    z 0.000000 0.000000 1.693490 
# 
# From -- ./inp_files/11022.got.cif
#   From: 2010.05.17/outbox.cif.g08.bks.cpg/sg58_6_cif.got.tgz:11022.got - 2010.06.03 14:20:14.
