data_PCOD9444964
_publ_section_title
;
Structure prediction by ZEFSAII (Michael W. Deem and Ramdas Pophale) SiO2 
 PCOD9444964
Probable space group: P N N M
;
_chemical_formula_sum "Si O2"
_cell_formula_units_Z 48
_cell_length_a 17.214400
_cell_length_b 17.114065
_cell_length_c 8.903368
_cell_angle_alpha 90.000000
_cell_angle_beta 90.000000
_cell_angle_gamma 90.000000
_cell_volume 2623.006650
_symmetry_space_group_name_H-M "P N N M"
_symmetry_group_IT_number 58
_symmetry_cell_setting 'orthorhombic'
loop_
_space_group_symop_operation_xyz
x,y,z
-x,-y,z
1/2+x,1/2-y,1/2-z
1/2-x,1/2+y,1/2-z
-x,-y,-z
x,y,-z
1/2-x,1/2+y,1/2+z
1/2+x,1/2-y,1/2+z
loop_
_atom_site_type_symbol
_atom_site_label
_atom_site_fract_x
_atom_site_fract_y
_atom_site_fract_z
Si Si1 0.321427 0.858398 0.678947
Si Si2 0.004314 0.908614 0.819652
Si Si3 0.146326 0.815792 0.320677
Si Si4 0.591145 0.996422 0.820763
Si Si5 0.680300 0.850516 0.679072
Si Si6 0.844724 0.821715 0.820096
O O1 0.330358 0.871585 0.500000
O O2 0.229402 0.856101 0.713835
O O3 0.366551 0.924770 0.767349
O O4 0.351245 0.770761 0.712986
O O5 0.075446 0.866816 0.738239
O O6 0.923222 0.866711 0.781173
O O7 0.015018 0.901643 0.000000
O O8 0.000000 0.000000 0.782043
O O9 0.142821 0.805412 0.500000
O O10 0.147238 0.730914 0.243727
O O11 0.500000 0.000000 0.781751
O O12 0.632064 0.923061 0.742303
O O13 0.598064 0.988129 0.000000
O O14 0.677990 0.849625 0.500000
O O15 0.769223 0.854283 0.736407
O O16 0.831422 0.828611 0.000000
#
# Coordination Sequence:
#
# PCOD9444964 Si02
#       6
#     8   8   8   8   8   8
#     4   9  20  39  61  86 118 158 199 244 299 353
#     4  10  22  38  60  93 126 161 202 244 297 356
#     4  10  22  41  63  89 123 159 199 248 302 353
#     4  11  25  41  60  89 122 156 198 248 303 356
#     4  11  23  40  64  90 118 158 204 245 301 361
#     4   9  20  40  62  88 123 159 198 248 300 352
#
# _framework density 18.299610999999999
#
# number of rings (size 3 to 8) (size 9 to 14) (size 15 to 20)
#    0.000    2.000    0.000    3.500    4.667    5.667 
#    0.000    0.000    0.000    0.000    0.000    0.000 
#    0.000    0.000    0.000    0.000    0.000    0.000 
#
# Total GULP energy -268220.364653 kJ/mol
# GULP energy per Si atom -5587.924264 kJ/mol
# Density = 1.825796 g / cm^3
# Si number density = 18.299611 Si / 1000 Ang^3
#
#
#
# Elastic Constant Matrix: (Units=GPa)
#
#
# Indices 1 2 3 4 5 6 
#
# 1 167.6854 136.0611 90.8987 0.0000 0.0000 0.0000
# 2 136.0611 143.9068 83.0794 0.0000 0.0000 0.0000
# 3 90.8987 83.0794 82.2465 0.0000 0.0000 0.0000
# 4 0.0000 0.0000 0.0000 30.1600 0.0000 0.0000
# 5 0.0000 0.0000 0.0000 0.0000 31.7925 0.0000
# 6 0.0000 0.0000 0.0000 0.0000 0.0000 26.4891
#
#
#
# Elastic Compliance Matrix: (Units=1/GPa)
#
#
# Indices 1 2 3 4 5 6 
#
# 1 0.028907 -0.021320 -0.010412 0.000000 0.000000 0.000000
# 2 -0.021320 0.032395 -0.009160 0.000000 0.000000 0.000000
# 3 -0.010412 -0.009160 0.032919 0.000000 0.000000 0.000000
# 4 0.000000 0.000000 0.000000 0.033157 0.000000 0.000000
# 5 0.000000 0.000000 0.000000 0.000000 0.031454 0.000000
# 6 0.000000 0.000000 0.000000 0.000000 0.000000 0.037751
#
#
# Mechanical properties :
#
#
# Convention : Reuss Voigt Hill
#
# Bulk Modulus (GPa) = 80.40938 112.65747 96.53343
# Shear Modulus (GPa) = 17.69846 23.27496 20.48671
#
# Velocity S-wave (km/s) = 3.11328 3.57022 3.34955
# Velocity P-wave (km/s) = 7.54713 8.87083 8.23562
#
# Compressibility (1/GPa) = 0.01243636
#
# Stress axis : x y z
#
# Youngs Moduli (GPa) = 34.59427 30.86938 30.37785
#
# Poissons Ratio (x) = 0.65812 0.31629
# Poissons Ratio (y) = 0.73754 0.27827
# Poissons Ratio (z) = 0.36019 0.28277
#
# Static dielectric constant tensor:
#      x y z
#    x 1.604180 0.000000 0.000000 
#    y 0.000000 1.599740 0.000000 
#    z 0.000000 0.000000 1.610760 
# 
# From -- ./inp_files/7739.got.cif
#   From: 2010.05.17/outbox.cif.g08.bks.cpg/sg58_4_cif.got.tgz:7739.got - 2010.06.03 14:20:14.
