data_PCOD9444607
_publ_section_title
;
Structure prediction by ZEFSAII (Michael W. Deem and Ramdas Pophale) SiO2 
 PCOD9444607
Probable space group: P N N M
;
_chemical_formula_sum "Si O2"
_cell_formula_units_Z 58
_cell_length_a 28.955956
_cell_length_b 12.042730
_cell_length_c 7.706076
_cell_angle_alpha 90.000000
_cell_angle_beta 90.000000
_cell_angle_gamma 90.000000
_cell_volume 2687.176206
_symmetry_space_group_name_H-M "P N N M"
_symmetry_group_IT_number 58
_symmetry_cell_setting 'orthorhombic'
loop_
_space_group_symop_operation_xyz
x,y,z
-x,-y,z
1/2+x,1/2-y,1/2-z
1/2-x,1/2+y,1/2-z
-x,-y,-z
x,y,-z
1/2-x,1/2+y,1/2+z
1/2+x,1/2-y,1/2+z
loop_
_atom_site_type_symbol
_atom_site_label
_atom_site_fract_x
_atom_site_fract_y
_atom_site_fract_z
Si Si1 0.113698 0.956578 0.299356
Si Si2 0.378442 0.703038 0.793172
Si Si3 0.436971 0.241638 0.794518
Si Si4 0.500000 0.000000 0.500000
Si Si5 0.303503 0.877166 0.298412
Si Si6 0.466210 0.860896 0.207420
Si Si7 0.700568 0.674801 0.299011
Si Si8 0.347545 0.103574 0.708916
O O1 0.098922 0.969323 0.500000
O O2 0.081652 0.858977 0.221774
O O3 0.165428 0.907371 0.296297
O O4 0.113760 0.079307 0.221839
O O5 0.335221 0.769002 0.717712
O O6 0.423685 0.778064 0.770109
O O7 0.369816 0.693919 0.000000
O O8 0.486421 0.200098 0.731220
O O9 0.396484 0.152047 0.769042
O O10 0.442905 0.255908 0.000000
O O11 0.536256 0.039674 0.344143
O O12 0.294567 0.900366 0.500000
O O13 0.253629 0.857083 0.217188
O O14 0.331494 0.983429 0.225394
O O15 0.468858 0.889997 0.000000
O O16 0.686861 0.668508 0.500000
O O17 0.689468 0.800757 0.240951
O O18 0.349776 0.097933 0.500000
#
# Coordination Sequence:
#
# PCOD9444607 Si02
#       8
#     8   8   8   2   8   8   8   8
#     4   9  19  39  65  88 121 163 205 255 318 372
#     4  10  23  41  60  89 127 165 204 257 314 377
#     4   9  19  37  63  92 119 156 207 259 305 372
#     4  12  26  40  68  88 132 180 202 272 314 374
#     4  11  24  38  58  84 118 158 204 251 307 378
#     4  10  24  42  64  97 129 170 222 260 319 383
#     4  10  21  39  59  86 115 154 201 252 310 369
#     4   9  21  38  58  82 115 153 198 248 305 373
#
# _framework density 21.583995999999999
#
# number of rings (size 3 to 8) (size 9 to 14) (size 15 to 20)
#    0.000    2.207    0.000    1.034    5.793    2.759 
#    0.000    2.759    0.000    0.828    0.000    0.000 
#    0.000    0.000    0.000    0.000    0.000    0.000 
#
# Total GULP energy -323354.932840 kJ/mol
# GULP energy per Si atom -5575.085049 kJ/mol
# Density = 2.153487 g / cm^3
# Si number density = 21.583996 Si / 1000 Ang^3
#
#
#
# Elastic Constant Matrix: (Units=GPa)
#
#
# Indices 1 2 3 4 5 6 
#
# 1 54.2911 3.7954 -0.9069 0.0000 0.0000 0.0000
# 2 3.7954 94.0453 12.6390 0.0000 0.0000 0.0000
# 3 -0.9069 12.6390 60.7135 0.0000 0.0000 0.0000
# 4 0.0000 0.0000 0.0000 15.1533 0.0000 0.0000
# 5 0.0000 0.0000 0.0000 0.0000 79.1579 0.0000
# 6 0.0000 0.0000 0.0000 0.0000 0.0000 16.9554
#
#
#
# Elastic Compliance Matrix: (Units=1/GPa)
#
#
# Indices 1 2 3 4 5 6 
#
# 1 0.018483 -0.000806 0.000444 0.000000 0.000000 0.000000
# 2 -0.000806 0.010974 -0.002297 0.000000 0.000000 0.000000
# 3 0.000444 -0.002297 0.016956 0.000000 0.000000 0.000000
# 4 0.000000 0.000000 0.000000 0.065992 0.000000 0.000000
# 5 0.000000 0.000000 0.000000 0.000000 0.012633 0.000000
# 6 0.000000 0.000000 0.000000 0.000000 0.000000 0.058978
#
#
# Mechanical properties :
#
#
# Convention : Reuss Voigt Hill
#
# Bulk Modulus (GPa) = 24.33324 26.67832 25.50578
# Shear Modulus (GPa) = 24.62669 35.15482 29.89075
#
# Velocity S-wave (km/s) = 3.38149 4.04015 3.72540
# Velocity P-wave (km/s) = 5.15210 5.84387 5.50886
#
# Compressibility (1/GPa) = 0.04109605
#
# Stress axis : x y z
#
# Youngs Moduli (GPa) = 54.10389 91.12170 58.97785
#
# Poissons Ratio (x) = 0.07340 -0.02617
# Poissons Ratio (y) = 0.04358 0.13545
# Poissons Ratio (z) = -0.02401 0.20927
#
# Static dielectric constant tensor:
#      x y z
#    x 1.759870 0.000000 0.000000 
#    y 0.000000 1.844170 0.000000 
#    z 0.000000 0.000000 1.809830 
# 
# From -- ./inp_files/4566.got.cif
#   From: 2010.05.17/outbox.cif.g08.bks.cpg/sg58_3_cif.got.tgz:4566.got - 2010.06.03 14:20:14.
