data_PCOD9444757
_publ_section_title
;
Structure prediction by ZEFSAII (Michael W. Deem and Ramdas Pophale) SiO2 
 PCOD9444757
Probable space group: P N N M
;
_chemical_formula_sum "Si O2"
_cell_formula_units_Z 48
_cell_length_a 25.875819
_cell_length_b 8.914450
_cell_length_c 10.175581
_cell_angle_alpha 90.000000
_cell_angle_beta 90.000000
_cell_angle_gamma 90.000000
_cell_volume 2347.187987
_symmetry_space_group_name_H-M "P N N M"
_symmetry_group_IT_number 58
_symmetry_cell_setting 'orthorhombic'
loop_
_space_group_symop_operation_xyz
x,y,z
-x,-y,z
1/2+x,1/2-y,1/2-z
1/2-x,1/2+y,1/2-z
-x,-y,-z
x,y,-z
1/2-x,1/2+y,1/2+z
1/2+x,1/2-y,1/2+z
loop_
_atom_site_type_symbol
_atom_site_label
_atom_site_fract_x
_atom_site_fract_y
_atom_site_fract_z
Si Si1 0.941651 0.173750 0.645111
Si Si2 0.220902 0.446453 0.154500
Si Si3 0.630292 0.952551 0.848755
Si Si4 0.533261 0.136357 0.247950
Si Si5 0.298088 0.591868 0.351451
Si Si6 0.078586 0.070909 0.856411
O O1 0.937570 0.109222 0.500000
O O2 0.893553 0.286365 0.668008
O O3 0.992417 0.276981 0.656466
O O4 0.942347 0.042460 0.749188
O O5 0.172889 0.511238 0.239237
O O6 0.270618 0.502300 0.235040
O O7 0.217766 0.266211 0.157921
O O8 0.220073 0.491442 0.000000
O O9 0.581839 0.064335 0.826946
O O10 0.649040 0.966715 0.000000
O O11 0.555088 0.263653 0.342774
O O12 0.500000 0.000000 0.309451
O O13 0.284145 0.538612 0.500000
O O14 0.359790 0.583224 0.340085
O O15 0.067123 0.008590 0.000000
#
# Coordination Sequence:
#
# PCOD9444757 Si02
#       6
#     8   8   8   8   8   8
#     4  10  23  40  62  94 130 169 213 260 307 370
#     4  11  24  43  67  95 126 163 210 261 317 376
#     4  10  21  40  66  94 127 166 211 260 315 371
#     4  10  21  40  66  95 126 166 214 262 313 371
#     4  10  24  45  65  91 129 165 207 260 313 377
#     4  11  24  43  63  92 131 168 208 261 319 374
#
# _framework density 20.450002999999999
#
# number of rings (size 3 to 8) (size 9 to 14) (size 15 to 20)
#    0.000    1.667    1.667    1.500    2.333    8.333 
#    0.000    3.333    0.000    0.000    0.000    0.000 
#    0.000    0.000    0.000    0.000    0.000    0.000 
#
# Total GULP energy -268177.299862 kJ/mol
# GULP energy per Si atom -5587.027080 kJ/mol
# Density = 2.040346 g / cm^3
# Si number density = 20.450003 Si / 1000 Ang^3
#
#
#
# Elastic Constant Matrix: (Units=GPa)
#
#
# Indices 1 2 3 4 5 6 
#
# 1 64.0839 25.5167 36.7095 0.0000 0.0000 0.0000
# 2 25.5167 88.4472 66.1629 0.0000 0.0000 0.0000
# 3 36.7095 66.1629 151.1772 0.0000 0.0000 0.0000
# 4 0.0000 0.0000 0.0000 23.0759 0.0000 0.0000
# 5 0.0000 0.0000 0.0000 0.0000 7.5212 0.0000
# 6 0.0000 0.0000 0.0000 0.0000 0.0000 31.3738
#
#
#
# Elastic Compliance Matrix: (Units=1/GPa)
#
#
# Indices 1 2 3 4 5 6 
#
# 1 0.018633 -0.002960 -0.003229 0.000000 0.000000 0.000000
# 2 -0.002960 0.017280 -0.006844 0.000000 0.000000 0.000000
# 3 -0.003229 -0.006844 0.010394 0.000000 0.000000 0.000000
# 4 0.000000 0.000000 0.000000 0.043335 0.000000 0.000000
# 5 0.000000 0.000000 0.000000 0.000000 0.132957 0.000000
# 6 0.000000 0.000000 0.000000 0.000000 0.000000 0.031874
#
#
# Mechanical properties :
#
#
# Convention : Reuss Voigt Hill
#
# Bulk Modulus (GPa) = 49.40483 62.27628 55.84056
# Shear Modulus (GPa) = 17.40435 24.08212 20.74323
#
# Velocity S-wave (km/s) = 2.92047 3.43535 3.18832
# Velocity P-wave (km/s) = 5.96519 6.80107 6.39680
#
# Compressibility (1/GPa) = 0.02024094
#
# Stress axis : x y z
#
# Youngs Moduli (GPa) = 53.66856 57.87198 96.20948
#
# Poissons Ratio (x) = 0.17130 0.31067
# Poissons Ratio (y) = 0.15886 0.65842
# Poissons Ratio (z) = 0.17330 0.39606
#
# Static dielectric constant tensor:
#      x y z
#    x 1.745710 0.000000 0.000000 
#    y 0.000000 1.706220 0.000000 
#    z 0.000000 0.000000 1.701900 
# 
# From -- ./inp_files/10730.got.cif
#   From: 2010.05.17/outbox.cif.g08.bks.cpg/sg58_6_cif.got.tgz:10730.got - 2010.06.03 14:20:14.
