data_PCOD9444323
_publ_section_title
;
Structure prediction by ZEFSAII (Michael W. Deem and Ramdas Pophale) SiO2 
 PCOD9444323
Probable space group: P N N M
;
_chemical_formula_sum "Si O2"
_cell_formula_units_Z 44
_cell_length_a 14.393406
_cell_length_b 8.321425
_cell_length_c 17.255417
_cell_angle_alpha 90.000000
_cell_angle_beta 90.000000
_cell_angle_gamma 90.000000
_cell_volume 2066.744251
_symmetry_space_group_name_H-M "P N N M"
_symmetry_group_IT_number 58
_symmetry_cell_setting 'orthorhombic'
loop_
_space_group_symop_operation_xyz
x,y,z
-x,-y,z
1/2+x,1/2-y,1/2-z
1/2-x,1/2+y,1/2-z
-x,-y,-z
x,y,-z
1/2-x,1/2+y,1/2+z
1/2+x,1/2-y,1/2+z
loop_
_atom_site_type_symbol
_atom_site_label
_atom_site_fract_x
_atom_site_fract_y
_atom_site_fract_z
Si Si1 0.000000 0.500000 0.168597
Si Si2 0.606533 0.052868 0.088153
Si Si3 0.198098 0.436601 0.856986
Si Si4 0.262888 0.770193 0.791808
Si Si5 0.125614 0.807111 0.582904
Si Si6 0.058022 0.841427 0.755716
O O1 0.906856 0.529410 0.119646
O O2 0.980669 0.335421 0.218268
O O3 0.654574 0.879236 0.088412
O O4 0.500000 0.000000 0.106003
O O5 0.660718 0.163871 0.148221
O O6 0.608352 0.117279 0.000000
O O7 0.235599 0.589197 0.809462
O O8 0.197839 0.294253 0.794019
O O9 0.278887 0.403930 0.916637
O O10 0.161470 0.854319 0.792052
O O11 0.076226 0.829828 0.500000
O O12 0.070379 0.843094 0.661820
O O13 0.000000 0.000000 0.777312
#
# Coordination Sequence:
#
# PCOD9444323 Si02
#       6
#     4   8   8   8   8   8
#     4  10  22  38  62  96 124 158 212 266 308 374
#     4  10  22  38  60  89 125 165 199 247 314 379
#     4  10  22  37  61  86 117 163 205 259 309 362
#     4  10  21  37  57  90 119 156 208 253 311 366
#     4  10  23  40  56  87 126 161 205 251 311 377
#     4  10  23  38  63  95 123 163 208 263 314 370
#
# _framework density 21.289522999999999
#
# number of rings (size 3 to 8) (size 9 to 14) (size 15 to 20)
#    0.000    2.000    0.000    3.273   12.727    1.091 
#    0.000    2.273    0.000    1.636    0.000    0.000 
#    0.000    0.000    0.000    0.000    0.000    0.000 
#
# Total GULP energy -245366.830702 kJ/mol
# GULP energy per Si atom -5576.518880 kJ/mol
# Density = 2.124107 g / cm^3
# Si number density = 21.289523 Si / 1000 Ang^3
#
#
#
# Elastic Constant Matrix: (Units=GPa)
#
#
# Indices 1 2 3 4 5 6 
#
# 1 93.9438 38.5170 4.3975 0.0000 0.0000 0.0000
# 2 38.5170 75.3650 6.4460 0.0000 0.0000 0.0000
# 3 4.3975 6.4460 54.4953 0.0000 0.0000 0.0000
# 4 0.0000 0.0000 0.0000 13.4589 0.0000 0.0000
# 5 0.0000 0.0000 0.0000 0.0000 4.9290 0.0000
# 6 0.0000 0.0000 0.0000 0.0000 0.0000 42.2233
#
#
#
# Elastic Compliance Matrix: (Units=1/GPa)
#
#
# Indices 1 2 3 4 5 6 
#
# 1 0.013471 -0.006861 -0.000275 0.000000 0.000000 0.000000
# 2 -0.006861 0.016899 -0.001445 0.000000 0.000000 0.000000
# 3 -0.000275 -0.001445 0.018543 0.000000 0.000000 0.000000
# 4 0.000000 0.000000 0.000000 0.074300 0.000000 0.000000
# 5 0.000000 0.000000 0.000000 0.000000 0.202881 0.000000
# 6 0.000000 0.000000 0.000000 0.000000 0.000000 0.023684
#
#
# Mechanical properties :
#
#
# Convention : Reuss Voigt Hill
#
# Bulk Modulus (GPa) = 31.49649 35.83612 33.66631
# Shear Modulus (GPa) = 13.24420 23.75181 18.49800
#
# Velocity S-wave (km/s) = 2.49690 3.34377 2.95087
# Velocity P-wave (km/s) = 4.81032 5.63711 5.24005
#
# Compressibility (1/GPa) = 0.03174957
#
# Stress axis : x y z
#
# Youngs Moduli (GPa) = 74.23619 59.17590 53.92754
#
# Poissons Ratio (x) = 0.40600 0.01486
# Poissons Ratio (y) = 0.50932 0.07794
# Poissons Ratio (z) = 0.02045 0.08552
#
# Static dielectric constant tensor:
#      x y z
#    x 1.819170 0.000000 0.000000 
#    y 0.000000 1.812200 0.000000 
#    z 0.000000 0.000000 1.767030 
# 
# From -- ./inp_files/26722.got.cif
#   From: 2010.05.17/outbox.cif.g08.bks.cpg/sg58_14_cif.got.tgz:26722.got - 2010.06.03 14:20:14.
