data_PCOD9444554
_publ_section_title
;
Structure prediction by ZEFSAII (Michael W. Deem and Ramdas Pophale) SiO2 
 PCOD9444554
Probable space group: P N N M
;
_chemical_formula_sum "Si O2"
_cell_formula_units_Z 58
_cell_length_a 24.011353
_cell_length_b 14.958177
_cell_length_c 7.629203
_cell_angle_alpha 90.000000
_cell_angle_beta 90.000000
_cell_angle_gamma 90.000000
_cell_volume 2740.150845
_symmetry_space_group_name_H-M "P N N M"
_symmetry_group_IT_number 58
_symmetry_cell_setting 'orthorhombic'
loop_
_space_group_symop_operation_xyz
x,y,z
-x,-y,z
1/2+x,1/2-y,1/2-z
1/2-x,1/2+y,1/2-z
-x,-y,-z
x,y,-z
1/2-x,1/2+y,1/2+z
1/2+x,1/2-y,1/2+z
loop_
_atom_site_type_symbol
_atom_site_label
_atom_site_fract_x
_atom_site_fract_y
_atom_site_fract_z
Si Si1 0.622458 0.025387 0.214450
Si Si2 0.893157 0.804305 0.205322
Si Si3 0.795023 0.679608 0.290584
Si Si4 0.833694 0.157690 0.292929
Si Si5 0.474486 0.852160 0.798252
Si Si6 0.914658 0.008246 0.797189
Si Si7 0.901069 0.329338 0.285312
Si Si8 0.500000 0.500000 0.000000
O O1 0.671174 0.091950 0.272569
O O2 0.564282 0.069363 0.276742
O O3 0.627023 0.922909 0.266729
O O4 0.621722 0.027858 0.000000
O O5 0.831308 0.765008 0.231897
O O6 0.936054 0.736155 0.295068
O O7 0.901466 0.906290 0.261947
O O8 0.905751 0.800463 0.000000
O O9 0.796963 0.679467 0.500000
O O10 0.731392 0.674701 0.235681
O O11 0.842784 0.150338 0.500000
O O12 0.859354 0.068307 0.211600
O O13 0.868441 0.242478 0.224075
O O14 0.535009 0.832972 0.722930
O O15 0.484749 0.877961 0.000000
O O16 0.959620 0.042254 0.656786
O O17 0.933613 0.007995 0.000000
O O18 0.900762 0.325956 0.500000
#
# Coordination Sequence:
#
# PCOD9444554 Si02
#       8
#     8   8   8   8   8   8   8   2
#     4   8  15  31  54  85 112 147 195 249 303 362
#     4  10  22  39  61  89 118 162 210 258 312 378
#     4  10  21  38  63  86 118 158 209 265 316 373
#     4  11  23  39  58  88 125 169 210 261 319 378
#     4   9  17  30  57  87 117 148 189 241 300 366
#     4  11  26  44  66  96 133 173 220 268 329 389
#     4   9  18  31  54  84 116 149 192 240 301 370
#     4  12  26  44  72  94 132 174 218 276 322 402
#
# _framework density 21.166717999999999
#
# number of rings (size 3 to 8) (size 9 to 14) (size 15 to 20)
#    0.000    2.207    0.690    2.690    3.862    2.759 
#    0.000    3.448    0.000   14.897    0.000    0.000 
#    0.000    0.000    0.000    0.000    0.000    0.000 
#
# Total GULP energy -323365.379550 kJ/mol
# GULP energy per Si atom -5575.265165 kJ/mol
# Density = 2.111854 g / cm^3
# Si number density = 21.166718 Si / 1000 Ang^3
#
#
#
# Elastic Constant Matrix: (Units=GPa)
#
#
# Indices 1 2 3 4 5 6 
#
# 1 84.9680 5.5105 -1.8367 0.0000 0.0000 0.0000
# 2 5.5105 89.4485 -4.4458 0.0000 0.0000 0.0000
# 3 -1.8367 -4.4458 75.0420 0.0000 0.0000 0.0000
# 4 0.0000 0.0000 0.0000 12.5618 0.0000 0.0000
# 5 0.0000 0.0000 0.0000 0.0000 -8.6260 0.0000
# 6 0.0000 0.0000 0.0000 0.0000 0.0000 10.1402
#
#
#
# Elastic Compliance Matrix: (Units=1/GPa)
#
#
# Indices 1 2 3 4 5 6 
#
# 1 0.011821 -0.000716 0.000247 0.000000 0.000000 0.000000
# 2 -0.000716 0.011256 0.000649 0.000000 0.000000 0.000000
# 3 0.000247 0.000649 0.013370 0.000000 0.000000 0.000000
# 4 0.000000 0.000000 0.000000 0.079606 0.000000 0.000000
# 5 0.000000 0.000000 0.000000 0.000000 -0.115929 0.000000
# 6 0.000000 0.000000 0.000000 0.000000 0.000000 0.098618
#
#
# Mechanical properties :
#
#
# Convention : Reuss Voigt Hill
#
# Bulk Modulus (GPa) = 27.16811 27.54604 27.35707
# Shear Modulus (GPa) = 45.18695 19.49723 32.34209
#
# Velocity S-wave (km/s) = 4.62541 3.03830 3.91317
# Velocity P-wave (km/s) = 6.43344 5.03492 5.77666
#
# Compressibility (1/GPa) = 0.03680786
#
# Stress axis : x y z
#
# Youngs Moduli (GPa) = 84.59589 88.84151 74.79216
#
# Poissons Ratio (x) = 0.06361 -0.01847
# Poissons Ratio (y) = 0.06057 -0.04856
# Poissons Ratio (z) = -0.02089 -0.05769
#
# Static dielectric constant tensor:
#      x y z
#    x 1.766360 0.000000 0.000000 
#    y 0.000000 1.767790 0.000000 
#    z 0.000000 0.000000 1.824320 
# 
# From -- ./inp_files/9877.got.cif
#   From: 2010.05.17/outbox.cif.g08.bks.cpg/sg58_5_cif.got.tgz:9877.got - 2010.06.03 14:20:14.
