data_PCOD9444117
_publ_section_title
;
Structure prediction by ZEFSAII (Michael W. Deem and Ramdas Pophale) SiO2 
 PCOD9444117
Probable space group: P N N M
;
_chemical_formula_sum "Si O2"
_cell_formula_units_Z 48
_cell_length_a 9.860915
_cell_length_b 21.358609
_cell_length_c 13.363010
_cell_angle_alpha 90.000000
_cell_angle_beta 90.000000
_cell_angle_gamma 90.000000
_cell_volume 2814.456069
_symmetry_space_group_name_H-M "P N N M"
_symmetry_group_IT_number 58
_symmetry_cell_setting 'orthorhombic'
loop_
_space_group_symop_operation_xyz
x,y,z
-x,-y,z
1/2+x,1/2-y,1/2-z
1/2-x,1/2+y,1/2-z
-x,-y,-z
x,y,-z
1/2-x,1/2+y,1/2+z
1/2+x,1/2-y,1/2+z
loop_
_atom_site_type_symbol
_atom_site_label
_atom_site_fract_x
_atom_site_fract_y
_atom_site_fract_z
Si Si1 0.051075 0.281618 0.884047
Si Si2 0.338032 0.999527 0.283930
Si Si3 0.292632 0.132143 0.384257
Si Si4 0.635701 0.458400 0.615816
Si Si5 0.551626 0.340269 0.253435
Si Si6 0.293435 0.375972 0.880718
O O1 0.194308 0.316267 0.868764
O O2 0.936181 0.334138 0.869929
O O3 0.025096 0.224191 0.810568
O O4 0.044384 0.260500 0.000000
O O5 0.302619 0.060267 0.350489
O O6 0.253895 0.009778 0.181600
O O7 0.500000 0.000000 0.268567
O O8 0.284939 0.937215 0.339263
O O9 0.255918 0.135257 0.500000
O O10 0.179776 0.166493 0.319336
O O11 0.500000 0.500000 0.621132
O O12 0.674966 0.451259 0.500000
O O13 0.595601 0.392664 0.666152
O O14 0.426660 0.364536 0.186115
O O15 0.321980 0.383369 0.000000
#
# Coordination Sequence:
#
# PCOD9444117 Si02
#       6
#     8   8   8   8   8   8
#     4  10  21  37  57  81 110 150 190 226 276 335
#     4  11  21  37  60  85 113 147 185 231 286 335
#     4  10  21  35  56  84 114 146 183 229 280 334
#     4  10  21  38  58  82 110 145 188 231 276 325
#     4  11  21  37  57  82 113 150 185 232 276 330
#     4  11  22  36  58  87 115 147 186 230 280 334
#
# _framework density 17.054804000000001
#
# number of rings (size 3 to 8) (size 9 to 14) (size 15 to 20)
#    0.000    1.500    3.333    2.500    0.000    1.000 
#    0.000    2.500    0.000    2.000    0.000    0.000 
#    0.000    0.000    0.000    0.000    0.000    0.000 
#
# Total GULP energy -267921.157684 kJ/mol
# GULP energy per Si atom -5581.690785 kJ/mol
# Density = 1.701599 g / cm^3
# Si number density = 17.054804 Si / 1000 Ang^3
#
#
#
# Elastic Constant Matrix: (Units=GPa)
#
#
# Indices 1 2 3 4 5 6 
#
# 1 57.6736 12.2096 34.2561 0.0000 0.0000 0.0000
# 2 12.2096 73.2715 51.9694 0.0000 0.0000 0.0000
# 3 34.2561 51.9694 114.8522 0.0000 0.0000 0.0000
# 4 0.0000 0.0000 0.0000 22.1930 0.0000 0.0000
# 5 0.0000 0.0000 0.0000 0.0000 24.1905 0.0000
# 6 0.0000 0.0000 0.0000 0.0000 0.0000 17.7445
#
#
#
# Elastic Compliance Matrix: (Units=1/GPa)
#
#
# Indices 1 2 3 4 5 6 
#
# 1 0.021169 0.001400 -0.006948 0.000000 0.000000 0.000000
# 2 0.001400 0.020191 -0.009554 0.000000 0.000000 0.000000
# 3 -0.006948 -0.009554 0.015102 0.000000 0.000000 0.000000
# 4 0.000000 0.000000 0.000000 0.045059 0.000000 0.000000
# 5 0.000000 0.000000 0.000000 0.000000 0.041339 0.000000
# 6 0.000000 0.000000 0.000000 0.000000 0.000000 0.056356
#
#
# Mechanical properties :
#
#
# Convention : Reuss Voigt Hill
#
# Bulk Modulus (GPa) = 38.08116 49.18529 43.63323
# Shear Modulus (GPa) = 20.99335 22.64973 21.82154
#
# Velocity S-wave (km/s) = 3.51227 3.64820 3.58088
# Velocity P-wave (km/s) = 6.23099 6.82993 6.53733
#
# Compressibility (1/GPa) = 0.02625970
#
# Stress axis : x y z
#
# Youngs Moduli (GPa) = 47.23859 49.52763 66.21648
#
# Poissons Ratio (x) = -0.06935 0.46004
# Poissons Ratio (y) = -0.06614 0.63261
# Poissons Ratio (z) = 0.32819 0.47317
#
# Static dielectric constant tensor:
#      x y z
#    x 1.560600 0.000000 0.000000 
#    y 0.000000 1.555880 0.000000 
#    z 0.000000 0.000000 1.561180 
# 
# From -- ./inp_files/13050.got.cif
#   From: 2010.05.17/outbox.cif.g08.bks.cpg/sg58_7_cif.got.tgz:13050.got - 2010.06.03 14:20:14.
