data_PCOD9444277
_publ_section_title
;
Structure prediction by ZEFSAII (Michael W. Deem and Ramdas Pophale) SiO2 
 PCOD9444277
Probable space group: P N N M
;
_chemical_formula_sum "Si O2"
_cell_formula_units_Z 52
_cell_length_a 12.767294
_cell_length_b 8.672412
_cell_length_c 25.140511
_cell_angle_alpha 90.000000
_cell_angle_beta 90.000000
_cell_angle_gamma 90.000000
_cell_volume 2783.638675
_symmetry_space_group_name_H-M "P N N M"
_symmetry_group_IT_number 58
_symmetry_cell_setting 'orthorhombic'
loop_
_space_group_symop_operation_xyz
x,y,z
-x,-y,z
1/2+x,1/2-y,1/2-z
1/2-x,1/2+y,1/2-z
-x,-y,-z
x,y,-z
1/2-x,1/2+y,1/2+z
1/2+x,1/2-y,1/2+z
loop_
_atom_site_type_symbol
_atom_site_label
_atom_site_fract_x
_atom_site_fract_y
_atom_site_fract_z
Si Si1 0.078474 0.774082 0.500000
Si Si2 0.247673 0.496250 0.000000
Si Si3 0.616105 0.057769 0.397231
Si Si4 0.664441 0.187947 0.000000
Si Si5 0.621781 0.959110 0.092370
Si Si6 0.945777 0.844789 0.170382
Si Si7 0.240973 0.498096 0.701869
Si Si8 0.348142 0.169807 0.300333
O O1 0.118016 0.688392 0.446438
O O2 0.954390 0.752534 0.500000
O O3 0.133198 0.937499 0.500000
O O4 0.189538 0.438810 0.052176
O O5 0.250745 0.679786 0.000000
O O6 0.602535 0.226037 0.371561
O O7 0.500000 0.000000 0.412406
O O8 0.657638 0.935454 0.353223
O O9 0.670757 0.087643 0.946641
O O10 0.685204 0.953783 0.146850
O O11 0.500000 0.000000 0.103535
O O12 0.851508 0.911042 0.205551
O O13 0.036336 0.747501 0.199947
O O14 0.000000 0.000000 0.147041
O O15 0.268850 0.315895 0.700777
O O16 0.172356 0.556447 0.751111
#
# Coordination Sequence:
#
# PCOD9444277 Si02
#       8
#     4   4   8   4   8   8   8   8
#     4   9  19  34  52  78 109 139 170 223 277 319
#     4  12  20  32  57  79 102 140 181 218 268 331
#     4  10  21  37  53  77 108 140 178 224 273 322
#     4   9  19  36  52  77 111 137 172 223 271 320
#     4   9  19  35  55  77 105 141 182 220 267 330
#     4   9  20  38  56  77 111 145 178 227 281 326
#     4  11  20  35  57  82 106 144 189 222 271 339
#     4  10  22  36  55  80 112 145 178 230 280 324
#
# _framework density 18.680586000000002
#
# number of rings (size 3 to 8) (size 9 to 14) (size 15 to 20)
#    0.000    2.154    0.000    4.154    0.000    3.077 
#    0.000    0.385    0.000    3.692    0.000    0.000 
#    0.000    0.000    0.000    0.000    0.000    0.000 
#
# Total GULP energy -289994.277963 kJ/mol
# GULP energy per Si atom -5576.813038 kJ/mol
# Density = 1.863807 g / cm^3
# Si number density = 18.680586 Si / 1000 Ang^3
#
#
#
# Elastic Constant Matrix: (Units=GPa)
#
#
# Indices 1 2 3 4 5 6 
#
# 1 37.3890 26.7737 42.7669 0.0000 0.0000 0.0000
# 2 26.7737 91.9290 29.2270 0.0000 0.0000 0.0000
# 3 42.7669 29.2270 110.0956 0.0000 0.0000 0.0000
# 4 0.0000 0.0000 0.0000 3.2615 0.0000 0.0000
# 5 0.0000 0.0000 0.0000 0.0000 9.6961 0.0000
# 6 0.0000 0.0000 0.0000 0.0000 0.0000 31.2724
#
#
#
# Elastic Compliance Matrix: (Units=1/GPa)
#
#
# Indices 1 2 3 4 5 6 
#
# 1 0.055707 -0.010206 -0.018930 0.000000 0.000000 0.000000
# 2 -0.010206 0.013750 0.000314 0.000000 0.000000 0.000000
# 3 -0.018930 0.000314 0.016353 0.000000 0.000000 0.000000
# 4 0.000000 0.000000 0.000000 0.306611 0.000000 0.000000
# 5 0.000000 0.000000 0.000000 0.000000 0.103135 0.000000
# 6 0.000000 0.000000 0.000000 0.000000 0.000000 0.031977
#
#
# Mechanical properties :
#
#
# Convention : Reuss Voigt Hill
#
# Bulk Modulus (GPa) = 35.50263 48.54986 42.02624
# Shear Modulus (GPa) = 8.40948 18.22239 13.31594
#
# Velocity S-wave (km/s) = 2.12403 3.12664 2.67277
# Velocity P-wave (km/s) = 5.00616 6.25143 5.66313
#
# Compressibility (1/GPa) = 0.02816692
#
# Stress axis : x y z
#
# Youngs Moduli (GPa) = 17.95098 72.72476 61.15048
#
# Poissons Ratio (x) = 0.74222 1.15759
# Poissons Ratio (y) = 0.18321 -0.01921
# Poissons Ratio (z) = 0.33982 -0.02285
#
# Static dielectric constant tensor:
#      x y z
#    x 1.650850 0.000000 0.000000 
#    y 0.000000 1.659520 0.000000 
#    z 0.000000 0.000000 1.596970 
# 
# From -- ./inp_files/29982.got.cif
#   From: 2010.05.17/outbox.cif.g08.bks.cpg/sg58_15_cif.got.tgz:29982.got - 2010.06.03 14:20:14.
