data_PCOD9444688
_publ_section_title
;
Structure prediction by ZEFSAII (Michael W. Deem and Ramdas Pophale) SiO2 
 PCOD9444688
Probable space group: P N N M
;
_chemical_formula_sum "Si O2"
_cell_formula_units_Z 40
_cell_length_a 11.895181
_cell_length_b 9.864220
_cell_length_c 16.776750
_cell_angle_alpha 90.000000
_cell_angle_beta 90.000000
_cell_angle_gamma 90.000000
_cell_volume 1968.528185
_symmetry_space_group_name_H-M "P N N M"
_symmetry_group_IT_number 58
_symmetry_cell_setting 'orthorhombic'
loop_
_space_group_symop_operation_xyz
x,y,z
-x,-y,z
1/2+x,1/2-y,1/2-z
1/2-x,1/2+y,1/2-z
-x,-y,-z
x,y,-z
1/2-x,1/2+y,1/2+z
1/2+x,1/2-y,1/2+z
loop_
_atom_site_type_symbol
_atom_site_label
_atom_site_fract_x
_atom_site_fract_y
_atom_site_fract_z
Si Si1 0.517857 0.655092 0.405532
Si Si2 0.124037 0.033592 0.593208
Si Si3 0.233063 0.748006 0.192354
Si Si4 0.625824 0.991126 0.243481
Si Si5 0.343420 0.887674 0.408926
O O1 0.500000 0.500000 0.381053
O O2 0.542589 0.657830 0.500000
O O3 0.623342 0.713356 0.358307
O O4 0.406177 0.746117 0.393728
O O5 0.115822 0.072959 0.500000
O O6 0.181523 0.153581 0.642600
O O7 0.208564 0.904751 0.596454
O O8 0.000000 0.000000 0.623288
O O9 0.297312 0.884576 0.215766
O O10 0.187259 0.653130 0.264253
O O11 0.616546 0.013389 0.339238
O O12 0.500000 0.000000 0.209750
O O13 0.372364 0.929418 0.500000
#
# Coordination Sequence:
#
# PCOD9444688 Si02
#       5
#     8   8   8   8   8
#     4  10  21  39  66  96 124 157 205 269 322 361
#     4   9  19  38  63  90 120 163 211 253 302 366
#     4  11  24  39  61  90 126 163 202 257 307 379
#     4  11  24  40  59  90 125 164 203 246 316 371
#     4   9  19  38  65  91 117 154 210 261 304 359
#
# _framework density 20.319749000000002
#
# number of rings (size 3 to 8) (size 9 to 14) (size 15 to 20)
#    0.000    2.000    2.000    0.600    2.800    4.400 
#    0.000    0.000    0.000    1.200    0.000    0.000 
#    0.000    0.000    0.000    0.000    0.000    0.000 
#
# Total GULP energy -223152.395617 kJ/mol
# GULP energy per Si atom -5578.809890 kJ/mol
# Density = 2.027350 g / cm^3
# Si number density = 20.319749 Si / 1000 Ang^3
#
#
#
# Elastic Constant Matrix: (Units=GPa)
#
#
# Indices 1 2 3 4 5 6 
#
# 1 181.3545 85.6848 26.8747 0.0000 0.0000 0.0000
# 2 85.6848 145.6715 26.5256 0.0000 0.0000 0.0000
# 3 26.8747 26.5256 32.3349 0.0000 0.0000 0.0000
# 4 0.0000 0.0000 0.0000 24.8217 0.0000 0.0000
# 5 0.0000 0.0000 0.0000 0.0000 16.2985 0.0000
# 6 0.0000 0.0000 0.0000 0.0000 0.0000 38.3287
#
#
#
# Elastic Compliance Matrix: (Units=1/GPa)
#
#
# Indices 1 2 3 4 5 6 
#
# 1 0.007915 -0.004065 -0.003244 0.000000 0.000000 0.000000
# 2 -0.004065 0.010158 -0.004954 0.000000 0.000000 0.000000
# 3 -0.003244 -0.004954 0.037687 0.000000 0.000000 0.000000
# 4 0.000000 0.000000 0.000000 0.040287 0.000000 0.000000
# 5 0.000000 0.000000 0.000000 0.000000 0.061355 0.000000
# 6 0.000000 0.000000 0.000000 0.000000 0.000000 0.026090
#
#
# Mechanical properties :
#
#
# Convention : Reuss Voigt Hill
#
# Bulk Modulus (GPa) = 32.01714 70.83677 51.42696
# Shear Modulus (GPa) = 22.89049 30.57482 26.73265
#
# Velocity S-wave (km/s) = 3.36000 3.88324 3.63105
# Velocity P-wave (km/s) = 5.55371 7.41908 6.55311
#
# Compressibility (1/GPa) = 0.03123327
#
# Stress axis : x y z
#
# Youngs Moduli (GPa) = 126.33460 98.44369 26.53453
#
# Poissons Ratio (x) = 0.40020 0.08608
# Poissons Ratio (y) = 0.51358 0.13146
# Poissons Ratio (z) = 0.40983 0.48772
#
# Static dielectric constant tensor:
#      x y z
#    x 1.747370 0.000000 0.000000 
#    y 0.000000 1.745720 0.000000 
#    z 0.000000 0.000000 1.741220 
# 
# From -- ./inp_files/24933.got.cif
#   From: 2010.05.17/outbox.cif.g08.bks.cpg/sg58_13_cif.got.tgz:24933.got - 2010.06.03 14:20:14.
