data_PCOD9444312
_publ_section_title
;
Structure prediction by ZEFSAII (Michael W. Deem and Ramdas Pophale) SiO2 
 PCOD9444312
Probable space group: P N N M
;
_chemical_formula_sum "Si O2"
_cell_formula_units_Z 64
_cell_length_a 31.741716
_cell_length_b 12.230000
_cell_length_c 7.606555
_cell_angle_alpha 90.000000
_cell_angle_beta 90.000000
_cell_angle_gamma 90.000000
_cell_volume 2952.873678
_symmetry_space_group_name_H-M "P N N M"
_symmetry_group_IT_number 58
_symmetry_cell_setting 'orthorhombic'
loop_
_space_group_symop_operation_xyz
x,y,z
-x,-y,z
1/2+x,1/2-y,1/2-z
1/2-x,1/2+y,1/2-z
-x,-y,-z
x,y,-z
1/2-x,1/2+y,1/2+z
1/2+x,1/2-y,1/2+z
loop_
_atom_site_type_symbol
_atom_site_label
_atom_site_fract_x
_atom_site_fract_y
_atom_site_fract_z
Si Si1 0.544442 0.545882 0.288131
Si Si2 0.083982 0.733337 0.292316
Si Si3 0.620886 0.159812 0.788057
Si Si4 0.548284 0.999833 0.214895
Si Si5 0.209898 0.956120 0.216099
Si Si6 0.126971 0.083916 0.210319
Si Si7 0.303585 0.990029 0.797161
Si Si8 0.676154 0.770590 0.699693
O O1 0.500000 0.500000 0.222708
O O2 0.544308 0.536817 0.500000
O O3 0.550323 0.672475 0.241198
O O4 0.585431 0.479348 0.222111
O O5 0.092172 0.726732 0.500000
O O6 0.069283 0.614542 0.231130
O O7 0.127594 0.765737 0.202358
O O8 0.623783 0.287171 0.745322
O O9 0.661326 0.091288 0.719879
O O10 0.578062 0.099625 0.727082
O O11 0.620849 0.149709 0.000000
O O12 0.500000 0.000000 0.274350
O O13 0.547498 0.001127 0.000000
O O14 0.256329 0.990039 0.276770
O O15 0.202043 0.831137 0.272486
O O16 0.170853 0.031277 0.275995
O O17 0.208749 0.958346 0.000000
O O18 0.127141 0.069301 0.000000
O O19 0.320412 0.113559 0.793012
O O20 0.298881 0.955682 0.000000
O O21 0.689853 0.789757 0.500000
#
# Coordination Sequence:
#
# PCOD9444312 Si02
#       8
#     8   8   8   8   8   8   8   8
#     4  10  22  40  60  83 117 155 190 237 293 344
#     4  11  21  37  62  87 113 148 194 243 285 338
#     4  10  21  37  57  81 114 149 184 231 284 335
#     4   9  19  36  56  80 112 147 181 227 287 335
#     4   9  20  38  59  80 112 152 184 230 287 336
#     4  10  21  39  57  79 114 152 187 225 282 344
#     4  10  21  39  59  83 114 148 189 237 287 333
#     4  11  21  38  62  85 114 152 193 235 289 347
#
# _framework density 21.673801999999998
#
# number of rings (size 3 to 8) (size 9 to 14) (size 15 to 20)
#    0.000    2.000    2.500    0.750    3.500    1.250 
#    0.000    1.250    0.000    1.875    0.000    0.000 
#    0.000    0.000    0.000    0.000    0.000    0.000 
#
# Total GULP energy -357485.265607 kJ/mol
# GULP energy per Si atom -5585.707275 kJ/mol
# Density = 2.162447 g / cm^3
# Si number density = 21.673802 Si / 1000 Ang^3
#
#
#
# Elastic Constant Matrix: (Units=GPa)
#
#
# Indices 1 2 3 4 5 6 
#
# 1 112.4226 22.9508 13.1633 0.0000 0.0000 0.0000
# 2 22.9508 95.0438 -3.1447 0.0000 0.0000 0.0000
# 3 13.1633 -3.1447 44.8254 0.0000 0.0000 0.0000
# 4 0.0000 0.0000 0.0000 11.6080 0.0000 0.0000
# 5 0.0000 0.0000 0.0000 0.0000 -0.5101 0.0000
# 6 0.0000 0.0000 0.0000 0.0000 0.0000 36.5365
#
#
#
# Elastic Compliance Matrix: (Units=1/GPa)
#
#
# Indices 1 2 3 4 5 6 
#
# 1 0.009752 -0.002455 -0.003036 0.000000 0.000000 0.000000
# 2 -0.002455 0.011164 0.001504 0.000000 0.000000 0.000000
# 3 -0.003036 0.001504 0.023306 0.000000 0.000000 0.000000
# 4 0.000000 0.000000 0.000000 0.086148 0.000000 0.000000
# 5 0.000000 0.000000 0.000000 0.000000 -1.960328 0.000000
# 6 0.000000 0.000000 0.000000 0.000000 0.000000 0.027370
#
#
# Mechanical properties :
#
#
# Convention : Reuss Voigt Hill
#
# Bulk Modulus (GPa) = 27.58793 35.35898 31.47345
# Shear Modulus (GPa) = -2.80500 24.14837 10.67168
#
# Velocity S-wave (km/s) = -1.13886 3.34154 2.22136
# Velocity P-wave (km/s) = 3.32069 5.58905 4.59698
#
# Compressibility (1/GPa) = 0.03624774
#
# Stress axis : x y z
#
# Youngs Moduli (GPa) = 102.54608 89.57272 42.90773
#
# Poissons Ratio (x) = 0.21992 0.13026
# Poissons Ratio (y) = 0.25178 -0.06454
# Poissons Ratio (z) = 0.31132 -0.13474
#
# Static dielectric constant tensor:
#      x y z
#    x 1.801890 0.000000 0.000000 
#    y 0.000000 1.737590 0.000000 
#    z 0.000000 0.000000 1.813180 
# 
# From -- ./inp_files/10992.got.cif
#   From: 2010.05.17/outbox.cif.g08.bks.cpg/sg58_6_cif.got.tgz:10992.got - 2010.06.03 14:20:14.
