data_PCOD9444038
_publ_section_title
;
Structure prediction by ZEFSAII (Michael W. Deem and Ramdas Pophale) SiO2 
 PCOD9444038
Probable space group: P N N M
;
_chemical_formula_sum "Si O2"
_cell_formula_units_Z 32
_cell_length_a 12.705234
_cell_length_b 6.833982
_cell_length_c 18.086384
_cell_angle_alpha 90.000000
_cell_angle_beta 90.000000
_cell_angle_gamma 90.000000
_cell_volume 1570.392621
_symmetry_space_group_name_H-M "P N N M"
_symmetry_group_IT_number 58
_symmetry_cell_setting 'orthorhombic'
loop_
_space_group_symop_operation_xyz
x,y,z
-x,-y,z
1/2+x,1/2-y,1/2-z
1/2-x,1/2+y,1/2-z
-x,-y,-z
x,y,-z
1/2-x,1/2+y,1/2+z
1/2+x,1/2-y,1/2+z
loop_
_atom_site_type_symbol
_atom_site_label
_atom_site_fract_x
_atom_site_fract_y
_atom_site_fract_z
Si Si1 0.410077 0.838664 0.841615
Si Si2 0.329698 0.064828 0.500000
Si Si3 0.000000 0.000000 0.758915
Si Si4 0.595889 0.354924 0.000000
Si Si5 0.393966 0.634477 0.500000
Si Si6 0.324764 0.382649 0.629432
O O1 0.439278 0.653048 0.792157
O O2 0.410114 0.777510 0.927556
O O3 0.287743 0.891946 0.830286
O O4 0.500000 0.000000 0.828516
O O5 0.204403 0.022375 0.500000
O O6 0.601201 0.131231 0.500000
O O7 0.341625 0.198714 0.573569
O O8 0.082417 0.890992 0.811799
O O9 0.500000 0.500000 0.000000
O O10 0.500000 0.500000 0.500000
O O11 0.333902 0.566663 0.573701
#
# Coordination Sequence:
#
# PCOD9444038 Si02
#       6
#     8   4   4   4   4   8
#     4  11  26  43  71  97 134 183 226 283 343 402
#     4   9  23  42  74  94 131 181 219 291 337 385
#     4  12  26  46  62 100 146 174 228 276 338 424
#     4  10  20  43  67  97 127 168 232 277 333 399
#     4  11  22  45  72 102 134 176 233 292 333 403
#     4  10  25  45  64 105 133 178 234 272 344 416
#
# _framework density 20.377067
#
# number of rings (size 3 to 8) (size 9 to 14) (size 15 to 20)
#    0.000    1.500    2.500    1.125    7.000    4.000 
#    0.000    0.000    0.000    0.000    0.000    0.000 
#    0.000    0.000    0.000    0.000    0.000    0.000 
#
# Total GULP energy -178745.763739 kJ/mol
# GULP energy per Si atom -5585.805117 kJ/mol
# Density = 2.033069 g / cm^3
# Si number density = 20.377067 Si / 1000 Ang^3
#
#
#
# Elastic Constant Matrix: (Units=GPa)
#
#
# Indices 1 2 3 4 5 6 
#
# 1 165.0597 54.8070 48.5705 0.0000 0.0000 0.0000
# 2 54.8070 104.0115 22.0462 0.0000 0.0000 0.0000
# 3 48.5705 22.0462 96.2872 0.0000 0.0000 0.0000
# 4 0.0000 0.0000 0.0000 9.1165 0.0000 0.0000
# 5 0.0000 0.0000 0.0000 0.0000 296.3180 0.0000
# 6 0.0000 0.0000 0.0000 0.0000 0.0000 30.8143
#
#
#
# Elastic Compliance Matrix: (Units=1/GPa)
#
#
# Indices 1 2 3 4 5 6 
#
# 1 0.008246 -0.003640 -0.003326 0.000000 0.000000 0.000000
# 2 -0.003640 0.011712 -0.000845 0.000000 0.000000 0.000000
# 3 -0.003326 -0.000845 0.012257 0.000000 0.000000 0.000000
# 4 0.000000 0.000000 0.000000 0.109692 0.000000 0.000000
# 5 0.000000 0.000000 0.000000 0.000000 0.003375 0.000000
# 6 0.000000 0.000000 0.000000 0.000000 0.000000 0.032452
#
#
# Mechanical properties :
#
#
# Convention : Reuss Voigt Hill
#
# Bulk Modulus (GPa) = 60.27202 68.46732 64.36967
# Shear Modulus (GPa) = 25.13999 83.24538 54.19269
#
# Velocity S-wave (km/s) = 3.51627 6.39853 5.16262
# Velocity P-wave (km/s) = 6.79177 9.39475 8.19724
#
# Compressibility (1/GPa) = 0.01659145
#
# Stress axis : x y z
#
# Youngs Moduli (GPa) = 121.27442 85.38589 81.58664
#
# Poissons Ratio (x) = 0.31080 0.27136
# Poissons Ratio (y) = 0.44144 0.06897
# Poissons Ratio (z) = 0.40336 0.07218
#
# Static dielectric constant tensor:
#      x y z
#    x 1.606120 0.000000 0.000000 
#    y 0.000000 1.719420 0.000000 
#    z 0.000000 0.000000 1.529040 
# 
# From -- ./inp_files/25908.got.cif
#   From: 2010.05.17/outbox.cif.g08.bks.cpg/sg58_13_cif.got.tgz:25908.got - 2010.06.03 14:20:14.
