data_PCOD9444999
_publ_section_title
;
Structure prediction by ZEFSAII (Michael W. Deem and Ramdas Pophale) SiO2 
 PCOD9444999
Probable space group: P N N M
;
_chemical_formula_sum "Si O2"
_cell_formula_units_Z 56
_cell_length_a 8.776689
_cell_length_b 13.645067
_cell_length_c 23.136509
_cell_angle_alpha 90.000000
_cell_angle_beta 90.000000
_cell_angle_gamma 90.000000
_cell_volume 2770.793832
_symmetry_space_group_name_H-M "P N N M"
_symmetry_group_IT_number 58
_symmetry_cell_setting 'orthorhombic'
loop_
_space_group_symop_operation_xyz
x,y,z
-x,-y,z
1/2+x,1/2-y,1/2-z
1/2-x,1/2+y,1/2-z
-x,-y,-z
x,y,-z
1/2-x,1/2+y,1/2+z
1/2+x,1/2-y,1/2+z
loop_
_atom_site_type_symbol
_atom_site_label
_atom_site_fract_x
_atom_site_fract_y
_atom_site_fract_z
Si Si1 0.431873 0.610718 0.663987
Si Si2 0.190923 0.610158 0.892373
Si Si3 0.368610 0.310598 0.562702
Si Si4 0.852459 0.599924 0.067901
Si Si5 0.454215 0.613564 0.800369
Si Si6 0.057220 0.399032 0.565904
Si Si7 0.844686 0.259850 0.371170
O O1 0.500000 0.500000 0.656063
O O2 0.531477 0.673958 0.619165
O O3 0.444333 0.631589 0.732007
O O4 0.262106 0.649581 0.648791
O O5 0.212540 0.705009 0.932588
O O6 0.229218 0.503653 0.918790
O O7 0.294227 0.626269 0.835428
O O8 0.004891 0.605793 0.892305
O O9 0.448214 0.317175 0.500000
O O10 0.238168 0.392251 0.564635
O O11 0.748084 0.691082 0.084664
O O12 0.895536 0.601327 0.000000
O O13 0.500000 0.500000 0.809010
O O14 0.585622 0.685629 0.824067
O O15 0.000124 0.394218 0.500000
O O16 0.989058 0.308998 0.599552
O O17 0.000000 0.500000 0.592056
#
# Coordination Sequence:
#
# PCOD9444999 Si02
#       7
#     8   8   8   8   8   8   8
#     4  11  27  45  66  93 132 178 234 285 328 399
#     4  11  21  41  65  95 138 174 212 272 333 409
#     4  11  22  40  67  94 128 174 218 274 344 399
#     4  11  23  39  67 102 135 173 220 272 338 415
#     4  11  25  46  65  96 136 175 227 282 339 405
#     4  10  22  39  61  91 128 164 212 273 334 398
#     4  12  23  40  66  93 128 174 224 277 335 404
#
# _framework density 20.210816000000001
#
# number of rings (size 3 to 8) (size 9 to 14) (size 15 to 20)
#    0.000    1.000    4.286    3.000    2.000    0.857 
#    0.000    0.714    3.143    0.000    0.000    0.000 
#    0.000    0.000    0.000    0.000    0.000    0.000 
#
# Total GULP energy -311988.233181 kJ/mol
# GULP energy per Si atom -5571.218450 kJ/mol
# Density = 2.016481 g / cm^3
# Si number density = 20.210816 Si / 1000 Ang^3
#
#
#
# Elastic Constant Matrix: (Units=GPa)
#
#
# Indices 1 2 3 4 5 6 
#
# 1 74.7613 20.1010 49.4894 0.0000 0.0000 0.0000
# 2 20.1010 87.6638 38.2327 0.0000 0.0000 0.0000
# 3 49.4894 38.2327 127.5579 0.0000 0.0000 0.0000
# 4 0.0000 0.0000 0.0000 11.5069 0.0000 0.0000
# 5 0.0000 0.0000 0.0000 0.0000 24.2525 0.0000
# 6 0.0000 0.0000 0.0000 0.0000 0.0000 38.2212
#
#
#
# Elastic Compliance Matrix: (Units=1/GPa)
#
#
# Indices 1 2 3 4 5 6 
#
# 1 0.018117 -0.001252 -0.006654 0.000000 0.000000 0.000000
# 2 -0.001252 0.013209 -0.003473 0.000000 0.000000 0.000000
# 3 -0.006654 -0.003473 0.011462 0.000000 0.000000 0.000000
# 4 0.000000 0.000000 0.000000 0.086905 0.000000 0.000000
# 5 0.000000 0.000000 0.000000 0.000000 0.041233 0.000000
# 6 0.000000 0.000000 0.000000 0.000000 0.000000 0.026164
#
#
# Mechanical properties :
#
#
# Convention : Reuss Voigt Hill
#
# Bulk Modulus (GPa) = 49.92556 56.18101 53.05328
# Shear Modulus (GPa) = 22.07265 26.94009 24.50637
#
# Velocity S-wave (km/s) = 3.30831 3.65493 3.48593
# Velocity P-wave (km/s) = 6.27290 6.75790 6.51991
#
# Compressibility (1/GPa) = 0.02002982
#
# Stress axis : x y z
#
# Youngs Moduli (GPa) = 55.19642 75.70501 87.24419
#
# Poissons Ratio (x) = 0.09481 0.58049
# Poissons Ratio (y) = 0.06912 0.30302
# Poissons Ratio (z) = 0.36726 0.26294
#
# Static dielectric constant tensor:
#      x y z
#    x 1.742670 0.000000 0.000000 
#    y 0.000000 1.769690 0.000000 
#    z 0.000000 0.000000 1.699310 
# 
# From -- ./inp_files/28956.got.cif
#   From: 2010.05.17/outbox.cif.g08.bks.cpg/sg58_15_cif.got.tgz:28956.got - 2010.06.03 14:20:14.
