data_PCOD9444057
_publ_section_title
;
Structure prediction by ZEFSAII (Michael W. Deem and Ramdas Pophale) SiO2 
 PCOD9444057
Probable space group: P N N M
;
_chemical_formula_sum "Si O2"
_cell_formula_units_Z 32
_cell_length_a 15.124785
_cell_length_b 12.316942
_cell_length_c 7.301455
_cell_angle_alpha 90.000000
_cell_angle_beta 90.000000
_cell_angle_gamma 90.000000
_cell_volume 1360.196081
_symmetry_space_group_name_H-M "P N N M"
_symmetry_group_IT_number 58
_symmetry_cell_setting 'orthorhombic'
loop_
_space_group_symop_operation_xyz
x,y,z
-x,-y,z
1/2+x,1/2-y,1/2-z
1/2-x,1/2+y,1/2-z
-x,-y,-z
x,y,-z
1/2-x,1/2+y,1/2+z
1/2+x,1/2-y,1/2+z
loop_
_atom_site_type_symbol
_atom_site_label
_atom_site_fract_x
_atom_site_fract_y
_atom_site_fract_z
Si Si1 0.934115 0.104325 0.214809
Si Si2 0.715922 0.454727 0.724410
Si Si3 0.409397 0.743617 0.277687
Si Si4 0.903470 0.510578 0.291565
O O1 0.993157 0.203444 0.286124
O O2 0.841193 0.059623 0.287295
O O3 0.920424 0.126378 0.000000
O O4 0.000000 0.000000 0.227405
O O5 0.716663 0.458629 0.500000
O O6 0.661413 0.347821 0.775832
O O7 0.816516 0.455431 0.788762
O O8 0.410907 0.746518 0.500000
O O9 0.385017 0.861167 0.207589
O O10 0.911608 0.469151 0.500000
O O11 0.000000 0.500000 0.204149
#
# Coordination Sequence:
#
# PCOD9444057 Si02
#       4
#     8   8   8   8
#     4   7  11  23  46  71  88 108 148 197 233 260
#     4   8  15  30  50  69  91 123 160 192 227 276
#     4   9  17  31  52  73  90 115 158 205 234 257
#     4  10  21  34  46  66 100 133 152 175 228 295
#
# _framework density 23.526019000000002
#
# number of rings (size 3 to 8) (size 9 to 14) (size 15 to 20)
#    0.000    3.500    0.000    3.000    0.000    2.500 
#    0.000    1.250    0.000    6.750    0.000    0.000 
#    0.000    0.000    0.000    0.000    0.000    0.000 
#
# Total GULP energy -178489.114140 kJ/mol
# GULP energy per Si atom -5577.784817 kJ/mol
# Density = 2.347247 g / cm^3
# Si number density = 23.526019 Si / 1000 Ang^3
#
#
#
# Elastic Constant Matrix: (Units=GPa)
#
#
# Indices 1 2 3 4 5 6 
#
# 1 190.3486 16.7150 7.6481 0.0000 0.0000 0.0000
# 2 16.7150 40.5032 -9.4095 0.0000 0.0000 0.0000
# 3 7.6481 -9.4095 100.6278 0.0000 0.0000 0.0000
# 4 0.0000 0.0000 0.0000 11.0963 0.0000 0.0000
# 5 0.0000 0.0000 0.0000 0.0000 -21.7866 0.0000
# 6 0.0000 0.0000 0.0000 0.0000 0.0000 21.4358
#
#
#
# Elastic Compliance Matrix: (Units=1/GPa)
#
#
# Indices 1 2 3 4 5 6 
#
# 1 0.005491 -0.002416 -0.000643 0.000000 0.000000 0.000000
# 2 -0.002416 0.026300 0.002643 0.000000 0.000000 0.000000
# 3 -0.000643 0.002643 0.010234 0.000000 0.000000 0.000000
# 4 0.000000 0.000000 0.000000 0.090120 0.000000 0.000000
# 5 0.000000 0.000000 0.000000 0.000000 -0.045900 0.000000
# 6 0.000000 0.000000 0.000000 0.000000 0.000000 0.046651
#
#
# Mechanical properties :
#
#
# Convention : Reuss Voigt Hill
#
# Bulk Modulus (GPa) = 24.27577 40.15409 32.21493
# Shear Modulus (GPa) = 33.90755 23.25084 28.57920
#
# Velocity S-wave (km/s) = 3.80054 3.14714 3.48917
# Velocity P-wave (km/s) = 5.44057 5.50554 5.47315
#
# Compressibility (1/GPa) = 0.04119335
#
# Stress axis : x y z
#
# Youngs Moduli (GPa) = 182.09984 38.02233 97.71701
#
# Poissons Ratio (x) = 0.09185 0.06286
# Poissons Ratio (y) = 0.43990 -0.25826
# Poissons Ratio (z) = 0.11714 -0.10049
#
# Static dielectric constant tensor:
#      x y z
#    x 1.925150 0.000000 0.000000 
#    y 0.000000 1.869330 0.000000 
#    z 0.000000 0.000000 1.889420 
# 
# From -- ./inp_files/3498.got.cif
#   From: 2010.05.17/outbox.cif.g08.bks.cpg/sg58_2_cif.got.tgz:3498.got - 2010.06.03 14:20:14.
