data_PCOD9444121
_publ_section_title
;
Structure prediction by ZEFSAII (Michael W. Deem and Ramdas Pophale) SiO2 
 PCOD9444121
Probable space group: P N N M
;
_chemical_formula_sum "Si O2"
_cell_formula_units_Z 48
_cell_length_a 17.757208
_cell_length_b 18.540523
_cell_length_c 8.024015
_cell_angle_alpha 90.000000
_cell_angle_beta 90.000000
_cell_angle_gamma 90.000000
_cell_volume 2641.729795
_symmetry_space_group_name_H-M "P N N M"
_symmetry_group_IT_number 58
_symmetry_cell_setting 'orthorhombic'
loop_
_space_group_symop_operation_xyz
x,y,z
-x,-y,z
1/2+x,1/2-y,1/2-z
1/2-x,1/2+y,1/2-z
-x,-y,-z
x,y,-z
1/2-x,1/2+y,1/2+z
1/2+x,1/2-y,1/2+z
loop_
_atom_site_type_symbol
_atom_site_label
_atom_site_fract_x
_atom_site_fract_y
_atom_site_fract_z
Si Si1 0.938977 0.286312 0.303199
Si Si2 0.663878 0.661184 0.809967
Si Si3 0.913642 0.808358 0.693136
Si Si4 0.402912 0.425283 0.500000
Si Si5 0.916352 0.910386 0.000000
Si Si6 0.673757 0.159904 0.189950
Si Si7 0.525811 0.077814 0.695367
O O1 0.942415 0.301893 0.500000
O O2 0.862195 0.243411 0.267445
O O3 0.005151 0.228090 0.268152
O O4 0.961774 0.360660 0.216250
O O5 0.628101 0.611639 0.667550
O O6 0.753293 0.650930 0.802494
O O7 0.636764 0.647303 0.000000
O O8 0.914660 0.833735 0.500000
O O9 0.856686 0.741337 0.705555
O O10 0.895926 0.867010 0.832490
O O11 0.383327 0.509668 0.500000
O O12 0.493040 0.417410 0.500000
O O13 0.602143 0.109120 0.225038
O O14 0.698488 0.148241 0.000000
O O15 0.541498 0.069325 0.500000
O O16 0.500000 0.000000 0.762460
#
# Coordination Sequence:
#
# PCOD9444121 Si02
#       7
#     8   8   8   4   4   8   8
#     4   9  19  34  56  83 110 147 192 240 286 336
#     4  11  22  38  59  86 117 153 196 242 291 344
#     4   9  19  35  56  87 113 142 192 244 279 333
#     4  11  24  38  56  90 117 158 196 231 293 350
#     4  11  22  36  62  84 114 156 196 235 292 344
#     4  10  21  36  60  86 113 150 199 240 289 349
#     4  10  21  35  56  88 119 155 194 237 297 352
#
# _framework density 18.169913000000001
#
# number of rings (size 3 to 8) (size 9 to 14) (size 15 to 20)
#    0.000    2.000    2.500    2.000    7.000    2.000 
#    0.000    3.333    0.000    2.000    0.000    0.000 
#    0.000    0.000    0.000    0.000    0.000    0.000 
#
# Total GULP energy -267645.351750 kJ/mol
# GULP energy per Si atom -5575.944828 kJ/mol
# Density = 1.812856 g / cm^3
# Si number density = 18.169913 Si / 1000 Ang^3
#
#
#
# Elastic Constant Matrix: (Units=GPa)
#
#
# Indices 1 2 3 4 5 6 
#
# 1 58.8255 28.0147 17.3953 0.0000 0.0000 0.0000
# 2 28.0147 114.3015 59.1671 0.0000 0.0000 0.0000
# 3 17.3953 59.1671 94.8704 0.0000 0.0000 0.0000
# 4 0.0000 0.0000 0.0000 8.8768 0.0000 0.0000
# 5 0.0000 0.0000 0.0000 0.0000 -4.3800 0.0000
# 6 0.0000 0.0000 0.0000 0.0000 0.0000 13.6337
#
#
#
# Elastic Compliance Matrix: (Units=1/GPa)
#
#
# Indices 1 2 3 4 5 6 
#
# 1 0.019294 -0.004279 -0.000869 0.000000 0.000000 0.000000
# 2 -0.004279 0.013869 -0.007865 0.000000 0.000000 0.000000
# 3 -0.000869 -0.007865 0.015605 0.000000 0.000000 0.000000
# 4 0.000000 0.000000 0.000000 0.112653 0.000000 0.000000
# 5 0.000000 0.000000 0.000000 0.000000 -0.228309 0.000000
# 6 0.000000 0.000000 0.000000 0.000000 0.000000 0.073348
#
#
# Mechanical properties :
#
#
# Convention : Reuss Voigt Hill
#
# Bulk Modulus (GPa) = 43.97126 53.01687 48.49406
# Shear Modulus (GPa) = 124.79262 14.52077 69.65670
#
# Velocity S-wave (km/s) = 8.29639 2.83002 6.19835
# Velocity P-wave (km/s) = 10.77153 6.31826 8.83024
#
# Compressibility (1/GPa) = 0.02274213
#
# Stress axis : x y z
#
# Youngs Moduli (GPa) = 51.82886 72.10475 64.08195
#
# Poissons Ratio (x) = 0.30854 0.05569
# Poissons Ratio (y) = 0.22178 0.50399
# Poissons Ratio (z) = 0.04504 0.56709
#
# Static dielectric constant tensor:
#      x y z
#    x 1.632640 0.000000 0.000000 
#    y 0.000000 1.615410 0.000000 
#    z 0.000000 0.000000 1.628070 
# 
# From -- ./inp_files/5963.got.cif
#   From: 2010.05.17/outbox.cif.g08.bks.cpg/sg58_3_cif.got.tgz:5963.got - 2010.06.03 14:20:14.
