data_PCOD9444041
_publ_section_title
;
Structure prediction by ZEFSAII (Michael W. Deem and Ramdas Pophale) SiO2 
 PCOD9444041
Probable space group: P N N M
;
_chemical_formula_sum "Si O2"
_cell_formula_units_Z 34
_cell_length_a 11.130534
_cell_length_b 14.553886
_cell_length_c 9.044003
_cell_angle_alpha 90.000000
_cell_angle_beta 90.000000
_cell_angle_gamma 90.000000
_cell_volume 1465.060864
_symmetry_space_group_name_H-M "P N N M"
_symmetry_group_IT_number 58
_symmetry_cell_setting 'orthorhombic'
loop_
_space_group_symop_operation_xyz
x,y,z
-x,-y,z
1/2+x,1/2-y,1/2-z
1/2-x,1/2+y,1/2-z
-x,-y,-z
x,y,-z
1/2-x,1/2+y,1/2+z
1/2+x,1/2-y,1/2+z
loop_
_atom_site_type_symbol
_atom_site_label
_atom_site_fract_x
_atom_site_fract_y
_atom_site_fract_z
Si Si1 0.148659 0.444830 0.500000
Si Si2 0.500000 0.000000 0.258256
Si Si3 0.500000 0.500000 0.000000
Si Si4 0.766689 0.791768 0.000000
Si Si5 0.405928 0.621388 0.246541
Si Si6 0.989539 0.740650 0.500000
Si Si7 0.593492 0.646144 0.500000
Si Si8 0.994547 0.657715 0.000000
O O1 0.114740 0.496570 0.350070
O O2 0.278288 0.400264 0.500000
O O3 0.052614 0.362329 0.500000
O O4 0.495871 0.090381 0.360105
O O5 0.407889 0.538405 0.130836
O O6 0.797072 0.851943 0.854519
O O7 0.866392 0.710575 0.000000
O O8 0.633256 0.752861 0.000000
O O9 0.436552 0.708120 0.142132
O O10 0.517782 0.614024 0.358755
O O11 0.589713 0.757916 0.500000
#
# Coordination Sequence:
#
# PCOD9444041 Si02
#       8
#     4   4   2   4   8   4   4   4
#     4  11  23  41  62  97 142 171 216 284 330 415
#     4  10  22  42  62  98 138 164 226 282 338 388
#     4  10  20  46  64  96 138 156 236 274 342 412
#     4  10  22  43  70  95 134 177 229 287 327 418
#     4   9  22  42  66  99 126 179 220 280 336 397
#     4  11  23  40  68  98 130 177 238 266 338 407
#     4  10  22  41  72  94 134 183 221 269 344 415
#     4   9  20  44  70  93 126 177 228 273 340 401
#
# _framework density 23.207225000000001
#
# number of rings (size 3 to 8) (size 9 to 14) (size 15 to 20)
#    0.000    2.353    0.000    2.824    6.588    1.882 
#    8.471    2.353    0.000    0.000    0.000    0.000 
#    0.000    0.000    0.000    0.000    0.000    0.000 
#
# Total GULP energy -189608.271739 kJ/mol
# GULP energy per Si atom -5576.713875 kJ/mol
# Density = 2.315440 g / cm^3
# Si number density = 23.207225 Si / 1000 Ang^3
#
#
#
# Elastic Constant Matrix: (Units=GPa)
#
#
# Indices 1 2 3 4 5 6 
#
# 1 68.6374 43.7139 31.9840 0.0000 0.0000 0.0000
# 2 43.7139 81.4691 58.3726 0.0000 0.0000 0.0000
# 3 31.9840 58.3726 204.5862 0.0000 0.0000 0.0000
# 4 0.0000 0.0000 0.0000 44.2374 0.0000 0.0000
# 5 0.0000 0.0000 0.0000 0.0000 -0.4543 0.0000
# 6 0.0000 0.0000 0.0000 0.0000 0.0000 36.7683
#
#
#
# Elastic Compliance Matrix: (Units=1/GPa)
#
#
# Indices 1 2 3 4 5 6 
#
# 1 0.022134 -0.011812 -0.000090 0.000000 0.000000 0.000000
# 2 -0.011812 0.021732 -0.004354 0.000000 0.000000 0.000000
# 3 -0.000090 -0.004354 0.006144 0.000000 0.000000 0.000000
# 4 0.000000 0.000000 0.000000 0.022605 0.000000 0.000000
# 5 0.000000 0.000000 0.000000 0.000000 -2.201001 0.000000
# 6 0.000000 0.000000 0.000000 0.000000 0.000000 0.027197
#
#
# Mechanical properties :
#
#
# Convention : Reuss Voigt Hill
#
# Bulk Modulus (GPa) = 57.14805 69.20374 63.17589
# Shear Modulus (GPa) = -2.42384 30.81841 14.19729
#
# Velocity S-wave (km/s) = -1.02308 3.64808 2.47606
# Velocity P-wave (km/s) = 4.82524 6.90140 5.95451
#
# Compressibility (1/GPa) = 0.01749841
#
# Stress axis : x y z
#
# Youngs Moduli (GPa) = 45.17914 46.01473 162.75250
#
# Poissons Ratio (x) = 0.54352 0.01467
# Poissons Ratio (y) = 0.53365 0.70863
# Poissons Ratio (z) = 0.00407 0.20035
#
# Static dielectric constant tensor:
#      x y z
#    x 1.842810 0.000000 0.000000 
#    y 0.000000 1.937240 0.000000 
#    z 0.000000 0.000000 1.893320 
# 
# From -- ./inp_files/3649.got.cif
#   From: 2010.05.17/outbox.cif.g08.bks.cpg/sg58_2_cif.got.tgz:3649.got - 2010.06.03 14:20:14.
