data_PCOD9444346
_publ_section_title
;
Structure prediction by ZEFSAII (Michael W. Deem and Ramdas Pophale) SiO2 
 PCOD9444346
Probable space group: P N N M
;
_chemical_formula_sum "Si O2"
_cell_formula_units_Z 40
_cell_length_a 10.182697
_cell_length_b 22.622505
_cell_length_c 9.279347
_cell_angle_alpha 90.000000
_cell_angle_beta 90.000000
_cell_angle_gamma 90.000000
_cell_volume 2137.572872
_symmetry_space_group_name_H-M "P N N M"
_symmetry_group_IT_number 58
_symmetry_cell_setting 'orthorhombic'
loop_
_space_group_symop_operation_xyz
x,y,z
-x,-y,z
1/2+x,1/2-y,1/2-z
1/2-x,1/2+y,1/2-z
-x,-y,-z
x,y,-z
1/2-x,1/2+y,1/2+z
1/2+x,1/2-y,1/2+z
loop_
_atom_site_type_symbol
_atom_site_label
_atom_site_fract_x
_atom_site_fract_y
_atom_site_fract_z
Si Si1 0.206910 0.884762 0.170858
Si Si2 0.926337 0.842185 0.832412
Si Si3 0.438901 0.935208 0.330727
Si Si4 0.865535 0.348371 0.332443
Si Si5 0.226526 0.248949 0.670316
O O1 0.294931 0.929074 0.261832
O O2 0.263864 0.818500 0.196030
O O3 0.053056 0.879618 0.209674
O O4 0.217663 0.897429 0.000000
O O5 0.784333 0.874289 0.825979
O O6 0.899894 0.784344 0.736030
O O7 0.946617 0.824270 0.000000
O O8 0.434706 0.921119 0.500000
O O9 0.532385 0.889399 0.247590
O O10 0.500000 0.000000 0.312702
O O11 0.900929 0.340349 0.500000
O O12 0.842596 0.286184 0.252086
O O13 0.234411 0.238834 0.500000
#
# Coordination Sequence:
#
# PCOD9444346 Si02
#       5
#     8   8   8   8   8
#     4  10  21  37  58  86 118 153 196 241 290 354
#     4   8  18  35  54  82 116 149 187 231 286 346
#     4  11  25  42  59  83 116 158 204 249 297 346
#     4   9  19  36  59  84 114 153 191 235 292 350
#     4   9  18  31  54  87 120 151 185 231 291 348
#
# _framework density 18.712813000000001
#
# number of rings (size 3 to 8) (size 9 to 14) (size 15 to 20)
#    1.200    1.400    0.000    1.200    2.800    4.000 
#    0.000    1.000    0.000    6.000    0.000    0.000 
#    0.000    0.000    0.000    0.000    0.000    0.000 
#
# Total GULP energy -222781.054946 kJ/mol
# GULP energy per Si atom -5569.526374 kJ/mol
# Density = 1.867022 g / cm^3
# Si number density = 18.712813 Si / 1000 Ang^3
#
#
#
# Elastic Constant Matrix: (Units=GPa)
#
#
# Indices 1 2 3 4 5 6 
#
# 1 75.2856 2.3910 16.3030 0.0000 0.0000 0.0000
# 2 2.3910 13.6705 20.1356 0.0000 0.0000 0.0000
# 3 16.3030 20.1356 64.5476 0.0000 0.0000 0.0000
# 4 0.0000 0.0000 0.0000 15.1784 0.0000 0.0000
# 5 0.0000 0.0000 0.0000 0.0000 14.2135 0.0000
# 6 0.0000 0.0000 0.0000 0.0000 0.0000 60.6897
#
#
#
# Elastic Compliance Matrix: (Units=1/GPa)
#
#
# Indices 1 2 3 4 5 6 
#
# 1 0.014248 0.005196 -0.005220 0.000000 0.000000 0.000000
# 2 0.005196 0.137228 -0.044121 0.000000 0.000000 0.000000
# 3 -0.005220 -0.044121 0.030574 0.000000 0.000000 0.000000
# 4 0.000000 0.000000 0.000000 0.065883 0.000000 0.000000
# 5 0.000000 0.000000 0.000000 0.000000 0.070356 0.000000
# 6 0.000000 0.000000 0.000000 0.000000 0.000000 0.016477
#
#
# Mechanical properties :
#
#
# Convention : Reuss Voigt Hill
#
# Bulk Modulus (GPa) = 10.66532 25.68477 18.17504
# Shear Modulus (GPa) = 11.00574 25.66126 18.33350
#
# Velocity S-wave (km/s) = 2.42779 3.70715 3.13346
# Velocity P-wave (km/s) = 3.68385 5.66388 4.77756
#
# Compressibility (1/GPa) = 0.09376183
#
# Stress axis : x y z
#
# Youngs Moduli (GPa) = 70.18522 7.28714 32.70733
#
# Poissons Ratio (x) = -0.03786 0.17072
# Poissons Ratio (y) = -0.36468 1.44307
# Poissons Ratio (z) = 0.36634 0.32151
#
# Static dielectric constant tensor:
#      x y z
#    x 1.715570 0.000000 0.000000 
#    y 0.000000 1.615850 0.000000 
#    z 0.000000 0.000000 1.622450 
# 
# From -- ./inp_files/4020.got.cif
#   From: 2010.05.17/outbox.cif.g08.bks.cpg/sg58_3_cif.got.tgz:4020.got - 2010.06.03 14:20:14.
