data_PCOD9444264
_publ_section_title
;
Structure prediction by ZEFSAII (Michael W. Deem and Ramdas Pophale) SiO2 
 PCOD9444264
Probable space group: P N N M
;
_chemical_formula_sum "Si O2"
_cell_formula_units_Z 56
_cell_length_a 20.362956
_cell_length_b 9.352083
_cell_length_c 14.552798
_cell_angle_alpha 90.000000
_cell_angle_beta 90.000000
_cell_angle_gamma 90.000000
_cell_volume 2771.377435
_symmetry_space_group_name_H-M "P N N M"
_symmetry_group_IT_number 58
_symmetry_cell_setting 'orthorhombic'
loop_
_space_group_symop_operation_xyz
x,y,z
-x,-y,z
1/2+x,1/2-y,1/2-z
1/2-x,1/2+y,1/2-z
-x,-y,-z
x,y,-z
1/2-x,1/2+y,1/2+z
1/2+x,1/2-y,1/2+z
loop_
_atom_site_type_symbol
_atom_site_label
_atom_site_fract_x
_atom_site_fract_y
_atom_site_fract_z
Si Si1 0.802706 0.148676 0.397606
Si Si2 0.448308 0.868471 0.099666
Si Si3 0.518638 0.165573 0.697749
Si Si4 0.820388 0.964425 0.220189
Si Si5 0.175933 0.531068 0.666382
Si Si6 0.340058 0.847155 0.666874
Si Si7 0.063656 0.898660 0.104764
O O1 0.827070 0.119612 0.500000
O O2 0.821496 0.036117 0.319669
O O3 0.827624 0.304483 0.364141
O O4 0.722649 0.147681 0.398541
O O5 0.464011 0.790370 0.196426
O O6 0.375711 0.937280 0.109570
O O7 0.500000 0.000000 0.097831
O O8 0.453802 0.794022 0.000000
O O9 0.585228 0.180128 0.637093
O O10 0.460274 0.257507 0.656888
O O11 0.500000 0.000000 0.699836
O O12 0.753179 0.005473 0.166661
O O13 0.879937 0.021810 0.160268
O O14 0.822554 0.792976 0.227865
O O15 0.157653 0.490316 0.771459
O O16 0.083598 0.868886 0.000000
O O17 0.000000 0.000000 0.103357
#
# Coordination Sequence:
#
# PCOD9444264 Si02
#       7
#     8   8   8   8   8   8   8
#     4  10  21  36  62  92 120 159 204 248 299 368
#     4   9  18  32  55  89 118 149 193 240 292 353
#     4  10  21  38  62  86 121 160 198 254 307 352
#     4  10  21  38  61  87 125 158 198 252 315 356
#     4   9  19  36  59  86 118 160 204 245 293 356
#     4   9  19  38  59  85 120 164 196 245 307 360
#     4  11  24  41  62  87 114 154 207 251 301 368
#
# _framework density 20.206558999999999
#
# number of rings (size 3 to 8) (size 9 to 14) (size 15 to 20)
#    0.000    2.286    1.429    0.429    6.000    3.714 
#    0.000    3.571    0.000    0.857    0.000    0.000 
#    0.000    0.000    0.000    0.000    0.000    0.000 
#
# Total GULP energy -312069.283561 kJ/mol
# GULP energy per Si atom -5572.665778 kJ/mol
# Density = 2.016057 g / cm^3
# Si number density = 20.206559 Si / 1000 Ang^3
#
#
#
# Elastic Constant Matrix: (Units=GPa)
#
#
# Indices 1 2 3 4 5 6 
#
# 1 85.7739 8.2010 19.4711 0.0000 0.0000 0.0000
# 2 8.2010 50.6751 48.2293 0.0000 0.0000 0.0000
# 3 19.4711 48.2293 124.6895 0.0000 0.0000 0.0000
# 4 0.0000 0.0000 0.0000 17.9527 0.0000 0.0000
# 5 0.0000 0.0000 0.0000 0.0000 100.0207 0.0000
# 6 0.0000 0.0000 0.0000 0.0000 0.0000 23.5126
#
#
#
# Elastic Compliance Matrix: (Units=1/GPa)
#
#
# Indices 1 2 3 4 5 6 
#
# 1 0.012089 -0.000253 -0.001790 0.000000 0.000000 0.000000
# 2 -0.000253 0.031236 -0.012042 0.000000 0.000000 0.000000
# 3 -0.001790 -0.012042 0.012957 0.000000 0.000000 0.000000
# 4 0.000000 0.000000 0.000000 0.055702 0.000000 0.000000
# 5 0.000000 0.000000 0.000000 0.000000 0.009998 0.000000
# 6 0.000000 0.000000 0.000000 0.000000 0.000000 0.042530
#
#
# Mechanical properties :
#
#
# Convention : Reuss Voigt Hill
#
# Bulk Modulus (GPa) = 35.57229 45.88235 40.72732
# Shear Modulus (GPa) = 24.74601 40.64635 32.69618
#
# Velocity S-wave (km/s) = 3.50330 4.48989 4.02692
# Velocity P-wave (km/s) = 5.83153 7.04519 6.46689
#
# Compressibility (1/GPa) = 0.02811177
#
# Stress axis : x y z
#
# Youngs Moduli (GPa) = 82.71932 32.01483 77.17639
#
# Poissons Ratio (x) = 0.00809 0.13815
# Poissons Ratio (y) = 0.02091 0.92938
# Poissons Ratio (z) = 0.14807 0.38553
#
# Static dielectric constant tensor:
#      x y z
#    x 1.757950 0.000000 0.000000 
#    y 0.000000 1.710770 0.000000 
#    z 0.000000 0.000000 1.725290 
# 
# From -- ./inp_files/23277.got.cif
#   From: 2010.05.17/outbox.cif.g08.bks.cpg/sg58_12_cif.got.tgz:23277.got - 2010.06.03 14:20:14.
