data_PCOD9444972
_publ_section_title
;
Structure prediction by ZEFSAII (Michael W. Deem and Ramdas Pophale) SiO2 
 PCOD9444972
Probable space group: P N N M
;
_chemical_formula_sum "Si O2"
_cell_formula_units_Z 56
_cell_length_a 14.876954
_cell_length_b 9.247647
_cell_length_c 20.223180
_cell_angle_alpha 90.000000
_cell_angle_beta 90.000000
_cell_angle_gamma 90.000000
_cell_volume 2782.240775
_symmetry_space_group_name_H-M "P N N M"
_symmetry_group_IT_number 58
_symmetry_cell_setting 'orthorhombic'
loop_
_space_group_symop_operation_xyz
x,y,z
-x,-y,z
1/2+x,1/2-y,1/2-z
1/2-x,1/2+y,1/2-z
-x,-y,-z
x,y,-z
1/2-x,1/2+y,1/2+z
1/2+x,1/2-y,1/2+z
loop_
_atom_site_type_symbol
_atom_site_label
_atom_site_fract_x
_atom_site_fract_y
_atom_site_fract_z
Si Si1 0.271706 0.588711 0.575876
Si Si2 0.952187 0.847477 0.150321
Si Si3 0.330316 0.288788 0.179708
Si Si4 0.107980 0.657505 0.188709
Si Si5 0.356623 0.851504 0.256963
Si Si6 0.607260 0.490226 0.928589
Si Si7 0.787710 0.719490 0.621367
O O1 0.253567 0.629428 0.500000
O O2 0.373629 0.634663 0.595987
O O3 0.207615 0.666298 0.629834
O O4 0.255807 0.416739 0.583905
O O5 0.900470 0.794622 0.215798
O O6 0.030990 0.728332 0.143239
O O7 0.000000 0.000000 0.158503
O O8 0.393834 0.231527 0.238232
O O9 0.245544 0.352418 0.218665
O O10 0.367139 0.412353 0.133170
O O11 0.100712 0.489001 0.206629
O O12 0.204542 0.693854 0.155572
O O13 0.351345 0.847427 0.178618
O O14 0.500000 0.500000 0.930931
O O15 0.651417 0.332547 0.918531
O O16 0.641188 0.545719 0.000000
#
# Coordination Sequence:
#
# PCOD9444972 Si02
#       7
#     8   8   8   8   8   8   8
#     4  11  23  44  66  90 131 176 218 264 318 397
#     4  11  24  38  63 101 127 166 213 261 326 387
#     4  10  22  39  66  91 121 170 211 260 322 374
#     4  11  21  39  62  95 133 162 207 269 327 386
#     4  10  22  38  63  91 133 160 207 264 322 384
#     4  11  25  43  63  91 124 165 215 261 312 384
#     4  11  22  40  65  94 123 170 217 262 330 380
#
# _framework density 20.127662000000001
#
# number of rings (size 3 to 8) (size 9 to 14) (size 15 to 20)
#    0.000    1.286    4.286    1.286    4.000    0.286 
#    0.000    0.714    0.000    4.286    0.000    0.000 
#    0.000    0.000    0.000    0.000    0.000    0.000 
#
# Total GULP energy -312382.097492 kJ/mol
# GULP energy per Si atom -5578.251741 kJ/mol
# Density = 2.008185 g / cm^3
# Si number density = 20.127662 Si / 1000 Ang^3
#
#
#
# Elastic Constant Matrix: (Units=GPa)
#
#
# Indices 1 2 3 4 5 6 
#
# 1 58.3245 5.0115 14.1880 0.0000 0.0000 0.0000
# 2 5.0115 60.6983 18.5313 0.0000 0.0000 0.0000
# 3 14.1880 18.5313 77.7679 0.0000 0.0000 0.0000
# 4 0.0000 0.0000 0.0000 1.5841 0.0000 0.0000
# 5 0.0000 0.0000 0.0000 0.0000 13.6352 0.0000
# 6 0.0000 0.0000 0.0000 0.0000 0.0000 35.9380
#
#
#
# Elastic Compliance Matrix: (Units=1/GPa)
#
#
# Indices 1 2 3 4 5 6 
#
# 1 0.017957 -0.000520 -0.003152 0.000000 0.000000 0.000000
# 2 -0.000520 0.017783 -0.004142 0.000000 0.000000 0.000000
# 3 -0.003152 -0.004142 0.014421 0.000000 0.000000 0.000000
# 4 0.000000 0.000000 0.000000 0.631272 0.000000 0.000000
# 5 0.000000 0.000000 0.000000 0.000000 0.073340 0.000000
# 6 0.000000 0.000000 0.000000 0.000000 0.000000 0.027826
#
#
# Mechanical properties :
#
#
# Convention : Reuss Voigt Hill
#
# Bulk Modulus (GPa) = 28.95969 30.25028 29.60498
# Shear Modulus (GPa) = 6.17484 20.83545 13.50515
#
# Velocity S-wave (km/s) = 1.75342 3.22089 2.59313
# Velocity P-wave (km/s) = 4.30332 5.37531 4.86891
#
# Compressibility (1/GPa) = 0.03453076
#
# Stress axis : x y z
#
# Youngs Moduli (GPa) = 55.68884 56.23481 69.34352
#
# Poissons Ratio (x) = 0.02926 0.21858
# Poissons Ratio (y) = 0.02897 0.28725
# Poissons Ratio (z) = 0.17554 0.23295
#
# Static dielectric constant tensor:
#      x y z
#    x 1.743380 0.000000 0.000000 
#    y 0.000000 1.736940 0.000000 
#    z 0.000000 0.000000 1.717840 
# 
# From -- ./inp_files/30000.got.cif
#   From: 2010.05.17/outbox.cif.g08.bks.cpg/sg58_15_cif.got.tgz:30000.got - 2010.06.03 14:20:14.
