data_PCOD9444930
_publ_section_title
;
Structure prediction by ZEFSAII (Michael W. Deem and Ramdas Pophale) SiO2 
 PCOD9444930
Probable space group: P N N M
;
_chemical_formula_sum "Si O2"
_cell_formula_units_Z 64
_cell_length_a 8.938163
_cell_length_b 22.686795
_cell_length_c 16.000455
_cell_angle_alpha 90.000000
_cell_angle_beta 90.000000
_cell_angle_gamma 90.000000
_cell_volume 3244.544611
_symmetry_space_group_name_H-M "P N N M"
_symmetry_group_IT_number 58
_symmetry_cell_setting 'orthorhombic'
loop_
_space_group_symop_operation_xyz
x,y,z
-x,-y,z
1/2+x,1/2-y,1/2-z
1/2-x,1/2+y,1/2-z
-x,-y,-z
x,y,-z
1/2-x,1/2+y,1/2+z
1/2+x,1/2-y,1/2+z
loop_
_atom_site_type_symbol
_atom_site_label
_atom_site_fract_x
_atom_site_fract_y
_atom_site_fract_z
Si Si1 0.794856 0.180596 0.272263
Si Si2 0.910982 0.091554 0.591213
Si Si3 0.456140 0.634625 0.343540
Si Si4 0.451228 0.866562 0.150365
Si Si5 0.206638 0.717393 0.407990
Si Si6 0.731816 0.461761 0.091521
Si Si7 0.204296 0.952507 0.092909
Si Si8 0.292220 0.053622 0.774828
O O1 0.839351 0.128170 0.335011
O O2 0.642961 0.165849 0.223080
O O3 0.785758 0.238058 0.329931
O O4 0.928459 0.177578 0.204250
O O5 0.879505 0.117942 0.500000
O O6 0.089540 0.082256 0.597187
O O7 0.840332 0.026631 0.592001
O O8 0.346440 0.672772 0.400649
O O9 0.552574 0.583482 0.388215
O O10 0.344603 0.599885 0.281782
O O11 0.554777 0.820138 0.102652
O O12 0.332007 0.902522 0.096255
O O13 0.563418 0.915356 0.187042
O O14 0.209188 0.745196 0.500000
O O15 0.821488 0.458313 0.177411
O O16 0.804935 0.452699 0.000000
O O17 0.242239 0.998317 0.167446
O O18 0.200595 0.979849 0.000000
#
# Coordination Sequence:
#
# PCOD9444930 Si02
#       8
#     8   8   8   8   8   8   8   8
#     4  11  20  39  61  83 110 152 198 242 293 356
#     4   9  17  29  53  84 111 142 188 239 283 342
#     4  10  22  37  59  85 117 150 200 251 292 344
#     4  10  24  39  57  84 121 153 192 244 305 359
#     4  11  23  40  61  83 112 152 201 252 300 348
#     4   9  17  31  53  83 118 148 183 236 297 345
#     4  11  23  38  60  88 122 161 200 241 294 360
#     4  11  21  36  58  87 120 159 193 238 296 363
#
# _framework density 19.725418999999999
#
# number of rings (size 3 to 8) (size 9 to 14) (size 15 to 20)
#    0.000    1.750    1.250    4.875    1.750    4.000 
#    0.000    1.250    0.000    3.000    0.000    0.000 
#    0.000    0.000    0.000    0.000    0.000    0.000 
#
# Total GULP energy -357099.632120 kJ/mol
# GULP energy per Si atom -5579.681752 kJ/mol
# Density = 1.968052 g / cm^3
# Si number density = 19.725419 Si / 1000 Ang^3
#
#
#
# Elastic Constant Matrix: (Units=GPa)
#
#
# Indices 1 2 3 4 5 6 
#
# 1 85.7499 23.4278 21.7886 0.0000 0.0000 0.0000
# 2 23.4278 62.6964 24.5612 0.0000 0.0000 0.0000
# 3 21.7886 24.5612 125.1149 0.0000 0.0000 0.0000
# 4 0.0000 0.0000 0.0000 -189.5643 0.0000 0.0000
# 5 0.0000 0.0000 0.0000 0.0000 2.0062 0.0000
# 6 0.0000 0.0000 0.0000 0.0000 0.0000 24.7746
#
#
#
# Elastic Compliance Matrix: (Units=1/GPa)
#
#
# Indices 1 2 3 4 5 6 
#
# 1 0.013224 -0.004376 -0.001444 0.000000 0.000000 0.000000
# 2 -0.004376 0.018727 -0.002914 0.000000 0.000000 0.000000
# 3 -0.001444 -0.002914 0.008816 0.000000 0.000000 0.000000
# 4 0.000000 0.000000 0.000000 -0.005275 0.000000 0.000000
# 5 0.000000 0.000000 0.000000 0.000000 0.498444 0.000000
# 6 0.000000 0.000000 0.000000 0.000000 0.000000 0.040364
#
#
# Mechanical properties :
#
#
# Convention : Reuss Voigt Hill
#
# Bulk Modulus (GPa) = 42.92008 45.90183 44.41095
# Shear Modulus (GPa) = 8.33981 -18.97110 -5.31565
#
# Velocity S-wave (km/s) = 2.05843 -3.10459 -1.64337
# Velocity P-wave (km/s) = 5.23980 3.23568 4.35460
#
# Compressibility (1/GPa) = 0.02329912
#
# Stress axis : x y z
#
# Youngs Moduli (GPa) = 75.61867 53.39993 113.42767
#
# Poissons Ratio (x) = 0.23367 0.16379
# Poissons Ratio (y) = 0.33090 0.33055
# Poissons Ratio (z) = 0.10919 0.15562
#
# Static dielectric constant tensor:
#      x y z
#    x 1.686430 0.000000 0.000000 
#    y 0.000000 1.683300 0.000000 
#    z 0.000000 0.000000 1.731600 
# 
# From -- ./inp_files/20315.got.cif
#   From: 2010.05.17/outbox.cif.g08.bks.cpg/sg58_11_cif.got.tgz:20315.got - 2010.06.03 14:20:14.
