data_PCOD9444963
_publ_section_title
;
Structure prediction by ZEFSAII (Michael W. Deem and Ramdas Pophale) SiO2 
 PCOD9444963
Probable space group: P N N M
;
_chemical_formula_sum "Si O2"
_cell_formula_units_Z 48
_cell_length_a 11.265527
_cell_length_b 13.025223
_cell_length_c 13.774548
_cell_angle_alpha 90.000000
_cell_angle_beta 90.000000
_cell_angle_gamma 90.000000
_cell_volume 2021.222094
_symmetry_space_group_name_H-M "P N N M"
_symmetry_group_IT_number 58
_symmetry_cell_setting 'orthorhombic'
loop_
_space_group_symop_operation_xyz
x,y,z
-x,-y,z
1/2+x,1/2-y,1/2-z
1/2-x,1/2+y,1/2-z
-x,-y,-z
x,y,-z
1/2-x,1/2+y,1/2+z
1/2+x,1/2-y,1/2+z
loop_
_atom_site_type_symbol
_atom_site_label
_atom_site_fract_x
_atom_site_fract_y
_atom_site_fract_z
Si Si1 0.373794 0.601049 0.389393
Si Si2 0.906708 0.151001 0.755991
Si Si3 0.642794 0.489351 0.889833
Si Si4 0.780577 0.756235 0.383585
Si Si5 0.343759 0.961290 0.114012
Si Si6 0.122504 0.680792 0.385363
O O1 0.418773 0.610565 0.500000
O O2 0.478134 0.610290 0.312548
O O3 0.318962 0.626830 0.134343
O O4 0.297058 0.495213 0.385156
O O5 0.840017 0.228372 0.828563
O O6 0.937966 0.225775 0.666725
O O7 0.826997 0.066906 0.697403
O O8 0.500000 0.500000 0.893281
O O9 0.685723 0.514307 0.000000
O O10 0.769007 0.747985 0.500000
O O11 0.856159 0.654933 0.352352
O O12 0.767355 0.816155 0.125454
O O13 0.403031 0.065748 0.153430
O O14 0.374289 0.961016 0.000000
O O15 0.098308 0.685470 0.500000
#
# Coordination Sequence:
#
# PCOD9444963 Si02
#       6
#     8   8   8   8   8   8
#     4   8  18  36  60  98 133 161 214 286 346 386
#     4  12  22  31  69  93 131 169 230 271 331 409
#     4  10  25  44  60  90 139 182 216 269 340 409
#     4  10  22  38  60  92 128 166 216 278 336 395
#     4   7  15  35  60  84 119 161 213 273 330 382
#     4   8  18  37  59  90 129 174 219 274 337 399
#
# _framework density 23.748009
#
# number of rings (size 3 to 8) (size 9 to 14) (size 15 to 20)
#    1.000    1.833    0.000    1.000    7.000    0.000 
#    0.000    2.500    0.000    4.000    0.000   10.500 
#    0.000    0.000    0.000    0.000    0.000    0.000 
#
# Total GULP energy -267747.639082 kJ/mol
# GULP energy per Si atom -5578.075814 kJ/mol
# Density = 2.369396 g / cm^3
# Si number density = 23.748009 Si / 1000 Ang^3
#
#
#
# Elastic Constant Matrix: (Units=GPa)
#
#
# Indices 1 2 3 4 5 6 
#
# 1 84.1448 62.9185 47.7919 0.0000 0.0000 0.0000
# 2 62.9185 189.0909 73.3149 0.0000 0.0000 0.0000
# 3 47.7919 73.3149 125.2136 0.0000 0.0000 0.0000
# 4 0.0000 0.0000 0.0000 32.9245 0.0000 0.0000
# 5 0.0000 0.0000 0.0000 0.0000 15.5669 0.0000
# 6 0.0000 0.0000 0.0000 0.0000 0.0000 42.6306
#
#
#
# Elastic Compliance Matrix: (Units=1/GPa)
#
#
# Indices 1 2 3 4 5 6 
#
# 1 0.017375 -0.004153 -0.004200 0.000000 0.000000 0.000000
# 2 -0.004153 0.007834 -0.003002 0.000000 0.000000 0.000000
# 3 -0.004200 -0.003002 0.011347 0.000000 0.000000 0.000000
# 4 0.000000 0.000000 0.000000 0.030373 0.000000 0.000000
# 5 0.000000 0.000000 0.000000 0.000000 0.064239 0.000000
# 6 0.000000 0.000000 0.000000 0.000000 0.000000 0.023457
#
#
# Mechanical properties :
#
#
# Convention : Reuss Voigt Hill
#
# Bulk Modulus (GPa) = 72.22086 85.16665 78.69375
# Shear Modulus (GPa) = 27.47988 32.51933 29.99960
#
# Velocity S-wave (km/s) = 3.40537 3.70449 3.55807
# Velocity P-wave (km/s) = 6.77786 7.36465 7.07734
#
# Compressibility (1/GPa) = 0.01384642
#
# Stress axis : x y z
#
# Youngs Moduli (GPa) = 57.55328 127.64426 88.12732
#
# Poissons Ratio (x) = 0.53010 0.37015
# Poissons Ratio (y) = 0.23902 0.26456
# Poissons Ratio (z) = 0.24173 0.38319
#
# Static dielectric constant tensor:
#      x y z
#    x 2.072420 0.000000 0.000000 
#    y 0.000000 1.966750 0.000000 
#    z 0.000000 0.000000 1.934740 
# 
# From -- ./inp_files/17457.got.cif
#   From: 2010.05.17/outbox.cif.g08.bks.cpg/sg58_9_cif.got.tgz:17457.got - 2010.06.03 14:20:14.
