data_PCOD9444842
_publ_section_title
;
Structure prediction by ZEFSAII (Michael W. Deem and Ramdas Pophale) SiO2 
 PCOD9444842
Probable space group: P N N M
;
_chemical_formula_sum "Si O2"
_cell_formula_units_Z 56
_cell_length_a 31.957040
_cell_length_b 5.108975
_cell_length_c 15.129689
_cell_angle_alpha 90.000000
_cell_angle_beta 90.000000
_cell_angle_gamma 90.000000
_cell_volume 2470.189804
_symmetry_space_group_name_H-M "P N N M"
_symmetry_group_IT_number 58
_symmetry_cell_setting 'orthorhombic'
loop_
_space_group_symop_operation_xyz
x,y,z
-x,-y,z
1/2+x,1/2-y,1/2-z
1/2-x,1/2+y,1/2-z
-x,-y,-z
x,y,-z
1/2-x,1/2+y,1/2+z
1/2+x,1/2-y,1/2+z
loop_
_atom_site_type_symbol
_atom_site_label
_atom_site_fract_x
_atom_site_fract_y
_atom_site_fract_z
Si Si1 0.472074 0.734659 0.602421
Si Si2 0.173410 0.822890 0.901214
Si Si3 0.955607 0.372330 0.680957
Si Si4 0.604060 0.982146 0.677231
Si Si5 0.252290 0.594232 0.191304
Si Si6 0.418312 0.601243 0.897807
Si Si7 0.158185 0.149383 0.721043
O O1 0.500000 0.500000 0.641332
O O2 0.463745 0.667750 0.500000
O O3 0.426856 0.786618 0.645700
O O4 0.500000 0.000000 0.602622
O O5 0.130733 0.653221 0.898366
O O6 0.215090 0.655785 0.876642
O O7 0.167429 0.009219 0.815402
O O8 0.177904 0.938271 0.000000
O O9 0.929136 0.312000 0.768936
O O10 0.953953 0.110935 0.624220
O O11 0.000000 0.500000 0.702634
O O12 0.932716 0.608756 0.629383
O O13 0.639505 0.075854 0.745985
O O14 0.247082 0.796483 0.273983
O O15 0.299658 0.660227 0.164403
O O16 0.378098 0.529482 0.838706
O O17 0.407960 0.592831 0.000000
#
# Coordination Sequence:
#
# PCOD9444842 Si02
#       7
#     8   8   8   8   8   8   8
#     4  10  23  39  57  85 125 171 219 268 316 373
#     4  11  23  40  67 101 132 175 221 267 327 394
#     4  11  24  41  65  94 130 173 219 274 336 392
#     4  11  22  40  63  92 130 175 221 270 325 392
#     4  10  21  42  65  90 127 170 208 264 321 379
#     4  11  24  42  67  97 129 172 221 273 336 395
#     4  10  23  42  66  94 138 171 215 271 329 389
#
# _framework density 22.670324000000001
#
# number of rings (size 3 to 8) (size 9 to 14) (size 15 to 20)
#    0.000    1.429    2.857    1.714    2.000    5.714 
#    0.000    0.000    0.000    2.571    0.000    0.000 
#    0.000    0.000    0.000    0.000    0.000    0.000 
#
# Total GULP energy -312602.504955 kJ/mol
# GULP energy per Si atom -5582.187588 kJ/mol
# Density = 2.261873 g / cm^3
# Si number density = 22.670324 Si / 1000 Ang^3
#
#
#
# Elastic Constant Matrix: (Units=GPa)
#
#
# Indices 1 2 3 4 5 6 
#
# 1 134.7637 14.3028 39.9317 0.0000 0.0000 0.0000
# 2 14.3028 69.1985 10.7290 0.0000 0.0000 0.0000
# 3 39.9317 10.7290 119.4511 0.0000 0.0000 0.0000
# 4 0.0000 0.0000 0.0000 8.9559 0.0000 0.0000
# 5 0.0000 0.0000 0.0000 0.0000 7.8166 0.0000
# 6 0.0000 0.0000 0.0000 0.0000 0.0000 35.6108
#
#
#
# Elastic Compliance Matrix: (Units=1/GPa)
#
#
# Indices 1 2 3 4 5 6 
#
# 1 0.008352 -0.001312 -0.002674 0.000000 0.000000 0.000000
# 2 -0.001312 0.014861 -0.000896 0.000000 0.000000 0.000000
# 3 -0.002674 -0.000896 0.009346 0.000000 0.000000 0.000000
# 4 0.000000 0.000000 0.000000 0.111659 0.000000 0.000000
# 5 0.000000 0.000000 0.000000 0.000000 0.127933 0.000000
# 6 0.000000 0.000000 0.000000 0.000000 0.000000 0.028081
#
#
# Mechanical properties :
#
#
# Convention : Reuss Voigt Hill
#
# Bulk Modulus (GPa) = 43.86938 50.37113 47.12026
# Shear Modulus (GPa) = 15.74331 27.70664 21.72498
#
# Velocity S-wave (km/s) = 2.63809 3.49973 3.09900
# Velocity P-wave (km/s) = 5.35466 6.21273 5.79959
#
# Compressibility (1/GPa) = 0.02279494
#
# Stress axis : x y z
#
# Youngs Moduli (GPa) = 119.73190 67.28902 106.99653
#
# Poissons Ratio (x) = 0.08826 0.28613
# Poissons Ratio (y) = 0.15705 0.09591
# Poissons Ratio (z) = 0.32019 0.06031
#
# Static dielectric constant tensor:
#      x y z
#    x 1.890180 0.000000 0.000000 
#    y 0.000000 1.913950 0.000000 
#    z 0.000000 0.000000 1.838200 
# 
# From -- ./inp_files/23758.got.cif
#   From: 2010.05.17/outbox.cif.g08.bks.cpg/sg58_12_cif.got.tgz:23758.got - 2010.06.03 14:20:14.
