data_PCOD9444447
_publ_section_title
;
Structure prediction by ZEFSAII (Michael W. Deem and Ramdas Pophale) SiO2 
 PCOD9444447
Probable space group: P N N M
;
_chemical_formula_sum "Si O2"
_cell_formula_units_Z 48
_cell_length_a 19.508182
_cell_length_b 15.590247
_cell_length_c 7.681032
_cell_angle_alpha 90.000000
_cell_angle_beta 90.000000
_cell_angle_gamma 90.000000
_cell_volume 2336.088917
_symmetry_space_group_name_H-M "P N N M"
_symmetry_group_IT_number 58
_symmetry_cell_setting 'orthorhombic'
loop_
_space_group_symop_operation_xyz
x,y,z
-x,-y,z
1/2+x,1/2-y,1/2-z
1/2-x,1/2+y,1/2-z
-x,-y,-z
x,y,-z
1/2-x,1/2+y,1/2+z
1/2+x,1/2-y,1/2+z
loop_
_atom_site_type_symbol
_atom_site_label
_atom_site_fract_x
_atom_site_fract_y
_atom_site_fract_z
Si Si1 0.585311 0.722185 0.799110
Si Si2 0.169616 0.128374 0.711133
Si Si3 0.076200 0.471211 0.787143
Si Si4 0.934577 0.721701 0.795183
Si Si5 0.323888 0.118208 0.703504
Si Si6 0.075907 0.970197 0.287133
O O1 0.505265 0.747400 0.790250
O O2 0.630792 0.796075 0.714588
O O3 0.591756 0.626019 0.725971
O O4 0.606805 0.719674 0.000000
O O5 0.169122 0.130159 0.500000
O O6 0.124691 0.209188 0.768965
O O7 0.247669 0.130392 0.775963
O O8 0.130820 0.041440 0.765700
O O9 0.086739 0.372957 0.733338
O O10 0.131975 0.539315 0.722067
O O11 0.000000 0.500000 0.734396
O O12 0.077522 0.474003 0.000000
O O13 0.950332 0.714700 0.000000
O O14 0.313936 0.098052 0.500000
O O15 0.074815 0.967493 0.500000
O O16 0.000000 0.000000 0.232166
#
# Coordination Sequence:
#
# PCOD9444447 Si02
#       6
#     8   8   8   8   8   8
#     4  11  21  35  59  86 113 145 188 234 277 330
#     4  10  21  38  58  81 112 148 186 232 285 335
#     4   9  17  33  57  81 106 143 189 226 266 333
#     4  11  21  35  59  86 113 145 188 234 277 330
#     4  10  21  38  58  81 112 148 186 232 285 335
#     4   9  17  33  57  81 106 143 189 226 266 333
#
# _framework density 20.547162
#
# number of rings (size 3 to 8) (size 9 to 14) (size 15 to 20)
#    0.000    2.000    3.333    1.000    0.000    2.000 
#    0.000    8.333    0.000    0.000    0.000    0.000 
#    0.000    0.000    0.000    0.000    0.000    0.000 
#
# Total GULP energy -268099.057494 kJ/mol
# GULP energy per Si atom -5585.397031 kJ/mol
# Density = 2.050040 g / cm^3
# Si number density = 20.547162 Si / 1000 Ang^3
#
#
#
# Elastic Constant Matrix: (Units=GPa)
#
#
# Indices 1 2 3 4 5 6 
#
# 1 155.5822 84.1721 -10.8829 0.0000 0.0000 0.0000
# 2 84.1721 198.9989 -8.2613 0.0000 0.0000 0.0000
# 3 -10.8829 -8.2613 35.3999 0.0000 0.0000 0.0000
# 4 0.0000 0.0000 0.0000 18.7266 0.0000 0.0000
# 5 0.0000 0.0000 0.0000 0.0000 14.3378 0.0000
# 6 0.0000 0.0000 0.0000 0.0000 0.0000 30.9368
#
#
#
# Elastic Compliance Matrix: (Units=1/GPa)
#
#
# Indices 1 2 3 4 5 6 
#
# 1 0.008444 -0.003498 0.001780 0.000000 0.000000 0.000000
# 2 -0.003498 0.006523 0.000447 0.000000 0.000000 0.000000
# 3 0.001780 0.000447 0.028900 0.000000 0.000000 0.000000
# 4 0.000000 0.000000 0.000000 0.053400 0.000000 0.000000
# 5 0.000000 0.000000 0.000000 0.000000 0.069746 0.000000
# 6 0.000000 0.000000 0.000000 0.000000 0.000000 0.032324
#
#
# Mechanical properties :
#
#
# Convention : Reuss Voigt Hill
#
# Bulk Modulus (GPa) = 24.19820 57.78185 40.99003
# Shear Modulus (GPa) = 23.18519 34.46378 28.82448
#
# Velocity S-wave (km/s) = 3.36279 4.09993 3.74952
# Velocity P-wave (km/s) = 5.18462 7.11303 6.22397
#
# Compressibility (1/GPa) = 0.04132539
#
# Stress axis : x y z
#
# Youngs Moduli (GPa) = 118.42214 153.29804 34.60190
#
# Poissons Ratio (x) = 0.53622 -0.06158
# Poissons Ratio (y) = 0.41423 -0.01547
# Poissons Ratio (z) = -0.21076 -0.06852
#
# Static dielectric constant tensor:
#      x y z
#    x 1.689960 0.000000 0.000000 
#    y 0.000000 1.713860 0.000000 
#    z 0.000000 0.000000 1.780100 
# 
# From -- ./inp_files/5826.got.cif
#   From: 2010.05.17/outbox.cif.g08.bks.cpg/sg58_3_cif.got.tgz:5826.got - 2010.06.03 14:20:14.
