data_PCOD9444377
_publ_section_title
;
Structure prediction by ZEFSAII (Michael W. Deem and Ramdas Pophale) SiO2 
 PCOD9444377
Probable space group: P N N M
;
_chemical_formula_sum "Si O2"
_cell_formula_units_Z 56
_cell_length_a 15.486629
_cell_length_b 20.669911
_cell_length_c 9.084990
_cell_angle_alpha 90.000000
_cell_angle_beta 90.000000
_cell_angle_gamma 90.000000
_cell_volume 2908.171103
_symmetry_space_group_name_H-M "P N N M"
_symmetry_group_IT_number 58
_symmetry_cell_setting 'orthorhombic'
loop_
_space_group_symop_operation_xyz
x,y,z
-x,-y,z
1/2+x,1/2-y,1/2-z
1/2-x,1/2+y,1/2-z
-x,-y,-z
x,y,-z
1/2-x,1/2+y,1/2+z
1/2+x,1/2-y,1/2+z
loop_
_atom_site_type_symbol
_atom_site_label
_atom_site_fract_x
_atom_site_fract_y
_atom_site_fract_z
Si Si1 0.267107 0.541062 0.172877
Si Si2 0.828221 0.099196 0.676818
Si Si3 0.807831 0.694435 0.674421
Si Si4 0.567810 0.945664 0.673254
Si Si5 0.030463 0.817493 0.828307
Si Si6 0.486356 0.184264 0.173711
Si Si7 0.176419 0.171660 0.171418
O O1 0.316186 0.475900 0.218374
O O2 0.164891 0.528757 0.187071
O O3 0.290046 0.604577 0.263802
O O4 0.285354 0.553479 0.000000
O O5 0.825893 0.103432 0.500000
O O6 0.750847 0.142027 0.744020
O O7 0.915605 0.129466 0.740379
O O8 0.791119 0.693282 0.500000
O O9 0.790871 0.765921 0.739219
O O10 0.909852 0.680711 0.697947
O O11 0.551711 0.931635 0.500000
O O12 0.555661 0.880488 0.764286
O O13 0.500000 0.000000 0.721212
O O14 0.047614 0.747160 0.758802
O O15 0.927830 0.828631 0.816531
O O16 0.054513 0.818418 0.000000
O O17 0.471278 0.191638 0.000000
O O18 0.199532 0.178710 0.000000
#
# Coordination Sequence:
#
# PCOD9444377 Si02
#       7
#     8   8   8   8   8   8   8
#     4  10  23  40  59  86 120 159 199 245 302 358
#     4  11  23  39  61  88 118 155 201 247 297 358
#     4  10  21  38  61  87 120 157 195 245 301 354
#     4  10  21  38  60  85 119 161 200 241 295 359
#     4  10  22  40  61  86 116 154 198 246 301 356
#     4  10  21  37  59  88 118 152 196 246 296 351
#     4  10  22  40  62  87 117 156 201 248 298 358
#
# _framework density 19.256087999999998
#
# number of rings (size 3 to 8) (size 9 to 14) (size 15 to 20)
#    0.000    1.857    0.000    3.000    2.000    7.143 
#    0.000    2.857    0.000    0.000    0.000    0.000 
#    0.000    0.000    0.000    0.000    0.000    0.000 
#
# Total GULP energy -313066.226223 kJ/mol
# GULP energy per Si atom -5590.468325 kJ/mol
# Density = 1.921226 g / cm^3
# Si number density = 19.256088 Si / 1000 Ang^3
#
#
#
# Elastic Constant Matrix: (Units=GPa)
#
#
# Indices 1 2 3 4 5 6 
#
# 1 11.9661 0.1308 8.4108 0.0000 0.0000 0.0000
# 2 0.1308 72.9423 14.8356 0.0000 0.0000 0.0000
# 3 8.4108 14.8356 52.9818 0.0000 0.0000 0.0000
# 4 0.0000 0.0000 0.0000 33.5810 0.0000 0.0000
# 5 0.0000 0.0000 0.0000 0.0000 31.9073 0.0000
# 6 0.0000 0.0000 0.0000 0.0000 0.0000 33.8791
#
#
#
# Elastic Compliance Matrix: (Units=1/GPa)
#
#
# Indices 1 2 3 4 5 6 
#
# 1 0.094706 0.003062 -0.015892 0.000000 0.000000 0.000000
# 2 0.003062 0.014636 -0.004585 0.000000 0.000000 0.000000
# 3 -0.015892 -0.004585 0.022681 0.000000 0.000000 0.000000
# 4 0.000000 0.000000 0.000000 0.029779 0.000000 0.000000
# 5 0.000000 0.000000 0.000000 0.000000 0.031341 0.000000
# 6 0.000000 0.000000 0.000000 0.000000 0.000000 0.029517
#
#
# Mechanical properties :
#
#
# Convention : Reuss Voigt Hill
#
# Bulk Modulus (GPa) = 10.28856 20.51605 15.40231
# Shear Modulus (GPa) = 17.24815 27.50768 22.37791
#
# Velocity S-wave (km/s) = 2.99611 3.78367 3.41269
# Velocity P-wave (km/s) = 4.16216 5.45580 4.85228
#
# Compressibility (1/GPa) = 0.09719532
#
# Stress axis : x y z
#
# Youngs Moduli (GPa) = 10.55900 68.32266 44.08983
#
# Poissons Ratio (x) = -0.20924 0.70067
# Poissons Ratio (y) = -0.03234 0.20213
# Poissons Ratio (z) = 0.16780 0.31323
#
# Static dielectric constant tensor:
#      x y z
#    x 1.682350 0.000000 0.000000 
#    y 0.000000 1.624250 0.000000 
#    z 0.000000 0.000000 1.644190 
# 
# From -- ./inp_files/6422.got.cif
#   From: 2010.05.17/outbox.cif.g08.bks.cpg/sg58_4_cif.got.tgz:6422.got - 2010.06.03 14:20:14.
