data_PCOD9444687
_publ_section_title
;
Structure prediction by ZEFSAII (Michael W. Deem and Ramdas Pophale) SiO2 
 PCOD9444687
Probable space group: P N N M
;
_chemical_formula_sum "Si O2"
_cell_formula_units_Z 40
_cell_length_a 18.914462
_cell_length_b 5.154114
_cell_length_c 18.035111
_cell_angle_alpha 90.000000
_cell_angle_beta 90.000000
_cell_angle_gamma 90.000000
_cell_volume 1758.194157
_symmetry_space_group_name_H-M "P N N M"
_symmetry_group_IT_number 58
_symmetry_cell_setting 'orthorhombic'
loop_
_space_group_symop_operation_xyz
x,y,z
-x,-y,z
1/2+x,1/2-y,1/2-z
1/2-x,1/2+y,1/2-z
-x,-y,-z
x,y,-z
1/2-x,1/2+y,1/2+z
1/2+x,1/2-y,1/2+z
loop_
_atom_site_type_symbol
_atom_site_label
_atom_site_fract_x
_atom_site_fract_y
_atom_site_fract_z
Si Si1 0.702471 0.163875 0.912484
Si Si2 0.710574 0.850516 0.776019
Si Si3 0.931950 0.851925 0.085321
Si Si4 0.851428 0.337090 0.865983
Si Si5 0.957455 0.754185 0.590265
O O1 0.768826 0.344903 0.890846
O O2 0.625214 0.271873 0.891011
O O3 0.705684 0.903593 0.862674
O O4 0.703744 0.112904 0.000000
O O5 0.767819 0.633596 0.756137
O O6 0.646151 0.776681 0.722233
O O7 0.875739 0.082482 0.090203
O O8 0.898478 0.589162 0.117693
O O9 0.949776 0.788582 0.000000
O O10 0.000000 0.000000 0.119593
O O11 0.959631 0.752276 0.500000
O O12 0.000000 0.500000 0.615249
O O13 0.000000 0.000000 0.617783
#
# Coordination Sequence:
#
# PCOD9444687 Si02
#       5
#     8   8   8   8   8
#     4  10  21  39  66  92 115 155 210 255 295 360
#     4  10  22  40  60  88 127 159 191 252 315 355
#     4  11  23  40  63  93 130 166 204 258 314 365
#     4  11  22  39  63  92 125 164 209 252 308 377
#     4   9  19  35  54  81 117 149 182 237 300 344
#
# _framework density 22.750616000000001
#
# number of rings (size 3 to 8) (size 9 to 14) (size 15 to 20)
#    0.000    1.800    0.000    4.800    0.000    6.400 
#    0.000   16.000    0.000    0.000    0.000    0.000 
#    0.000    0.000    0.000    0.000    0.000    0.000 
#
# Total GULP energy -223071.439455 kJ/mol
# GULP energy per Si atom -5576.785986 kJ/mol
# Density = 2.269883 g / cm^3
# Si number density = 22.750616 Si / 1000 Ang^3
#
#
#
# Elastic Constant Matrix: (Units=GPa)
#
#
# Indices 1 2 3 4 5 6 
#
# 1 85.2570 2.1755 0.5806 0.0000 0.0000 0.0000
# 2 2.1755 80.8010 -0.1553 0.0000 0.0000 0.0000
# 3 0.5806 -0.1553 78.6833 0.0000 0.0000 0.0000
# 4 0.0000 0.0000 0.0000 22.5147 0.0000 0.0000
# 5 0.0000 0.0000 0.0000 0.0000 23.9094 0.0000
# 6 0.0000 0.0000 0.0000 0.0000 0.0000 19.6010
#
#
#
# Elastic Compliance Matrix: (Units=1/GPa)
#
#
# Indices 1 2 3 4 5 6 
#
# 1 0.011738 -0.000316 -0.000087 0.000000 0.000000 0.000000
# 2 -0.000316 0.012385 0.000027 0.000000 0.000000 0.000000
# 3 -0.000087 0.000027 0.012710 0.000000 0.000000 0.000000
# 4 0.000000 0.000000 0.000000 0.044415 0.000000 0.000000
# 5 0.000000 0.000000 0.000000 0.000000 0.041825 0.000000
# 6 0.000000 0.000000 0.000000 0.000000 0.000000 0.051018
#
#
# Mechanical properties :
#
#
# Convention : Reuss Voigt Hill
#
# Bulk Modulus (GPa) = 27.71690 27.77146 27.74418
# Shear Modulus (GPa) = 26.75656 29.34770 28.05213
#
# Velocity S-wave (km/s) = 3.43312 3.59552 3.51526
# Velocity P-wave (km/s) = 5.28436 5.42866 5.35700
#
# Compressibility (1/GPa) = 0.03607907
#
# Stress axis : x y z
#
# Youngs Moduli (GPa) = 85.19412 80.74510 78.67897
#
# Poissons Ratio (x) = 0.02553 0.00686
# Poissons Ratio (y) = 0.02694 -0.00211
# Poissons Ratio (z) = 0.00743 -0.00216
#
# Static dielectric constant tensor:
#      x y z
#    x 1.963360 0.000000 0.000000 
#    y 0.000000 1.832510 0.000000 
#    z 0.000000 0.000000 1.895900 
# 
# From -- ./inp_files/24167.got.cif
#   From: 2010.05.17/outbox.cif.g08.bks.cpg/sg58_13_cif.got.tgz:24167.got - 2010.06.03 14:20:14.
