data_PCOD9444637
_publ_section_title
;
Structure prediction by ZEFSAII (Michael W. Deem and Ramdas Pophale) SiO2 
 PCOD9444637
Probable space group: P N N M
;
_chemical_formula_sum "Si O2"
_cell_formula_units_Z 64
_cell_length_a 15.708181
_cell_length_b 9.953699
_cell_length_c 18.826776
_cell_angle_alpha 90.000000
_cell_angle_beta 90.000000
_cell_angle_gamma 90.000000
_cell_volume 2943.651252
_symmetry_space_group_name_H-M "P N N M"
_symmetry_group_IT_number 58
_symmetry_cell_setting 'orthorhombic'
loop_
_space_group_symop_operation_xyz
x,y,z
-x,-y,z
1/2+x,1/2-y,1/2-z
1/2-x,1/2+y,1/2-z
-x,-y,-z
x,y,-z
1/2-x,1/2+y,1/2+z
1/2+x,1/2-y,1/2+z
loop_
_atom_site_type_symbol
_atom_site_label
_atom_site_fract_x
_atom_site_fract_y
_atom_site_fract_z
Si Si1 0.540426 0.199085 0.684142
Si Si2 0.797322 0.294970 0.583528
Si Si3 0.606410 0.401183 0.419678
Si Si4 0.365716 0.731228 0.826586
Si Si5 0.405739 0.946377 0.922686
Si Si6 0.691118 0.557348 0.803173
Si Si7 0.875675 0.441037 0.171586
Si Si8 0.176445 0.833694 0.852876
O O1 0.541301 0.330795 0.635179
O O2 0.603268 0.230184 0.748554
O O3 0.452838 0.133587 0.714257
O O4 0.582864 0.075467 0.641066
O O5 0.819710 0.269512 0.500000
O O6 0.696328 0.322850 0.586386
O O7 0.847755 0.430587 0.606864
O O8 0.811595 0.172473 0.637465
O O9 0.574948 0.392517 0.500000
O O10 0.637143 0.550804 0.400567
O O11 0.422951 0.808491 0.881647
O O12 0.361502 0.571940 0.828497
O O13 0.276874 0.803567 0.846997
O O14 0.500000 0.000000 0.929942
O O15 0.366670 0.916292 0.000000
O O16 0.786623 0.490485 0.794147
O O17 0.658964 0.617645 0.728572
O O18 0.855532 0.313372 0.122955
#
# Coordination Sequence:
#
# PCOD9444637 Si02
#       8
#     8   8   8   8   8   8   8   8
#     4  11  22  42  59  93 123 160 208 251 319 372
#     4  10  21  39  62  89 121 161 205 247 304 375
#     4  11  22  42  66  88 124 168 207 253 312 377
#     4  11  22  35  63  89 122 160 202 260 302 362
#     4  10  23  40  61  91 124 162 204 248 307 373
#     4  11  22  39  62  92 120 161 204 259 305 363
#     4  10  24  38  61  89 125 160 200 263 305 369
#     4  11  22  38  60  91 120 157 209 252 305 366
#
# _framework density 21.741706000000001
#
# number of rings (size 3 to 8) (size 9 to 14) (size 15 to 20)
#    0.000    1.375    5.000    0.000    5.250    1.000 
#    0.000    7.500    0.000    2.250    0.000    0.000 
#    0.000    0.000    0.000    0.000    0.000    0.000 
#
# Total GULP energy -356360.982544 kJ/mol
# GULP energy per Si atom -5568.140352 kJ/mol
# Density = 2.169222 g / cm^3
# Si number density = 21.741706 Si / 1000 Ang^3
#
#
#
# Elastic Constant Matrix: (Units=GPa)
#
#
# Indices 1 2 3 4 5 6 
#
# 1 37.6190 -3.0323 -8.9498 0.0000 0.0000 0.0000
# 2 -3.0323 107.5007 28.7379 0.0000 0.0000 0.0000
# 3 -8.9498 28.7379 55.0657 0.0000 0.0000 0.0000
# 4 0.0000 0.0000 0.0000 25.9965 0.0000 0.0000
# 5 0.0000 0.0000 0.0000 0.0000 -1.8285 0.0000
# 6 0.0000 0.0000 0.0000 0.0000 0.0000 37.3222
#
#
#
# Elastic Compliance Matrix: (Units=1/GPa)
#
#
# Indices 1 2 3 4 5 6 
#
# 1 0.027674 -0.000490 0.004754 0.000000 0.000000 0.000000
# 2 -0.000490 0.010819 -0.005726 0.000000 0.000000 0.000000
# 3 0.004754 -0.005726 0.021921 0.000000 0.000000 0.000000
# 4 0.000000 0.000000 0.000000 0.038467 0.000000 0.000000
# 5 0.000000 0.000000 0.000000 0.000000 -0.546909 0.000000
# 6 0.000000 0.000000 0.000000 0.000000 0.000000 0.026794
#
#
# Mechanical properties :
#
#
# Convention : Reuss Voigt Hill
#
# Bulk Modulus (GPa) = 17.39469 25.96633 21.68051
# Shear Modulus (GPa) = -12.52674 24.52667 5.99996
#
# Velocity S-wave (km/s) = -2.40294 3.36235 1.66302
# Velocity P-wave (km/s) = 0.56493 5.20028 3.69879
#
# Compressibility (1/GPa) = 0.05748881
#
# Stress axis : x y z
#
# Youngs Moduli (GPa) = 36.13533 92.42858 45.61825
#
# Poissons Ratio (x) = 0.04531 -0.21685
# Poissons Ratio (y) = 0.01771 0.26121
# Poissons Ratio (z) = -0.17177 0.52925
#
# Static dielectric constant tensor:
#      x y z
#    x 1.973860 0.000000 0.000000 
#    y 0.000000 1.828920 0.000000 
#    z 0.000000 0.000000 1.871870 
# 
# From -- ./inp_files/30270.got.cif
#   From: 2010.05.17/outbox.cif.g08.bks.cpg/sg58_16_cif.got.tgz:30270.got - 2010.06.03 14:20:14.
