data_PCOD9444992
_publ_section_title
;
Structure prediction by ZEFSAII (Michael W. Deem and Ramdas Pophale) SiO2 
 PCOD9444992
Probable space group: P N N M
;
_chemical_formula_sum "Si O2"
_cell_formula_units_Z 52
_cell_length_a 9.498592
_cell_length_b 16.645864
_cell_length_c 17.317268
_cell_angle_alpha 90.000000
_cell_angle_beta 90.000000
_cell_angle_gamma 90.000000
_cell_volume 2738.072564
_symmetry_space_group_name_H-M "P N N M"
_symmetry_group_IT_number 58
_symmetry_cell_setting 'orthorhombic'
loop_
_space_group_symop_operation_xyz
x,y,z
-x,-y,z
1/2+x,1/2-y,1/2-z
1/2-x,1/2+y,1/2-z
-x,-y,-z
x,y,-z
1/2-x,1/2+y,1/2+z
1/2+x,1/2-y,1/2+z
loop_
_atom_site_type_symbol
_atom_site_label
_atom_site_fract_x
_atom_site_fract_y
_atom_site_fract_z
Si Si1 0.845032 0.719966 0.306368
Si Si2 0.397899 0.237368 0.091327
Si Si3 0.136193 0.119933 0.910369
Si Si4 0.600131 0.076221 0.587057
Si Si5 0.000000 0.000000 0.201549
Si Si6 0.683894 0.611093 0.199240
Si Si7 0.468001 0.238396 0.657766
O O1 0.786371 0.638687 0.268388
O O2 0.698940 0.765568 0.325510
O O3 0.947639 0.712470 0.379041
O O4 0.943986 0.752649 0.236958
O O5 0.281558 0.168097 0.104813
O O6 0.353809 0.313069 0.144689
O O7 0.397080 0.256040 0.000000
O O8 0.110798 0.044840 0.854263
O O9 0.012736 0.185863 0.894671
O O10 0.133822 0.095963 0.000000
O O11 0.646061 0.094615 0.500000
O O12 0.729946 0.055000 0.641831
O O13 0.524114 0.155914 0.620315
O O14 0.500000 0.000000 0.585967
O O15 0.058866 0.932366 0.258332
#
# Coordination Sequence:
#
# PCOD9444992 Si02
#       7
#     8   8   8   8   4   8   8
#     4  11  20  38  63  96 122 164 220 263 311 393
#     4  11  23  41  67  97 130 172 220 276 334 388
#     4  11  22  41  67  92 130 174 217 271 331 395
#     4  10  22  39  59  90 127 166 211 264 328 386
#     4  12  25  42  63 102 130 174 222 268 331 394
#     4  11  23  40  63  89 128 170 213 270 321 391
#     4  11  20  37  66  89 124 169 217 268 316 390
#
# _framework density 18.991461999999999
#
# number of rings (size 3 to 8) (size 9 to 14) (size 15 to 20)
#    0.000    1.077    6.154    1.154    0.000    6.154 
#    0.000    3.077    0.000    1.846    0.000    0.000 
#    0.000    0.000    0.000    0.000    0.000    0.000 
#
# Total GULP energy -289998.335925 kJ/mol
# GULP energy per Si atom -5576.891075 kJ/mol
# Density = 1.894824 g / cm^3
# Si number density = 18.991462 Si / 1000 Ang^3
#
#
#
# Elastic Constant Matrix: (Units=GPa)
#
#
# Indices 1 2 3 4 5 6 
#
# 1 107.4864 12.5076 46.0234 0.0000 0.0000 0.0000
# 2 12.5076 48.8856 27.2736 0.0000 0.0000 0.0000
# 3 46.0234 27.2736 101.0072 0.0000 0.0000 0.0000
# 4 0.0000 0.0000 0.0000 25.5012 0.0000 0.0000
# 5 0.0000 0.0000 0.0000 0.0000 20.7805 0.0000
# 6 0.0000 0.0000 0.0000 0.0000 0.0000 23.2255
#
#
#
# Elastic Compliance Matrix: (Units=1/GPa)
#
#
# Indices 1 2 3 4 5 6 
#
# 1 0.011559 -0.000022 -0.005261 0.000000 0.000000 0.000000
# 2 -0.000022 0.024084 -0.006493 0.000000 0.000000 0.000000
# 3 -0.005261 -0.006493 0.014050 0.000000 0.000000 0.000000
# 4 0.000000 0.000000 0.000000 0.039214 0.000000 0.000000
# 5 0.000000 0.000000 0.000000 0.000000 0.048122 0.000000
# 6 0.000000 0.000000 0.000000 0.000000 0.000000 0.043056
#
#
# Mechanical properties :
#
#
# Convention : Reuss Voigt Hill
#
# Bulk Modulus (GPa) = 38.25358 47.66540 42.95949
# Shear Modulus (GPa) = 23.54597 25.33975 24.44286
#
# Velocity S-wave (km/s) = 3.52493 3.65673 3.59143
# Velocity P-wave (km/s) = 6.06243 6.55604 6.31406
#
# Compressibility (1/GPa) = 0.02614134
#
# Stress axis : x y z
#
# Youngs Moduli (GPa) = 86.51597 41.52122 71.17234
#
# Poissons Ratio (x) = 0.00093 0.37440
# Poissons Ratio (y) = 0.00194 0.46211
# Poissons Ratio (z) = 0.45512 0.26959
#
# Static dielectric constant tensor:
#      x y z
#    x 1.702480 0.000000 0.000000 
#    y 0.000000 1.659720 0.000000 
#    z 0.000000 0.000000 1.674010 
# 
# From -- ./inp_files/25486.got.cif
#   From: 2010.05.17/outbox.cif.g08.bks.cpg/sg58_13_cif.got.tgz:25486.got - 2010.06.03 14:20:14.
