data_PCOD9444693
_publ_section_title
;
Structure prediction by ZEFSAII (Michael W. Deem and Ramdas Pophale) SiO2 
 PCOD9444693
Probable space group: P N N M
;
_chemical_formula_sum "Si O2"
_cell_formula_units_Z 44
_cell_length_a 5.444648
_cell_length_b 13.433168
_cell_length_c 34.840434
_cell_angle_alpha 90.000000
_cell_angle_beta 90.000000
_cell_angle_gamma 90.000000
_cell_volume 2548.190018
_symmetry_space_group_name_H-M "P N N M"
_symmetry_group_IT_number 58
_symmetry_cell_setting 'orthorhombic'
loop_
_space_group_symop_operation_xyz
x,y,z
-x,-y,z
1/2+x,1/2-y,1/2-z
1/2-x,1/2+y,1/2-z
-x,-y,-z
x,y,-z
1/2-x,1/2+y,1/2+z
1/2+x,1/2-y,1/2+z
loop_
_atom_site_type_symbol
_atom_site_label
_atom_site_fract_x
_atom_site_fract_y
_atom_site_fract_z
Si Si1 0.249475 0.565498 0.000000
Si Si2 0.000000 0.000000 0.360984
Si Si3 0.429016 0.254563 0.647100
Si Si4 0.500000 0.000000 0.766717
Si Si5 0.917919 0.320229 0.678217
Si Si6 0.657524 0.896221 0.584304
Si Si7 0.293008 0.877755 0.300377
O O1 0.500000 0.500000 0.000000
O O2 0.232998 0.622506 0.959555
O O3 0.000000 0.500000 0.000000
O O4 0.892484 0.917881 0.389244
O O5 0.197897 0.950149 0.333590
O O6 0.674009 0.319695 0.652153
O O7 0.457028 0.195803 0.607053
O O8 0.461671 0.172670 0.681751
O O9 0.173308 0.310351 0.655032
O O10 0.400682 0.086091 0.794059
O O11 0.678728 0.059317 0.737832
O O12 0.886802 0.217102 0.702375
O O13 0.500000 0.000000 0.585524
#
# Coordination Sequence:
#
# PCOD9444693 Si02
#       7
#     4   4   8   4   8   8   8
#     4  10  22  30  48  86 122 147 184 227 280 320
#     4  12  18  33  60  76 112 158 200 214 278 337
#     4  10  21  40  55  76 107 145 194 223 270 339
#     4  12  26  40  58  82 116 142 192 254 308 316
#     4  10  25  41  56  79 106 145 190 241 285 338
#     4  11  18  33  53  82 116 153 187 227 269 344
#     4  10  24  35  56  83 104 153 193 234 274 354
#
# _framework density 17.267158999999999
#
# number of rings (size 3 to 8) (size 9 to 14) (size 15 to 20)
#    1.091    0.364    4.545    1.091    2.545    2.182 
#    0.000    0.000    0.000    0.000    0.000    0.000 
#    0.000    4.364    0.000    0.000    0.000    0.000 
#
# Total GULP energy -244954.206499 kJ/mol
# GULP energy per Si atom -5567.141057 kJ/mol
# Density = 1.722786 g / cm^3
# Si number density = 17.267159 Si / 1000 Ang^3
#
#
#
# Elastic Constant Matrix: (Units=GPa)
#
#
# Indices 1 2 3 4 5 6 
#
# 1 92.1893 17.2915 38.7245 0.0000 0.0000 0.0000
# 2 17.2915 41.4246 45.8020 0.0000 0.0000 0.0000
# 3 38.7245 45.8020 135.8462 0.0000 0.0000 0.0000
# 4 0.0000 0.0000 0.0000 24.9300 0.0000 0.0000
# 5 0.0000 0.0000 0.0000 0.0000 9.7206 0.0000
# 6 0.0000 0.0000 0.0000 0.0000 0.0000 12.3696
#
#
#
# Elastic Compliance Matrix: (Units=1/GPa)
#
#
# Indices 1 2 3 4 5 6 
#
# 1 0.012429 -0.002026 -0.002860 0.000000 0.000000 0.000000
# 2 -0.002026 0.038818 -0.012511 0.000000 0.000000 0.000000
# 3 -0.002860 -0.012511 0.012395 0.000000 0.000000 0.000000
# 4 0.000000 0.000000 0.000000 0.040112 0.000000 0.000000
# 5 0.000000 0.000000 0.000000 0.000000 0.102875 0.000000
# 6 0.000000 0.000000 0.000000 0.000000 0.000000 0.080844
#
#
# Mechanical properties :
#
#
# Convention : Reuss Voigt Hill
#
# Bulk Modulus (GPa) = 34.66325 52.56623 43.61474
# Shear Modulus (GPa) = 15.06564 20.58017 17.82290
#
# Velocity S-wave (km/s) = 2.95702 3.45609 3.21625
# Velocity P-wave (km/s) = 5.63710 6.81433 6.25348
#
# Compressibility (1/GPa) = 0.02884900
#
# Stress axis : x y z
#
# Youngs Moduli (GPa) = 80.46008 25.76093 80.68055
#
# Poissons Ratio (x) = 0.05219 0.23073
# Poissons Ratio (y) = 0.16300 1.00936
# Poissons Ratio (z) = 0.23010 0.32228
#
# Static dielectric constant tensor:
#      x y z
#    x 1.664760 0.000000 0.000000 
#    y 0.000000 1.627670 0.000000 
#    z 0.000000 0.000000 1.582780 
# 
# From -- ./inp_files/34147.got.cif
#   From: 2010.05.17/outbox.cif.g08.bks.cpg/sg58_18_cif.got.tgz:34147.got - 2010.06.03 14:20:14.
