data_PCOD9444443
_publ_section_title
;
Structure prediction by ZEFSAII (Michael W. Deem and Ramdas Pophale) SiO2 
 PCOD9444443
Probable space group: P N N M
;
_chemical_formula_sum "Si O2"
_cell_formula_units_Z 58
_cell_length_a 22.816725
_cell_length_b 15.135839
_cell_length_c 7.452496
_cell_angle_alpha 90.000000
_cell_angle_beta 90.000000
_cell_angle_gamma 90.000000
_cell_volume 2573.721551
_symmetry_space_group_name_H-M "P N N M"
_symmetry_group_IT_number 58
_symmetry_cell_setting 'orthorhombic'
loop_
_space_group_symop_operation_xyz
x,y,z
-x,-y,z
1/2+x,1/2-y,1/2-z
1/2-x,1/2+y,1/2-z
-x,-y,-z
x,y,-z
1/2-x,1/2+y,1/2+z
1/2+x,1/2-y,1/2+z
loop_
_atom_site_type_symbol
_atom_site_label
_atom_site_fract_x
_atom_site_fract_y
_atom_site_fract_z
Si Si1 0.234248 0.629241 0.713853
Si Si2 0.500000 0.500000 0.500000
Si Si3 0.951982 0.356349 0.782359
Si Si4 0.631919 0.378065 0.280720
Si Si5 0.633178 0.008498 0.715141
Si Si6 0.083531 0.311446 0.780914
Si Si7 0.150923 0.778657 0.292846
Si Si8 0.077480 0.935562 0.704731
O O1 0.238161 0.641151 0.500000
O O2 0.300305 0.618918 0.776629
O O3 0.192067 0.545238 0.742002
O O4 0.201136 0.716290 0.788212
O O5 0.524466 0.567422 0.657076
O O6 0.921926 0.448294 0.724001
O O7 0.907511 0.280945 0.718598
O O8 0.017856 0.337161 0.724318
O O9 0.951829 0.356094 0.000000
O O10 0.627436 0.384545 0.500000
O O11 0.603869 0.285310 0.224355
O O12 0.599672 0.464122 0.209870
O O13 0.629914 0.011149 0.500000
O O14 0.626095 0.108758 0.778025
O O15 0.083991 0.309824 0.000000
O O16 0.167301 0.793551 0.500000
O O17 0.130396 0.873486 0.224849
O O18 0.062566 0.910701 0.500000
#
# Coordination Sequence:
#
# PCOD9444443 Si02
#       8
#     8   2   8   8   8   8   8   8
#     4   9  19  37  58  79 116 156 199 250 306 360
#     4  12  26  44  68  90 132 170 206 264 314 382
#     4   9  17  29  53  82 113 143 183 236 295 358
#     4  10  21  38  57  83 117 163 204 251 309 362
#     4   9  17  32  53  82 108 143 190 240 292 357
#     4   9  18  31  53  79 109 145 187 234 298 362
#     4   9  20  37  57  85 115 157 204 250 299 362
#     4  11  25  42  65  94 127 166 214 257 314 375
#
# _framework density 22.53546
#
# number of rings (size 3 to 8) (size 9 to 14) (size 15 to 20)
#    0.000    2.483    0.690    0.621    2.897    3.310 
#    0.000    4.138    0.000    3.310    0.000    0.000 
#    0.000    0.000    0.000    0.000    0.000    0.000 
#
# Total GULP energy -323375.380210 kJ/mol
# GULP energy per Si atom -5575.437590 kJ/mol
# Density = 2.248417 g / cm^3
# Si number density = 22.535460 Si / 1000 Ang^3
#
#
#
# Elastic Constant Matrix: (Units=GPa)
#
#
# Indices 1 2 3 4 5 6 
#
# 1 60.0703 9.3721 2.9546 0.0000 0.0000 0.0000
# 2 9.3721 119.4628 0.2766 0.0000 0.0000 0.0000
# 3 2.9546 0.2766 85.9086 0.0000 0.0000 0.0000
# 4 0.0000 0.0000 0.0000 31.1305 0.0000 0.0000
# 5 0.0000 0.0000 0.0000 0.0000 21.0476 0.0000
# 6 0.0000 0.0000 0.0000 0.0000 0.0000 11.6406
#
#
#
# Elastic Compliance Matrix: (Units=1/GPa)
#
#
# Indices 1 2 3 4 5 6 
#
# 1 0.016882 -0.001323 -0.000576 0.000000 0.000000 0.000000
# 2 -0.001323 0.008475 0.000018 0.000000 0.000000 0.000000
# 3 -0.000576 0.000018 0.011660 0.000000 0.000000 0.000000
# 4 0.000000 0.000000 0.000000 0.032123 0.000000 0.000000
# 5 0.000000 0.000000 0.000000 0.000000 0.047511 0.000000
# 6 0.000000 0.000000 0.000000 0.000000 0.000000 0.085906
#
#
# Mechanical properties :
#
#
# Convention : Reuss Voigt Hill
#
# Bulk Modulus (GPa) = 30.07149 32.29427 31.18288
# Shear Modulus (GPa) = 22.99868 29.61965 26.30917
#
# Velocity S-wave (km/s) = 3.19808 3.62934 3.42051
# Velocity P-wave (km/s) = 5.19711 5.65016 5.42837
#
# Compressibility (1/GPa) = 0.03325409
#
# Stress axis : x y z
#
# Youngs Moduli (GPa) = 59.23494 118.00021 85.76303
#
# Poissons Ratio (x) = 0.15613 0.04943
# Poissons Ratio (y) = 0.07837 -0.00156
# Poissons Ratio (z) = 0.03414 -0.00215
#
# Static dielectric constant tensor:
#      x y z
#    x 1.867370 0.000000 0.000000 
#    y 0.000000 1.832070 0.000000 
#    z 0.000000 0.000000 1.867240 
# 
# From -- ./inp_files/9885.got.cif
#   From: 2010.05.17/outbox.cif.g08.bks.cpg/sg58_5_cif.got.tgz:9885.got - 2010.06.03 14:20:14.
