data_PCOD9444135
_publ_section_title
;
Structure prediction by ZEFSAII (Michael W. Deem and Ramdas Pophale) SiO2 
 PCOD9444135
Probable space group: P N N M
;
_chemical_formula_sum "Si O2"
_cell_formula_units_Z 40
_cell_length_a 12.972396
_cell_length_b 8.226295
_cell_length_c 19.773286
_cell_angle_alpha 90.000000
_cell_angle_beta 90.000000
_cell_angle_gamma 90.000000
_cell_volume 2110.101398
_symmetry_space_group_name_H-M "P N N M"
_symmetry_group_IT_number 58
_symmetry_cell_setting 'orthorhombic'
loop_
_space_group_symop_operation_xyz
x,y,z
-x,-y,z
1/2+x,1/2-y,1/2-z
1/2-x,1/2+y,1/2-z
-x,-y,-z
x,y,-z
1/2-x,1/2+y,1/2+z
1/2+x,1/2-y,1/2+z
loop_
_atom_site_type_symbol
_atom_site_label
_atom_site_fract_x
_atom_site_fract_y
_atom_site_fract_z
Si Si1 0.074819 0.195553 0.148568
Si Si2 0.696621 0.272069 0.838922
Si Si3 0.775596 0.145989 0.303063
Si Si4 0.620669 0.647623 0.578920
Si Si5 0.491463 0.190041 0.790081
O O1 0.178906 0.298917 0.151767
O O2 0.980966 0.249105 0.100296
O O3 0.026568 0.206771 0.224075
O O4 0.108173 0.017534 0.122737
O O5 0.738951 0.171318 0.774214
O O6 0.700793 0.460023 0.818357
O O7 0.774371 0.234019 0.899157
O O8 0.577765 0.222833 0.846787
O O9 0.877611 0.255587 0.310860
O O10 0.618291 0.609708 0.500000
O O11 0.500000 0.000000 0.771367
#
# Coordination Sequence:
#
# PCOD9444135 Si02
#       5
#     8   8   8   8   8
#     4  10  21  35  59  84 118 153 199 238 296 351
#     4  11  22  35  58  87 119 157 194 244 302 355
#     4  11  21  35  59  90 121 148 190 258 305 351
#     4  11  23  41  60  83 123 168 204 237 282 358
#     4  11  21  35  61  93 122 148 188 256 311 356
#
# _framework density 18.956434999999999
#
# number of rings (size 3 to 8) (size 9 to 14) (size 15 to 20)
#    0.000    1.200    2.000    7.800    5.600    0.000 
#    0.000    3.000    0.000    9.000    0.000    0.000 
#    0.000    0.000    0.000    0.000    0.000    0.000 
#
# Total GULP energy -223315.655344 kJ/mol
# GULP energy per Si atom -5582.891384 kJ/mol
# Density = 1.891329 g / cm^3
# Si number density = 18.956435 Si / 1000 Ang^3
#
#
#
# Elastic Constant Matrix: (Units=GPa)
#
#
# Indices 1 2 3 4 5 6 
#
# 1 114.6447 9.8744 28.5294 0.0000 0.0000 0.0000
# 2 9.8744 64.7882 33.8719 0.0000 0.0000 0.0000
# 3 28.5294 33.8719 57.2777 0.0000 0.0000 0.0000
# 4 0.0000 0.0000 0.0000 20.2166 0.0000 0.0000
# 5 0.0000 0.0000 0.0000 0.0000 12.9048 0.0000
# 6 0.0000 0.0000 0.0000 0.0000 0.0000 29.4560
#
#
#
# Elastic Compliance Matrix: (Units=1/GPa)
#
#
# Indices 1 2 3 4 5 6 
#
# 1 0.010066 0.001574 -0.005945 0.000000 0.000000 0.000000
# 2 0.001574 0.022589 -0.014142 0.000000 0.000000 0.000000
# 3 -0.005945 -0.014142 0.028783 0.000000 0.000000 0.000000
# 4 0.000000 0.000000 0.000000 0.049464 0.000000 0.000000
# 5 0.000000 0.000000 0.000000 0.000000 0.077490 0.000000
# 6 0.000000 0.000000 0.000000 0.000000 0.000000 0.033949
#
#
# Mechanical properties :
#
#
# Convention : Reuss Voigt Hill
#
# Bulk Modulus (GPa) = 40.96326 42.36243 41.66284
# Shear Modulus (GPa) = 18.69130 23.47781 21.08455
#
# Velocity S-wave (km/s) = 3.14349 3.52307 3.33868
# Velocity P-wave (km/s) = 5.90182 6.24060 6.07357
#
# Compressibility (1/GPa) = 0.02441212
#
# Stress axis : x y z
#
# Youngs Moduli (GPa) = 99.34072 44.27017 34.74310
#
# Poissons Ratio (x) = -0.06967 0.20653
# Poissons Ratio (y) = -0.15633 0.49133
# Poissons Ratio (z) = 0.59053 0.62606
#
# Static dielectric constant tensor:
#      x y z
#    x 1.724310 0.000000 0.000000 
#    y 0.000000 1.681620 0.000000 
#    z 0.000000 0.000000 1.621530 
# 
# From -- ./inp_files/25926.got.cif
#   From: 2010.05.17/outbox.cif.g08.bks.cpg/sg58_13_cif.got.tgz:25926.got - 2010.06.03 14:20:14.
