data_PCOD9444651
_publ_section_title
;
Structure prediction by ZEFSAII (Michael W. Deem and Ramdas Pophale) SiO2 
 PCOD9444651
Probable space group: P N N M
;
_chemical_formula_sum "Si O2"
_cell_formula_units_Z 56
_cell_length_a 21.726564
_cell_length_b 14.877803
_cell_length_c 9.056670
_cell_angle_alpha 90.000000
_cell_angle_beta 90.000000
_cell_angle_gamma 90.000000
_cell_volume 2927.510063
_symmetry_space_group_name_H-M "P N N M"
_symmetry_group_IT_number 58
_symmetry_cell_setting 'orthorhombic'
loop_
_space_group_symop_operation_xyz
x,y,z
-x,-y,z
1/2+x,1/2-y,1/2-z
1/2-x,1/2+y,1/2-z
-x,-y,-z
x,y,-z
1/2-x,1/2+y,1/2+z
1/2+x,1/2-y,1/2+z
loop_
_atom_site_type_symbol
_atom_site_label
_atom_site_fract_x
_atom_site_fract_y
_atom_site_fract_z
Si Si1 0.014465 0.214751 0.824055
Si Si2 0.458826 0.915196 0.322391
Si Si3 0.906728 0.100406 0.323818
Si Si4 0.117409 0.104642 0.324054
Si Si5 0.762759 0.393974 0.176465
Si Si6 0.173590 0.435939 0.323765
Si Si7 0.288447 0.311666 0.676621
O O1 0.009309 0.320144 0.786971
O O2 0.079543 0.178091 0.765248
O O3 0.961757 0.155751 0.748702
O O4 0.010715 0.204951 0.000000
O O5 0.451447 0.919347 0.500000
O O6 0.392080 0.918656 0.249174
O O7 0.500000 0.000000 0.276196
O O8 0.908876 0.109927 0.500000
O O9 0.842595 0.138491 0.262239
O O10 0.909511 0.994157 0.290608
O O11 0.110792 0.121372 0.500000
O O12 0.189901 0.103393 0.290389
O O13 0.798161 0.471289 0.262972
O O14 0.786741 0.294094 0.210410
O O15 0.769663 0.409138 0.000000
O O16 0.167284 0.439547 0.500000
O O17 0.223163 0.357989 0.288150
O O18 0.298275 0.321608 0.500000
#
# Coordination Sequence:
#
# PCOD9444651 Si02
#       7
#     8   8   8   8   8   8   8
#     4  11  24  40  62  90 121 162 207 256 306 358
#     4  10  24  45  65  86 120 167 210 248 304 372
#     4  11  23  39  62  90 123 161 203 252 306 367
#     4  10  21  40  63  90 124 164 203 244 306 370
#     4  10  21  39  63  88 122 166 202 242 303 370
#     4  11  23  40  64  95 125 156 201 258 306 352
#     4  10  22  39  61  89 125 164 202 250 307 362
#
# _framework density 19.128883999999999
#
# number of rings (size 3 to 8) (size 9 to 14) (size 15 to 20)
#    0.000    1.571    1.429    2.571    2.000    7.143 
#    0.000    0.000    0.000    0.000    0.000    0.000 
#    0.000    0.000    0.000    0.000    0.000    0.000 
#
# Total GULP energy -313119.068003 kJ/mol
# GULP energy per Si atom -5591.411929 kJ/mol
# Density = 1.908535 g / cm^3
# Si number density = 19.128884 Si / 1000 Ang^3
#
#
#
# Elastic Constant Matrix: (Units=GPa)
#
#
# Indices 1 2 3 4 5 6 
#
# 1 37.2651 -5.8078 9.7742 0.0000 0.0000 0.0000
# 2 -5.8078 82.1945 28.6441 0.0000 0.0000 0.0000
# 3 9.7742 28.6441 21.0487 0.0000 0.0000 0.0000
# 4 0.0000 0.0000 0.0000 25.5890 0.0000 0.0000
# 5 0.0000 0.0000 0.0000 0.0000 17.9765 0.0000
# 6 0.0000 0.0000 0.0000 0.0000 0.0000 26.0531
#
#
#
# Elastic Compliance Matrix: (Units=1/GPa)
#
#
# Indices 1 2 3 4 5 6 
#
# 1 0.041192 0.018215 -0.043916 0.000000 0.000000 0.000000
# 2 0.018215 0.031195 -0.050910 0.000000 0.000000 0.000000
# 3 -0.043916 -0.050910 0.137182 0.000000 0.000000 0.000000
# 4 0.000000 0.000000 0.000000 0.039079 0.000000 0.000000
# 5 0.000000 0.000000 0.000000 0.000000 0.055628 0.000000
# 6 0.000000 0.000000 0.000000 0.000000 0.000000 0.038383
#
#
# Mechanical properties :
#
#
# Convention : Reuss Voigt Hill
#
# Bulk Modulus (GPa) = 17.74691 22.85883 20.30287
# Shear Modulus (GPa) = 9.71508 21.11690 15.41599
#
# Velocity S-wave (km/s) = 2.25605 3.32615 2.84192
# Velocity P-wave (km/s) = 4.01049 5.16980 4.62660
#
# Compressibility (1/GPa) = 0.05634784
#
# Stress axis : x y z
#
# Youngs Moduli (GPa) = 24.27649 32.05639 7.28958
#
# Poissons Ratio (x) = -0.58390 0.32013
# Poissons Ratio (y) = -0.44219 0.37111
# Poissons Ratio (z) = 1.06612 1.63199
#
# Static dielectric constant tensor:
#      x y z
#    x 1.638520 0.000000 0.000000 
#    y 0.000000 1.657140 0.000000 
#    z 0.000000 0.000000 1.634100 
# 
# From -- ./inp_files/6291.got.cif
#   From: 2010.05.17/outbox.cif.g08.bks.cpg/sg58_4_cif.got.tgz:6291.got - 2010.06.03 14:20:14.
