data_PCOD9444983
_publ_section_title
;
Structure prediction by ZEFSAII (Michael W. Deem and Ramdas Pophale) SiO2 
 PCOD9444983
Probable space group: P N N M
;
_chemical_formula_sum "Si O2"
_cell_formula_units_Z 58
_cell_length_a 12.370674
_cell_length_b 7.106141
_cell_length_c 26.054140
_cell_angle_alpha 90.000000
_cell_angle_beta 90.000000
_cell_angle_gamma 90.000000
_cell_volume 2290.360922
_symmetry_space_group_name_H-M "P N N M"
_symmetry_group_IT_number 58
_symmetry_cell_setting 'orthorhombic'
loop_
_space_group_symop_operation_xyz
x,y,z
-x,-y,z
1/2+x,1/2-y,1/2-z
1/2-x,1/2+y,1/2-z
-x,-y,-z
x,y,-z
1/2-x,1/2+y,1/2+z
1/2+x,1/2-y,1/2+z
loop_
_atom_site_type_symbol
_atom_site_label
_atom_site_fract_x
_atom_site_fract_y
_atom_site_fract_z
Si Si1 0.810532 0.072301 0.919524
Si Si2 0.693684 0.927380 0.698859
Si Si3 0.506167 0.771616 0.253298
Si Si4 0.375337 0.381602 0.161144
Si Si5 0.500000 0.500000 0.500000
Si Si6 0.875107 0.494397 0.088073
Si Si7 0.198923 0.067008 0.195664
Si Si8 0.824845 0.244693 0.443072
O O1 0.821713 0.295480 0.926025
O O2 0.823827 0.028406 0.859234
O O3 0.700651 0.965864 0.935373
O O4 0.906250 0.996384 0.955114
O O5 0.618655 0.750078 0.715146
O O6 0.625217 0.007448 0.650361
O O7 0.728176 0.006318 0.755567
O O8 0.812396 0.922542 0.672462
O O9 0.529830 0.684050 0.198116
O O10 0.408489 0.665010 0.280617
O O11 0.500000 0.000000 0.251324
O O12 0.279492 0.235631 0.176368
O O13 0.396911 0.342914 0.101995
O O14 0.793651 0.648062 0.065720
O O15 0.000000 0.500000 0.070163
O O16 0.863371 0.207049 0.500000
#
# Coordination Sequence:
#
# PCOD9444983 Si02
#       8
#     8   8   8   8   2   8   8   8
#     4  11  25  40  59  88 128 169 215 268 315 392
#     4  10  22  39  57  90 130 165 216 266 314 396
#     4  11  21  37  64  90 129 178 214 262 327 401
#     4   9  21  38  58  93 126 162 216 259 317 384
#     4  12  24  36  54  88 124 158 222 264 306 388
#     4  11  25  40  63  91 129 176 217 261 325 401
#     4  10  23  38  61  89 126 171 207 263 326 373
#     4  10  22  43  64  88 126 171 214 275 327 375
#
# _framework density 25.323519000000001
#
# number of rings (size 3 to 8) (size 9 to 14) (size 15 to 20)
#    0.000    1.655    2.069    1.241   10.621    1.931 
#    0.000    0.000    0.000    0.414    0.000    7.724 
#    0.000    0.000    0.000    0.000    0.000    0.000 
#
# Total GULP energy -323086.893793 kJ/mol
# GULP energy per Si atom -5570.463686 kJ/mol
# Density = 2.526588 g / cm^3
# Si number density = 25.323519 Si / 1000 Ang^3
#
#
#
# Elastic Constant Matrix: (Units=GPa)
#
#
# Indices 1 2 3 4 5 6 
#
# 1 57.2109 -1.4264 24.4167 0.0000 0.0000 0.0000
# 2 -1.4264 81.3463 18.9189 0.0000 0.0000 0.0000
# 3 24.4167 18.9189 192.1134 0.0000 0.0000 0.0000
# 4 0.0000 0.0000 0.0000 14.2639 0.0000 0.0000
# 5 0.0000 0.0000 0.0000 0.0000 31.2534 0.0000
# 6 0.0000 0.0000 0.0000 0.0000 0.0000 17.9103
#
#
#
# Elastic Compliance Matrix: (Units=1/GPa)
#
#
# Indices 1 2 3 4 5 6 
#
# 1 0.018545 0.000894 -0.002445 0.000000 0.000000 0.000000
# 2 0.000894 0.012624 -0.001357 0.000000 0.000000 0.000000
# 3 -0.002445 -0.001357 0.005650 0.000000 0.000000 0.000000
# 4 0.000000 0.000000 0.000000 0.070107 0.000000 0.000000
# 5 0.000000 0.000000 0.000000 0.000000 0.031997 0.000000
# 6 0.000000 0.000000 0.000000 0.000000 0.000000 0.055834
#
#
# Mechanical properties :
#
#
# Convention : Reuss Voigt Hill
#
# Bulk Modulus (GPa) = 32.25499 46.05434 39.15467
# Shear Modulus (GPa) = 23.70721 31.93628 27.82175
#
# Velocity S-wave (km/s) = 3.06301 3.55509 3.31819
# Velocity P-wave (km/s) = 5.02735 5.92262 5.49325
#
# Compressibility (1/GPa) = 0.03100295
#
# Stress axis : x y z
#
# Youngs Moduli (GPa) = 53.92304 79.21191 177.00287
#
# Poissons Ratio (x) = -0.07080 0.43277
# Poissons Ratio (y) = -0.04820 0.24016
# Poissons Ratio (z) = 0.13184 0.10748
#
# Static dielectric constant tensor:
#      x y z
#    x 2.159830 0.000000 0.000000 
#    y 0.000000 2.388660 0.000000 
#    z 0.000000 0.000000 1.979850 
# 
# From -- ./inp_files/33593.got.cif
#   From: 2010.05.17/outbox.cif.g08.bks.cpg/sg58_17_cif.got.tgz:33593.got - 2010.06.03 14:20:14.
