data_PCOD9444098
_publ_section_title
;
Structure prediction by ZEFSAII (Michael W. Deem and Ramdas Pophale) SiO2 
 PCOD9444098
Probable space group: P N N M
;
_chemical_formula_sum "Si O2"
_cell_formula_units_Z 64
_cell_length_a 16.643015
_cell_length_b 8.925947
_cell_length_c 20.430684
_cell_angle_alpha 90.000000
_cell_angle_beta 90.000000
_cell_angle_gamma 90.000000
_cell_volume 3035.073516
_symmetry_space_group_name_H-M "P N N M"
_symmetry_group_IT_number 58
_symmetry_cell_setting 'orthorhombic'
loop_
_space_group_symop_operation_xyz
x,y,z
-x,-y,z
1/2+x,1/2-y,1/2-z
1/2-x,1/2+y,1/2-z
-x,-y,-z
x,y,-z
1/2-x,1/2+y,1/2+z
1/2+x,1/2-y,1/2+z
loop_
_atom_site_type_symbol
_atom_site_label
_atom_site_fract_x
_atom_site_fract_y
_atom_site_fract_z
Si Si1 0.372701 0.665843 0.762746
Si Si2 0.851109 0.347976 0.669994
Si Si3 0.302030 0.176298 0.680579
Si Si4 0.502981 0.337824 0.124888
Si Si5 0.412629 0.926868 0.930034
Si Si6 0.582653 0.080059 0.331041
Si Si7 0.686110 0.485013 0.640493
Si Si8 0.552211 0.358279 0.426385
O O1 0.291020 0.639243 0.803640
O O2 0.451750 0.652011 0.805678
O O3 0.375369 0.828724 0.728045
O O4 0.369712 0.548629 0.703555
O O5 0.846324 0.319478 0.747699
O O6 0.878508 0.505487 0.636974
O O7 0.758132 0.365178 0.650093
O O8 0.914940 0.234142 0.637295
O O9 0.299106 0.337599 0.645075
O O10 0.353337 0.045433 0.645409
O O11 0.500000 0.500000 0.095291
O O12 0.564202 0.242645 0.081387
O O13 0.500000 0.000000 0.934994
O O14 0.369802 0.954428 0.000000
O O15 0.556290 0.208002 0.383040
O O16 0.500000 0.000000 0.309471
O O17 0.640411 0.430985 0.576761
O O18 0.500000 0.500000 0.401893
O O19 0.526355 0.322702 0.500000
#
# Coordination Sequence:
#
# PCOD9444098 Si02
#       8
#     8   8   8   8   8   8   8   8
#     4  10  21  35  53  84 122 158 189 237 309 377
#     4  10  21  37  58  84 116 157 197 243 305 372
#     4  11  20  35  58  87 120 149 192 251 307 364
#     4  11  21  33  55  83 114 151 198 249 299 357
#     4   9  19  36  54  74 106 149 194 237 289 355
#     4  11  22  36  60  90 120 156 206 259 307 368
#     4  10  21  37  59  85 117 155 194 242 307 374
#     4  10  23  43  62  83 116 158 201 247 308 376
#
# _framework density 21.086804000000001
#
# number of rings (size 3 to 8) (size 9 to 14) (size 15 to 20)
#    0.000    1.750    0.000    5.250    0.000    7.000 
#    0.000    0.625    0.000    3.750    0.000    0.000 
#    0.000    0.000    0.000    0.000    0.000    0.000 
#
# Total GULP energy -356324.255416 kJ/mol
# GULP energy per Si atom -5567.566491 kJ/mol
# Density = 2.103881 g / cm^3
# Si number density = 21.086804 Si / 1000 Ang^3
#
#
#
# Elastic Constant Matrix: (Units=GPa)
#
#
# Indices 1 2 3 4 5 6 
#
# 1 90.6088 33.5168 21.0888 0.0000 0.0000 0.0000
# 2 33.5168 104.9108 9.3599 0.0000 0.0000 0.0000
# 3 21.0888 9.3599 33.1507 0.0000 0.0000 0.0000
# 4 0.0000 0.0000 0.0000 15.2462 0.0000 0.0000
# 5 0.0000 0.0000 0.0000 0.0000 6.0730 0.0000
# 6 0.0000 0.0000 0.0000 0.0000 0.0000 34.4320
#
#
#
# Elastic Compliance Matrix: (Units=1/GPa)
#
#
# Indices 1 2 3 4 5 6 
#
# 1 0.014334 -0.003863 -0.008028 0.000000 0.000000 0.000000
# 2 -0.003863 0.010819 -0.000597 0.000000 0.000000 0.000000
# 3 -0.008028 -0.000597 0.035441 0.000000 0.000000 0.000000
# 4 0.000000 0.000000 0.000000 0.065590 0.000000 0.000000
# 5 0.000000 0.000000 0.000000 0.000000 0.164664 0.000000
# 6 0.000000 0.000000 0.000000 0.000000 0.000000 0.029043
#
#
# Mechanical properties :
#
#
# Convention : Reuss Voigt Hill
#
# Bulk Modulus (GPa) = 28.07587 39.62235 33.84911
# Shear Modulus (GPa) = 14.01584 22.13056 18.07320
#
# Velocity S-wave (km/s) = 2.58092 3.24311 2.93078
# Velocity P-wave (km/s) = 4.71433 5.73189 5.24783
#
# Compressibility (1/GPa) = 0.03561777
#
# Stress axis : x y z
#
# Youngs Moduli (GPa) = 69.76468 92.42661 28.21606
#
# Poissons Ratio (x) = 0.35706 0.22651
# Poissons Ratio (y) = 0.26951 0.01685
# Poissons Ratio (z) = 0.56005 0.05520
#
# Static dielectric constant tensor:
#      x y z
#    x 1.866350 0.000000 0.000000 
#    y 0.000000 1.922650 0.000000 
#    z 0.000000 0.000000 1.844220 
# 
# From -- ./inp_files/32216.got.cif
#   From: 2010.05.17/outbox.cif.g08.bks.cpg/sg58_17_cif.got.tgz:32216.got - 2010.06.03 14:20:14.
