data_PCOD9444914
_publ_section_title
;
Structure prediction by ZEFSAII (Michael W. Deem and Ramdas Pophale) SiO2 
 PCOD9444914
Probable space group: P N N M
;
_chemical_formula_sum "Si O2"
_cell_formula_units_Z 48
_cell_length_a 24.829129
_cell_length_b 12.047027
_cell_length_c 8.207131
_cell_angle_alpha 90.000000
_cell_angle_beta 90.000000
_cell_angle_gamma 90.000000
_cell_volume 2454.893942
_symmetry_space_group_name_H-M "P N N M"
_symmetry_group_IT_number 58
_symmetry_cell_setting 'orthorhombic'
loop_
_space_group_symop_operation_xyz
x,y,z
-x,-y,z
1/2+x,1/2-y,1/2-z
1/2-x,1/2+y,1/2-z
-x,-y,-z
x,y,-z
1/2-x,1/2+y,1/2+z
1/2+x,1/2-y,1/2+z
loop_
_atom_site_type_symbol
_atom_site_label
_atom_site_fract_x
_atom_site_fract_y
_atom_site_fract_z
Si Si1 0.176231 0.125108 0.195945
Si Si2 0.900985 0.464988 0.696580
Si Si3 0.702926 0.833296 0.801312
Si Si4 0.138080 0.884650 0.697003
Si Si5 0.417509 0.784760 0.306116
Si Si6 0.534757 0.748446 0.803558
O O1 0.236930 0.144192 0.258121
O O2 0.133354 0.215216 0.259163
O O3 0.155319 0.002780 0.236509
O O4 0.178575 0.136044 0.000000
O O5 0.901906 0.464407 0.500000
O O6 0.841585 0.424066 0.749862
O O7 0.914897 0.587533 0.752522
O O8 0.942601 0.369089 0.750831
O O9 0.679549 0.713023 0.754154
O O10 0.703425 0.835291 0.000000
O O11 0.138202 0.889543 0.500000
O O12 0.078804 0.842490 0.749173
O O13 0.415178 0.781763 0.500000
O O14 0.474170 0.732662 0.252855
O O15 0.535125 0.749245 0.000000
#
# Coordination Sequence:
#
# PCOD9444914 Si02
#       6
#     8   8   8   8   8   8
#     4  10  22  37  52  77 113 146 172 212 272 325
#     4   9  18  35  59  81 102 138 183 224 266 311
#     4   8  17  36  58  77 104 139 175 220 270 316
#     4   9  19  37  60  80 100 137 186 226 261 309
#     4  11  23  34  50  81 116 145 173 215 271 323
#     4   9  19  37  58  79 105 140 182 227 267 307
#
# _framework density 19.552779999999998
#
# number of rings (size 3 to 8) (size 9 to 14) (size 15 to 20)
#    0.000    2.667    0.000    3.000    2.333    5.333 
#    0.000    6.667    0.000    0.000    0.000    0.000 
#    0.000    0.000    0.000    0.000    0.000    0.000 
#
# Total GULP energy -267856.772603 kJ/mol
# GULP energy per Si atom -5580.349429 kJ/mol
# Density = 1.950828 g / cm^3
# Si number density = 19.552780 Si / 1000 Ang^3
#
#
#
# Elastic Constant Matrix: (Units=GPa)
#
#
# Indices 1 2 3 4 5 6 
#
# 1 119.1611 -0.4544 11.0325 0.0000 0.0000 0.0000
# 2 -0.4544 7.0172 -3.4105 0.0000 0.0000 0.0000
# 3 11.0325 -3.4105 5.9074 0.0000 0.0000 0.0000
# 4 0.0000 0.0000 0.0000 16.2620 0.0000 0.0000
# 5 0.0000 0.0000 0.0000 0.0000 23.1699 0.0000
# 6 0.0000 0.0000 0.0000 0.0000 0.0000 14.6885
#
#
#
# Elastic Compliance Matrix: (Units=1/GPa)
#
#
# Indices 1 2 3 4 5 6 
#
# 1 0.010914 -0.012788 -0.027765 0.000000 0.000000 0.000000
# 2 -0.012788 0.213075 0.146898 0.000000 0.000000 0.000000
# 3 -0.027765 0.146898 0.305940 0.000000 0.000000 0.000000
# 4 0.000000 0.000000 0.000000 0.061493 0.000000 0.000000
# 5 0.000000 0.000000 0.000000 0.000000 0.043159 0.000000
# 6 0.000000 0.000000 0.000000 0.000000 0.000000 0.068080
#
#
# Mechanical properties :
#
#
# Convention : Reuss Voigt Hill
#
# Bulk Modulus (GPa) = 1.34659 16.26898 8.80778
# Shear Modulus (GPa) = 6.77954 19.15198 12.96576
#
# Velocity S-wave (km/s) = 1.86409 3.13309 2.57790
# Velocity P-wave (km/s) = 2.30723 4.62893 3.65720
#
# Compressibility (1/GPa) = 0.74261841
#
# Stress axis : x y z
#
# Youngs Moduli (GPa) = 91.62652 4.69317 3.26861
#
# Poissons Ratio (x) = 0.06002 0.09075
# Poissons Ratio (y) = 1.17172 -0.48015
# Poissons Ratio (z) = 2.54403 -0.68942
#
# Static dielectric constant tensor:
#      x y z
#    x 1.698140 0.000000 0.000000 
#    y 0.000000 1.651280 0.000000 
#    z 0.000000 0.000000 1.694250 
# 
# From -- ./inp_files/4243.got.cif
#   From: 2010.05.17/outbox.cif.g08.bks.cpg/sg58_3_cif.got.tgz:4243.got - 2010.06.03 14:20:14.
