data_PCOD9444744
_publ_section_title
;
Structure prediction by ZEFSAII (Michael W. Deem and Ramdas Pophale) SiO2 
 PCOD9444744
Probable space group: P N N M
;
_chemical_formula_sum "Si O2"
_cell_formula_units_Z 58
_cell_length_a 8.060458
_cell_length_b 19.643230
_cell_length_c 16.541845
_cell_angle_alpha 90.000000
_cell_angle_beta 90.000000
_cell_angle_gamma 90.000000
_cell_volume 2619.127064
_symmetry_space_group_name_H-M "P N N M"
_symmetry_group_IT_number 58
_symmetry_cell_setting 'orthorhombic'
loop_
_space_group_symop_operation_xyz
x,y,z
-x,-y,z
1/2+x,1/2-y,1/2-z
1/2-x,1/2+y,1/2-z
-x,-y,-z
x,y,-z
1/2-x,1/2+y,1/2+z
1/2+x,1/2-y,1/2+z
loop_
_atom_site_type_symbol
_atom_site_label
_atom_site_fract_x
_atom_site_fract_y
_atom_site_fract_z
Si Si1 0.085210 0.892310 0.323672
Si Si2 0.500000 0.500000 0.500000
Si Si3 0.317430 0.784474 0.287609
Si Si4 0.748687 0.472679 0.805570
Si Si5 0.429425 0.140967 0.592781
Si Si6 0.685217 0.977848 0.118866
Si Si7 0.601780 0.275312 0.116753
Si Si8 0.666835 0.818645 0.913504
O O1 0.186398 0.843502 0.263188
O O2 0.028001 0.838248 0.391734
O O3 0.915389 0.925831 0.293087
O O4 0.195997 0.956691 0.347955
O O5 0.348457 0.496127 0.429378
O O6 0.443426 0.824060 0.345690
O O7 0.383929 0.745923 0.210216
O O8 0.240789 0.725863 0.342536
O O9 0.867538 0.427637 0.861883
O O10 0.805602 0.491255 0.715323
O O11 0.485119 0.129488 0.500000
O O12 0.274749 0.193840 0.589493
O O13 0.685522 0.896812 0.105871
O O14 0.500000 0.000000 0.091743
O O15 0.522105 0.207743 0.080777
O O16 0.749785 0.804432 0.000000
#
# Coordination Sequence:
#
# PCOD9444744 Si02
#       8
#     8   2   8   8   8   8   8   8
#     4   9  20  39  63  94 128 181 241 287 360 429
#     4  12  26  52  72 106 150 188 234 332 370 462
#     4  11  22  39  67  98 134 183 236 295 363 438
#     4  10  22  43  68  98 139 189 243 295 363 445
#     4  11  23  41  64 106 144 183 245 309 368 441
#     4  12  27  47  73 105 146 189 248 307 379 452
#     4  10  21  40  65  94 131 179 238 292 360 434
#     4  11  23  43  62  92 135 178 221 285 358 429
#
# _framework density 22.144783
#
# number of rings (size 3 to 8) (size 9 to 14) (size 15 to 20)
#    0.000    1.379    0.690    6.000    3.862    0.000 
#    2.483   10.345    0.000    0.000    0.000    0.000 
#    0.000    0.000    0.000    0.000    0.000    0.000 
#
# Total GULP energy -322985.553551 kJ/mol
# GULP energy per Si atom -5568.716441 kJ/mol
# Density = 2.209438 g / cm^3
# Si number density = 22.144783 Si / 1000 Ang^3
#
#
#
# Elastic Constant Matrix: (Units=GPa)
#
#
# Indices 1 2 3 4 5 6 
#
# 1 97.6006 29.3047 24.5444 0.0000 0.0000 0.0000
# 2 29.3047 93.3356 26.7837 0.0000 0.0000 0.0000
# 3 24.5444 26.7837 123.6036 0.0000 0.0000 0.0000
# 4 0.0000 0.0000 0.0000 -51.5780 0.0000 0.0000
# 5 0.0000 0.0000 0.0000 0.0000 5.5585 0.0000
# 6 0.0000 0.0000 0.0000 0.0000 0.0000 35.7947
#
#
#
# Elastic Compliance Matrix: (Units=1/GPa)
#
#
# Indices 1 2 3 4 5 6 
#
# 1 0.011607 -0.003181 -0.001616 0.000000 0.000000 0.000000
# 2 -0.003181 0.012296 -0.002033 0.000000 0.000000 0.000000
# 3 -0.001616 -0.002033 0.008852 0.000000 0.000000 0.000000
# 4 0.000000 0.000000 0.000000 -0.019388 0.000000 0.000000
# 5 0.000000 0.000000 0.000000 0.000000 0.179905 0.000000
# 6 0.000000 0.000000 0.000000 0.000000 0.000000 0.027937
#
#
# Mechanical properties :
#
#
# Convention : Reuss Voigt Hill
#
# Bulk Modulus (GPa) = 52.36552 52.86727 52.61639
# Shear Modulus (GPa) = 20.72684 13.54882 17.13783
#
# Velocity S-wave (km/s) = 3.06268 2.47620 2.78492
# Velocity P-wave (km/s) = 6.01705 5.66575 5.84404
#
# Compressibility (1/GPa) = 0.01909654
#
# Stress axis : x y z
#
# Youngs Moduli (GPa) = 86.15389 81.32714 112.97261
#
# Poissons Ratio (x) = 0.25868 0.18252
# Poissons Ratio (y) = 0.27403 0.22965
# Poissons Ratio (z) = 0.13919 0.16532
#
# Static dielectric constant tensor:
#      x y z
#    x 1.928010 0.000000 0.000000 
#    y 0.000000 1.806090 0.000000 
#    z 0.000000 0.000000 1.680420 
# 
# From -- ./inp_files/25511.got.cif
#   From: 2010.05.17/outbox.cif.g08.bks.cpg/sg58_13_cif.got.tgz:25511.got - 2010.06.03 14:20:14.
