data_PCOD9444112
_publ_section_title
;
Structure prediction by ZEFSAII (Michael W. Deem and Ramdas Pophale) SiO2 
 PCOD9444112
Probable space group: P N N M
;
_chemical_formula_sum "Si O2"
_cell_formula_units_Z 48
_cell_length_a 8.258156
_cell_length_b 23.255484
_cell_length_c 12.241153
_cell_angle_alpha 90.000000
_cell_angle_beta 90.000000
_cell_angle_gamma 90.000000
_cell_volume 2350.881787
_symmetry_space_group_name_H-M "P N N M"
_symmetry_group_IT_number 58
_symmetry_cell_setting 'orthorhombic'
loop_
_space_group_symop_operation_xyz
x,y,z
-x,-y,z
1/2+x,1/2-y,1/2-z
1/2-x,1/2+y,1/2-z
-x,-y,-z
x,y,-z
1/2-x,1/2+y,1/2+z
1/2+x,1/2-y,1/2+z
loop_
_atom_site_type_symbol
_atom_site_label
_atom_site_fract_x
_atom_site_fract_y
_atom_site_fract_z
Si Si1 0.617847 0.369856 0.624989
Si Si2 0.858228 0.285611 0.266018
Si Si3 0.656855 0.970313 0.190658
Si Si4 0.500589 0.109817 0.371521
Si Si5 0.317121 0.801977 0.878007
Si Si6 0.207780 0.908718 0.229406
O O1 0.560489 0.362349 0.500000
O O2 0.706417 0.313817 0.671855
O O3 0.752285 0.420172 0.627408
O O4 0.474500 0.389309 0.705971
O O5 0.803270 0.228020 0.206875
O O6 0.925070 0.331191 0.176248
O O7 0.004553 0.279428 0.350411
O O8 0.587903 0.940220 0.301256
O O9 0.500000 0.000000 0.137119
O O10 0.775941 0.023418 0.212537
O O11 0.476714 0.104440 0.500000
O O12 0.691286 0.106192 0.338994
O O13 0.309741 0.870362 0.857967
O O14 0.271345 0.787280 0.000000
#
# Coordination Sequence:
#
# PCOD9444112 Si02
#       6
#     8   8   8   8   8   8
#     4  11  22  38  59  82 116 153 185 233 288 334
#     4  10  22  39  59  88 113 144 197 237 277 344
#     4   9  20  36  57  85 115 145 189 233 273 338
#     4   9  19  39  63  83 113 153 189 234 287 333
#     4  11  22  39  61  83 116 152 185 235 288 334
#     4  10  21  35  55  87 116 145 189 229 272 340
#
# _framework density 20.417870000000001
#
# number of rings (size 3 to 8) (size 9 to 14) (size 15 to 20)
#    0.000    2.000    0.000    4.000    0.000    5.333 
#    0.000   17.500    0.000    8.000    0.000    0.000 
#    0.000    0.000    0.000    0.000    0.000    0.000 
#
# Total GULP energy -267878.957636 kJ/mol
# GULP energy per Si atom -5580.811617 kJ/mol
# Density = 2.037140 g / cm^3
# Si number density = 20.417870 Si / 1000 Ang^3
#
#
#
# Elastic Constant Matrix: (Units=GPa)
#
#
# Indices 1 2 3 4 5 6 
#
# 1 89.2946 7.9471 22.6625 0.0000 0.0000 0.0000
# 2 7.9471 84.9499 28.4798 0.0000 0.0000 0.0000
# 3 22.6625 28.4798 92.4404 0.0000 0.0000 0.0000
# 4 0.0000 0.0000 0.0000 5.8869 0.0000 0.0000
# 5 0.0000 0.0000 0.0000 0.0000 15.7484 0.0000
# 6 0.0000 0.0000 0.0000 0.0000 0.0000 37.2839
#
#
#
# Elastic Compliance Matrix: (Units=1/GPa)
#
#
# Indices 1 2 3 4 5 6 
#
# 1 0.011944 -0.000151 -0.002881 0.000000 0.000000 0.000000
# 2 -0.000151 0.013129 -0.004008 0.000000 0.000000 0.000000
# 3 -0.002881 -0.004008 0.012759 0.000000 0.000000 0.000000
# 4 0.000000 0.000000 0.000000 0.169870 0.000000 0.000000
# 5 0.000000 0.000000 0.000000 0.000000 0.063499 0.000000
# 6 0.000000 0.000000 0.000000 0.000000 0.000000 0.026821
#
#
# Mechanical properties :
#
#
# Convention : Reuss Voigt Hill
#
# Bulk Modulus (GPa) = 42.10404 42.76263 42.43334
# Shear Modulus (GPa) = 15.62400 25.62353 20.62377
#
# Velocity S-wave (km/s) = 2.76925 3.54638 3.18163
# Velocity P-wave (km/s) = 5.55796 6.14478 5.85872
#
# Compressibility (1/GPa) = 0.02375069
#
# Stress axis : x y z
#
# Youngs Moduli (GPa) = 83.72652 76.16448 78.37609
#
# Poissons Ratio (x) = 0.01153 0.22584
# Poissons Ratio (y) = 0.01267 0.31413
# Poissons Ratio (z) = 0.24125 0.30526
#
# Static dielectric constant tensor:
#      x y z
#    x 1.773950 0.000000 0.000000 
#    y 0.000000 1.722740 0.000000 
#    z 0.000000 0.000000 1.675700 
# 
# From -- ./inp_files/13058.got.cif
#   From: 2010.05.17/outbox.cif.g08.bks.cpg/sg58_7_cif.got.tgz:13058.got - 2010.06.03 14:20:14.
