data_PCOD9444937
_publ_section_title
;
Structure prediction by ZEFSAII (Michael W. Deem and Ramdas Pophale) SiO2 
 PCOD9444937
Probable space group: P N N M
;
_chemical_formula_sum "Si O2"
_cell_formula_units_Z 64
_cell_length_a 13.625894
_cell_length_b 18.732671
_cell_length_c 13.596563
_cell_angle_alpha 90.000000
_cell_angle_beta 90.000000
_cell_angle_gamma 90.000000
_cell_volume 3470.514403
_symmetry_space_group_name_H-M "P N N M"
_symmetry_group_IT_number 58
_symmetry_cell_setting 'orthorhombic'
loop_
_space_group_symop_operation_xyz
x,y,z
-x,-y,z
1/2+x,1/2-y,1/2-z
1/2-x,1/2+y,1/2-z
-x,-y,-z
x,y,-z
1/2-x,1/2+y,1/2+z
1/2+x,1/2-y,1/2+z
loop_
_atom_site_type_symbol
_atom_site_label
_atom_site_fract_x
_atom_site_fract_y
_atom_site_fract_z
Si Si1 0.739332 0.253610 0.795607
Si Si2 0.152827 0.814375 0.613676
Si Si3 0.927378 0.433037 0.384349
Si Si4 0.958593 0.923689 0.116918
Si Si5 0.766275 0.917175 0.759402
Si Si6 0.015842 0.285154 0.690768
Si Si7 0.561505 0.723157 0.613263
Si Si8 0.885307 0.018197 0.615467
O O1 0.770464 0.219016 0.690759
O O2 0.748274 0.338900 0.786308
O O3 0.630003 0.230910 0.822579
O O4 0.822159 0.228282 0.871399
O O5 0.181917 0.804128 0.500000
O O6 0.134813 0.898030 0.631852
O O7 0.051532 0.772608 0.634637
O O8 0.899973 0.425727 0.500000
O O9 0.831778 0.441128 0.315657
O O10 0.000000 0.500000 0.375023
O O11 0.983276 0.361853 0.348876
O O12 0.853122 0.909415 0.161814
O O13 0.027761 0.856898 0.140919
O O14 0.950903 0.926866 0.000000
O O15 0.000000 0.000000 0.150308
O O16 0.810736 0.971831 0.680226
O O17 0.988208 0.274636 0.806118
O O18 0.534445 0.737296 0.500000
O O19 0.869135 0.002988 0.500000
O O20 0.000000 0.000000 0.634906
#
# Coordination Sequence:
#
# PCOD9444937 Si02
#       8
#     8   8   8   8   8   8   8   8
#     4  11  24  37  61  95 121 167 212 253 314 367
#     4  10  22  41  64  92 125 158 209 263 314 375
#     4  11  26  45  64  90 127 170 215 261 309 374
#     4  10  22  37  61  94 126 160 201 255 320 377
#     4  12  22  39  67  89 128 166 212 255 309 381
#     4  11  22  41  65  91 120 167 208 255 314 369
#     4  10  22  40  59  92 129 158 202 257 311 369
#     4  10  23  40  64  97 128 163 205 262 326 380
#
# _framework density 18.44107
#
# number of rings (size 3 to 8) (size 9 to 14) (size 15 to 20)
#    0.000    1.375    3.750    1.875    7.000    2.500 
#    0.000    2.500    0.000    0.750    0.000    0.000 
#    0.000    0.000    0.000    0.000    0.000    0.000 
#
# Total GULP energy -357519.775485 kJ/mol
# GULP energy per Si atom -5586.246492 kJ/mol
# Density = 1.839910 g / cm^3
# Si number density = 18.441070 Si / 1000 Ang^3
#
#
#
# Elastic Constant Matrix: (Units=GPa)
#
#
# Indices 1 2 3 4 5 6 
#
# 1 116.7285 56.7221 25.4440 0.0000 0.0000 0.0000
# 2 56.7221 138.0959 62.7777 0.0000 0.0000 0.0000
# 3 25.4440 62.7777 90.7115 0.0000 0.0000 0.0000
# 4 0.0000 0.0000 0.0000 -91.0430 0.0000 0.0000
# 5 0.0000 0.0000 0.0000 0.0000 11.0836 0.0000
# 6 0.0000 0.0000 0.0000 0.0000 0.0000 30.3008
#
#
#
# Elastic Compliance Matrix: (Units=1/GPa)
#
#
# Indices 1 2 3 4 5 6 
#
# 1 0.010703 -0.004423 0.000059 0.000000 0.000000 0.000000
# 2 -0.004423 0.012393 -0.007336 0.000000 0.000000 0.000000
# 3 0.000059 -0.007336 0.016084 0.000000 0.000000 0.000000
# 4 0.000000 0.000000 0.000000 -0.010984 0.000000 0.000000
# 5 0.000000 0.000000 0.000000 0.000000 0.090223 0.000000
# 6 0.000000 0.000000 0.000000 0.000000 0.000000 0.033002
#
#
# Mechanical properties :
#
#
# Convention : Reuss Voigt Hill
#
# Bulk Modulus (GPa) = 63.37061 70.60261 66.98661
# Shear Modulus (GPa) = 27.76493 3.44109 15.60301
#
# Velocity S-wave (km/s) = 3.88442 1.36750 2.91194
# Velocity P-wave (km/s) = 7.38625 6.39234 6.90720
#
# Compressibility (1/GPa) = 0.01578019
#
# Stress axis : x y z
#
# Youngs Moduli (GPa) = 93.42836 80.69045 62.17185
#
# Poissons Ratio (x) = 0.35690 -0.00366
# Poissons Ratio (y) = 0.41324 0.45610
# Poissons Ratio (z) = -0.00549 0.59195
#
# Static dielectric constant tensor:
#      x y z
#    x 1.604760 0.000000 0.000000 
#    y 0.000000 1.621940 0.000000 
#    z 0.000000 0.000000 1.648900 
# 
# From -- ./inp_files/21490.got.cif
#   From: 2010.05.17/outbox.cif.g08.bks.cpg/sg58_11_cif.got.tgz:21490.got - 2010.06.03 14:20:14.
