data_PCOD9444472
_publ_section_title
;
Structure prediction by ZEFSAII (Michael W. Deem and Ramdas Pophale) SiO2 
 PCOD9444472
Probable space group: P N N M
;
_chemical_formula_sum "Si O2"
_cell_formula_units_Z 52
_cell_length_a 14.084576
_cell_length_b 18.524647
_cell_length_c 7.826808
_cell_angle_alpha 90.000000
_cell_angle_beta 90.000000
_cell_angle_gamma 90.000000
_cell_volume 2042.106552
_symmetry_space_group_name_H-M "P N N M"
_symmetry_group_IT_number 58
_symmetry_cell_setting 'orthorhombic'
loop_
_space_group_symop_operation_xyz
x,y,z
-x,-y,z
1/2+x,1/2-y,1/2-z
1/2-x,1/2+y,1/2-z
-x,-y,-z
x,y,-z
1/2-x,1/2+y,1/2+z
1/2+x,1/2-y,1/2+z
loop_
_atom_site_type_symbol
_atom_site_label
_atom_site_fract_x
_atom_site_fract_y
_atom_site_fract_z
Si Si1 0.350148 0.611295 0.192527
Si Si2 0.948821 0.094429 0.803989
Si Si3 0.948312 0.350735 0.808292
Si Si4 0.248079 0.477578 0.305074
Si Si5 0.862197 0.721932 0.205570
Si Si6 0.656150 0.723007 0.801651
Si Si7 0.617243 0.989217 0.500000
O O1 0.456235 0.578451 0.200923
O O2 0.279548 0.562125 0.300147
O O3 0.364727 0.693425 0.248374
O O4 0.310632 0.608377 0.000000
O O5 0.926592 0.179269 0.788879
O O6 0.848464 0.059660 0.755676
O O7 0.968940 0.076285 0.000000
O O8 0.864807 0.308084 0.714068
O O9 0.048954 0.325287 0.732291
O O10 0.943973 0.318628 0.000000
O O11 0.933242 0.434709 0.852275
O O12 0.221585 0.458492 0.500000
O O13 0.173081 0.467250 0.153343
O O14 0.758000 0.700479 0.271377
O O15 0.858969 0.716133 0.000000
O O16 0.651301 0.703441 0.000000
#
# Coordination Sequence:
#
# PCOD9444472 Si02
#       7
#     8   8   8   8   8   8   4
#     4  12  23  35  59  92 126 171 212 260 316 389
#     4  11  24  40  59  84 130 171 212 264 327 380
#     4   9  20  38  58  84 123 163 201 256 316 369
#     4  11  24  41  62  93 125 173 217 262 317 381
#     4  10  21  38  59  86 128 162 205 255 318 379
#     4  11  22  35  60  92 122 164 209 262 317 378
#     4  10  22  40  67  89 124 163 216 263 307 380
#
# _framework density 25.463899999999999
#
# number of rings (size 3 to 8) (size 9 to 14) (size 15 to 20)
#    0.462    0.923    2.308    3.692    2.154    4.308 
#    0.000    0.000    0.000    1.846    0.000    2.154 
#    0.000    0.000    0.000    0.000    0.000    0.000 
#
# Total GULP energy -289680.876106 kJ/mol
# GULP energy per Si atom -5570.786079 kJ/mol
# Density = 2.540594 g / cm^3
# Si number density = 25.463900 Si / 1000 Ang^3
#
#
#
# Elastic Constant Matrix: (Units=GPa)
#
#
# Indices 1 2 3 4 5 6 
#
# 1 72.8285 17.3038 31.6923 0.0000 0.0000 0.0000
# 2 17.3038 83.9701 4.0598 0.0000 0.0000 0.0000
# 3 31.6923 4.0598 77.4752 0.0000 0.0000 0.0000
# 4 0.0000 0.0000 0.0000 32.5019 0.0000 0.0000
# 5 0.0000 0.0000 0.0000 0.0000 7.7370 0.0000
# 6 0.0000 0.0000 0.0000 0.0000 0.0000 51.6527
#
#
#
# Elastic Compliance Matrix: (Units=1/GPa)
#
#
# Indices 1 2 3 4 5 6 
#
# 1 0.017562 -0.003280 -0.007012 0.000000 0.000000 0.000000
# 2 -0.003280 0.012552 0.000684 0.000000 0.000000 0.000000
# 3 -0.007012 0.000684 0.015740 0.000000 0.000000 0.000000
# 4 0.000000 0.000000 0.000000 0.030767 0.000000 0.000000
# 5 0.000000 0.000000 0.000000 0.000000 0.129250 0.000000
# 6 0.000000 0.000000 0.000000 0.000000 0.000000 0.019360
#
#
# Mechanical properties :
#
#
# Convention : Reuss Voigt Hill
#
# Bulk Modulus (GPa) = 37.54111 37.82062 37.68087
# Shear Modulus (GPa) = 19.73748 30.45951 25.09850
#
# Velocity S-wave (km/s) = 2.78711 3.46234 3.14291
# Velocity P-wave (km/s) = 5.01320 5.55595 5.29154
#
# Compressibility (1/GPa) = 0.02663746
#
# Stress axis : x y z
#
# Youngs Moduli (GPa) = 56.94267 79.66968 63.53306
#
# Poissons Ratio (x) = 0.26131 0.44549
# Poissons Ratio (y) = 0.18677 -0.04345
# Poissons Ratio (z) = 0.39928 -0.05449
#
# Static dielectric constant tensor:
#      x y z
#    x 2.115210 0.000000 0.000000 
#    y 0.000000 2.109600 0.000000 
#    z 0.000000 0.000000 1.915150 
# 
# From -- ./inp_files/6198.got.cif
#   From: 2010.05.17/outbox.cif.g08.bks.cpg/sg58_4_cif.got.tgz:6198.got - 2010.06.03 14:20:14.
