data_PCOD9444839
_publ_section_title
;
Structure prediction by ZEFSAII (Michael W. Deem and Ramdas Pophale) SiO2 
 PCOD9444839
Probable space group: P N N M
;
_chemical_formula_sum "Si O2"
_cell_formula_units_Z 64
_cell_length_a 16.338393
_cell_length_b 9.349522
_cell_length_c 19.931775
_cell_angle_alpha 90.000000
_cell_angle_beta 90.000000
_cell_angle_gamma 90.000000
_cell_volume 3044.701507
_symmetry_space_group_name_H-M "P N N M"
_symmetry_group_IT_number 58
_symmetry_cell_setting 'orthorhombic'
loop_
_space_group_symop_operation_xyz
x,y,z
-x,-y,z
1/2+x,1/2-y,1/2-z
1/2-x,1/2+y,1/2-z
-x,-y,-z
x,y,-z
1/2-x,1/2+y,1/2+z
1/2+x,1/2-y,1/2+z
loop_
_atom_site_type_symbol
_atom_site_label
_atom_site_fract_x
_atom_site_fract_y
_atom_site_fract_z
Si Si1 0.746054 0.933833 0.892544
Si Si2 0.990020 0.834724 0.823808
Si Si3 0.177392 0.808839 0.315520
Si Si4 0.627635 0.208994 0.430422
Si Si5 0.753058 0.463402 0.919969
Si Si6 0.488870 0.663237 0.168947
Si Si7 0.579124 0.100685 0.076412
Si Si8 0.825276 0.200972 0.161063
O O1 0.662227 0.008685 0.916495
O O2 0.810573 0.057876 0.880766
O O3 0.722427 0.840964 0.827927
O O4 0.792463 0.811217 0.933389
O O5 0.924399 0.754335 0.867641
O O6 0.961789 0.840087 0.746428
O O7 0.078773 0.762640 0.833389
O O8 0.000000 0.000000 0.844747
O O9 0.200688 0.931988 0.370028
O O10 0.081570 0.779275 0.327601
O O11 0.196295 0.842020 0.238015
O O12 0.580360 0.227411 0.500000
O O13 0.661788 0.049933 0.424904
O O14 0.772172 0.320408 0.877589
O O15 0.726225 0.445437 0.000000
O O16 0.500000 0.500000 0.144484
O O17 0.430868 0.764324 0.125517
O O18 0.500000 0.000000 0.088182
O O19 0.574511 0.153000 0.000000
#
# Coordination Sequence:
#
# PCOD9444839 Si02
#       8
#     8   8   8   8   8   8   8   8
#     4  11  22  40  64  91 126 162 214 259 310 381
#     4  10  21  42  64  92 126 164 213 265 313 372
#     4  10  22  42  64  91 125 176 213 255 327 392
#     4  10  22  42  65  90 126 173 206 250 325 387
#     4  10  24  42  62  96 135 168 211 272 328 380
#     4  10  23  41  64  89 125 164 210 263 316 378
#     4  11  24  42  62  90 123 160 206 259 312 373
#     4  11  23  39  65  97 126 164 220 270 313 379
#
# _framework density 21.020123999999999
#
# number of rings (size 3 to 8) (size 9 to 14) (size 15 to 20)
#    0.000    1.625    2.500    1.125    1.750    6.500 
#    0.000    1.250    0.000    0.000    0.000    0.000 
#    0.000    0.000    0.000    0.000    0.000    0.000 
#
# Total GULP energy -356683.619146 kJ/mol
# GULP energy per Si atom -5573.181549 kJ/mol
# Density = 2.097228 g / cm^3
# Si number density = 21.020124 Si / 1000 Ang^3
#
#
#
# Elastic Constant Matrix: (Units=GPa)
#
#
# Indices 1 2 3 4 5 6 
#
# 1 56.6210 5.4811 21.0121 0.0000 0.0000 0.0000
# 2 5.4811 70.5904 23.8885 0.0000 0.0000 0.0000
# 3 21.0121 23.8885 86.6505 0.0000 0.0000 0.0000
# 4 0.0000 0.0000 0.0000 83.9042 0.0000 0.0000
# 5 0.0000 0.0000 0.0000 0.0000 11.6205 0.0000
# 6 0.0000 0.0000 0.0000 0.0000 0.0000 27.8377
#
#
#
# Elastic Compliance Matrix: (Units=1/GPa)
#
#
# Indices 1 2 3 4 5 6 
#
# 1 0.019408 0.000095 -0.004732 0.000000 0.000000 0.000000
# 2 0.000095 0.015624 -0.004330 0.000000 0.000000 0.000000
# 3 -0.004732 -0.004330 0.013882 0.000000 0.000000 0.000000
# 4 0.000000 0.000000 0.000000 0.011918 0.000000 0.000000
# 5 0.000000 0.000000 0.000000 0.000000 0.086055 0.000000
# 6 0.000000 0.000000 0.000000 0.000000 0.000000 0.035923
#
#
# Mechanical properties :
#
#
# Convention : Reuss Voigt Hill
#
# Bulk Modulus (GPa) = 32.28082 34.95836 33.61959
# Shear Modulus (GPa) = 23.68847 35.57116 29.62981
#
# Velocity S-wave (km/s) = 3.36064 4.11815 3.75853
# Velocity P-wave (km/s) = 5.51806 6.26731 5.90458
#
# Compressibility (1/GPa) = 0.03097815
#
# Stress axis : x y z
#
# Youngs Moduli (GPa) = 51.52418 64.00277 72.03555
#
# Poissons Ratio (x) = -0.00605 0.34090
# Poissons Ratio (y) = -0.00487 0.31194
# Poissons Ratio (z) = 0.24384 0.27716
#
# Static dielectric constant tensor:
#      x y z
#    x 1.790060 0.000000 0.000000 
#    y 0.000000 1.746310 0.000000 
#    z 0.000000 0.000000 1.821490 
# 
# From -- ./inp_files/30258.got.cif
#   From: 2010.05.17/outbox.cif.g08.bks.cpg/sg58_16_cif.got.tgz:30258.got - 2010.06.03 14:20:14.
