data_PCOD9444284
_publ_section_title
;
Structure prediction by ZEFSAII (Michael W. Deem and Ramdas Pophale) SiO2 
 PCOD9444284
Probable space group: P N N M
;
_chemical_formula_sum "Si O2"
_cell_formula_units_Z 64
_cell_length_a 5.240774
_cell_length_b 34.762293
_cell_length_c 17.911357
_cell_angle_alpha 90.000000
_cell_angle_beta 90.000000
_cell_angle_gamma 90.000000
_cell_volume 3263.114685
_symmetry_space_group_name_H-M "P N N M"
_symmetry_group_IT_number 58
_symmetry_cell_setting 'orthorhombic'
loop_
_space_group_symop_operation_xyz
x,y,z
-x,-y,z
1/2+x,1/2-y,1/2-z
1/2-x,1/2+y,1/2-z
-x,-y,-z
x,y,-z
1/2-x,1/2+y,1/2+z
1/2+x,1/2-y,1/2+z
loop_
_atom_site_type_symbol
_atom_site_label
_atom_site_fract_x
_atom_site_fract_y
_atom_site_fract_z
Si Si1 0.360010 0.241284 0.345029
Si Si2 0.695847 0.196127 0.728479
Si Si3 0.206141 0.103785 0.331499
Si Si4 0.249120 0.523030 0.089844
Si Si5 0.457310 0.682651 0.085612
Si Si6 0.315561 0.694708 0.414784
Si Si7 0.281493 0.888309 0.766571
Si Si8 0.172022 0.357270 0.413502
O O1 0.407300 0.202789 0.296030
O O2 0.231040 0.269524 0.286313
O O3 0.217299 0.221401 0.413231
O O4 0.599656 0.267221 0.370557
O O5 0.773258 0.157251 0.765871
O O6 0.834728 0.194074 0.648214
O O7 0.245768 0.066547 0.382461
O O8 0.157778 0.141958 0.382733
O O9 0.457186 0.107149 0.279493
O O10 0.959084 0.095673 0.278818
O O11 0.500000 0.500000 0.114505
O O12 0.000000 0.500000 0.116239
O O13 0.246081 0.523215 0.000000
O O14 0.544630 0.676439 0.000000
O O15 0.265158 0.706524 0.500000
O O16 0.066124 0.670714 0.390631
O O17 0.563393 0.666849 0.414412
O O18 0.312136 0.892989 0.855593
O O19 0.123181 0.368568 0.500000
#
# Coordination Sequence:
#
# PCOD9444284 Si02
#       8
#     8   8   8   8   8   8   8   8
#     4  12  22  37  54  73 100 149 203 253 301 352
#     4  11  24  36  55  73 102 151 200 253 296 351
#     4  11  23  41  62  90 123 158 191 234 292 358
#     4  10  21  40  68  98 127 159 194 234 282 346
#     4  11  25  40  54  78 112 150 196 248 302 356
#     4  10  22  34  52  73 101 139 194 261 304 338
#     4  11  22  39  58  83 119 156 196 241 301 348
#     4  10  21  37  55  80 108 147 197 248 297 342
#
# _framework density 19.613161999999999
#
# number of rings (size 3 to 8) (size 9 to 14) (size 15 to 20)
#    0.000    1.250    3.750    2.250    5.250    1.000 
#    0.000    1.250    0.000    0.000    0.000    0.000 
#    0.000   10.000    0.000    0.000    0.000    0.000 
#
# Total GULP energy -356476.189521 kJ/mol
# GULP energy per Si atom -5569.940461 kJ/mol
# Density = 1.956852 g / cm^3
# Si number density = 19.613162 Si / 1000 Ang^3
#
#
#
# Elastic Constant Matrix: (Units=GPa)
#
#
# Indices 1 2 3 4 5 6 
#
# 1 90.4510 19.1825 27.0189 0.0000 0.0000 0.0000
# 2 19.1825 75.9995 22.6442 0.0000 0.0000 0.0000
# 3 27.0189 22.6442 103.0418 0.0000 0.0000 0.0000
# 4 0.0000 0.0000 0.0000 26.6578 0.0000 0.0000
# 5 0.0000 0.0000 0.0000 0.0000 20.9518 0.0000
# 6 0.0000 0.0000 0.0000 0.0000 0.0000 21.1495
#
#
#
# Elastic Compliance Matrix: (Units=1/GPa)
#
#
# Indices 1 2 3 4 5 6 
#
# 1 0.012362 -0.002305 -0.002735 0.000000 0.000000 0.000000
# 2 -0.002305 0.014510 -0.002584 0.000000 0.000000 0.000000
# 3 -0.002735 -0.002584 0.010990 0.000000 0.000000 0.000000
# 4 0.000000 0.000000 0.000000 0.037513 0.000000 0.000000
# 5 0.000000 0.000000 0.000000 0.000000 0.047729 0.000000
# 6 0.000000 0.000000 0.000000 0.000000 0.000000 0.047282
#
#
# Mechanical properties :
#
#
# Convention : Reuss Voigt Hill
#
# Bulk Modulus (GPa) = 44.22286 45.24259 44.73272
# Shear Modulus (GPa) = 25.88388 27.12827 26.50607
#
# Velocity S-wave (km/s) = 3.63674 3.72313 3.68019
# Velocity P-wave (km/s) = 6.34279 6.44979 6.39651
#
# Compressibility (1/GPa) = 0.02261274
#
# Stress axis : x y z
#
# Youngs Moduli (GPa) = 80.89628 68.91902 90.99367
#
# Poissons Ratio (x) = 0.15888 0.24885
# Poissons Ratio (y) = 0.18649 0.23514
# Poissons Ratio (z) = 0.22123 0.17810
#
# Static dielectric constant tensor:
#      x y z
#    x 1.776120 0.000000 0.000000 
#    y 0.000000 1.659910 0.000000 
#    z 0.000000 0.000000 1.805400 
# 
# From -- ./inp_files/24518.got.cif
#   From: 2010.05.17/outbox.cif.g08.bks.cpg/sg58_13_cif.got.tgz:24518.got - 2010.06.03 14:20:14.
