data_PCOD9444939
_publ_section_title
;
Structure prediction by ZEFSAII (Michael W. Deem and Ramdas Pophale) SiO2 
 PCOD9444939
Probable space group: P N N M
;
_chemical_formula_sum "Si O2"
_cell_formula_units_Z 46
_cell_length_a 14.491902
_cell_length_b 8.248782
_cell_length_c 18.687564
_cell_angle_alpha 90.000000
_cell_angle_beta 90.000000
_cell_angle_gamma 90.000000
_cell_volume 2233.921499
_symmetry_space_group_name_H-M "P N N M"
_symmetry_group_IT_number 58
_symmetry_cell_setting 'orthorhombic'
loop_
_space_group_symop_operation_xyz
x,y,z
-x,-y,z
1/2+x,1/2-y,1/2-z
1/2-x,1/2+y,1/2-z
-x,-y,-z
x,y,-z
1/2-x,1/2+y,1/2+z
1/2+x,1/2-y,1/2+z
loop_
_atom_site_type_symbol
_atom_site_label
_atom_site_fract_x
_atom_site_fract_y
_atom_site_fract_z
Si Si1 0.869945 0.304127 0.604655
Si Si2 0.066944 0.656130 0.231231
Si Si3 0.500000 0.000000 0.000000
Si Si4 0.734381 0.291649 0.801669
Si Si5 0.500000 0.500000 0.665738
Si Si6 0.104706 0.053979 0.418710
Si Si7 0.802235 0.943610 0.846272
O O1 0.900786 0.316240 0.687152
O O2 0.950460 0.386527 0.560809
O O3 0.848863 0.121341 0.582740
O O4 0.773688 0.395925 0.596729
O O5 0.164676 0.623439 0.190404
O O6 0.023281 0.830745 0.207853
O O7 0.000000 0.500000 0.225301
O O8 0.657717 0.340112 0.860219
O O9 0.762698 0.106898 0.811366
O O10 0.696314 0.323797 0.722179
O O11 0.404823 0.533739 0.625269
O O12 0.105333 0.123262 0.500000
O O13 0.000000 0.000000 0.400144
#
# Coordination Sequence:
#
# PCOD9444939 Si02
#       7
#     8   8   2   8   4   8   8
#     4  11  24  39  57  90 124 166 205 253 314 381
#     4  10  22  37  63  92 123 160 203 262 317 371
#     4  12  24  40  62  86 128 158 214 242 316 398
#     4  10  22  38  57  92 119 160 204 256 317 365
#     4  10  22  38  62  96 120 160 204 266 320 368
#     4  11  25  39  59  90 128 167 204 249 311 387
#     4  10  23  38  63  88 124 159 207 269 311 371
#
# _framework density 20.591591999999999
#
# number of rings (size 3 to 8) (size 9 to 14) (size 15 to 20)
#    0.000    1.565    1.739    3.130   14.609    0.000 
#    0.000    0.000    0.000    1.043    2.261    0.000 
#    0.000    0.000    0.000    0.000    0.000    0.000 
#
# Total GULP energy -256122.878882 kJ/mol
# GULP energy per Si atom -5567.888671 kJ/mol
# Density = 2.054472 g / cm^3
# Si number density = 20.591592 Si / 1000 Ang^3
#
#
#
# Elastic Constant Matrix: (Units=GPa)
#
#
# Indices 1 2 3 4 5 6 
#
# 1 60.6787 22.0821 -3.7691 0.0000 0.0000 0.0000
# 2 22.0821 51.5983 -2.2819 0.0000 0.0000 0.0000
# 3 -3.7691 -2.2819 39.4872 0.0000 0.0000 0.0000
# 4 0.0000 0.0000 0.0000 34.2383 0.0000 0.0000
# 5 0.0000 0.0000 0.0000 0.0000 -1.3712 0.0000
# 6 0.0000 0.0000 0.0000 0.0000 0.0000 35.3681
#
#
#
# Elastic Compliance Matrix: (Units=1/GPa)
#
#
# Indices 1 2 3 4 5 6 
#
# 1 0.019596 -0.008325 0.001389 0.000000 0.000000 0.000000
# 2 -0.008325 0.022967 0.000533 0.000000 0.000000 0.000000
# 3 0.001389 0.000533 0.025488 0.000000 0.000000 0.000000
# 4 0.000000 0.000000 0.000000 0.029207 0.000000 0.000000
# 5 0.000000 0.000000 0.000000 0.000000 -0.729280 0.000000
# 6 0.000000 0.000000 0.000000 0.000000 0.000000 0.028274
#
#
# Mechanical properties :
#
#
# Convention : Reuss Voigt Hill
#
# Bulk Modulus (GPa) = 18.10117 20.42516 19.26316
# Shear Modulus (GPa) = -8.73321 22.69591 6.98135
#
# Velocity S-wave (km/s) = -2.06164 3.32353 1.84330
# Velocity P-wave (km/s) = 1.77271 4.96674 3.72901
#
# Compressibility (1/GPa) = 0.05524506
#
# Stress axis : x y z
#
# Youngs Moduli (GPa) = 51.03039 43.54105 39.23405
#
# Poissons Ratio (x) = 0.36248 -0.05451
# Poissons Ratio (y) = 0.42483 -0.02090
# Poissons Ratio (z) = -0.07090 -0.02319
#
# Static dielectric constant tensor:
#      x y z
#    x 1.839610 0.000000 0.000000 
#    y 0.000000 1.812030 0.000000 
#    z 0.000000 0.000000 1.651140 
# 
# From -- ./inp_files/29921.got.cif
#   From: 2010.05.17/outbox.cif.g08.bks.cpg/sg58_15_cif.got.tgz:29921.got - 2010.06.03 14:20:14.
