data_PCOD9444888
_publ_section_title
;
Structure prediction by ZEFSAII (Michael W. Deem and Ramdas Pophale) SiO2 
 PCOD9444888
Probable space group: P N N M
;
_chemical_formula_sum "Si O2"
_cell_formula_units_Z 64
_cell_length_a 17.863521
_cell_length_b 9.335857
_cell_length_c 22.119717
_cell_angle_alpha 90.000000
_cell_angle_beta 90.000000
_cell_angle_gamma 90.000000
_cell_volume 3688.933464
_symmetry_space_group_name_H-M "P N N M"
_symmetry_group_IT_number 58
_symmetry_cell_setting 'orthorhombic'
loop_
_space_group_symop_operation_xyz
x,y,z
-x,-y,z
1/2+x,1/2-y,1/2-z
1/2-x,1/2+y,1/2-z
-x,-y,-z
x,y,-z
1/2-x,1/2+y,1/2+z
1/2+x,1/2-y,1/2+z
loop_
_atom_site_type_symbol
_atom_site_label
_atom_site_fract_x
_atom_site_fract_y
_atom_site_fract_z
Si Si1 0.831321 0.369573 0.846674
Si Si2 0.428502 0.683685 0.593294
Si Si3 0.952515 0.865397 0.775048
Si Si4 0.292174 0.226310 0.176898
Si Si5 0.791069 0.628655 0.932490
Si Si6 0.902355 0.150659 0.068176
Si Si7 0.940338 0.374834 0.732223
Si Si8 0.796106 0.964264 0.737300
O O1 0.821047 0.487438 0.898601
O O2 0.853574 0.223444 0.879657
O O3 0.894306 0.402253 0.795227
O O4 0.752781 0.378067 0.811690
O O5 0.424364 0.713659 0.665007
O O6 0.364527 0.774466 0.563315
O O7 0.513307 0.713256 0.573146
O O8 0.411081 0.517910 0.579743
O O9 0.882655 0.921942 0.737339
O O10 0.009130 0.765230 0.740048
O O11 0.000000 0.000000 0.798424
O O12 0.266423 0.289004 0.112454
O O13 0.375208 0.160694 0.184050
O O14 0.237871 0.098792 0.200295
O O15 0.287397 0.367064 0.221597
O O16 0.761486 0.601161 0.000000
O O17 0.874198 0.175245 0.000000
O O18 0.000000 0.500000 0.719720
#
# Coordination Sequence:
#
# PCOD9444888 Si02
#       8
#     8   8   8   8   8   8   8   8
#     4  10  22  37  52  79 111 141 183 218 271 320
#     4  11  20  33  49  79 105 144 187 215 254 315
#     4  12  19  35  58  77 110 145 177 220 280 324
#     4  10  22  37  55  82 111 140 187 220 277 327
#     4  11  22  37  55  76 109 150 184 219 262 319
#     4  11  21  34  50  73 108 148 184 218 252 307
#     4  11  22  36  55  82 111 140 176 230 280 332
#     4  10  22  35  54  81 108 142 176 232 269 326
#
# _framework density 17.349188000000002
#
# number of rings (size 3 to 8) (size 9 to 14) (size 15 to 20)
#    0.000    1.250    5.000    2.625    5.250    0.000 
#    0.000    1.250    0.000    0.375    0.000    7.875 
#    0.000    0.000    0.000    0.000    0.000    0.000 
#
# Total GULP energy -356946.741683 kJ/mol
# GULP energy per Si atom -5577.292839 kJ/mol
# Density = 1.730970 g / cm^3
# Si number density = 17.349188 Si / 1000 Ang^3
#
#
#
# Elastic Constant Matrix: (Units=GPa)
#
#
# Indices 1 2 3 4 5 6 
#
# 1 75.6287 10.4492 24.3183 0.0000 0.0000 0.0000
# 2 10.4492 30.4338 15.4629 0.0000 0.0000 0.0000
# 3 24.3183 15.4629 53.5689 0.0000 0.0000 0.0000
# 4 0.0000 0.0000 0.0000 -34.9044 0.0000 0.0000
# 5 0.0000 0.0000 0.0000 0.0000 15.5496 0.0000
# 6 0.0000 0.0000 0.0000 0.0000 0.0000 27.5853
#
#
#
# Elastic Compliance Matrix: (Units=1/GPa)
#
#
# Indices 1 2 3 4 5 6 
#
# 1 0.015592 -0.002059 -0.006484 0.000000 0.000000 0.000000
# 2 -0.002059 0.038777 -0.010259 0.000000 0.000000 0.000000
# 3 -0.006484 -0.010259 0.024572 0.000000 0.000000 0.000000
# 4 0.000000 0.000000 0.000000 -0.028650 0.000000 0.000000
# 5 0.000000 0.000000 0.000000 0.000000 0.064310 0.000000
# 6 0.000000 0.000000 0.000000 0.000000 0.000000 0.036251
#
#
# Mechanical properties :
#
#
# Convention : Reuss Voigt Hill
#
# Bulk Modulus (GPa) = 24.19045 28.89913 26.54479
# Shear Modulus (GPa) = 24.72369 8.93951 16.83160
#
# Velocity S-wave (km/s) = 3.77910 2.27242 3.11813
# Velocity P-wave (km/s) = 5.74592 4.85579 5.31951
#
# Compressibility (1/GPa) = 0.04133862
#
# Stress axis : x y z
#
# Youngs Moduli (GPa) = 64.13622 25.78823 40.69653
#
# Poissons Ratio (x) = 0.05310 0.26387
# Poissons Ratio (y) = 0.13206 0.41749
# Poissons Ratio (z) = 0.41584 0.26455
#
# Static dielectric constant tensor:
#      x y z
#    x 1.588900 0.000000 0.000000 
#    y 0.000000 1.640610 0.000000 
#    z 0.000000 0.000000 1.581060 
# 
# From -- ./inp_files/30307.got.cif
#   From: 2010.05.17/outbox.cif.g08.bks.cpg/sg58_16_cif.got.tgz:30307.got - 2010.06.03 14:20:14.
