data_PCOD9444704
_publ_section_title
;
Structure prediction by ZEFSAII (Michael W. Deem and Ramdas Pophale) SiO2 
 PCOD9444704
Probable space group: P N N M
;
_chemical_formula_sum "Si O2"
_cell_formula_units_Z 40
_cell_length_a 18.527887
_cell_length_b 12.818929
_cell_length_c 7.787037
_cell_angle_alpha 90.000000
_cell_angle_beta 90.000000
_cell_angle_gamma 90.000000
_cell_volume 1849.480998
_symmetry_space_group_name_H-M "P N N M"
_symmetry_group_IT_number 58
_symmetry_cell_setting 'orthorhombic'
loop_
_space_group_symop_operation_xyz
x,y,z
-x,-y,z
1/2+x,1/2-y,1/2-z
1/2-x,1/2+y,1/2-z
-x,-y,-z
x,y,-z
1/2-x,1/2+y,1/2+z
1/2+x,1/2-y,1/2+z
loop_
_atom_site_type_symbol
_atom_site_label
_atom_site_fract_x
_atom_site_fract_y
_atom_site_fract_z
Si Si1 0.894581 0.812996 0.797446
Si Si2 0.077622 0.544632 0.290229
Si Si3 0.053901 0.773173 0.699018
Si Si4 0.148085 0.960918 0.200560
Si Si5 0.801067 0.620770 0.291570
O O1 0.830070 0.731625 0.771782
O O2 0.967430 0.769902 0.712535
O O3 0.874814 0.927242 0.726374
O O4 0.910634 0.821539 0.000000
O O5 0.076881 0.547075 0.500000
O O6 0.084650 0.664051 0.231102
O O7 0.141543 0.467842 0.237966
O O8 0.000000 0.500000 0.235335
O O9 0.074346 0.781298 0.500000
O O10 0.085174 0.875941 0.786200
O O11 0.221735 0.911092 0.270939
O O12 0.163068 0.981463 0.000000
O O13 0.801203 0.625291 0.500000
#
# Coordination Sequence:
#
# PCOD9444704 Si02
#       5
#     8   8   8   8   8
#     4  11  23  40  61  87 123 159 197 244 301 356
#     4   9  17  34  60  86 113 150 195 241 290 346
#     4  11  22  38  65  91 116 155 206 249 291 354
#     4  10  24  41  59  85 123 162 194 242 305 359
#     4  10  21  40  62  85 117 157 200 244 297 356
#
# _framework density 21.627690999999999
#
# number of rings (size 3 to 8) (size 9 to 14) (size 15 to 20)
#    0.000    1.800    2.000    1.800    2.800    4.800 
#    0.000    3.000    0.000    0.000    0.000    0.000 
#    0.000    0.000    0.000    0.000    0.000    0.000 
#
# Total GULP energy -223560.628350 kJ/mol
# GULP energy per Si atom -5589.015709 kJ/mol
# Density = 2.157847 g / cm^3
# Si number density = 21.627691 Si / 1000 Ang^3
#
#
#
# Elastic Constant Matrix: (Units=GPa)
#
#
# Indices 1 2 3 4 5 6 
#
# 1 35.1972 -2.2840 -2.8211 0.0000 0.0000 0.0000
# 2 -2.2840 140.9958 0.1251 0.0000 0.0000 0.0000
# 3 -2.8211 0.1251 30.4949 0.0000 0.0000 0.0000
# 4 0.0000 0.0000 0.0000 1.0856 0.0000 0.0000
# 5 0.0000 0.0000 0.0000 0.0000 18.7809 0.0000
# 6 0.0000 0.0000 0.0000 0.0000 0.0000 24.5013
#
#
#
# Elastic Compliance Matrix: (Units=1/GPa)
#
#
# Indices 1 2 3 4 5 6 
#
# 1 0.028654 0.000462 0.002649 0.000000 0.000000 0.000000
# 2 0.000462 0.007100 0.000014 0.000000 0.000000 0.000000
# 3 0.002649 0.000014 0.033037 0.000000 0.000000 0.000000
# 4 0.000000 0.000000 0.000000 0.921139 0.000000 0.000000
# 5 0.000000 0.000000 0.000000 0.000000 0.053246 0.000000
# 6 0.000000 0.000000 0.000000 0.000000 0.000000 0.040814
#
#
# Mechanical properties :
#
#
# Convention : Reuss Voigt Hill
#
# Bulk Modulus (GPa) = 13.32634 21.85866 17.59250
# Shear Modulus (GPa) = 4.53410 22.98474 13.75942
#
# Velocity S-wave (km/s) = 1.44948 3.26352 2.52503
# Velocity P-wave (km/s) = 2.99606 4.93249 4.08080
#
# Compressibility (1/GPa) = 0.07503936
#
# Stress axis : x y z
#
# Youngs Moduli (GPa) = 34.89960 140.84743 30.26877
#
# Poissons Ratio (x) = -0.06505 -0.08018
# Poissons Ratio (y) = -0.01612 -0.00041
# Poissons Ratio (z) = -0.09244 -0.00191
#
# Static dielectric constant tensor:
#      x y z
#    x 1.741890 0.000000 0.000000 
#    y 0.000000 1.770210 0.000000 
#    z 0.000000 0.000000 1.788630 
# 
# From -- ./inp_files/3800.got.cif
#   From: 2010.05.17/outbox.cif.g08.bks.cpg/sg58_2_cif.got.tgz:3800.got - 2010.06.03 14:20:14.
