data_PCOD9444101
_publ_section_title
;
Structure prediction by ZEFSAII (Michael W. Deem and Ramdas Pophale) SiO2 
 PCOD9444101
Probable space group: P N N M
;
_chemical_formula_sum "Si O2"
_cell_formula_units_Z 48
_cell_length_a 23.658715
_cell_length_b 12.355470
_cell_length_c 8.961795
_cell_angle_alpha 90.000000
_cell_angle_beta 90.000000
_cell_angle_gamma 90.000000
_cell_volume 2619.663014
_symmetry_space_group_name_H-M "P N N M"
_symmetry_group_IT_number 58
_symmetry_cell_setting 'orthorhombic'
loop_
_space_group_symop_operation_xyz
x,y,z
-x,-y,z
1/2+x,1/2-y,1/2-z
1/2-x,1/2+y,1/2-z
-x,-y,-z
x,y,-z
1/2-x,1/2+y,1/2+z
1/2+x,1/2-y,1/2+z
loop_
_atom_site_type_symbol
_atom_site_label
_atom_site_fract_x
_atom_site_fract_y
_atom_site_fract_z
Si Si1 0.888887 0.252950 0.820108
Si Si2 0.348196 0.586615 0.321394
Si Si3 0.059681 0.941803 0.669868
Si Si4 0.842922 0.667668 0.819120
Si Si5 0.777122 0.114035 0.820194
Si Si6 0.934204 0.489126 0.181636
O O1 0.935677 0.173981 0.749006
O O2 0.827702 0.199326 0.778540
O O3 0.903778 0.375791 0.775401
O O4 0.891796 0.246826 0.000000
O O5 0.349229 0.589839 0.500000
O O6 0.401078 0.521208 0.262602
O O7 0.350004 0.708761 0.266669
O O8 0.296580 0.507889 0.279463
O O9 0.080265 0.930012 0.500000
O O10 0.000000 0.000000 0.667236
O O11 0.781961 0.634212 0.758250
O O12 0.893766 0.588355 0.771034
O O13 0.841949 0.665735 0.000000
O O14 0.771443 0.120700 0.000000
O O15 0.000000 0.500000 0.230882
O O16 0.935651 0.490053 0.000000
#
# Coordination Sequence:
#
# PCOD9444101 Si02
#       6
#     8   8   8   8   8   8
#     4   9  19  36  58  81 109 146 185 227 273 327
#     4   9  20  37  55  80 109 140 185 227 265 326
#     4  10  21  35  54  81 110 140 178 226 277 327
#     4  10  21  35  57  85 109 141 184 227 273 327
#     4   9  19  35  53  79 112 144 180 225 277 327
#     4   9  19  35  56  84 112 142 187 233 272 323
#
# _framework density 18.322966999999998
#
# number of rings (size 3 to 8) (size 9 to 14) (size 15 to 20)
#    0.000    2.667    0.000    1.500    4.667    4.667 
#    0.000    0.833    0.000    1.000    0.000    0.000 
#    0.000    0.000    0.000    0.000    0.000    0.000 
#
# Total GULP energy -267363.642613 kJ/mol
# GULP energy per Si atom -5570.075888 kJ/mol
# Density = 1.828126 g / cm^3
# Si number density = 18.322967 Si / 1000 Ang^3
#
#
#
# Elastic Constant Matrix: (Units=GPa)
#
#
# Indices 1 2 3 4 5 6 
#
# 1 54.3144 59.0200 -50.3187 0.0000 0.0000 0.0000
# 2 59.0200 179.9343 9.5619 0.0000 0.0000 0.0000
# 3 -50.3187 9.5619 -173.9290 0.0000 0.0000 0.0000
# 4 0.0000 0.0000 0.0000 6.7330 0.0000 0.0000
# 5 0.0000 0.0000 0.0000 0.0000 28.4440 0.0000
# 6 0.0000 0.0000 0.0000 0.0000 0.0000 -654.8573
#
#
#
# Elastic Compliance Matrix: (Units=1/GPa)
#
#
# Indices 1 2 3 4 5 6 
#
# 1 0.019479 -0.006072 -0.005969 0.000000 0.000000 0.000000
# 2 -0.006072 0.007434 0.002165 0.000000 0.000000 0.000000
# 3 -0.005969 0.002165 -0.003903 0.000000 0.000000 0.000000
# 4 0.000000 0.000000 0.000000 0.148523 0.000000 0.000000
# 5 0.000000 0.000000 0.000000 0.000000 0.035157 0.000000
# 6 0.000000 0.000000 0.000000 0.000000 0.000000 -0.001527
#
#
# Mechanical properties :
#
#
# Convention : Reuss Voigt Hill
#
# Bulk Modulus (GPa) = 306.93869 10.76068 158.84968
# Shear Modulus (GPa) = 22.12380 -121.13231 -49.50425
#
# Velocity S-wave (km/s) = 3.47859 -8.13960 -5.20348
# Velocity P-wave (km/s) = 13.56516 9.08030 7.12607
#
# Compressibility (1/GPa) = 0.00325798
#
# Stress axis : x y z
#
# Youngs Moduli (GPa) = 51.33630 134.51268 -256.18265
#
# Poissons Ratio (x) = 0.81679 -1.52924
# Poissons Ratio (y) = 0.31172 0.55474
# Poissons Ratio (z) = 0.30644 -0.29128
#
# Static dielectric constant tensor:
#      x y z
#    x 1.632900 0.000000 0.000000 
#    y 0.000000 1.554850 0.000000 
#    z 0.000000 0.000000 1.629260 
# 
# From -- ./inp_files/4173.got.cif
#   From: 2010.05.17/outbox.cif.g08.bks.cpg/sg58_3_cif.got.tgz:4173.got - 2010.06.03 14:20:14.
