data_PCOD9444730
_publ_section_title
;
Structure prediction by ZEFSAII (Michael W. Deem and Ramdas Pophale) SiO2 
 PCOD9444730
Probable space group: P N N M
;
_chemical_formula_sum "Si O2"
_cell_formula_units_Z 44
_cell_length_a 26.630576
_cell_length_b 7.149600
_cell_length_c 8.443157
_cell_angle_alpha 90.000000
_cell_angle_beta 90.000000
_cell_angle_gamma 90.000000
_cell_volume 1607.559921
_symmetry_space_group_name_H-M "P N N M"
_symmetry_group_IT_number 58
_symmetry_cell_setting 'orthorhombic'
loop_
_space_group_symop_operation_xyz
x,y,z
-x,-y,z
1/2+x,1/2-y,1/2-z
1/2-x,1/2+y,1/2-z
-x,-y,-z
x,y,-z
1/2-x,1/2+y,1/2+z
1/2+x,1/2-y,1/2+z
loop_
_atom_site_type_symbol
_atom_site_label
_atom_site_fract_x
_atom_site_fract_y
_atom_site_fract_z
Si Si1 0.782602 0.984367 0.172936
Si Si2 0.417617 0.137749 0.000000
Si Si3 0.599424 0.308331 0.000000
Si Si4 0.451793 0.631564 0.327643
Si Si5 0.176284 0.911820 0.500000
Si Si6 0.066347 0.557359 0.826573
Si Si7 0.184133 0.443332 0.823280
O O1 0.798289 0.097224 0.328770
O O2 0.722374 0.979274 0.193562
O O3 0.808533 0.781029 0.178591
O O4 0.794852 0.065152 0.000000
O O5 0.408126 0.913430 0.000000
O O6 0.445598 0.168392 0.166343
O O7 0.369098 0.266045 0.000000
O O8 0.576941 0.392408 0.162107
O O9 0.656161 0.373989 0.000000
O O10 0.500000 0.500000 0.326982
O O11 0.425377 0.597867 0.500000
O O12 0.460824 0.856088 0.329914
O O13 0.126178 0.504424 0.809577
O O14 0.060970 0.647406 0.000000
O O15 0.200811 0.503382 0.000000
#
# Coordination Sequence:
#
# PCOD9444730 Si02
#       7
#     8   4   4   8   4   8   8
#     4  11  25  39  57  81 114 155 203 257 300 356
#     4  10  22  37  63  83 116 156 200 247 297 360
#     4  10  21  40  64  90 124 168 192 257 315 353
#     4   9  17  33  62  97 125 159 208 250 302 376
#     4  12  26  43  59  93 120 158 217 250 295 380
#     4   9  19  35  58  85 117 157 195 247 307 355
#     4  10  22  39  56  81 114 153 202 246 299 360
#
# _framework density 27.370676
#
# number of rings (size 3 to 8) (size 9 to 14) (size 15 to 20)
#    0.000    2.000    0.909    2.455    5.091    2.909 
#    0.000    0.000    0.000    8.727    0.000   11.455 
#    0.000    0.000    0.000    0.000    0.000    0.000 
#
# Total GULP energy -246339.402852 kJ/mol
# GULP energy per Si atom -5598.622792 kJ/mol
# Density = 2.730838 g / cm^3
# Si number density = 27.370676 Si / 1000 Ang^3
#
#
#
# Elastic Constant Matrix: (Units=GPa)
#
#
# Indices 1 2 3 4 5 6 
#
# 1 79.2141 17.7103 56.5789 0.0000 0.0000 0.0000
# 2 17.7103 126.5463 33.6628 0.0000 0.0000 0.0000
# 3 56.5789 33.6628 324.7268 0.0000 0.0000 0.0000
# 4 0.0000 0.0000 0.0000 -9.2311 0.0000 0.0000
# 5 0.0000 0.0000 0.0000 0.0000 26.2797 0.0000
# 6 0.0000 0.0000 0.0000 0.0000 0.0000 45.5441
#
#
#
# Elastic Compliance Matrix: (Units=1/GPa)
#
#
# Indices 1 2 3 4 5 6 
#
# 1 0.014659 -0.001411 -0.002408 0.000000 0.000000 0.000000
# 2 -0.001411 0.008262 -0.000611 0.000000 0.000000 0.000000
# 3 -0.002408 -0.000611 0.003562 0.000000 0.000000 0.000000
# 4 0.000000 0.000000 0.000000 -0.108330 0.000000 0.000000
# 5 0.000000 0.000000 0.000000 0.000000 0.038052 0.000000
# 6 0.000000 0.000000 0.000000 0.000000 0.000000 0.021957
#
#
# Mechanical properties :
#
#
# Convention : Reuss Voigt Hill
#
# Bulk Modulus (GPa) = 56.73868 82.93233 69.83551
# Shear Modulus (GPa) = -703.92465 40.68758 -331.61853
#
# Velocity S-wave (km/s) = -16.05429 3.85975 -11.01914
# Velocity P-wave (km/s) = 17.96884 7.08724 11.67583
#
# Compressibility (1/GPa) = 0.01762466
#
# Stress axis : x y z
#
# Youngs Moduli (GPa) = 68.21595 121.03365 280.71323
#
# Poissons Ratio (x) = 0.17079 0.67593
# Poissons Ratio (y) = 0.09626 0.17142
# Poissons Ratio (z) = 0.16426 0.07391
#
# Static dielectric constant tensor:
#      x y z
#    x 2.198010 0.000000 0.000000 
#    y 0.000000 2.070520 0.000000 
#    z 0.000000 0.000000 2.163210 
# 
# From -- ./inp_files/10714.got.cif
#   From: 2010.05.17/outbox.cif.g08.bks.cpg/sg58_6_cif.got.tgz:10714.got - 2010.06.03 14:20:14.
