data_PCOD9444907
_publ_section_title
;
Structure prediction by ZEFSAII (Michael W. Deem and Ramdas Pophale) SiO2 
 PCOD9444907
Probable space group: P N N M
;
_chemical_formula_sum "Si O2"
_cell_formula_units_Z 48
_cell_length_a 5.294030
_cell_length_b 33.713587
_cell_length_c 13.774728
_cell_angle_alpha 90.000000
_cell_angle_beta 90.000000
_cell_angle_gamma 90.000000
_cell_volume 2458.523660
_symmetry_space_group_name_H-M "P N N M"
_symmetry_group_IT_number 58
_symmetry_cell_setting 'orthorhombic'
loop_
_space_group_symop_operation_xyz
x,y,z
-x,-y,z
1/2+x,1/2-y,1/2-z
1/2-x,1/2+y,1/2-z
-x,-y,-z
x,y,-z
1/2-x,1/2+y,1/2+z
1/2+x,1/2-y,1/2+z
loop_
_atom_site_type_symbol
_atom_site_label
_atom_site_fract_x
_atom_site_fract_y
_atom_site_fract_z
Si Si1 0.374611 0.228031 0.162804
Si Si2 0.056189 0.257844 0.000000
Si Si3 0.056656 0.187256 0.500000
Si Si4 0.078082 0.586173 0.615420
Si Si5 0.423740 0.455386 0.618388
Si Si6 0.557457 0.315933 0.210481
Si Si7 0.262549 0.836089 0.108586
O O1 0.129489 0.231288 0.093540
O O2 0.429030 0.272403 0.196475
O O3 0.598930 0.206488 0.106797
O O4 0.329166 0.198859 0.252987
O O5 0.288868 0.289609 0.000000
O O6 0.793894 0.281637 0.000000
O O7 0.067257 0.165395 0.396257
O O8 0.093018 0.578769 0.500000
O O9 0.850589 0.558527 0.653589
O O10 0.979993 0.630896 0.624894
O O11 0.353230 0.574040 0.652350
O O12 0.500000 0.500000 0.644780
O O13 0.411655 0.454039 0.500000
O O14 0.421986 0.337734 0.299110
O O15 0.153383 0.844369 0.000000
#
# Coordination Sequence:
#
# PCOD9444907 Si02
#       7
#     8   4   4   8   8   8   8
#     4  11  21  34  53  75 102 137 184 232 286 330
#     4  10  22  36  58  74  98 126 171 241 283 319
#     4  10  24  40  56  76  96 126 185 239 275 323
#     4   9  19  32  47  73 107 137 175 214 260 314
#     4   9  16  30  51  73 100 140 180 209 241 305
#     4  11  23  36  55  71 102 139 187 237 283 322
#     4  11  24  37  51  81 111 149 179 234 285 332
#
# _framework density 19.523914000000001
#
# number of rings (size 3 to 8) (size 9 to 14) (size 15 to 20)
#    0.000    1.833    2.500    1.500    8.167    2.000 
#    0.000    0.000    0.000    0.000    0.000    0.000 
#    0.000    0.000    0.000    4.500    0.000    2.083 
#
# Total GULP energy -267733.319141 kJ/mol
# GULP energy per Si atom -5577.777482 kJ/mol
# Density = 1.947948 g / cm^3
# Si number density = 19.523914 Si / 1000 Ang^3
#
#
#
# Elastic Constant Matrix: (Units=GPa)
#
#
# Indices 1 2 3 4 5 6 
#
# 1 64.9807 13.3061 8.5351 0.0000 0.0000 0.0000
# 2 13.3061 48.9226 10.1381 0.0000 0.0000 0.0000
# 3 8.5351 10.1381 109.4621 0.0000 0.0000 0.0000
# 4 0.0000 0.0000 0.0000 8.7341 0.0000 0.0000
# 5 0.0000 0.0000 0.0000 0.0000 21.6844 0.0000
# 6 0.0000 0.0000 0.0000 0.0000 0.0000 29.1083
#
#
#
# Elastic Compliance Matrix: (Units=1/GPa)
#
#
# Indices 1 2 3 4 5 6 
#
# 1 0.016380 -0.004272 -0.000881 0.000000 0.000000 0.000000
# 2 -0.004272 0.021955 -0.001700 0.000000 0.000000 0.000000
# 3 -0.000881 -0.001700 0.009362 0.000000 0.000000 0.000000
# 4 0.000000 0.000000 0.000000 0.114493 0.000000 0.000000
# 5 0.000000 0.000000 0.000000 0.000000 0.046116 0.000000
# 6 0.000000 0.000000 0.000000 0.000000 0.000000 0.034354
#
#
# Mechanical properties :
#
#
# Convention : Reuss Voigt Hill
#
# Bulk Modulus (GPa) = 29.42200 31.92490 30.67345
# Shear Modulus (GPa) = 18.67776 24.66443 21.67110
#
# Velocity S-wave (km/s) = 3.09635 3.55814 3.33525
# Velocity P-wave (km/s) = 5.28068 5.76781 5.52961
#
# Compressibility (1/GPa) = 0.03398817
#
# Stress axis : x y z
#
# Youngs Moduli (GPa) = 61.05069 45.54808 106.81721
#
# Poissons Ratio (x) = 0.19460 0.09416
# Poissons Ratio (y) = 0.26083 0.18162
# Poissons Ratio (z) = 0.05382 0.07744
#
# Static dielectric constant tensor:
#      x y z
#    x 1.785840 0.000000 0.000000 
#    y 0.000000 1.703700 0.000000 
#    z 0.000000 0.000000 1.772350 
# 
# From -- ./inp_files/18714.got.cif
#   From: 2010.05.17/outbox.cif.g08.bks.cpg/sg58_10_cif.got.tgz:18714.got - 2010.06.03 14:20:14.
