data_PCOD9444213
_publ_section_title
;
Structure prediction by ZEFSAII (Michael W. Deem and Ramdas Pophale) SiO2 
 PCOD9444213
Probable space group: P N N M
;
_chemical_formula_sum "Si O2"
_cell_formula_units_Z 52
_cell_length_a 17.755065
_cell_length_b 7.127529
_cell_length_c 15.797319
_cell_angle_alpha 90.000000
_cell_angle_beta 90.000000
_cell_angle_gamma 90.000000
_cell_volume 1999.146623
_symmetry_space_group_name_H-M "P N N M"
_symmetry_group_IT_number 58
_symmetry_cell_setting 'orthorhombic'
loop_
_space_group_symop_operation_xyz
x,y,z
-x,-y,z
1/2+x,1/2-y,1/2-z
1/2-x,1/2+y,1/2-z
-x,-y,-z
x,y,-z
1/2-x,1/2+y,1/2+z
1/2+x,1/2-y,1/2+z
loop_
_atom_site_type_symbol
_atom_site_label
_atom_site_fract_x
_atom_site_fract_y
_atom_site_fract_z
Si Si1 0.517474 0.724319 0.097888
Si Si2 0.160802 0.406704 0.122265
Si Si3 0.287516 0.317564 0.644460
Si Si4 0.365500 0.784910 0.183874
Si Si5 0.820332 0.158907 0.661207
Si Si6 0.436169 0.355284 0.401082
Si Si7 0.500000 0.000000 0.375749
O O1 0.500000 0.500000 0.102295
O O2 0.449135 0.813987 0.150244
O O3 0.602643 0.750303 0.129580
O O4 0.511937 0.778837 0.000000
O O5 0.187176 0.621591 0.103238
O O6 0.142773 0.355496 0.220385
O O7 0.243412 0.313314 0.107439
O O8 0.075464 0.397393 0.085734
O O9 0.202719 0.378780 0.630759
O O10 0.298058 0.281407 0.744215
O O11 0.355654 0.448615 0.616030
O O12 0.341727 0.564217 0.172804
O O13 0.500000 0.500000 0.382910
O O14 0.440587 0.298797 0.500000
O O15 0.456407 0.180389 0.340154
#
# Coordination Sequence:
#
# PCOD9444213 Si02
#       7
#     8   8   8   8   8   8   4
#     4   9  18  31  51  80 109 139 181 231 284 345
#     4   9  19  33  50  82 107 140 181 231 287 332
#     4   9  19  34  53  79 108 143 184 233 286 337
#     4   9  18  32  54  80 108 140 183 233 283 340
#     4   9  18  33  53  79 107 139 188 231 280 342
#     4  10  22  37  55  81 113 149 190 234 285 345
#     4  10  21  36  58  82 113 148 186 236 291 342
#
# _framework density 26.011098
#
# number of rings (size 3 to 8) (size 9 to 14) (size 15 to 20)
#    0.000    2.769    0.000    0.231    6.462    1.231 
#    0.000    8.462    0.000    1.846    0.000    0.000 
#    0.000    0.000    0.000    0.000    0.000    0.000 
#
# Total GULP energy -289736.198623 kJ/mol
# GULP energy per Si atom -5571.849974 kJ/mol
# Density = 2.595190 g / cm^3
# Si number density = 26.011098 Si / 1000 Ang^3
#
#
#
# Elastic Constant Matrix: (Units=GPa)
#
#
# Indices 1 2 3 4 5 6 
#
# 1 317.4140 46.2732 64.8934 0.0000 0.0000 0.0000
# 2 46.2732 76.1647 8.5372 0.0000 0.0000 0.0000
# 3 64.8934 8.5372 68.9015 0.0000 0.0000 0.0000
# 4 0.0000 0.0000 0.0000 2.4031 0.0000 0.0000
# 5 0.0000 0.0000 0.0000 0.0000 -208.4276 0.0000
# 6 0.0000 0.0000 0.0000 0.0000 0.0000 44.9953
#
#
#
# Elastic Compliance Matrix: (Units=1/GPa)
#
#
# Indices 1 2 3 4 5 6 
#
# 1 0.004222 -0.002149 -0.003710 0.000000 0.000000 0.000000
# 2 -0.002149 0.014408 0.000239 0.000000 0.000000 0.000000
# 3 -0.003710 0.000239 0.017978 0.000000 0.000000 0.000000
# 4 0.000000 0.000000 0.000000 0.416128 0.000000 0.000000
# 5 0.000000 0.000000 0.000000 0.000000 -0.004798 0.000000
# 6 0.000000 0.000000 0.000000 0.000000 0.000000 0.022225
#
#
# Mechanical properties :
#
#
# Convention : Reuss Voigt Hill
#
# Bulk Modulus (GPa) = 39.41999 77.98751 58.70375
# Shear Modulus (GPa) = 10.20696 -9.35408 0.42644
#
# Velocity S-wave (km/s) = 1.98308 -1.89842 0.40534
# Velocity P-wave (km/s) = 4.52011 5.02416 4.77879
#
# Compressibility (1/GPa) = 0.02536784
#
# Stress axis : x y z
#
# Youngs Moduli (GPa) = 236.83343 69.40355 55.62212
#
# Poissons Ratio (x) = 0.14917 0.20638
# Poissons Ratio (y) = 0.50904 -0.01330
# Poissons Ratio (z) = 0.87876 -0.01659
#
# Static dielectric constant tensor:
#      x y z
#    x 2.131200 0.000000 0.000000 
#    y 0.000000 2.193030 0.000000 
#    z 0.000000 0.000000 2.028000 
# 
# From -- ./inp_files/27265.got.cif
#   From: 2010.05.17/outbox.cif.g08.bks.cpg/sg58_14_cif.got.tgz:27265.got - 2010.06.03 14:20:14.
