data_PCOD9444134
_publ_section_title
;
Structure prediction by ZEFSAII (Michael W. Deem and Ramdas Pophale) SiO2 
 PCOD9444134
Probable space group: P N N M
;
_chemical_formula_sum "Si O2"
_cell_formula_units_Z 42
_cell_length_a 4.907670
_cell_length_b 21.687437
_cell_length_c 21.536106
_cell_angle_alpha 90.000000
_cell_angle_beta 90.000000
_cell_angle_gamma 90.000000
_cell_volume 2292.190789
_symmetry_space_group_name_H-M "P N N M"
_symmetry_group_IT_number 58
_symmetry_cell_setting 'orthorhombic'
loop_
_space_group_symop_operation_xyz
x,y,z
-x,-y,z
1/2+x,1/2-y,1/2-z
1/2-x,1/2+y,1/2-z
-x,-y,-z
x,y,-z
1/2-x,1/2+y,1/2+z
1/2+x,1/2-y,1/2+z
loop_
_atom_site_type_symbol
_atom_site_label
_atom_site_fract_x
_atom_site_fract_y
_atom_site_fract_z
Si Si1 0.220624 0.671169 0.781059
Si Si2 0.219748 0.765137 0.332475
Si Si3 0.978967 0.678840 0.571241
Si Si4 0.500000 0.500000 0.500000
Si Si5 0.762451 0.958813 0.770268
Si Si6 0.507909 0.401146 0.603312
O O1 0.196906 0.707518 0.715482
O O2 0.522924 0.682658 0.805338
O O3 0.168016 0.599666 0.769841
O O4 0.018536 0.706523 0.827672
O O5 0.109015 0.738714 0.396731
O O6 0.897814 0.688774 0.500000
O O7 0.720727 0.651725 0.608546
O O8 0.218291 0.627982 0.574631
O O9 0.401063 0.451554 0.554734
O O10 0.906362 0.930654 0.831647
O O11 0.500000 0.000000 0.786411
O O12 0.000000 0.000000 0.739765
#
# Coordination Sequence:
#
# PCOD9444134 Si02
#       6
#     8   8   8   2   8   8
#     4  10  21  36  56  82 105 143 190 236 292 343
#     4  10  21  35  59  78 108 142 186 244 289 336
#     4  12  23  39  55  81 112 148 193 244 278 327
#     4  12  24  38  48  74 116 166 208 226 258 294
#     4  12  24  37  56  80 115 151 193 241 280 336
#     4  12  25  35  53  76 113 155 205 233 267 309
#
# _framework density 18.323083
#
# number of rings (size 3 to 8) (size 9 to 14) (size 15 to 20)
#    0.000    0.762    4.762    3.429    5.333    0.762 
#    0.000    0.000    0.000    0.000    0.000    0.000 
#    0.000   15.238    0.000    0.000    0.000    0.000 
#
# Total GULP energy -234189.084121 kJ/mol
# GULP energy per Si atom -5575.930574 kJ/mol
# Density = 1.828138 g / cm^3
# Si number density = 18.323083 Si / 1000 Ang^3
#
#
#
# Elastic Constant Matrix: (Units=GPa)
#
#
# Indices 1 2 3 4 5 6 
#
# 1 77.2255 14.5856 -3.1314 0.0000 0.0000 0.0000
# 2 14.5856 86.0925 24.4424 0.0000 0.0000 0.0000
# 3 -3.1314 24.4424 25.5392 0.0000 0.0000 0.0000
# 4 0.0000 0.0000 0.0000 20.0943 0.0000 0.0000
# 5 0.0000 0.0000 0.0000 0.0000 10.8828 0.0000
# 6 0.0000 0.0000 0.0000 0.0000 0.0000 26.3003
#
#
#
# Elastic Compliance Matrix: (Units=1/GPa)
#
#
# Indices 1 2 3 4 5 6 
#
# 1 0.013906 -0.003900 0.005437 0.000000 0.000000 0.000000
# 2 -0.003900 0.017043 -0.016789 0.000000 0.000000 0.000000
# 3 0.005437 -0.016789 0.055890 0.000000 0.000000 0.000000
# 4 0.000000 0.000000 0.000000 0.049765 0.000000 0.000000
# 5 0.000000 0.000000 0.000000 0.000000 0.091889 0.000000
# 6 0.000000 0.000000 0.000000 0.000000 0.000000 0.038022
#
#
# Mechanical properties :
#
#
# Convention : Reuss Voigt Hill
#
# Bulk Modulus (GPa) = 17.75063 28.96116 23.35589
# Shear Modulus (GPa) = 15.83302 21.65285 18.74294
#
# Velocity S-wave (km/s) = 2.94275 3.44135 3.20177
# Velocity P-wave (km/s) = 4.61031 5.62412 5.14226
#
# Compressibility (1/GPa) = 0.05633603
#
# Stress axis : x y z
#
# Youngs Moduli (GPa) = 71.91099 58.67673 17.89236
#
# Poissons Ratio (x) = 0.22881 -0.09728
# Poissons Ratio (y) = 0.28042 0.30039
# Poissons Ratio (z) = -0.39099 0.98511
#
# Static dielectric constant tensor:
#      x y z
#    x 1.662290 0.000000 0.000000 
#    y 0.000000 1.669120 0.000000 
#    z 0.000000 0.000000 1.623990 
# 
# From -- ./inp_files/30947.got.cif
#   From: 2010.05.17/outbox.cif.g08.bks.cpg/sg58_16_cif.got.tgz:30947.got - 2010.06.03 14:20:14.
