data_PCOD9444363
_publ_section_title
;
Structure prediction by ZEFSAII (Michael W. Deem and Ramdas Pophale) SiO2 
 PCOD9444363
Probable space group: P N N M
;
_chemical_formula_sum "Si O2"
_cell_formula_units_Z 56
_cell_length_a 12.137406
_cell_length_b 17.257553
_cell_length_c 13.870756
_cell_angle_alpha 90.000000
_cell_angle_beta 90.000000
_cell_angle_gamma 90.000000
_cell_volume 2905.395285
_symmetry_space_group_name_H-M "P N N M"
_symmetry_group_IT_number 58
_symmetry_cell_setting 'orthorhombic'
loop_
_space_group_symop_operation_xyz
x,y,z
-x,-y,z
1/2+x,1/2-y,1/2-z
1/2-x,1/2+y,1/2-z
-x,-y,-z
x,y,-z
1/2-x,1/2+y,1/2+z
1/2+x,1/2-y,1/2+z
loop_
_atom_site_type_symbol
_atom_site_label
_atom_site_fract_x
_atom_site_fract_y
_atom_site_fract_z
Si Si1 0.148278 0.225550 0.886591
Si Si2 0.714771 0.363451 0.795038
Si Si3 0.123456 0.976078 0.260159
Si Si4 0.752850 0.620451 0.386328
Si Si5 0.564262 0.230640 0.884507
Si Si6 0.100112 0.727066 0.114107
Si Si7 0.859593 0.176245 0.386050
O O1 0.186243 0.157334 0.815825
O O2 0.235948 0.294190 0.870867
O O3 0.026096 0.254471 0.861307
O O4 0.150185 0.204354 0.000000
O O5 0.679918 0.451199 0.812412
O O6 0.637465 0.304566 0.854928
O O7 0.837328 0.339013 0.826033
O O8 0.201425 0.949423 0.172857
O O9 0.114890 0.901194 0.328518
O O10 0.000000 0.000000 0.229512
O O11 0.759131 0.603037 0.500000
O O12 0.870517 0.654279 0.350354
O O13 0.669079 0.693223 0.373691
O O14 0.441233 0.253933 0.855316
O O15 0.565236 0.224158 0.000000
O O16 0.104787 0.707457 0.000000
O O17 0.876129 0.163387 0.500000
#
# Coordination Sequence:
#
# PCOD9444363 Si02
#       7
#     8   8   8   8   8   8   8
#     4  10  22  39  60  85 115 153 201 247 286 340
#     4  11  21  33  59  84 120 153 188 236 295 354
#     4  12  23  35  52  89 126 152 186 235 303 359
#     4   9  19  36  58  83 112 148 194 239 281 340
#     4   9  18  35  60  86 107 144 196 244 282 331
#     4   9  19  38  61  84 109 150 201 243 284 339
#     4  10  21  37  59  85 114 150 193 244 296 343
#
# _framework density 19.274486
#
# number of rings (size 3 to 8) (size 9 to 14) (size 15 to 20)
#    0.000    2.000    1.429    3.857    2.000    2.286 
#    0.000    0.714    0.000    2.571    0.000    4.000 
#    0.000    0.000    0.000    0.000    0.000    0.000 
#
# Total GULP energy -312598.905252 kJ/mol
# GULP energy per Si atom -5582.123308 kJ/mol
# Density = 1.923062 g / cm^3
# Si number density = 19.274486 Si / 1000 Ang^3
#
#
#
# Elastic Constant Matrix: (Units=GPa)
#
#
# Indices 1 2 3 4 5 6 
#
# 1 97.0298 16.0478 37.8278 0.0000 0.0000 0.0000
# 2 16.0478 35.4160 14.2492 0.0000 0.0000 0.0000
# 3 37.8278 14.2492 51.7028 0.0000 0.0000 0.0000
# 4 0.0000 0.0000 0.0000 14.9075 0.0000 0.0000
# 5 0.0000 0.0000 0.0000 0.0000 22.8344 0.0000
# 6 0.0000 0.0000 0.0000 0.0000 0.0000 27.2659
#
#
#
# Elastic Compliance Matrix: (Units=1/GPa)
#
#
# Indices 1 2 3 4 5 6 
#
# 1 0.014631 -0.002612 -0.009984 0.000000 0.000000 0.000000
# 2 -0.002612 0.032224 -0.006970 0.000000 0.000000 0.000000
# 3 -0.009984 -0.006970 0.028567 0.000000 0.000000 0.000000
# 4 0.000000 0.000000 0.000000 0.067080 0.000000 0.000000
# 5 0.000000 0.000000 0.000000 0.000000 0.043794 0.000000
# 6 0.000000 0.000000 0.000000 0.000000 0.000000 0.036676
#
#
# Mechanical properties :
#
#
# Convention : Reuss Voigt Hill
#
# Bulk Modulus (GPa) = 27.55665 35.59980 31.57822
# Shear Modulus (GPa) = 18.23487 20.73649 19.48568
#
# Velocity S-wave (km/s) = 3.07915 3.28358 3.18300
# Velocity P-wave (km/s) = 5.19322 5.73462 5.47062
#
# Compressibility (1/GPa) = 0.03628889
#
# Stress axis : x y z
#
# Youngs Moduli (GPa) = 68.34958 31.03306 35.00531
#
# Poissons Ratio (x) = 0.08107 0.34951
# Poissons Ratio (y) = 0.17855 0.24397
# Poissons Ratio (z) = 0.68243 0.21629
#
# Static dielectric constant tensor:
#      x y z
#    x 1.704390 0.000000 0.000000 
#    y 0.000000 1.630360 0.000000 
#    z 0.000000 0.000000 1.730340 
# 
# From -- ./inp_files/21265.got.cif
#   From: 2010.05.17/outbox.cif.g08.bks.cpg/sg58_11_cif.got.tgz:21265.got - 2010.06.03 14:20:14.
