data_PCOD9444743
_publ_section_title
;
Structure prediction by ZEFSAII (Michael W. Deem and Ramdas Pophale) SiO2 
 PCOD9444743
Probable space group: P N N M
;
_chemical_formula_sum "Si O2"
_cell_formula_units_Z 48
_cell_length_a 15.151148
_cell_length_b 19.122517
_cell_length_c 8.570885
_cell_angle_alpha 90.000000
_cell_angle_beta 90.000000
_cell_angle_gamma 90.000000
_cell_volume 2483.226100
_symmetry_space_group_name_H-M "P N N M"
_symmetry_group_IT_number 58
_symmetry_cell_setting 'orthorhombic'
loop_
_space_group_symop_operation_xyz
x,y,z
-x,-y,z
1/2+x,1/2-y,1/2-z
1/2-x,1/2+y,1/2-z
-x,-y,-z
x,y,-z
1/2-x,1/2+y,1/2+z
1/2+x,1/2-y,1/2+z
loop_
_atom_site_type_symbol
_atom_site_label
_atom_site_fract_x
_atom_site_fract_y
_atom_site_fract_z
Si Si1 0.789296 0.740871 0.814234
Si Si2 0.526996 0.285595 0.813800
Si Si3 0.382793 0.184038 0.684296
Si Si4 0.443050 0.433618 0.809898
Si Si5 0.260171 0.920898 0.311337
Si Si6 0.903529 0.470930 0.313470
O O1 0.871133 0.777483 0.730104
O O2 0.698092 0.777742 0.769576
O O3 0.783403 0.659078 0.769806
O O4 0.802084 0.744647 0.000000
O O5 0.471682 0.224086 0.733487
O O6 0.487263 0.360314 0.762817
O O7 0.515692 0.279996 0.000000
O O8 0.369992 0.189350 0.500000
O O9 0.387714 0.103714 0.734809
O O10 0.500000 0.500000 0.756378
O O11 0.340735 0.436125 0.762144
O O12 0.443566 0.434400 0.000000
O O13 0.264166 0.926606 0.500000
O O14 0.329026 0.974363 0.237999
O O15 0.901722 0.462262 0.500000
O O16 0.000000 0.500000 0.268860
#
# Coordination Sequence:
#
# PCOD9444743 Si02
#       6
#     8   8   8   8   8   8
#     4  11  23  41  64  94 130 167 209 264 320 378
#     4  11  22  40  65  94 127 166 212 267 322 380
#     4  12  25  42  65  93 126 170 217 263 319 383
#     4   9  19  37  61  89 124 165 207 252 308 376
#     4  10  21  40  65  92 126 167 208 255 315 380
#     4  11  25  43  64  92 128 166 207 265 326 380
#
# _framework density 19.329692999999999
#
# number of rings (size 3 to 8) (size 9 to 14) (size 15 to 20)
#    0.000    1.333    1.667    4.000    2.333    5.333 
#    0.000    0.000    0.000    2.500    0.000    0.000 
#    0.000    0.000    0.000    0.000    0.000    0.000 
#
# Total GULP energy -268458.697249 kJ/mol
# GULP energy per Si atom -5592.889526 kJ/mol
# Density = 1.928570 g / cm^3
# Si number density = 19.329693 Si / 1000 Ang^3
#
#
#
# Elastic Constant Matrix: (Units=GPa)
#
#
# Indices 1 2 3 4 5 6 
#
# 1 53.5857 -5.4143 2.2397 0.0000 0.0000 0.0000
# 2 -5.4143 89.9243 25.8101 0.0000 0.0000 0.0000
# 3 2.2397 25.8101 23.1284 0.0000 0.0000 0.0000
# 4 0.0000 0.0000 0.0000 39.8368 0.0000 0.0000
# 5 0.0000 0.0000 0.0000 0.0000 31.4217 0.0000
# 6 0.0000 0.0000 0.0000 0.0000 0.0000 41.9889
#
#
#
# Elastic Compliance Matrix: (Units=1/GPa)
#
#
# Indices 1 2 3 4 5 6 
#
# 1 0.019104 0.002474 -0.004610 0.000000 0.000000 0.000000
# 2 0.002474 0.016681 -0.018855 0.000000 0.000000 0.000000
# 3 -0.004610 -0.018855 0.064724 0.000000 0.000000 0.000000
# 4 0.000000 0.000000 0.000000 0.025102 0.000000 0.000000
# 5 0.000000 0.000000 0.000000 0.000000 0.031825 0.000000
# 6 0.000000 0.000000 0.000000 0.000000 0.000000 0.023816
#
#
# Mechanical properties :
#
#
# Convention : Reuss Voigt Hill
#
# Bulk Modulus (GPa) = 17.08629 23.54551 20.31590
# Shear Modulus (GPa) = 20.59772 32.24967 26.42370
#
# Velocity S-wave (km/s) = 3.26789 4.08904 3.70131
# Velocity P-wave (km/s) = 4.80598 5.87376 5.36649
#
# Compressibility (1/GPa) = 0.05852646
#
# Stress axis : x y z
#
# Youngs Moduli (GPa) = 52.34414 59.94804 15.45014
#
# Poissons Ratio (x) = -0.14828 0.07123
# Poissons Ratio (y) = -0.12947 0.29131
# Poissons Ratio (z) = 0.24133 1.13031
#
# Static dielectric constant tensor:
#      x y z
#    x 1.635400 0.000000 0.000000 
#    y 0.000000 1.641620 0.000000 
#    z 0.000000 0.000000 1.656000 
# 
# From -- ./inp_files/5815.got.cif
#   From: 2010.05.17/outbox.cif.g08.bks.cpg/sg58_3_cif.got.tgz:5815.got - 2010.06.03 14:20:14.
