data_PCOD9444154
_publ_section_title
;
Structure prediction by ZEFSAII (Michael W. Deem and Ramdas Pophale) SiO2 
 PCOD9444154
Probable space group: P N N M
;
_chemical_formula_sum "Si O2"
_cell_formula_units_Z 48
_cell_length_a 24.778098
_cell_length_b 12.318668
_cell_length_c 7.714421
_cell_angle_alpha 90.000000
_cell_angle_beta 90.000000
_cell_angle_gamma 90.000000
_cell_volume 2354.697122
_symmetry_space_group_name_H-M "P N N M"
_symmetry_group_IT_number 58
_symmetry_cell_setting 'orthorhombic'
loop_
_space_group_symop_operation_xyz
x,y,z
-x,-y,z
1/2+x,1/2-y,1/2-z
1/2-x,1/2+y,1/2-z
-x,-y,-z
x,y,-z
1/2-x,1/2+y,1/2+z
1/2+x,1/2-y,1/2+z
loop_
_atom_site_type_symbol
_atom_site_label
_atom_site_fract_x
_atom_site_fract_y
_atom_site_fract_z
Si Si1 0.117993 0.015501 0.290735
Si Si2 0.335222 0.102898 0.207767
Si Si3 0.358254 0.854544 0.293130
Si Si4 0.420771 0.278953 0.787181
Si Si5 0.956962 0.789425 0.293809
Si Si6 0.716856 0.339060 0.707288
O O1 0.115646 0.015806 0.500000
O O2 0.074004 0.103465 0.225573
O O3 0.176495 0.060863 0.240759
O O4 0.104269 0.894458 0.233418
O O5 0.383025 0.180580 0.272353
O O6 0.276579 0.138980 0.276608
O O7 0.346266 0.977039 0.242243
O O8 0.333625 0.116223 0.000000
O O9 0.357261 0.847969 0.500000
O O10 0.416537 0.810472 0.235329
O O11 0.313751 0.768362 0.224549
O O12 0.482717 0.272550 0.726963
O O13 0.421252 0.277065 0.000000
O O14 0.962065 0.805513 0.500000
O O15 0.721329 0.326361 0.500000
#
# Coordination Sequence:
#
# PCOD9444154 Si02
#       6
#     8   8   8   8   8   8
#     4   9  17  31  56  83 105 133 174 220 264 307
#     4  10  21  36  53  75 103 139 177 214 256 310
#     4  10  21  37  55  76 105 140 174 213 263 313
#     4   9  18  32  54  81 107 136 175 219 261 305
#     4   9  17  33  56  81 106 136 175 218 260 309
#     4   9  20  36  53  74 104 138 172 212 263 315
#
# _framework density 20.384788
#
# number of rings (size 3 to 8) (size 9 to 14) (size 15 to 20)
#    0.000    2.667    0.000    1.000    2.333    4.000 
#    0.000    5.833    0.000    4.000    0.000    0.000 
#    0.000    0.000    0.000    0.000    0.000    0.000 
#
# Total GULP energy -267916.720923 kJ/mol
# GULP energy per Si atom -5581.598353 kJ/mol
# Density = 2.033839 g / cm^3
# Si number density = 20.384788 Si / 1000 Ang^3
#
#
#
# Elastic Constant Matrix: (Units=GPa)
#
#
# Indices 1 2 3 4 5 6 
#
# 1 275.8461 148.1212 39.7979 0.0000 0.0000 0.0000
# 2 148.1212 165.7472 11.0957 0.0000 0.0000 0.0000
# 3 39.7979 11.0957 40.7973 0.0000 0.0000 0.0000
# 4 0.0000 0.0000 0.0000 23.8680 0.0000 0.0000
# 5 0.0000 0.0000 0.0000 0.0000 16.0417 0.0000
# 6 0.0000 0.0000 0.0000 0.0000 0.0000 12.4969
#
#
#
# Elastic Compliance Matrix: (Units=1/GPa)
#
#
# Indices 1 2 3 4 5 6 
#
# 1 0.008252 -0.006962 -0.006156 0.000000 0.000000 0.000000
# 2 -0.006962 0.012019 0.003523 0.000000 0.000000 0.000000
# 3 -0.006156 0.003523 0.029559 0.000000 0.000000 0.000000
# 4 0.000000 0.000000 0.000000 0.041897 0.000000 0.000000
# 5 0.000000 0.000000 0.000000 0.000000 0.062338 0.000000
# 6 0.000000 0.000000 0.000000 0.000000 0.000000 0.080020
#
#
# Mechanical properties :
#
#
# Convention : Reuss Voigt Hill
#
# Bulk Modulus (GPa) = 32.63852 97.82448 65.23150
# Shear Modulus (GPa) = 18.97611 29.37303 24.17457
#
# Velocity S-wave (km/s) = 3.05437 3.80007 3.44744
# Velocity P-wave (km/s) = 5.33712 8.20654 6.92214
#
# Compressibility (1/GPa) = 0.03063864
#
# Stress axis : x y z
#
# Youngs Moduli (GPa) = 121.18328 83.19904 33.83086
#
# Poissons Ratio (x) = 0.57926 0.20827
# Poissons Ratio (y) = 0.84371 -0.11918
# Poissons Ratio (z) = 0.74604 -0.29310
#
# Static dielectric constant tensor:
#      x y z
#    x 1.718040 0.000000 0.000000 
#    y 0.000000 1.734380 0.000000 
#    z 0.000000 0.000000 1.762180 
# 
# From -- ./inp_files/4181.got.cif
#   From: 2010.05.17/outbox.cif.g08.bks.cpg/sg58_3_cif.got.tgz:4181.got - 2010.06.03 14:20:14.
