data_PCOD9444957
_publ_section_title
;
Structure prediction by ZEFSAII (Michael W. Deem and Ramdas Pophale) SiO2 
 PCOD9444957
Probable space group: P N N M
;
_chemical_formula_sum "Si O2"
_cell_formula_units_Z 56
_cell_length_a 16.597928
_cell_length_b 19.115397
_cell_length_c 8.971330
_cell_angle_alpha 90.000000
_cell_angle_beta 90.000000
_cell_angle_gamma 90.000000
_cell_volume 2846.387545
_symmetry_space_group_name_H-M "P N N M"
_symmetry_group_IT_number 58
_symmetry_cell_setting 'orthorhombic'
loop_
_space_group_symop_operation_xyz
x,y,z
-x,-y,z
1/2+x,1/2-y,1/2-z
1/2-x,1/2+y,1/2-z
-x,-y,-z
x,y,-z
1/2-x,1/2+y,1/2+z
1/2+x,1/2-y,1/2+z
loop_
_atom_site_type_symbol
_atom_site_label
_atom_site_fract_x
_atom_site_fract_y
_atom_site_fract_z
Si Si1 0.563185 0.940487 0.681294
Si Si2 0.791938 0.145849 0.674593
Si Si3 0.523040 0.201770 0.675378
Si Si4 0.263714 0.005150 0.322111
Si Si5 0.135274 0.101385 0.178360
Si Si6 0.182055 0.247134 0.323753
Si Si7 0.541847 0.640786 0.674310
O O1 0.565009 0.942395 0.500000
O O2 0.531302 0.863740 0.722698
O O3 0.653279 0.959487 0.730593
O O4 0.500000 0.000000 0.729798
O O5 0.789775 0.162935 0.500000
O O6 0.759721 0.210782 0.768950
O O7 0.881451 0.125765 0.725540
O O8 0.736076 0.078070 0.700567
O O9 0.544845 0.192228 0.500000
O O10 0.604106 0.209117 0.769988
O O11 0.478186 0.276277 0.686238
O O12 0.255370 0.017226 0.500000
O O13 0.187461 0.038209 0.240283
O O14 0.173063 0.172204 0.245470
O O15 0.040516 0.101544 0.218845
O O16 0.138690 0.104728 0.000000
O O17 0.182631 0.238228 0.500000
O O18 0.558851 0.625345 0.500000
#
# Coordination Sequence:
#
# PCOD9444957 Si02
#       7
#     8   8   8   8   8   8   8
#     4   9  17  32  57  85 116 154 193 233 286 352
#     4  11  23  38  58  86 120 155 199 247 294 349
#     4   9  18  35  58  84 114 148 192 241 294 354
#     4  10  22  38  59  88 119 157 200 243 295 355
#     4  10  22  41  62  86 117 153 195 246 302 358
#     4  11  22  37  60  86 117 155 197 242 295 354
#     4   9  20  37  57  83 113 151 198 243 295 355
#
# _framework density 19.674060000000001
#
# number of rings (size 3 to 8) (size 9 to 14) (size 15 to 20)
#    0.000    2.143    0.000    3.857    2.000    6.857 
#    0.000    3.571    0.000    1.714    0.000    0.000 
#    0.000    0.000    0.000    0.000    0.000    0.000 
#
# Total GULP energy -312815.136333 kJ/mol
# GULP energy per Si atom -5585.984577 kJ/mol
# Density = 1.962928 g / cm^3
# Si number density = 19.674060 Si / 1000 Ang^3
#
#
#
# Elastic Constant Matrix: (Units=GPa)
#
#
# Indices 1 2 3 4 5 6 
#
# 1 49.2122 0.1488 13.6334 0.0000 0.0000 0.0000
# 2 0.1488 17.8600 12.8751 0.0000 0.0000 0.0000
# 3 13.6334 12.8751 37.2816 0.0000 0.0000 0.0000
# 4 0.0000 0.0000 0.0000 1.8626 0.0000 0.0000
# 5 0.0000 0.0000 0.0000 0.0000 27.7516 0.0000
# 6 0.0000 0.0000 0.0000 0.0000 0.0000 32.8384
#
#
#
# Elastic Compliance Matrix: (Units=1/GPa)
#
#
# Indices 1 2 3 4 5 6 
#
# 1 0.023432 0.007965 -0.011319 0.000000 0.000000 0.000000
# 2 0.007965 0.077259 -0.029594 0.000000 0.000000 0.000000
# 3 -0.011319 -0.029594 0.041182 0.000000 0.000000 0.000000
# 4 0.000000 0.000000 0.000000 0.536881 0.000000 0.000000
# 5 0.000000 0.000000 0.000000 0.000000 0.036034 0.000000
# 6 0.000000 0.000000 0.000000 0.000000 0.000000 0.030452
#
#
# Mechanical properties :
#
#
# Convention : Reuss Voigt Hill
#
# Bulk Modulus (GPa) = 13.16198 17.51870 15.34034
# Shear Modulus (GPa) = 5.97756 17.67028 11.82392
#
# Velocity S-wave (km/s) = 1.74496 3.00017 2.45417
# Velocity P-wave (km/s) = 3.28091 4.57440 3.98055
#
# Compressibility (1/GPa) = 0.07597639
#
# Stress axis : x y z
#
# Youngs Moduli (GPa) = 42.67681 12.94354 24.28226
#
# Poissons Ratio (x) = -0.10309 0.27486
# Poissons Ratio (y) = -0.33991 0.71860
# Poissons Ratio (z) = 0.48307 0.38305
#
# Static dielectric constant tensor:
#      x y z
#    x 1.692040 0.000000 0.000000 
#    y 0.000000 1.694660 0.000000 
#    z 0.000000 0.000000 1.655660 
# 
# From -- ./inp_files/6432.got.cif
#   From: 2010.05.17/outbox.cif.g08.bks.cpg/sg58_4_cif.got.tgz:6432.got - 2010.06.03 14:20:14.
