data_PCOD9444783
_publ_section_title
;
Structure prediction by ZEFSAII (Michael W. Deem and Ramdas Pophale) SiO2 
 PCOD9444783
Probable space group: P N N M
;
_chemical_formula_sum "Si O2"
_cell_formula_units_Z 32
_cell_length_a 7.207078
_cell_length_b 12.561831
_cell_length_c 14.299763
_cell_angle_alpha 90.000000
_cell_angle_beta 90.000000
_cell_angle_gamma 90.000000
_cell_volume 1294.616114
_symmetry_space_group_name_H-M "P N N M"
_symmetry_group_IT_number 58
_symmetry_cell_setting 'orthorhombic'
loop_
_space_group_symop_operation_xyz
x,y,z
-x,-y,z
1/2+x,1/2-y,1/2-z
1/2-x,1/2+y,1/2-z
-x,-y,-z
x,y,-z
1/2-x,1/2+y,1/2+z
1/2+x,1/2-y,1/2+z
loop_
_atom_site_type_symbol
_atom_site_label
_atom_site_fract_x
_atom_site_fract_y
_atom_site_fract_z
Si Si1 0.498737 0.165802 0.693483
Si Si2 0.472035 0.383257 0.393776
Si Si3 0.720406 0.496226 0.111268
Si Si4 0.966885 0.626761 0.599496
O O1 0.549725 0.282146 0.658362
O O2 0.320843 0.113766 0.641428
O O3 0.459813 0.170043 0.803480
O O4 0.667893 0.085557 0.669652
O O5 0.500000 0.500000 0.351117
O O6 0.546503 0.388506 0.500000
O O7 0.253748 0.361835 0.398383
O O8 0.500000 0.500000 0.126937
O O9 0.752752 0.512698 0.000000
O O10 0.035196 0.671717 0.500000
O O11 0.000000 0.500000 0.599828
#
# Coordination Sequence:
#
# PCOD9444783 Si02
#       4
#     8   8   8   8
#     4  11  21  44  73 106 144 194 243 300 363 440
#     4  10  23  44  70 101 143 191 242 299 359 431
#     4  10  21  40  71 112 152 188 239 305 374 437
#     4  10  22  44  68 100 143 189 241 301 361 429
#
# _framework density 24.717752000000001
#
# number of rings (size 3 to 8) (size 9 to 14) (size 15 to 20)
#    0.000    1.750    2.500    3.000    0.000    3.000 
#    9.000    0.000    0.000    3.000    0.000    0.000 
#    0.000    0.000    0.000    0.000    0.000    0.000 
#
# Total GULP energy -179298.232349 kJ/mol
# GULP energy per Si atom -5603.069761 kJ/mol
# Density = 2.466149 g / cm^3
# Si number density = 24.717752 Si / 1000 Ang^3
#
#
#
# Elastic Constant Matrix: (Units=GPa)
#
#
# Indices 1 2 3 4 5 6 
#
# 1 162.1499 26.0990 26.9759 0.0000 0.0000 0.0000
# 2 26.0990 179.6607 63.9198 0.0000 0.0000 0.0000
# 3 26.9759 63.9198 198.4649 0.0000 0.0000 0.0000
# 4 0.0000 0.0000 0.0000 13.7204 0.0000 0.0000
# 5 0.0000 0.0000 0.0000 0.0000 20.3860 0.0000
# 6 0.0000 0.0000 0.0000 0.0000 0.0000 16.5835
#
#
#
# Elastic Compliance Matrix: (Units=1/GPa)
#
#
# Indices 1 2 3 4 5 6 
#
# 1 0.006387 -0.000699 -0.000643 0.000000 0.000000 0.000000
# 2 -0.000699 0.006363 -0.001954 0.000000 0.000000 0.000000
# 3 -0.000643 -0.001954 0.005755 0.000000 0.000000 0.000000
# 4 0.000000 0.000000 0.000000 0.072884 0.000000 0.000000
# 5 0.000000 0.000000 0.000000 0.000000 0.049053 0.000000
# 6 0.000000 0.000000 0.000000 0.000000 0.000000 0.060301
#
#
# Mechanical properties :
#
#
# Convention : Reuss Voigt Hill
#
# Bulk Modulus (GPa) = 83.94571 86.02943 84.98757
# Shear Modulus (GPa) = 23.66227 38.35668 31.00947
#
# Velocity S-wave (km/s) = 3.09738 3.94355 3.54579
# Velocity P-wave (km/s) = 6.84304 7.45759 7.15691
#
# Compressibility (1/GPa) = 0.01191246
#
# Stress axis : x y z
#
# Youngs Moduli (GPa) = 156.57756 157.16118 173.74719
#
# Poissons Ratio (x) = 0.10986 0.11171
# Poissons Ratio (y) = 0.10945 0.33955
# Poissons Ratio (z) = 0.10067 0.30714
#
# Static dielectric constant tensor:
#      x y z
#    x 1.986580 0.000000 0.000000 
#    y 0.000000 1.948630 0.000000 
#    z 0.000000 0.000000 1.965030 
# 
# From -- ./inp_files/19104.got.cif
#   From: 2010.05.17/outbox.cif.g08.bks.cpg/sg58_10_cif.got.tgz:19104.got - 2010.06.03 14:20:14.
