data_PCOD9444619
_publ_section_title
;
Structure prediction by ZEFSAII (Michael W. Deem and Ramdas Pophale) SiO2 
 PCOD9444619
Probable space group: P N N M
;
_chemical_formula_sum "Si O2"
_cell_formula_units_Z 56
_cell_length_a 18.386832
_cell_length_b 13.326180
_cell_length_c 13.076698
_cell_angle_alpha 90.000000
_cell_angle_beta 90.000000
_cell_angle_gamma 90.000000
_cell_volume 3204.134049
_symmetry_space_group_name_H-M "P N N M"
_symmetry_group_IT_number 58
_symmetry_cell_setting 'orthorhombic'
loop_
_space_group_symop_operation_xyz
x,y,z
-x,-y,z
1/2+x,1/2-y,1/2-z
1/2-x,1/2+y,1/2-z
-x,-y,-z
x,y,-z
1/2-x,1/2+y,1/2+z
1/2+x,1/2-y,1/2+z
loop_
_atom_site_type_symbol
_atom_site_label
_atom_site_fract_x
_atom_site_fract_y
_atom_site_fract_z
Si Si1 0.529945 0.114252 0.381785
Si Si2 0.835025 0.620811 0.731210
Si Si3 0.562047 0.582849 0.881387
Si Si4 0.918826 0.454118 0.382607
Si Si5 0.760072 0.277025 0.879388
Si Si6 0.272705 0.487439 0.116376
Si Si7 0.088025 0.733863 0.231870
O O1 0.551539 0.121767 0.500000
O O2 0.596524 0.134711 0.306170
O O3 0.467628 0.193767 0.353731
O O4 0.500000 0.000000 0.366628
O O5 0.861891 0.539305 0.649170
O O6 0.805835 0.718112 0.673624
O O7 0.771142 0.576074 0.801190
O O8 0.500000 0.500000 0.863428
O O9 0.641409 0.531652 0.874272
O O10 0.560934 0.672025 0.798718
O O11 0.553662 0.619155 0.000000
O O12 0.910269 0.424456 0.500000
O O13 0.907308 0.359699 0.309740
O O14 0.000000 0.500000 0.370228
O O15 0.747347 0.396101 0.870306
O O16 0.834417 0.248625 0.821303
O O17 0.764611 0.252888 0.000000
O O18 0.251401 0.458718 0.000000
#
# Coordination Sequence:
#
# PCOD9444619 Si02
#       7
#     8   8   8   8   8   8   8
#     4  11  22  38  63  91 118 153 198 245 299 360
#     4  12  20  39  59  90 123 151 188 251 304 351
#     4  10  23  40  60  84 114 159 206 244 286 349
#     4  11  22  36  57  89 121 151 189 242 309 364
#     4  11  24  38  61  89 119 159 200 242 294 356
#     4  10  21  39  61  86 116 154 200 245 291 348
#     4  12  20  40  61  85 118 156 200 246 293 346
#
# _framework density 17.477422000000001
#
# number of rings (size 3 to 8) (size 9 to 14) (size 15 to 20)
#    0.000    1.000    5.714    1.714    2.000    2.286 
#    0.000    0.000    0.000    3.429    0.000    0.000 
#    0.000    0.000    0.000    0.000    0.000    0.000 
#
# Total GULP energy -312759.708310 kJ/mol
# GULP energy per Si atom -5584.994791 kJ/mol
# Density = 1.743764 g / cm^3
# Si number density = 17.477422 Si / 1000 Ang^3
#
#
#
# Elastic Constant Matrix: (Units=GPa)
#
#
# Indices 1 2 3 4 5 6 
#
# 1 68.8598 9.4801 17.5668 0.0000 0.0000 0.0000
# 2 9.4801 49.7822 22.9301 0.0000 0.0000 0.0000
# 3 17.5668 22.9301 93.5075 0.0000 0.0000 0.0000
# 4 0.0000 0.0000 0.0000 23.9037 0.0000 0.0000
# 5 0.0000 0.0000 0.0000 0.0000 25.5836 0.0000
# 6 0.0000 0.0000 0.0000 0.0000 0.0000 30.9776
#
#
#
# Elastic Compliance Matrix: (Units=1/GPa)
#
#
# Indices 1 2 3 4 5 6 
#
# 1 0.015396 -0.001803 -0.002450 0.000000 0.000000 0.000000
# 2 -0.001803 0.022857 -0.005266 0.000000 0.000000 0.000000
# 3 -0.002450 -0.005266 0.012446 0.000000 0.000000 0.000000
# 4 0.000000 0.000000 0.000000 0.041834 0.000000 0.000000
# 5 0.000000 0.000000 0.000000 0.000000 0.039088 0.000000
# 6 0.000000 0.000000 0.000000 0.000000 0.000000 0.032281
#
#
# Mechanical properties :
#
#
# Convention : Reuss Voigt Hill
#
# Bulk Modulus (GPa) = 31.58651 34.67816 33.13233
# Shear Modulus (GPa) = 25.84064 26.90447 26.37256
#
# Velocity S-wave (km/s) = 3.84932 3.92776 3.88873
# Velocity P-wave (km/s) = 6.15372 6.36038 6.25791
#
# Compressibility (1/GPa) = 0.03165908
#
# Stress axis : x y z
#
# Youngs Moduli (GPa) = 64.95376 43.75114 80.34711
#
# Poissons Ratio (x) = 0.07889 0.19686
# Poissons Ratio (y) = 0.11713 0.42312
# Poissons Ratio (z) = 0.15914 0.23040
#
# Static dielectric constant tensor:
#      x y z
#    x 1.597660 0.000000 0.000000 
#    y 0.000000 1.563500 0.000000 
#    z 0.000000 0.000000 1.586580 
# 
# From -- ./inp_files/22207.got.cif
#   From: 2010.05.17/outbox.cif.g08.bks.cpg/sg58_12_cif.got.tgz:22207.got - 2010.06.03 14:20:14.
