data_PCOD9444376
_publ_section_title
;
Structure prediction by ZEFSAII (Michael W. Deem and Ramdas Pophale) SiO2 
 PCOD9444376
Probable space group: P N N M
;
_chemical_formula_sum "Si O2"
_cell_formula_units_Z 48
_cell_length_a 31.795145
_cell_length_b 9.169552
_cell_length_c 8.589863
_cell_angle_alpha 90.000000
_cell_angle_beta 90.000000
_cell_angle_gamma 90.000000
_cell_volume 2504.350810
_symmetry_space_group_name_H-M "P N N M"
_symmetry_group_IT_number 58
_symmetry_cell_setting 'orthorhombic'
loop_
_space_group_symop_operation_xyz
x,y,z
-x,-y,z
1/2+x,1/2-y,1/2-z
1/2-x,1/2+y,1/2-z
-x,-y,-z
x,y,-z
1/2-x,1/2+y,1/2+z
1/2+x,1/2-y,1/2+z
loop_
_atom_site_type_symbol
_atom_site_label
_atom_site_fract_x
_atom_site_fract_y
_atom_site_fract_z
Si Si1 0.707724 0.579838 0.686713
Si Si2 0.209934 0.581525 0.811755
Si Si3 0.541795 0.586000 0.188094
Si Si4 0.125320 0.412166 0.188222
Si Si5 0.625860 0.415799 0.813291
Si Si6 0.041857 0.586094 0.188163
O O1 0.706163 0.575445 0.500000
O O2 0.749485 0.498673 0.744186
O O3 0.708611 0.749236 0.736134
O O4 0.666776 0.499514 0.752204
O O5 0.167322 0.498712 0.764052
O O6 0.212356 0.577208 0.000000
O O7 0.500000 0.500000 0.239485
O O8 0.583651 0.499994 0.238388
O O9 0.541908 0.750040 0.249802
O O10 0.541574 0.590108 0.000000
O O11 0.125490 0.249231 0.252859
O O12 0.083644 0.499422 0.238177
O O13 0.125059 0.405275 0.000000
O O14 0.626691 0.414328 0.000000
O O15 0.000000 0.500000 0.238458
O O16 0.041904 0.591122 0.000000
#
# Coordination Sequence:
#
# PCOD9444376 Si02
#       6
#     8   8   8   8   8   8
#     4  11  23  39  60  84 113 149 186 231 286 336
#     4  10  22  39  58  83 114 148 189 233 278 335
#     4  10  22  39  58  83 116 153 192 234 280 333
#     4  10  21  38  59  84 116 151 188 233 283 335
#     4  11  23  38  58  85 115 148 190 235 279 334
#     4  10  21  37  59  88 118 149 189 235 282 335
#
# _framework density 19.166644000000002
#
# number of rings (size 3 to 8) (size 9 to 14) (size 15 to 20)
#    0.000    1.667    0.000    4.000    0.000    8.667 
#    0.000    0.000    0.000    0.000    0.000    0.000 
#    0.000    0.000    0.000    0.000    0.000    0.000 
#
# Total GULP energy -268394.034017 kJ/mol
# GULP energy per Si atom -5591.542375 kJ/mol
# Density = 1.912302 g / cm^3
# Si number density = 19.166644 Si / 1000 Ang^3
#
#
#
# Elastic Constant Matrix: (Units=GPa)
#
#
# Indices 1 2 3 4 5 6 
#
# 1 243.1815 149.6634 42.7675 0.0000 0.0000 0.0000
# 2 149.6634 242.5738 40.6872 0.0000 0.0000 0.0000
# 3 42.7675 40.6872 14.8603 0.0000 0.0000 0.0000
# 4 0.0000 0.0000 0.0000 35.6951 0.0000 0.0000
# 5 0.0000 0.0000 0.0000 0.0000 -66.5070 0.0000
# 6 0.0000 0.0000 0.0000 0.0000 0.0000 46.4651
#
#
#
# Elastic Compliance Matrix: (Units=1/GPa)
#
#
# Indices 1 2 3 4 5 6 
#
# 1 0.008928 -0.002216 -0.019625 0.000000 0.000000 0.000000
# 2 -0.002216 0.008174 -0.016001 0.000000 0.000000 0.000000
# 3 -0.019625 -0.016001 0.167581 0.000000 0.000000 0.000000
# 4 0.000000 0.000000 0.000000 0.028015 0.000000 0.000000
# 5 0.000000 0.000000 0.000000 0.000000 -0.015036 0.000000
# 6 0.000000 0.000000 0.000000 0.000000 0.000000 0.021522
#
#
# Mechanical properties :
#
#
# Convention : Reuss Voigt Hill
#
# Bulk Modulus (GPa) = 9.17438 107.42799 58.30119
# Shear Modulus (GPa) = 15.09665 20.96381 18.03023
#
# Velocity S-wave (km/s) = 2.80956 3.31080 3.07042
# Velocity P-wave (km/s) = 3.91431 8.41346 6.56156
#
# Compressibility (1/GPa) = 0.10899918
#
# Stress axis : x y z
#
# Youngs Moduli (GPa) = 112.01243 122.34227 5.96726
#
# Poissons Ratio (x) = 0.27117 0.11710
# Poissons Ratio (y) = 0.24828 0.09548
# Poissons Ratio (z) = 2.19819 1.95755
#
# Static dielectric constant tensor:
#      x y z
#    x 1.644100 0.000000 0.000000 
#    y 0.000000 1.618490 0.000000 
#    z 0.000000 0.000000 1.653000 
# 
# From -- ./inp_files/2884.got.cif
#   From: 2010.05.17/outbox.cif.g08.bks.cpg/sg58_2_cif.got.tgz:2884.got - 2010.06.03 14:20:14.
