data_PCOD9444391
_publ_section_title
;
Structure prediction by ZEFSAII (Michael W. Deem and Ramdas Pophale) SiO2 
 PCOD9444391
Probable space group: P N N M
;
_chemical_formula_sum "Si O2"
_cell_formula_units_Z 48
_cell_length_a 12.333737
_cell_length_b 22.860683
_cell_length_c 8.034274
_cell_angle_alpha 90.000000
_cell_angle_beta 90.000000
_cell_angle_gamma 90.000000
_cell_volume 2265.325031
_symmetry_space_group_name_H-M "P N N M"
_symmetry_group_IT_number 58
_symmetry_cell_setting 'orthorhombic'
loop_
_space_group_symop_operation_xyz
x,y,z
-x,-y,z
1/2+x,1/2-y,1/2-z
1/2-x,1/2+y,1/2-z
-x,-y,-z
x,y,-z
1/2-x,1/2+y,1/2+z
1/2+x,1/2-y,1/2+z
loop_
_atom_site_type_symbol
_atom_site_label
_atom_site_fract_x
_atom_site_fract_y
_atom_site_fract_z
Si Si1 0.062364 0.161270 0.309250
Si Si2 0.864531 0.230504 0.301371
Si Si3 0.004264 0.567224 0.798893
Si Si4 0.583483 0.545896 0.810225
Si Si5 0.703890 0.856908 0.694993
Si Si6 0.776392 0.620243 0.305645
O O1 0.086406 0.180426 0.500000
O O2 0.175543 0.143229 0.228866
O O3 0.982435 0.209662 0.235312
O O4 0.986623 0.104763 0.319117
O O5 0.872313 0.240360 0.500000
O O6 0.832481 0.289991 0.213159
O O7 0.778341 0.177761 0.275976
O O8 0.111386 0.600701 0.734881
O O9 0.000000 0.500000 0.739825
O O10 0.895504 0.602536 0.754121
O O11 0.009334 0.565933 0.000000
O O12 0.500000 0.500000 0.731011
O O13 0.695491 0.565388 0.728098
O O14 0.608007 0.525565 0.000000
O O15 0.714673 0.873308 0.500000
O O16 0.779583 0.632311 0.500000
#
# Coordination Sequence:
#
# PCOD9444391 Si02
#       6
#     8   8   8   8   8   8
#     4   8  17  34  55  83 113 144 186 238 291 352
#     4  10  21  39  61  87 117 152 199 246 302 366
#     4  10  23  41  63  90 123 163 209 253 300 367
#     4   9  18  34  62  89 113 150 196 242 293 351
#     4  10  21  37  60  89 119 152 193 247 307 362
#     4  11  23  39  60  86 123 161 199 248 301 358
#
# _framework density 21.189012999999999
#
# number of rings (size 3 to 8) (size 9 to 14) (size 15 to 20)
#    0.000    2.333    0.000    3.000    4.667    1.333 
#    0.000    3.333    0.000    0.000    0.000    0.000 
#    0.000    0.000    0.000    0.000    0.000    0.000 
#
# Total GULP energy -267695.355152 kJ/mol
# GULP energy per Si atom -5576.986566 kJ/mol
# Density = 2.114079 g / cm^3
# Si number density = 21.189013 Si / 1000 Ang^3
#
#
#
# Elastic Constant Matrix: (Units=GPa)
#
#
# Indices 1 2 3 4 5 6 
#
# 1 160.7437 25.1510 1.6073 0.0000 0.0000 0.0000
# 2 25.1510 41.5483 -7.9305 0.0000 0.0000 0.0000
# 3 1.6073 -7.9305 27.5830 0.0000 0.0000 0.0000
# 4 0.0000 0.0000 0.0000 24.4191 0.0000 0.0000
# 5 0.0000 0.0000 0.0000 0.0000 4.7644 0.0000
# 6 0.0000 0.0000 0.0000 0.0000 0.0000 14.7492
#
#
#
# Elastic Compliance Matrix: (Units=1/GPa)
#
#
# Indices 1 2 3 4 5 6 
#
# 1 0.006947 -0.004531 -0.001708 0.000000 0.000000 0.000000
# 2 -0.004531 0.028422 0.008436 0.000000 0.000000 0.000000
# 3 -0.001708 0.008436 0.038779 0.000000 0.000000 0.000000
# 4 0.000000 0.000000 0.000000 0.040952 0.000000 0.000000
# 5 0.000000 0.000000 0.000000 0.000000 0.209891 0.000000
# 6 0.000000 0.000000 0.000000 0.000000 0.000000 0.067800
#
#
# Mechanical properties :
#
#
# Convention : Reuss Voigt Hill
#
# Bulk Modulus (GPa) = 12.73221 29.72563 21.22892
# Shear Modulus (GPa) = 12.06045 22.85634 17.45840
#
# Velocity S-wave (km/s) = 2.38835 3.28790 2.87354
# Velocity P-wave (km/s) = 3.69155 5.33601 4.58806
#
# Compressibility (1/GPa) = 0.07854098
#
# Stress axis : x y z
#
# Youngs Moduli (GPa) = 143.94359 35.18460 25.78708
#
# Poissons Ratio (x) = 0.15943 0.04404
# Poissons Ratio (y) = 0.65226 -0.21753
# Poissons Ratio (z) = 0.24580 -0.29680
#
# Static dielectric constant tensor:
#      x y z
#    x 1.799350 0.000000 0.000000 
#    y 0.000000 1.764960 0.000000 
#    z 0.000000 0.000000 1.752160 
# 
# From -- ./inp_files/4266.got.cif
#   From: 2010.05.17/outbox.cif.g08.bks.cpg/sg58_3_cif.got.tgz:4266.got - 2010.06.03 14:20:14.
