data_PCOD9444670
_publ_section_title
;
Structure prediction by ZEFSAII (Michael W. Deem and Ramdas Pophale) SiO2 
 PCOD9444670
Probable space group: P N N M
;
_chemical_formula_sum "Si O2"
_cell_formula_units_Z 58
_cell_length_a 28.699942
_cell_length_b 11.684669
_cell_length_c 8.326682
_cell_angle_alpha 90.000000
_cell_angle_beta 90.000000
_cell_angle_gamma 90.000000
_cell_volume 2792.347168
_symmetry_space_group_name_H-M "P N N M"
_symmetry_group_IT_number 58
_symmetry_cell_setting 'orthorhombic'
loop_
_space_group_symop_operation_xyz
x,y,z
-x,-y,z
1/2+x,1/2-y,1/2-z
1/2-x,1/2+y,1/2-z
-x,-y,-z
x,y,-z
1/2-x,1/2+y,1/2+z
1/2+x,1/2-y,1/2+z
loop_
_atom_site_type_symbol
_atom_site_label
_atom_site_fract_x
_atom_site_fract_y
_atom_site_fract_z
Si Si1 0.883817 0.550344 0.810968
Si Si2 0.156756 0.101699 0.311486
Si Si3 0.535458 0.626570 0.810645
Si Si4 0.309854 0.367593 0.317335
Si Si5 0.500000 0.500000 0.500000
Si Si6 0.791538 0.685989 0.189814
Si Si7 0.933805 0.761359 0.687221
Si Si8 0.620740 0.800766 0.815952
O O1 0.835592 0.609802 0.753928
O O2 0.923541 0.644887 0.780996
O O3 0.891565 0.430499 0.725522
O O4 0.879827 0.529423 0.000000
O O5 0.161462 0.123969 0.500000
O O6 0.193916 0.183166 0.224187
O O7 0.105421 0.146171 0.261855
O O8 0.165991 0.968971 0.282301
O O9 0.534454 0.549063 0.649013
O O10 0.485371 0.689469 0.798570
O O11 0.576313 0.718745 0.796457
O O12 0.539433 0.579864 0.000000
O O13 0.313155 0.404025 0.500000
O O14 0.256400 0.349383 0.270608
O O15 0.337827 0.250507 0.289883
O O16 0.786610 0.669856 0.000000
O O17 0.925875 0.735934 0.500000
O O18 0.636395 0.793835 0.000000
#
# Coordination Sequence:
#
# PCOD9444670 Si02
#       8
#     8   8   8   8   2   8   8   8
#     4  10  22  40  67  95 129 164 217 272 323 395
#     4  10  21  39  64  91 122 160 207 259 317 381
#     4  10  25  44  66 100 134 177 229 270 333 398
#     4  12  26  40  62  90 126 165 213 266 322 391
#     4  12  26  40  72  92 136 184 210 284 322 394
#     4  10  22  42  63  90 122 164 211 262 323 385
#     4   9  20  41  66  93 127 169 215 267 322 386
#     4  11  25  44  64  92 133 174 214 268 328 391
#
# _framework density 20.771056000000002
#
# number of rings (size 3 to 8) (size 9 to 14) (size 15 to 20)
#    0.000    1.655    0.000    3.103    6.759    2.759 
#    0.000    2.759    0.000    0.000    0.000    0.000 
#    0.000    0.000    0.000    0.000    0.000    0.000 
#
# Total GULP energy -323457.760682 kJ/mol
# GULP energy per Si atom -5576.857943 kJ/mol
# Density = 2.072378 g / cm^3
# Si number density = 20.771056 Si / 1000 Ang^3
#
#
#
# Elastic Constant Matrix: (Units=GPa)
#
#
# Indices 1 2 3 4 5 6 
#
# 1 55.9963 2.5178 24.1008 0.0000 0.0000 0.0000
# 2 2.5178 57.2780 24.2244 0.0000 0.0000 0.0000
# 3 24.1008 24.2244 76.2919 0.0000 0.0000 0.0000
# 4 0.0000 0.0000 0.0000 29.5949 0.0000 0.0000
# 5 0.0000 0.0000 0.0000 0.0000 17.6998 0.0000
# 6 0.0000 0.0000 0.0000 0.0000 0.0000 13.9285
#
#
#
# Elastic Compliance Matrix: (Units=1/GPa)
#
#
# Indices 1 2 3 4 5 6 
#
# 1 0.020898 0.002164 -0.007289 0.000000 0.000000 0.000000
# 2 0.002164 0.020391 -0.007158 0.000000 0.000000 0.000000
# 3 -0.007289 -0.007158 0.017683 0.000000 0.000000 0.000000
# 4 0.000000 0.000000 0.000000 0.033790 0.000000 0.000000
# 5 0.000000 0.000000 0.000000 0.000000 0.056498 0.000000
# 6 0.000000 0.000000 0.000000 0.000000 0.000000 0.071795
#
#
# Mechanical properties :
#
#
# Convention : Reuss Voigt Hill
#
# Bulk Modulus (GPa) = 29.06470 32.36136 30.71303
# Shear Modulus (GPa) = 19.44845 21.49284 20.47065
#
# Velocity S-wave (km/s) = 3.06326 3.22024 3.14273
# Velocity P-wave (km/s) = 5.15118 5.42591 5.29033
#
# Compressibility (1/GPa) = 0.03440600
#
# Stress axis : x y z
#
# Youngs Moduli (GPa) = 47.85105 49.04128 56.55136
#
# Poissons Ratio (x) = -0.10613 0.41220
# Poissons Ratio (y) = -0.10355 0.40481
# Poissons Ratio (z) = 0.34878 0.35105
#
# Static dielectric constant tensor:
#      x y z
#    x 1.736340 0.000000 0.000000 
#    y 0.000000 1.730780 0.000000 
#    z 0.000000 0.000000 1.733030 
# 
# From -- ./inp_files/10449.got.cif
#   From: 2010.05.17/outbox.cif.g08.bks.cpg/sg58_6_cif.got.tgz:10449.got - 2010.06.03 14:20:14.
