data_PCOD9444807
_publ_section_title
;
Structure prediction by ZEFSAII (Michael W. Deem and Ramdas Pophale) SiO2 
 PCOD9444807
Probable space group: P N N M
;
_chemical_formula_sum "Si O2"
_cell_formula_units_Z 48
_cell_length_a 15.376621
_cell_length_b 9.285999
_cell_length_c 15.806859
_cell_angle_alpha 90.000000
_cell_angle_beta 90.000000
_cell_angle_gamma 90.000000
_cell_volume 2257.018516
_symmetry_space_group_name_H-M "P N N M"
_symmetry_group_IT_number 58
_symmetry_cell_setting 'orthorhombic'
loop_
_space_group_symop_operation_xyz
x,y,z
-x,-y,z
1/2+x,1/2-y,1/2-z
1/2-x,1/2+y,1/2-z
-x,-y,-z
x,y,-z
1/2-x,1/2+y,1/2+z
1/2+x,1/2-y,1/2+z
loop_
_atom_site_type_symbol
_atom_site_label
_atom_site_fract_x
_atom_site_fract_y
_atom_site_fract_z
Si Si1 0.150981 0.067227 0.666449
Si Si2 0.848793 0.751858 0.172901
Si Si3 0.915689 0.229174 0.000000
Si Si4 0.076424 0.616843 0.500000
Si Si5 0.889015 0.904638 0.000000
Si Si6 0.560208 0.362830 0.000000
Si Si7 0.855903 0.263630 0.670850
Si Si8 0.137091 0.576904 0.838718
O O1 0.117880 0.152117 0.749112
O O2 0.118625 0.144936 0.582630
O O3 0.256652 0.070978 0.661969
O O4 0.114884 0.903022 0.663221
O O5 0.854220 0.837410 0.085890
O O6 0.746004 0.740282 0.189024
O O7 0.888700 0.592196 0.162037
O O8 0.895414 0.329043 0.918515
O O9 0.011974 0.158706 0.000000
O O10 0.866153 0.075077 0.000000
O O11 0.130723 0.639385 0.586697
O O12 0.000000 0.500000 0.500000
O O13 0.013701 0.749406 0.500000
O O14 0.500000 0.500000 0.000000
O O15 0.892843 0.345719 0.752400
#
# Coordination Sequence:
#
# PCOD9444807 Si02
#       8
#     8   8   4   4   4   4   8   8
#     4  10  21  41  65  93 123 164 212 249 310 378
#     4  10  22  40  68  93 119 162 211 261 307 370
#     4  11  24  42  60  88 125 163 201 257 315 371
#     4  12  27  41  59  92 133 168 205 259 318 370
#     4  11  24  42  60  88 121 165 209 246 318 376
#     4  12  23  41  63  90 125 174 207 247 314 383
#     4  10  21  43  63  90 128 164 205 258 310 366
#     4  10  22  40  66  94 123 159 208 266 309 361
#
# _framework density 21.266994
#
# number of rings (size 3 to 8) (size 9 to 14) (size 15 to 20)
#    0.000    1.500    1.667    2.500    2.333    6.667 
#    6.000    0.000    0.000    0.000    0.000    0.000 
#    0.000    0.000    0.000    0.000    0.000    0.000 
#
# Total GULP energy -267615.747567 kJ/mol
# GULP energy per Si atom -5575.328074 kJ/mol
# Density = 2.121859 g / cm^3
# Si number density = 21.266994 Si / 1000 Ang^3
#
#
#
# Elastic Constant Matrix: (Units=GPa)
#
#
# Indices 1 2 3 4 5 6 
#
# 1 18.8762 -0.5763 -4.9523 0.0000 0.0000 0.0000
# 2 -0.5763 99.2832 33.7513 0.0000 0.0000 0.0000
# 3 -4.9523 33.7513 171.3923 0.0000 0.0000 0.0000
# 4 0.0000 0.0000 0.0000 35.3824 0.0000 0.0000
# 5 0.0000 0.0000 0.0000 0.0000 29.2727 0.0000
# 6 0.0000 0.0000 0.0000 0.0000 0.0000 31.5776
#
#
#
# Elastic Compliance Matrix: (Units=1/GPa)
#
#
# Indices 1 2 3 4 5 6 
#
# 1 0.053386 -0.000230 0.001588 0.000000 0.000000 0.000000
# 2 -0.000230 0.010796 -0.002133 0.000000 0.000000 0.000000
# 3 0.001588 -0.002133 0.006300 0.000000 0.000000 0.000000
# 4 0.000000 0.000000 0.000000 0.028263 0.000000 0.000000
# 5 0.000000 0.000000 0.000000 0.000000 0.034162 0.000000
# 6 0.000000 0.000000 0.000000 0.000000 0.000000 0.031668
#
#
# Mechanical properties :
#
#
# Convention : Reuss Voigt Hill
#
# Bulk Modulus (GPa) = 14.50679 38.44410 26.47545
# Shear Modulus (GPa) = 26.44079 36.66846 31.55462
#
# Velocity S-wave (km/s) = 3.52984 4.15685 3.85611
# Velocity P-wave (km/s) = 4.84243 6.41524 5.68350
#
# Compressibility (1/GPa) = 0.06893322
#
# Stress axis : x y z
#
# Youngs Moduli (GPa) = 18.73142 92.62829 158.71982
#
# Poissons Ratio (x) = 0.02129 -0.25202
# Poissons Ratio (y) = 0.00431 0.33849
# Poissons Ratio (z) = -0.02974 0.19754
#
# Static dielectric constant tensor:
#      x y z
#    x 1.841430 0.000000 0.000000 
#    y 0.000000 1.767940 0.000000 
#    z 0.000000 0.000000 1.733450 
# 
# From -- ./inp_files/22817.got.cif
#   From: 2010.05.17/outbox.cif.g08.bks.cpg/sg58_12_cif.got.tgz:22817.got - 2010.06.03 14:20:14.
