data_PCOD9444953
_publ_section_title
;
Structure prediction by ZEFSAII (Michael W. Deem and Ramdas Pophale) SiO2 
 PCOD9444953
Probable space group: P N N M
;
_chemical_formula_sum "Si O2"
_cell_formula_units_Z 64
_cell_length_a 12.426560
_cell_length_b 9.588752
_cell_length_c 27.557943
_cell_angle_alpha 90.000000
_cell_angle_beta 90.000000
_cell_angle_gamma 90.000000
_cell_volume 3283.672266
_symmetry_space_group_name_H-M "P N N M"
_symmetry_group_IT_number 58
_symmetry_cell_setting 'orthorhombic'
loop_
_space_group_symop_operation_xyz
x,y,z
-x,-y,z
1/2+x,1/2-y,1/2-z
1/2-x,1/2+y,1/2-z
-x,-y,-z
x,y,-z
1/2-x,1/2+y,1/2+z
1/2+x,1/2-y,1/2+z
loop_
_atom_site_type_symbol
_atom_site_label
_atom_site_fract_x
_atom_site_fract_y
_atom_site_fract_z
Si Si1 0.018574 0.837821 0.056207
Si Si2 0.910474 0.082150 0.725919
Si Si3 0.298775 0.740702 0.401383
Si Si4 0.299897 0.543431 0.687945
Si Si5 0.230712 0.511040 0.155839
Si Si6 0.095127 0.604946 0.754460
Si Si7 0.126534 0.521608 0.558271
Si Si8 0.731962 0.701786 0.386045
O O1 0.115137 0.778954 0.088865
O O2 0.900959 0.773231 0.063591
O O3 0.051135 0.830678 0.000000
O O4 0.000000 0.000000 0.069369
O O5 0.936024 0.234959 0.745332
O O6 0.887429 0.980836 0.771135
O O7 0.805261 0.075970 0.692812
O O8 0.000000 0.000000 0.695948
O O9 0.328236 0.657746 0.351894
O O10 0.192453 0.657128 0.420773
O O11 0.290060 0.901331 0.386702
O O12 0.192319 0.580488 0.717007
O O13 0.283255 0.398215 0.660196
O O14 0.135484 0.568218 0.191049
O O15 0.277581 0.651408 0.132059
O O16 0.000000 0.500000 0.742423
O O17 0.131908 0.528857 0.500000
O O18 0.192641 0.388159 0.578159
O O19 0.000000 0.500000 0.572124
#
# Coordination Sequence:
#
# PCOD9444953 Si02
#       8
#     8   8   8   8   8   8   8   8
#     4  11  22  39  67 100 128 161 208 269 326 384
#     4  11  25  39  60  86 127 171 216 270 314 374
#     4  11  23  40  67  92 128 167 210 267 315 388
#     4  10  22  38  58  86 117 165 217 246 311 372
#     4  11  26  43  57  94 131 167 218 265 323 373
#     4  11  25  40  61  85 128 170 215 270 312 374
#     4  10  22  43  70  96 123 163 212 258 317 392
#     4  11  23  40  66  93 128 165 211 266 316 389
#
# _framework density 19.490373999999999
#
# number of rings (size 3 to 8) (size 9 to 14) (size 15 to 20)
#    0.000    1.250    5.000    0.750    7.000    3.000 
#    0.000    3.125    0.000    1.500    0.000    0.000 
#    0.000    0.000    0.000    0.000    0.000    0.000 
#
# Total GULP energy -356972.092737 kJ/mol
# GULP energy per Si atom -5577.688949 kJ/mol
# Density = 1.944601 g / cm^3
# Si number density = 19.490374 Si / 1000 Ang^3
#
#
#
# Elastic Constant Matrix: (Units=GPa)
#
#
# Indices 1 2 3 4 5 6 
#
# 1 85.3306 23.3955 10.6279 0.0000 0.0000 0.0000
# 2 23.3955 122.9765 10.7647 0.0000 0.0000 0.0000
# 3 10.6279 10.7647 48.6888 0.0000 0.0000 0.0000
# 4 0.0000 0.0000 0.0000 17.1500 0.0000 0.0000
# 5 0.0000 0.0000 0.0000 0.0000 -68.8144 0.0000
# 6 0.0000 0.0000 0.0000 0.0000 0.0000 17.0669
#
#
#
# Elastic Compliance Matrix: (Units=1/GPa)
#
#
# Indices 1 2 3 4 5 6 
#
# 1 0.012604 -0.002200 -0.002265 0.000000 0.000000 0.000000
# 2 -0.002200 0.008676 -0.001438 0.000000 0.000000 0.000000
# 3 -0.002265 -0.001438 0.021351 0.000000 0.000000 0.000000
# 4 0.000000 0.000000 0.000000 0.058309 0.000000 0.000000
# 5 0.000000 0.000000 0.000000 0.000000 -0.014532 0.000000
# 6 0.000000 0.000000 0.000000 0.000000 0.000000 0.058593
#
#
# Mechanical properties :
#
#
# Convention : Reuss Voigt Hill
#
# Bulk Modulus (GPa) = 32.44023 38.50801 35.47412
# Shear Modulus (GPa) = 29.92543 7.22769 18.57656
#
# Velocity S-wave (km/s) = 3.92266 1.92779 3.09060
# Velocity P-wave (km/s) = 6.09891 4.97549 5.56562
#
# Compressibility (1/GPa) = 0.03082592
#
# Stress axis : x y z
#
# Youngs Moduli (GPa) = 79.33794 115.26073 46.83634
#
# Poissons Ratio (x) = 0.25353 0.10608
# Poissons Ratio (y) = 0.17451 0.06735
# Poissons Ratio (z) = 0.17970 0.16575
#
# Static dielectric constant tensor:
#      x y z
#    x 1.766650 0.000000 0.000000 
#    y 0.000000 1.662400 0.000000 
#    z 0.000000 0.000000 1.682370 
# 
# From -- ./inp_files/34956.got.cif
#   From: 2010.05.17/outbox.cif.g08.bks.cpg/sg58_18_cif.got.tgz:34956.got - 2010.06.03 14:20:14.
