data_PCOD9444196
_publ_section_title
;
Structure prediction by ZEFSAII (Michael W. Deem and Ramdas Pophale) SiO2 
 PCOD9444196
Probable space group: P N N M
;
_chemical_formula_sum "Si O2"
_cell_formula_units_Z 32
_cell_length_a 21.353304
_cell_length_b 10.278575
_cell_length_c 7.871003
_cell_angle_alpha 90.000000
_cell_angle_beta 90.000000
_cell_angle_gamma 90.000000
_cell_volume 1727.539834
_symmetry_space_group_name_H-M "P N N M"
_symmetry_group_IT_number 58
_symmetry_cell_setting 'orthorhombic'
loop_
_space_group_symop_operation_xyz
x,y,z
-x,-y,z
1/2+x,1/2-y,1/2-z
1/2-x,1/2+y,1/2-z
-x,-y,-z
x,y,-z
1/2-x,1/2+y,1/2+z
1/2+x,1/2-y,1/2+z
loop_
_atom_site_type_symbol
_atom_site_label
_atom_site_fract_x
_atom_site_fract_y
_atom_site_fract_z
Si Si1 0.559583 0.905401 0.701184
Si Si2 0.691634 0.026038 0.701906
Si Si3 0.289409 0.680490 0.807675
Si Si4 0.961451 0.202733 0.500000
Si Si5 0.401885 0.577986 0.000000
O O1 0.564520 0.868383 0.500000
O O2 0.551508 0.786850 0.831186
O O3 0.500000 0.000000 0.717208
O O4 0.622135 0.983457 0.754286
O O5 0.693957 0.011937 0.500000
O O6 0.705403 0.176913 0.732414
O O7 0.742856 0.924608 0.774081
O O8 0.265944 0.705616 0.000000
O O9 0.357767 0.616896 0.840328
O O10 0.033861 0.157633 0.500000
O O11 0.919193 0.073203 0.500000
#
# Coordination Sequence:
#
# PCOD9444196 Si02
#       5
#     8   8   8   4   4
#     4  10  22  37  59  92 121 156 212 251 296 373
#     4  10  21  36  56  85 118 153 198 254 297 357
#     4   9  21  37  56  80 119 151 201 245 296 362
#     4  11  21  38  68  84 125 166 194 255 321 345
#     4   9  22  40  56  92 117 155 206 256 291 382
#
# _framework density 18.523451000000001
#
# number of rings (size 3 to 8) (size 9 to 14) (size 15 to 20)
#    0.750    1.500    0.000    1.875    5.250    1.000 
#    0.000    3.750    0.000    0.000    0.000    0.000 
#    0.000    0.000    0.000    0.000    0.000    0.000 
#
# Total GULP energy -178209.432380 kJ/mol
# GULP energy per Si atom -5569.044762 kJ/mol
# Density = 1.848129 g / cm^3
# Si number density = 18.523451 Si / 1000 Ang^3
#
#
#
# Elastic Constant Matrix: (Units=GPa)
#
#
# Indices 1 2 3 4 5 6 
#
# 1 146.1631 106.0051 24.3853 0.0000 0.0000 0.0000
# 2 106.0051 174.8269 44.9854 0.0000 0.0000 0.0000
# 3 24.3853 44.9854 43.5059 0.0000 0.0000 0.0000
# 4 0.0000 0.0000 0.0000 12.9152 0.0000 0.0000
# 5 0.0000 0.0000 0.0000 0.0000 4.1955 0.0000
# 6 0.0000 0.0000 0.0000 0.0000 0.0000 29.9054
#
#
#
# Elastic Compliance Matrix: (Units=1/GPa)
#
#
# Indices 1 2 3 4 5 6 
#
# 1 0.012251 -0.007714 0.001109 0.000000 0.000000 0.000000
# 2 -0.007714 0.012650 -0.008757 0.000000 0.000000 0.000000
# 3 0.001109 -0.008757 0.031418 0.000000 0.000000 0.000000
# 4 0.000000 0.000000 0.000000 0.077428 0.000000 0.000000
# 5 0.000000 0.000000 0.000000 0.000000 0.238353 0.000000
# 6 0.000000 0.000000 0.000000 0.000000 0.000000 0.033439
#
#
# Mechanical properties :
#
#
# Convention : Reuss Voigt Hill
#
# Bulk Modulus (GPa) = 39.06721 79.47196 59.26959
# Shear Modulus (GPa) = 11.24113 22.01122 16.62617
#
# Velocity S-wave (km/s) = 2.46612 3.45090 2.99920
# Velocity P-wave (km/s) = 5.40791 7.67299 6.63778
#
# Compressibility (1/GPa) = 0.02559691
#
# Stress axis : x y z
#
# Youngs Moduli (GPa) = 81.62590 79.04872 31.82848
#
# Poissons Ratio (x) = 0.60976 -0.03531
# Poissons Ratio (y) = 0.62964 0.27872
# Poissons Ratio (z) = -0.09055 0.69223
#
# Static dielectric constant tensor:
#      x y z
#    x 1.671750 0.000000 0.000000 
#    y 0.000000 1.620860 0.000000 
#    z 0.000000 0.000000 1.651710 
# 
# From -- ./inp_files/9575.got.cif
#   From: 2010.05.17/outbox.cif.g08.bks.cpg/sg58_5_cif.got.tgz:9575.got - 2010.06.03 14:20:14.
