data_PCOD9444066
_publ_section_title
;
Structure prediction by ZEFSAII (Michael W. Deem and Ramdas Pophale) SiO2 
 PCOD9444066
Probable space group: P N N M
;
_chemical_formula_sum "Si O2"
_cell_formula_units_Z 48
_cell_length_a 8.749000
_cell_length_b 14.709109
_cell_length_c 17.440449
_cell_angle_alpha 90.000000
_cell_angle_beta 90.000000
_cell_angle_gamma 90.000000
_cell_volume 2244.411288
_symmetry_space_group_name_H-M "P N N M"
_symmetry_group_IT_number 58
_symmetry_cell_setting 'orthorhombic'
loop_
_space_group_symop_operation_xyz
x,y,z
-x,-y,z
1/2+x,1/2-y,1/2-z
1/2-x,1/2+y,1/2-z
-x,-y,-z
x,y,-z
1/2-x,1/2+y,1/2+z
1/2+x,1/2-y,1/2+z
loop_
_atom_site_type_symbol
_atom_site_label
_atom_site_fract_x
_atom_site_fract_y
_atom_site_fract_z
Si Si1 0.224093 0.927588 0.123887
Si Si2 0.387120 0.585601 0.194096
Si Si3 0.147678 0.453740 0.786231
Si Si4 0.872674 0.883610 0.124518
Si Si5 0.188748 0.236236 0.414076
Si Si6 0.049407 0.309949 0.087078
O O1 0.246237 0.921287 0.216271
O O2 0.325241 0.845306 0.092823
O O3 0.047841 0.907617 0.102579
O O4 0.239116 0.033652 0.101368
O O5 0.500000 0.500000 0.184959
O O6 0.229204 0.537006 0.170927
O O7 0.373834 0.614446 0.282738
O O8 0.408495 0.675522 0.144309
O O9 0.104581 0.377480 0.846831
O O10 0.000000 0.500000 0.748563
O O11 0.851303 0.782633 0.094196
O O12 0.152103 0.207585 0.500000
O O13 0.370371 0.216358 0.400396
O O14 0.062933 0.345680 0.000000
#
# Coordination Sequence:
#
# PCOD9444066 Si02
#       6
#     8   8   8   8   8   8
#     4   9  18  35  57  83 107 142 188 233 278 332
#     4  11  20  37  58  79 113 149 188 231 273 336
#     4  11  20  35  57  83 109 144 187 232 278 323
#     4   9  17  35  58  81 109 142 189 231 278 333
#     4  10  21  35  54  82 114 148 184 229 285 340
#     4  10  21  34  53  84 116 146 183 232 286 337
#
# _framework density 21.386454000000001
#
# number of rings (size 3 to 8) (size 9 to 14) (size 15 to 20)
#    0.000    2.000    5.000    1.000    0.000    2.000 
#    0.000    3.333    0.000    0.500    0.000    0.000 
#    0.000    0.000    0.000    0.000    0.000    0.000 
#
# Total GULP energy -267431.383121 kJ/mol
# GULP energy per Si atom -5571.487148 kJ/mol
# Density = 2.133778 g / cm^3
# Si number density = 21.386454 Si / 1000 Ang^3
#
#
#
# Elastic Constant Matrix: (Units=GPa)
#
#
# Indices 1 2 3 4 5 6 
#
# 1 20.2337 8.5416 -0.8338 0.0000 0.0000 0.0000
# 2 8.5416 67.6307 25.2670 0.0000 0.0000 0.0000
# 3 -0.8338 25.2670 57.7182 0.0000 0.0000 0.0000
# 4 0.0000 0.0000 0.0000 -69.7055 0.0000 0.0000
# 5 0.0000 0.0000 0.0000 0.0000 13.7041 0.0000
# 6 0.0000 0.0000 0.0000 0.0000 0.0000 30.3329
#
#
#
# Elastic Compliance Matrix: (Units=1/GPa)
#
#
# Indices 1 2 3 4 5 6 
#
# 1 0.053137 -0.008366 0.004430 0.000000 0.000000 0.000000
# 2 -0.008366 0.018994 -0.008436 0.000000 0.000000 0.000000
# 3 0.004430 -0.008436 0.021083 0.000000 0.000000 0.000000
# 4 0.000000 0.000000 0.000000 -0.014346 0.000000 0.000000
# 5 0.000000 0.000000 0.000000 0.000000 0.072971 0.000000
# 6 0.000000 0.000000 0.000000 0.000000 0.000000 0.032968
#
#
# Mechanical properties :
#
#
# Convention : Reuss Voigt Hill
#
# Bulk Modulus (GPa) = 14.60503 23.50358 19.05430
# Shear Modulus (GPa) = 21.51710 2.37348 11.94529
#
# Velocity S-wave (km/s) = 3.17536 1.05462 2.36592
# Velocity P-wave (km/s) = 4.50420 3.53507 4.04874
#
# Compressibility (1/GPa) = 0.06846957
#
# Stress axis : x y z
#
# Youngs Moduli (GPa) = 18.81939 52.64683 47.43260
#
# Poissons Ratio (x) = 0.44045 -0.21013
# Poissons Ratio (y) = 0.15744 0.40014
# Poissons Ratio (z) = -0.08337 0.44413
#
# Static dielectric constant tensor:
#      x y z
#    x 1.883330 0.000000 0.000000 
#    y 0.000000 1.815600 0.000000 
#    z 0.000000 0.000000 1.749750 
# 
# From -- ./inp_files/25261.got.cif
#   From: 2010.05.17/outbox.cif.g08.bks.cpg/sg58_13_cif.got.tgz:25261.got - 2010.06.03 14:20:14.
