data_PCOD9444167
_publ_section_title
;
Structure prediction by ZEFSAII (Michael W. Deem and Ramdas Pophale) SiO2 
 PCOD9444167
Probable space group: P N N M
;
_chemical_formula_sum "Si O2"
_cell_formula_units_Z 58
_cell_length_a 28.989509
_cell_length_b 12.056883
_cell_length_c 7.481637
_cell_angle_alpha 90.000000
_cell_angle_beta 90.000000
_cell_angle_gamma 90.000000
_cell_volume 2615.005094
_symmetry_space_group_name_H-M "P N N M"
_symmetry_group_IT_number 58
_symmetry_cell_setting 'orthorhombic'
loop_
_space_group_symop_operation_xyz
x,y,z
-x,-y,z
1/2+x,1/2-y,1/2-z
1/2-x,1/2+y,1/2-z
-x,-y,-z
x,y,-z
1/2-x,1/2+y,1/2+z
1/2+x,1/2-y,1/2+z
loop_
_atom_site_type_symbol
_atom_site_label
_atom_site_fract_x
_atom_site_fract_y
_atom_site_fract_z
Si Si1 0.787582 0.919939 0.718052
Si Si2 0.998829 0.337027 0.793091
Si Si3 0.067348 0.158477 0.715669
Si Si4 0.122171 0.947693 0.716236
Si Si5 0.895888 0.306889 0.209439
Si Si6 0.815074 0.458653 0.791881
Si Si7 0.000000 0.500000 0.500000
Si Si8 0.157641 0.293518 0.284574
O O1 0.787916 0.924461 0.500000
O O2 0.736525 0.947940 0.783396
O O3 0.803734 0.796459 0.769184
O O4 0.828234 0.003641 0.775087
O O5 0.946562 0.333481 0.717402
O O6 0.023230 0.421135 0.658541
O O7 0.020730 0.214691 0.780831
O O8 0.000775 0.370461 0.000000
O O9 0.065745 0.156257 0.500000
O O10 0.108872 0.241024 0.771322
O O11 0.083106 0.036073 0.774275
O O12 0.122038 0.947818 0.500000
O O13 0.113867 0.823186 0.775645
O O14 0.854039 0.378307 0.287684
O O15 0.899490 0.335384 0.000000
O O16 0.832137 0.584495 0.782603
O O17 0.810665 0.425912 0.000000
O O18 0.157453 0.297741 0.500000
#
# Coordination Sequence:
#
# PCOD9444167 Si02
#       8
#     8   8   8   8   8   8   2   8
#     4   8  17  36  57  82 111 153 197 244 304 363
#     4  11  25  42  64  95 128 166 214 261 318 371
#     4   9  19  39  62  89 118 159 207 258 312 369
#     4   9  19  37  64  87 117 157 207 258 306 370
#     4  10  24  40  55  88 126 160 197 251 317 375
#     4  10  21  36  55  78 118 157 192 244 308 368
#     4  12  26  44  68  88 128 172 210 260 306 386
#     4   9  19  35  58  83 111 146 197 248 297 361
#
# _framework density 22.179690000000001
#
# number of rings (size 3 to 8) (size 9 to 14) (size 15 to 20)
#    0.000    2.483    0.690    1.862    4.828    2.207 
#    0.000    5.517    0.000    0.000    0.000    0.000 
#    0.000    0.000    0.000    0.000    0.000    0.000 
#
# Total GULP energy -323432.803927 kJ/mol
# GULP energy per Si atom -5576.427654 kJ/mol
# Density = 2.212921 g / cm^3
# Si number density = 22.179690 Si / 1000 Ang^3
#
#
#
# Elastic Constant Matrix: (Units=GPa)
#
#
# Indices 1 2 3 4 5 6 
#
# 1 74.0281 35.1258 2.5208 0.0000 0.0000 0.0000
# 2 35.1258 111.1293 -9.2466 0.0000 0.0000 0.0000
# 3 2.5208 -9.2466 87.3167 0.0000 0.0000 0.0000
# 4 0.0000 0.0000 0.0000 22.1345 0.0000 0.0000
# 5 0.0000 0.0000 0.0000 0.0000 8.9753 0.0000
# 6 0.0000 0.0000 0.0000 0.0000 0.0000 17.6329
#
#
#
# Elastic Compliance Matrix: (Units=1/GPa)
#
#
# Indices 1 2 3 4 5 6 
#
# 1 0.015979 -0.005134 -0.001005 0.000000 0.000000 0.000000
# 2 -0.005134 0.010728 0.001284 0.000000 0.000000 0.000000
# 3 -0.001005 0.001284 0.011618 0.000000 0.000000 0.000000
# 4 0.000000 0.000000 0.000000 0.045178 0.000000 0.000000
# 5 0.000000 0.000000 0.000000 0.000000 0.111417 0.000000
# 6 0.000000 0.000000 0.000000 0.000000 0.000000 0.056712
#
#
# Mechanical properties :
#
#
# Convention : Reuss Voigt Hill
#
# Bulk Modulus (GPa) = 34.94698 36.58601 35.76650
# Shear Modulus (GPa) = 18.45834 26.02015 22.23925
#
# Velocity S-wave (km/s) = 2.88795 3.42885 3.16996
# Velocity P-wave (km/s) = 5.18757 5.67513 5.43681
#
# Compressibility (1/GPa) = 0.02861477
#
# Stress axis : x y z
#
# Youngs Moduli (GPa) = 62.58317 93.21231 86.07648
#
# Poissons Ratio (x) = 0.47857 0.08651
# Poissons Ratio (y) = 0.32131 -0.11055
# Poissons Ratio (z) = 0.06290 -0.11971
#
# Static dielectric constant tensor:
#      x y z
#    x 1.855290 0.000000 0.000000 
#    y 0.000000 1.806440 0.000000 
#    z 0.000000 0.000000 1.872070 
# 
# From -- ./inp_files/10874.got.cif
#   From: 2010.05.17/outbox.cif.g08.bks.cpg/sg58_6_cif.got.tgz:10874.got - 2010.06.03 14:20:14.
