data_PCOD9444303
_publ_section_title
;
Structure prediction by ZEFSAII (Michael W. Deem and Ramdas Pophale) SiO2 
 PCOD9444303
Probable space group: P N N M
;
_chemical_formula_sum "Si O2"
_cell_formula_units_Z 40
_cell_length_a 18.037631
_cell_length_b 9.821169
_cell_length_c 10.918380
_cell_angle_alpha 90.000000
_cell_angle_beta 90.000000
_cell_angle_gamma 90.000000
_cell_volume 1934.197813
_symmetry_space_group_name_H-M "P N N M"
_symmetry_group_IT_number 58
_symmetry_cell_setting 'orthorhombic'
loop_
_space_group_symop_operation_xyz
x,y,z
-x,-y,z
1/2+x,1/2-y,1/2-z
1/2-x,1/2+y,1/2-z
-x,-y,-z
x,y,-z
1/2-x,1/2+y,1/2+z
1/2+x,1/2-y,1/2+z
loop_
_atom_site_type_symbol
_atom_site_label
_atom_site_fract_x
_atom_site_fract_y
_atom_site_fract_z
Si Si1 0.783198 0.323253 0.142469
Si Si2 0.583623 0.015733 0.358559
Si Si3 0.871961 0.804319 0.773045
Si Si4 0.507712 0.662868 0.130423
Si Si5 0.099024 0.894435 0.863537
O O1 0.848261 0.424114 0.189587
O O2 0.711257 0.322457 0.226419
O O3 0.820329 0.174048 0.140733
O O4 0.765236 0.359875 0.000000
O O5 0.576807 0.970781 0.500000
O O6 0.611449 0.170846 0.351577
O O7 0.500000 0.000000 0.304965
O O8 0.925607 0.784025 0.655872
O O9 0.896649 0.944921 0.837550
O O10 0.500000 0.500000 0.121084
O O11 0.553776 0.678679 0.255096
O O12 0.538425 0.713029 0.000000
O O13 0.068201 0.869702 0.000000
#
# Coordination Sequence:
#
# PCOD9444303 Si02
#       5
#     8   8   8   8   8
#     4  10  21  37  56  82 118 157 193 235 293 356
#     4  10  21  37  58  85 118 155 195 242 301 363
#     4  11  20  34  58  84 114 148 193 242 292 346
#     4   9  19  34  54  80 110 146 186 229 284 346
#     4  10  21  37  59  85 112 146 194 246 288 337
#
# _framework density 20.680406999999999
#
# number of rings (size 3 to 8) (size 9 to 14) (size 15 to 20)
#    0.000    2.000    0.000    3.600    0.000    6.800 
#    0.000    2.000    0.000   13.200    0.000    0.000 
#    0.000    0.000    0.000    0.000    0.000    0.000 
#
# Total GULP energy -222964.075768 kJ/mol
# GULP energy per Si atom -5574.101894 kJ/mol
# Density = 2.063334 g / cm^3
# Si number density = 20.680407 Si / 1000 Ang^3
#
#
#
# Elastic Constant Matrix: (Units=GPa)
#
#
# Indices 1 2 3 4 5 6 
#
# 1 137.5250 26.6136 52.3182 0.0000 0.0000 0.0000
# 2 26.6136 92.6228 7.7323 0.0000 0.0000 0.0000
# 3 52.3182 7.7323 122.2495 0.0000 0.0000 0.0000
# 4 0.0000 0.0000 0.0000 16.8872 0.0000 0.0000
# 5 0.0000 0.0000 0.0000 0.0000 24.7932 0.0000
# 6 0.0000 0.0000 0.0000 0.0000 0.0000 27.3222
#
#
#
# Elastic Compliance Matrix: (Units=1/GPa)
#
#
# Indices 1 2 3 4 5 6 
#
# 1 0.009154 -0.002315 -0.003771 0.000000 0.000000 0.000000
# 2 -0.002315 0.011439 0.000267 0.000000 0.000000 0.000000
# 3 -0.003771 0.000267 0.009777 0.000000 0.000000 0.000000
# 4 0.000000 0.000000 0.000000 0.059217 0.000000 0.000000
# 5 0.000000 0.000000 0.000000 0.000000 0.040334 0.000000
# 6 0.000000 0.000000 0.000000 0.000000 0.000000 0.036600
#
#
# Mechanical properties :
#
#
# Convention : Reuss Voigt Hill
#
# Bulk Modulus (GPa) = 53.38431 58.41395 55.89913
# Shear Modulus (GPa) = 27.11443 31.51606 29.31525
#
# Velocity S-wave (km/s) = 3.62486 3.90803 3.76910
# Velocity P-wave (km/s) = 6.58707 6.97645 6.78456
#
# Compressibility (1/GPa) = 0.01873209
#
# Stress axis : x y z
#
# Youngs Moduli (GPa) = 109.24015 87.41670 102.28080
#
# Poissons Ratio (x) = 0.20241 0.38572
# Poissons Ratio (y) = 0.25294 -0.02735
# Poissons Ratio (z) = 0.41196 -0.02337
#
# Static dielectric constant tensor:
#      x y z
#    x 1.768620 0.000000 0.000000 
#    y 0.000000 1.741580 0.000000 
#    z 0.000000 0.000000 1.777150 
# 
# From -- ./inp_files/12694.got.cif
#   From: 2010.05.17/outbox.cif.g08.bks.cpg/sg58_7_cif.got.tgz:12694.got - 2010.06.03 14:20:14.
