data_PCOD9444962
_publ_section_title
;
Structure prediction by ZEFSAII (Michael W. Deem and Ramdas Pophale) SiO2 
 PCOD9444962
Probable space group: P N N M
;
_chemical_formula_sum "Si O2"
_cell_formula_units_Z 52
_cell_length_a 12.720237
_cell_length_b 27.951313
_cell_length_c 7.415602
_cell_angle_alpha 90.000000
_cell_angle_beta 90.000000
_cell_angle_gamma 90.000000
_cell_volume 2636.597460
_symmetry_space_group_name_H-M "P N N M"
_symmetry_group_IT_number 58
_symmetry_cell_setting 'orthorhombic'
loop_
_space_group_symop_operation_xyz
x,y,z
-x,-y,z
1/2+x,1/2-y,1/2-z
1/2-x,1/2+y,1/2-z
-x,-y,-z
x,y,-z
1/2-x,1/2+y,1/2+z
1/2+x,1/2-y,1/2+z
loop_
_atom_site_type_symbol
_atom_site_label
_atom_site_fract_x
_atom_site_fract_y
_atom_site_fract_z
Si Si1 0.115314 0.976644 0.000000
Si Si2 0.278989 0.652953 0.781360
Si Si3 0.653937 0.605913 0.216716
Si Si4 0.397357 0.878048 0.284540
Si Si5 0.060901 0.700937 0.786040
Si Si6 0.005750 0.556542 0.500000
Si Si7 0.001496 0.809148 0.285691
Si Si8 0.253064 0.572722 0.500000
O O1 0.131867 0.942173 0.827635
O O2 0.000000 0.000000 0.000000
O O3 0.197654 0.020192 0.000000
O O4 0.171354 0.679019 0.721883
O O5 0.381083 0.683775 0.727975
O O6 0.286942 0.602971 0.676064
O O7 0.277629 0.646812 0.000000
O O8 0.773274 0.623171 0.251389
O O9 0.574602 0.647569 0.279606
O O10 0.643074 0.598617 0.000000
O O11 0.410740 0.884224 0.500000
O O12 0.461753 0.830854 0.224363
O O13 0.448506 0.921166 0.173736
O O14 0.045728 0.756730 0.751382
O O15 0.063910 0.695294 0.000000
O O16 0.000000 0.500000 0.500000
O O17 0.127331 0.570857 0.500000
O O18 0.000825 0.814240 0.500000
#
# Coordination Sequence:
#
# PCOD9444962 Si02
#       8
#     4   8   8   8   8   4   8   4
#     4  12  26  44  70 100 128 171 229 270 335 382
#     4  10  23  43  60  92 133 162 215 270 319 388
#     4  10  23  44  65  94 134 171 214 268 324 390
#     4  10  22  42  62  89 130 167 208 263 317 389
#     4  10  22  38  60  91 124 171 212 257 327 380
#     4  12  24  40  64  96 124 165 218 266 325 378
#     4  10  23  39  63  93 127 170 214 264 321 389
#     4  12  24  40  70  92 124 176 213 277 329 378
#
# _framework density 19.722387000000001
#
# number of rings (size 3 to 8) (size 9 to 14) (size 15 to 20)
#    0.000    1.538    1.538    2.308    6.462    1.231 
#    0.000    0.000    0.000    0.000    0.000    0.000 
#    0.000    0.000    0.000    0.000    0.000    0.000 
#
# Total GULP energy -290490.457319 kJ/mol
# GULP energy per Si atom -5586.354948 kJ/mol
# Density = 1.967750 g / cm^3
# Si number density = 19.722387 Si / 1000 Ang^3
#
#
#
# Elastic Constant Matrix: (Units=GPa)
#
#
# Indices 1 2 3 4 5 6 
#
# 1 153.1656 74.7589 43.0169 0.0000 0.0000 0.0000
# 2 74.7589 161.1159 39.4334 0.0000 0.0000 0.0000
# 3 43.0169 39.4334 78.1813 0.0000 0.0000 0.0000
# 4 0.0000 0.0000 0.0000 38.8780 0.0000 0.0000
# 5 0.0000 0.0000 0.0000 0.0000 12.3405 0.0000
# 6 0.0000 0.0000 0.0000 0.0000 0.0000 37.6269
#
#
#
# Elastic Compliance Matrix: (Units=1/GPa)
#
#
# Indices 1 2 3 4 5 6 
#
# 1 0.009127 -0.003429 -0.003292 0.000000 0.000000 0.000000
# 2 -0.003429 0.008369 -0.002334 0.000000 0.000000 0.000000
# 3 -0.003292 -0.002334 0.015780 0.000000 0.000000 0.000000
# 4 0.000000 0.000000 0.000000 0.025721 0.000000 0.000000
# 5 0.000000 0.000000 0.000000 0.000000 0.081034 0.000000
# 6 0.000000 0.000000 0.000000 0.000000 0.000000 0.026577
#
#
# Mechanical properties :
#
#
# Convention : Reuss Voigt Hill
#
# Bulk Modulus (GPa) = 65.94509 78.54237 72.24373
# Shear Modulus (GPa) = 26.34690 33.45266 29.89978
#
# Velocity S-wave (km/s) = 3.65895 4.12293 3.89785
# Velocity P-wave (km/s) = 7.16657 7.91045 7.54768
#
# Compressibility (1/GPa) = 0.01516413
#
# Stress axis : x y z
#
# Youngs Moduli (GPa) = 109.56030 119.48397 63.37234
#
# Poissons Ratio (x) = 0.40975 0.20864
# Poissons Ratio (y) = 0.37572 0.14794
# Poissons Ratio (z) = 0.36071 0.27893
#
# Static dielectric constant tensor:
#      x y z
#    x 1.713890 0.000000 0.000000 
#    y 0.000000 1.663470 0.000000 
#    z 0.000000 0.000000 1.718410 
# 
# From -- ./inp_files/4404.got.cif
#   From: 2010.05.17/outbox.cif.g08.bks.cpg/sg58_3_cif.got.tgz:4404.got - 2010.06.03 14:20:14.
