data_PCOD9444397
_publ_section_title
;
Structure prediction by ZEFSAII (Michael W. Deem and Ramdas Pophale) SiO2 
 PCOD9444397
Probable space group: P N N M
;
_chemical_formula_sum "Si O2"
_cell_formula_units_Z 52
_cell_length_a 19.685272
_cell_length_b 8.388559
_cell_length_c 15.463635
_cell_angle_alpha 90.000000
_cell_angle_beta 90.000000
_cell_angle_gamma 90.000000
_cell_volume 2553.526526
_symmetry_space_group_name_H-M "P N N M"
_symmetry_group_IT_number 58
_symmetry_cell_setting 'orthorhombic'
loop_
_space_group_symop_operation_xyz
x,y,z
-x,-y,z
1/2+x,1/2-y,1/2-z
1/2-x,1/2+y,1/2-z
-x,-y,-z
x,y,-z
1/2-x,1/2+y,1/2+z
1/2+x,1/2-y,1/2+z
loop_
_atom_site_type_symbol
_atom_site_label
_atom_site_fract_x
_atom_site_fract_y
_atom_site_fract_z
Si Si1 0.920663 0.474726 0.298333
Si Si2 0.387293 0.706835 0.304973
Si Si3 0.927986 0.701436 0.000000
Si Si4 0.894099 0.191531 0.398904
Si Si5 0.912571 0.316238 0.000000
Si Si6 0.500000 0.500000 0.788525
Si Si7 0.785027 0.023968 0.278874
Si Si8 0.332567 0.193359 0.669854
O O1 0.894788 0.638562 0.256823
O O2 0.888825 0.382283 0.380143
O O3 0.899510 0.344911 0.226345
O O4 0.000000 0.500000 0.311543
O O5 0.396560 0.741325 0.407571
O O6 0.446521 0.588720 0.272473
O O7 0.318903 0.618908 0.275936
O O8 0.919391 0.509301 0.000000
O O9 0.009148 0.741541 0.000000
O O10 0.897065 0.162063 0.500000
O O11 0.961187 0.124079 0.351128
O O12 0.833152 0.092302 0.354848
O O13 0.866175 0.266700 0.079973
O O14 0.787722 0.166068 0.209574
O O15 0.715917 0.960910 0.321417
#
# Coordination Sequence:
#
# PCOD9444397 Si02
#       8
#     8   8   4   8   4   4   8   8
#     4  11  20  38  65  91 128 164 210 260 327 385
#     4  11  22  40  63  97 132 172 216 262 333 393
#     4  11  24  38  69 104 139 172 215 272 341 399
#     4  10  22  39  63  94 124 164 218 270 315 380
#     4  11  24  37  68 105 136 168 219 279 328 407
#     4  10  21  37  60  90 130 172 204 269 323 384
#     4  10  25  43  68  89 127 178 218 266 331 391
#     4  11  23  43  66  91 128 173 218 267 327 401
#
# _framework density 20.363994999999999
#
# number of rings (size 3 to 8) (size 9 to 14) (size 15 to 20)
#    0.000    1.385    3.077    2.077    5.385    1.231 
#    0.000    0.769   13.538    0.000    0.000    0.000 
#    0.000    0.000    0.000    0.000    0.000    0.000 
#
# Total GULP energy -289880.252589 kJ/mol
# GULP energy per Si atom -5574.620242 kJ/mol
# Density = 2.031765 g / cm^3
# Si number density = 20.363995 Si / 1000 Ang^3
#
#
#
# Elastic Constant Matrix: (Units=GPa)
#
#
# Indices 1 2 3 4 5 6 
#
# 1 63.4381 10.3765 29.7499 0.0000 0.0000 0.0000
# 2 10.3765 82.9617 21.2106 0.0000 0.0000 0.0000
# 3 29.7499 21.2106 102.6816 0.0000 0.0000 0.0000
# 4 0.0000 0.0000 0.0000 16.9802 0.0000 0.0000
# 5 0.0000 0.0000 0.0000 0.0000 -42.4287 0.0000
# 6 0.0000 0.0000 0.0000 0.0000 0.0000 33.3616
#
#
#
# Elastic Compliance Matrix: (Units=1/GPa)
#
#
# Indices 1 2 3 4 5 6 
#
# 1 0.018318 -0.000986 -0.005104 0.000000 0.000000 0.000000
# 2 -0.000986 0.012779 -0.002354 0.000000 0.000000 0.000000
# 3 -0.005104 -0.002354 0.011704 0.000000 0.000000 0.000000
# 4 0.000000 0.000000 0.000000 0.058892 0.000000 0.000000
# 5 0.000000 0.000000 0.000000 0.000000 -0.023569 0.000000
# 6 0.000000 0.000000 0.000000 0.000000 0.000000 0.029975
#
#
# Mechanical properties :
#
#
# Convention : Reuss Voigt Hill
#
# Bulk Modulus (GPa) = 38.59047 41.30615 39.94831
# Shear Modulus (GPa) = 37.41844 14.09891 25.75868
#
# Velocity S-wave (km/s) = 4.29123 2.63410 3.56042
# Velocity P-wave (km/s) = 6.59882 5.43868 6.04664
#
# Compressibility (1/GPa) = 0.02591313
#
# Stress axis : x y z
#
# Youngs Moduli (GPa) = 54.59084 78.25370 85.44282
#
# Poissons Ratio (x) = 0.07719 0.43606
# Poissons Ratio (y) = 0.05385 0.20113
# Poissons Ratio (z) = 0.27861 0.18420
#
# Static dielectric constant tensor:
#      x y z
#    x 1.739570 0.000000 0.000000 
#    y 0.000000 1.826510 0.000000 
#    z 0.000000 0.000000 1.763530 
# 
# From -- ./inp_files/23224.got.cif
#   From: 2010.05.17/outbox.cif.g08.bks.cpg/sg58_12_cif.got.tgz:23224.got - 2010.06.03 14:20:14.
