data_PCOD9444650
_publ_section_title
;
Structure prediction by ZEFSAII (Michael W. Deem and Ramdas Pophale) SiO2 
 PCOD9444650
Probable space group: P N N M
;
_chemical_formula_sum "Si O2"
_cell_formula_units_Z 40
_cell_length_a 9.979702
_cell_length_b 7.795026
_cell_length_c 22.608507
_cell_angle_alpha 90.000000
_cell_angle_beta 90.000000
_cell_angle_gamma 90.000000
_cell_volume 1758.761803
_symmetry_space_group_name_H-M "P N N M"
_symmetry_group_IT_number 58
_symmetry_cell_setting 'orthorhombic'
loop_
_space_group_symop_operation_xyz
x,y,z
-x,-y,z
1/2+x,1/2-y,1/2-z
1/2-x,1/2+y,1/2-z
-x,-y,-z
x,y,-z
1/2-x,1/2+y,1/2+z
1/2+x,1/2-y,1/2+z
loop_
_atom_site_type_symbol
_atom_site_label
_atom_site_fract_x
_atom_site_fract_y
_atom_site_fract_z
Si Si1 0.402721 0.342563 0.358213
Si Si2 0.856334 0.969954 0.736777
Si Si3 0.654371 0.286186 0.932209
Si Si4 0.655269 0.173882 0.329436
Si Si5 0.349667 0.296992 0.931658
O O1 0.500000 0.500000 0.379536
O O2 0.361595 0.399359 0.292184
O O3 0.271505 0.299797 0.394908
O O4 0.505965 0.183861 0.354582
O O5 0.734150 0.007756 0.693650
O O6 0.850580 0.790851 0.770516
O O7 0.000000 0.000000 0.705305
O O8 0.501098 0.242932 0.915851
O O9 0.660580 0.494407 0.931572
O O10 0.672514 0.232692 0.000000
O O11 0.748826 0.257911 0.380184
O O12 0.321659 0.243733 0.000000
#
# Coordination Sequence:
#
# PCOD9444650 Si02
#       5
#     8   8   8   8   8
#     4   9  21  40  57  85 124 157 201 249 305 366
#     4   9  22  40  56  88 123 158 199 244 298 354
#     4   9  19  37  61  87 120 160 199 250 307 361
#     4  10  21  39  63  88 120 160 199 250 297 358
#     4   9  20  37  61  89 116 157 205 248 301 362
#
# _framework density 22.743275000000001
#
# number of rings (size 3 to 8) (size 9 to 14) (size 15 to 20)
#    0.000    3.200    0.000    1.200    5.600    3.600 
#    3.600   17.000    0.000   10.200    0.000    0.000 
#    0.000    0.000    0.000    0.000    0.000    0.000 
#
# Total GULP energy -223226.515178 kJ/mol
# GULP energy per Si atom -5580.662879 kJ/mol
# Density = 2.269151 g / cm^3
# Si number density = 22.743275 Si / 1000 Ang^3
#
#
#
# Elastic Constant Matrix: (Units=GPa)
#
#
# Indices 1 2 3 4 5 6 
#
# 1 144.4802 10.1115 51.5458 0.0000 0.0000 0.0000
# 2 10.1115 45.2867 -2.3360 0.0000 0.0000 0.0000
# 3 51.5458 -2.3360 69.1833 0.0000 0.0000 0.0000
# 4 0.0000 0.0000 0.0000 -12.2571 0.0000 0.0000
# 5 0.0000 0.0000 0.0000 0.0000 29.8557 0.0000
# 6 0.0000 0.0000 0.0000 0.0000 0.0000 37.8242
#
#
#
# Elastic Compliance Matrix: (Units=1/GPa)
#
#
# Indices 1 2 3 4 5 6 
#
# 1 0.009712 -0.002546 -0.007322 0.000000 0.000000 0.000000
# 2 -0.002546 0.022788 0.002666 0.000000 0.000000 0.000000
# 3 -0.007322 0.002666 0.020000 0.000000 0.000000 0.000000
# 4 0.000000 0.000000 0.000000 -0.081585 0.000000 0.000000
# 5 0.000000 0.000000 0.000000 0.000000 0.033494 0.000000
# 6 0.000000 0.000000 0.000000 0.000000 0.000000 0.026438
#
#
# Mechanical properties :
#
#
# Convention : Reuss Voigt Hill
#
# Bulk Modulus (GPa) = 26.24951 41.95475 34.10213
# Shear Modulus (GPa) = 86.28449 24.39316 55.33882
#
# Velocity S-wave (km/s) = 6.16610 3.27852 4.93809
# Velocity P-wave (km/s) = 7.89057 5.72877 6.89492
#
# Compressibility (1/GPa) = 0.03809595
#
# Stress axis : x y z
#
# Youngs Moduli (GPa) = 102.96832 43.88357 50.00106
#
# Poissons Ratio (x) = 0.11173 0.36610
# Poissons Ratio (y) = 0.26217 -0.13332
# Poissons Ratio (z) = 0.75391 -0.11701
#
# Static dielectric constant tensor:
#      x y z
#    x 1.850330 0.000000 0.000000 
#    y 0.000000 1.976930 0.000000 
#    z 0.000000 0.000000 1.813790 
# 
# From -- ./inp_files/31280.got.cif
#   From: 2010.05.17/outbox.cif.g08.bks.cpg/sg58_16_cif.got.tgz:31280.got - 2010.06.03 14:20:14.
