data_PCOD9444107
_publ_section_title
;
Structure prediction by ZEFSAII (Michael W. Deem and Ramdas Pophale) SiO2 
 PCOD9444107
Probable space group: P N N M
;
_chemical_formula_sum "Si O2"
_cell_formula_units_Z 64
_cell_length_a 18.131053
_cell_length_b 9.608312
_cell_length_c 21.578158
_cell_angle_alpha 90.000000
_cell_angle_beta 90.000000
_cell_angle_gamma 90.000000
_cell_volume 3759.105316
_symmetry_space_group_name_H-M "P N N M"
_symmetry_group_IT_number 58
_symmetry_cell_setting 'orthorhombic'
loop_
_space_group_symop_operation_xyz
x,y,z
-x,-y,z
1/2+x,1/2-y,1/2-z
1/2-x,1/2+y,1/2-z
-x,-y,-z
x,y,-z
1/2-x,1/2+y,1/2+z
1/2+x,1/2-y,1/2+z
loop_
_atom_site_type_symbol
_atom_site_label
_atom_site_fract_x
_atom_site_fract_y
_atom_site_fract_z
Si Si1 0.292557 0.812829 0.219898
Si Si2 0.934285 0.600855 0.875803
Si Si3 0.662523 0.645643 0.630922
Si Si4 0.456996 0.869309 0.228946
Si Si5 0.073287 0.093938 0.071129
Si Si6 0.939744 0.116938 0.246647
Si Si7 0.705769 0.501275 0.810038
Si Si8 0.295687 0.064188 0.427152
O O1 0.239156 0.870179 0.166773
O O2 0.376810 0.839280 0.202347
O O3 0.282654 0.646713 0.224333
O O4 0.264043 0.889157 0.281639
O O5 0.938488 0.598420 0.801256
O O6 0.940561 0.761993 0.894113
O O7 0.859906 0.539811 0.904841
O O8 0.000000 0.500000 0.898599
O O9 0.636812 0.504573 0.598469
O O10 0.602495 0.671835 0.685466
O O11 0.672929 0.780527 0.587884
O O12 0.512208 0.740281 0.225217
O O13 0.500000 0.000000 0.201976
O O14 0.089586 0.127570 0.000000
O O15 0.000000 0.000000 0.073456
O O16 0.875730 0.056233 0.291640
O O17 0.000000 0.000000 0.229495
O O18 0.726815 0.468537 0.881253
O O19 0.280184 0.050788 0.500000
#
# Coordination Sequence:
#
# PCOD9444107 Si02
#       8
#     8   8   8   8   8   8   8   8
#     4  10  21  35  55  81 111 143 174 234 282 341
#     4  11  22  35  52  78 111 144 184 228 270 327
#     4  10  21  35  55  81 110 142 187 222 282 328
#     4  11  21  34  54  81 112 140 177 217 287 341
#     4  11  22  35  51  73 105 147 190 220 254 318
#     4  11  20  35  58  81 111 145 176 235 287 337
#     4  10  22  37  54  84 113 145 191 228 284 334
#     4  11  22  38  56  77 114 157 190 228 271 325
#
# _framework density 17.025328999999999
#
# number of rings (size 3 to 8) (size 9 to 14) (size 15 to 20)
#    0.000    1.375    2.500    4.875    5.250    2.000 
#    0.000    0.000    0.000    0.375    0.000    0.000 
#    0.000   13.000    0.000    0.000    0.000    0.000 
#
# Total GULP energy -357154.519176 kJ/mol
# GULP energy per Si atom -5580.539362 kJ/mol
# Density = 1.698658 g / cm^3
# Si number density = 17.025329 Si / 1000 Ang^3
#
#
#
# Elastic Constant Matrix: (Units=GPa)
#
#
# Indices 1 2 3 4 5 6 
#
# 1 102.7532 22.8195 32.6366 0.0000 0.0000 0.0000
# 2 22.8195 72.0084 22.5359 0.0000 0.0000 0.0000
# 3 32.6366 22.5359 61.1335 0.0000 0.0000 0.0000
# 4 0.0000 0.0000 0.0000 8.9087 0.0000 0.0000
# 5 0.0000 0.0000 0.0000 0.0000 5.2465 0.0000
# 6 0.0000 0.0000 0.0000 0.0000 0.0000 29.3936
#
#
#
# Elastic Compliance Matrix: (Units=1/GPa)
#
#
# Indices 1 2 3 4 5 6 
#
# 1 0.011976 -0.002028 -0.005646 0.000000 0.000000 0.000000
# 2 -0.002028 0.016042 -0.004831 0.000000 0.000000 0.000000
# 3 -0.005646 -0.004831 0.021152 0.000000 0.000000 0.000000
# 4 0.000000 0.000000 0.000000 0.112250 0.000000 0.000000
# 5 0.000000 0.000000 0.000000 0.000000 0.190602 0.000000
# 6 0.000000 0.000000 0.000000 0.000000 0.000000 0.034021
#
#
# Mechanical properties :
#
#
# Convention : Reuss Voigt Hill
#
# Bulk Modulus (GPa) = 41.38964 43.54211 42.46588
# Shear Modulus (GPa) = 11.93016 19.23663 15.58339
#
# Velocity S-wave (km/s) = 2.65000 3.36502 3.02869
# Velocity P-wave (km/s) = 5.80747 6.38187 6.10143
#
# Compressibility (1/GPa) = 0.02416063
#
# Stress axis : x y z
#
# Youngs Moduli (GPa) = 83.50271 62.33686 47.27598
#
# Poissons Ratio (x) = 0.12643 0.26690
# Poissons Ratio (y) = 0.16936 0.22838
# Poissons Ratio (z) = 0.47142 0.30114
#
# Static dielectric constant tensor:
#      x y z
#    x 1.586350 0.000000 0.000000 
#    y 0.000000 1.612000 0.000000 
#    z 0.000000 0.000000 1.577730 
# 
# From -- ./inp_files/30295.got.cif
#   From: 2010.05.17/outbox.cif.g08.bks.cpg/sg58_16_cif.got.tgz:30295.got - 2010.06.03 14:20:14.
