data_PCOD9444785
_publ_section_title
;
Structure prediction by ZEFSAII (Michael W. Deem and Ramdas Pophale) SiO2 
 PCOD9444785
Probable space group: P N N M
;
_chemical_formula_sum "Si O2"
_cell_formula_units_Z 64
_cell_length_a 15.792284
_cell_length_b 24.605006
_cell_length_c 8.717405
_cell_angle_alpha 90.000000
_cell_angle_beta 90.000000
_cell_angle_gamma 90.000000
_cell_volume 3387.315458
_symmetry_space_group_name_H-M "P N N M"
_symmetry_group_IT_number 58
_symmetry_cell_setting 'orthorhombic'
loop_
_space_group_symop_operation_xyz
x,y,z
-x,-y,z
1/2+x,1/2-y,1/2-z
1/2-x,1/2+y,1/2-z
-x,-y,-z
x,y,-z
1/2-x,1/2+y,1/2+z
1/2+x,1/2-y,1/2+z
loop_
_atom_site_type_symbol
_atom_site_label
_atom_site_fract_x
_atom_site_fract_y
_atom_site_fract_z
Si Si1 0.959644 0.108381 0.182515
Si Si2 0.986590 0.775948 0.315998
Si Si3 0.368431 0.570818 0.184978
Si Si4 0.063575 0.579460 0.684193
Si Si5 0.695149 0.310268 0.813735
Si Si6 0.122340 0.457820 0.683603
Si Si7 0.300911 0.453340 0.182760
Si Si8 0.882368 0.308243 0.817178
O O1 0.974637 0.167945 0.253047
O O2 0.871889 0.083234 0.238405
O O3 0.038119 0.072364 0.243494
O O4 0.962389 0.111364 0.000000
O O5 0.987853 0.777195 0.500000
O O6 0.043343 0.726781 0.257494
O O7 0.887642 0.776262 0.266063
O O8 0.322479 0.626927 0.232152
O O9 0.319291 0.516210 0.227726
O O10 0.376731 0.572113 0.000000
O O11 0.071027 0.587324 0.500000
O O12 0.104473 0.521132 0.721721
O O13 0.104882 0.629029 0.772698
O O14 0.963686 0.574250 0.721311
O O15 0.787871 0.291729 0.762245
O O16 0.696861 0.309794 0.000000
O O17 0.133644 0.454638 0.500000
O O18 0.206567 0.438560 0.766243
O O19 0.309740 0.449212 0.000000
O O20 0.886289 0.301592 0.000000
#
# Coordination Sequence:
#
# PCOD9444785 Si02
#       8
#     8   8   8   8   8   8   8   8
#     4  11  22  36  54  78 110 146 185 234 283 331
#     4  10  21  41  61  79 109 150 188 233 289 342
#     4   9  18  34  55  79 110 148 185 224 274 336
#     4   9  19  37  58  81 112 150 185 226 283 336
#     4   8  17  35  58  81 108 143 182 225 282 336
#     4   9  19  36  56  80 114 151 188 228 274 331
#     4  11  21  33  53  82 114 150 189 226 276 338
#     4  11  21  36  60  89 113 142 190 240 281 335
#
# _framework density 18.894017999999999
#
# number of rings (size 3 to 8) (size 9 to 14) (size 15 to 20)
#    0.000    2.250    0.000    4.875    0.000    4.500 
#    2.250    8.750    0.000    0.000    0.000    0.000 
#    0.000    0.000    0.000    0.000    0.000    0.000 
#
# Total GULP energy -357298.958784 kJ/mol
# GULP energy per Si atom -5582.796231 kJ/mol
# Density = 1.885101 g / cm^3
# Si number density = 18.894018 Si / 1000 Ang^3
#
#
#
# Elastic Constant Matrix: (Units=GPa)
#
#
# Indices 1 2 3 4 5 6 
#
# 1 119.1279 27.2916 27.8450 0.0000 0.0000 0.0000
# 2 27.2916 23.0140 10.4664 0.0000 0.0000 0.0000
# 3 27.8450 10.4664 35.1079 0.0000 0.0000 0.0000
# 4 0.0000 0.0000 0.0000 23.2486 0.0000 0.0000
# 5 0.0000 0.0000 0.0000 0.0000 23.6427 0.0000
# 6 0.0000 0.0000 0.0000 0.0000 0.0000 17.4071
#
#
#
# Elastic Compliance Matrix: (Units=1/GPa)
#
#
# Indices 1 2 3 4 5 6 
#
# 1 0.012672 -0.012096 -0.006444 0.000000 0.000000 0.000000
# 2 -0.012096 0.061814 -0.008834 0.000000 0.000000 0.000000
# 3 -0.006444 -0.008834 0.036228 0.000000 0.000000 0.000000
# 4 0.000000 0.000000 0.000000 0.043013 0.000000 0.000000
# 5 0.000000 0.000000 0.000000 0.000000 0.042296 0.000000
# 6 0.000000 0.000000 0.000000 0.000000 0.000000 0.057448
#
#
# Mechanical properties :
#
#
# Convention : Reuss Voigt Hill
#
# Bulk Modulus (GPa) = 17.86835 34.27288 26.07061
# Shear Modulus (GPa) = 15.29630 20.30280 17.79955
#
# Velocity S-wave (km/s) = 2.84841 3.28161 3.07265
# Velocity P-wave (km/s) = 4.50506 5.70417 5.13970
#
# Compressibility (1/GPa) = 0.05596488
#
# Stress axis : x y z
#
# Youngs Moduli (GPa) = 78.91517 16.17750 27.60269
#
# Poissons Ratio (x) = 0.19569 0.17788
# Poissons Ratio (y) = 0.95459 0.24385
# Poissons Ratio (z) = 0.50854 0.14291
#
# Static dielectric constant tensor:
#      x y z
#    x 1.662070 0.000000 0.000000 
#    y 0.000000 1.642990 0.000000 
#    z 0.000000 0.000000 1.636590 
# 
# From -- ./inp_files/6753.got.cif
#   From: 2010.05.17/outbox.cif.g08.bks.cpg/sg58_4_cif.got.tgz:6753.got - 2010.06.03 14:20:14.
