data_PCOD9444207
_publ_section_title
;
Structure prediction by ZEFSAII (Michael W. Deem and Ramdas Pophale) SiO2 
 PCOD9444207
Probable space group: P N N M
;
_chemical_formula_sum "Si O2"
_cell_formula_units_Z 56
_cell_length_a 16.434942
_cell_length_b 18.463406
_cell_length_c 9.155531
_cell_angle_alpha 90.000000
_cell_angle_beta 90.000000
_cell_angle_gamma 90.000000
_cell_volume 2778.200166
_symmetry_space_group_name_H-M "P N N M"
_symmetry_group_IT_number 58
_symmetry_cell_setting 'orthorhombic'
loop_
_space_group_symop_operation_xyz
x,y,z
-x,-y,z
1/2+x,1/2-y,1/2-z
1/2-x,1/2+y,1/2-z
-x,-y,-z
x,y,-z
1/2-x,1/2+y,1/2+z
1/2+x,1/2-y,1/2+z
loop_
_atom_site_type_symbol
_atom_site_label
_atom_site_fract_x
_atom_site_fract_y
_atom_site_fract_z
Si Si1 0.559698 0.931868 0.827283
Si Si2 0.791041 0.144304 0.671705
Si Si3 0.523278 0.200333 0.669589
Si Si4 0.273620 0.988384 0.169602
Si Si5 0.134231 0.103376 0.170240
Si Si6 0.182992 0.247996 0.326603
Si Si7 0.544595 0.636177 0.668008
O O1 0.531724 0.863434 0.733808
O O2 0.650735 0.959517 0.796383
O O3 0.500000 0.000000 0.801179
O O4 0.554745 0.913608 0.000000
O O5 0.787009 0.154635 0.500000
O O6 0.762128 0.216208 0.755161
O O7 0.881063 0.123666 0.724975
O O8 0.732389 0.080086 0.726115
O O9 0.543649 0.186660 0.500000
O O10 0.604976 0.208610 0.764359
O O11 0.479757 0.278780 0.676323
O O12 0.190389 0.033587 0.181752
O O13 0.283173 0.964590 0.000000
O O14 0.169794 0.166527 0.270735
O O15 0.038795 0.093809 0.203041
O O16 0.137153 0.128480 0.000000
O O17 0.186384 0.251938 0.500000
O O18 0.568456 0.619580 0.500000
#
# Coordination Sequence:
#
# PCOD9444207 Si02
#       7
#     8   8   8   8   8   8   8
#     4  10  21  36  57  87 123 162 201 242 296 363
#     4  12  25  39  59  87 120 157 203 251 299 357
#     4  10  21  38  61  89 120 154 197 247 298 356
#     4  10  22  40  61  87 121 161 201 247 307 365
#     4   9  20  40  63  89 119 155 200 250 304 362
#     4  11  22  38  62  88 120 158 198 247 302 357
#     4   9  20  39  60  85 117 154 198 246 303 360
#
# _framework density 20.156934
#
# number of rings (size 3 to 8) (size 9 to 14) (size 15 to 20)
#    0.000    1.857    0.000    4.714    2.000    6.000 
#    0.000    2.857    0.000    0.000    0.000    0.000 
#    0.000    0.000    0.000    0.000    0.000    0.000 
#
# Total GULP energy -313095.105179 kJ/mol
# GULP energy per Si atom -5590.984021 kJ/mol
# Density = 2.011106 g / cm^3
# Si number density = 20.156934 Si / 1000 Ang^3
#
#
#
# Elastic Constant Matrix: (Units=GPa)
#
#
# Indices 1 2 3 4 5 6 
#
# 1 57.3054 8.0791 32.5966 0.0000 0.0000 0.0000
# 2 8.0791 33.4618 29.1517 0.0000 0.0000 0.0000
# 3 32.5966 29.1517 115.7975 0.0000 0.0000 0.0000
# 4 0.0000 0.0000 0.0000 22.9496 0.0000 0.0000
# 5 0.0000 0.0000 0.0000 0.0000 6.6735 0.0000
# 6 0.0000 0.0000 0.0000 0.0000 0.0000 27.0309
#
#
#
# Elastic Compliance Matrix: (Units=1/GPa)
#
#
# Indices 1 2 3 4 5 6 
#
# 1 0.020777 0.000101 -0.005874 0.000000 0.000000 0.000000
# 2 0.000101 0.038281 -0.009666 0.000000 0.000000 0.000000
# 3 -0.005874 -0.009666 0.012723 0.000000 0.000000 0.000000
# 4 0.000000 0.000000 0.000000 0.043574 0.000000 0.000000
# 5 0.000000 0.000000 0.000000 0.000000 0.149845 0.000000
# 6 0.000000 0.000000 0.000000 0.000000 0.000000 0.036995
#
#
# Mechanical properties :
#
#
# Convention : Reuss Voigt Hill
#
# Bulk Modulus (GPa) = 24.44775 38.46881 31.45828
# Shear Modulus (GPa) = 14.42141 20.44665 17.43403
#
# Velocity S-wave (km/s) = 2.67770 3.18838 2.94413
# Velocity P-wave (km/s) = 4.65995 5.71668 5.21515
#
# Compressibility (1/GPa) = 0.04090357
#
# Stress axis : x y z
#
# Youngs Moduli (GPa) = 48.12900 26.12265 78.60018
#
# Poissons Ratio (x) = -0.00264 0.46171
# Poissons Ratio (y) = -0.00486 0.75971
# Poissons Ratio (z) = 0.28272 0.25249
#
# Static dielectric constant tensor:
#      x y z
#    x 1.733270 0.000000 0.000000 
#    y 0.000000 1.707180 0.000000 
#    z 0.000000 0.000000 1.670940 
# 
# From -- ./inp_files/6434.got.cif
#   From: 2010.05.17/outbox.cif.g08.bks.cpg/sg58_4_cif.got.tgz:6434.got - 2010.06.03 14:20:14.
