data_PCOD9444901
_publ_section_title
;
Structure prediction by ZEFSAII (Michael W. Deem and Ramdas Pophale) SiO2 
 PCOD9444901
Probable space group: P N N M
;
_chemical_formula_sum "Si O2"
_cell_formula_units_Z 58
_cell_length_a 5.567565
_cell_length_b 15.442595
_cell_length_c 29.004696
_cell_angle_alpha 90.000000
_cell_angle_beta 90.000000
_cell_angle_gamma 90.000000
_cell_volume 2493.755643
_symmetry_space_group_name_H-M "P N N M"
_symmetry_group_IT_number 58
_symmetry_cell_setting 'orthorhombic'
loop_
_space_group_symop_operation_xyz
x,y,z
-x,-y,z
1/2+x,1/2-y,1/2-z
1/2-x,1/2+y,1/2-z
-x,-y,-z
x,y,-z
1/2-x,1/2+y,1/2+z
1/2+x,1/2-y,1/2+z
loop_
_atom_site_type_symbol
_atom_site_label
_atom_site_fract_x
_atom_site_fract_y
_atom_site_fract_z
Si Si1 0.059606 0.788797 0.214096
Si Si2 0.991851 0.403234 0.555645
Si Si3 0.322076 0.580653 0.924401
Si Si4 0.474031 0.095188 0.667250
Si Si5 0.698803 0.687989 0.895452
Si Si6 0.059486 0.705530 0.689687
Si Si7 0.982451 0.190400 0.054774
Si Si8 0.500000 0.000000 0.500000
O O1 0.056647 0.687723 0.194362
O O2 0.060573 0.777881 0.269193
O O3 0.300240 0.835172 0.197157
O O4 0.818247 0.836675 0.198419
O O5 0.014918 0.407039 0.500000
O O6 0.233399 0.352555 0.570062
O O7 0.000000 0.500000 0.574705
O O8 0.724938 0.366047 0.563378
O O9 0.500000 0.500000 0.932310
O O10 0.231367 0.587289 0.871814
O O11 0.502287 0.661037 0.932720
O O12 0.110198 0.563705 0.959704
O O13 0.714922 0.109887 0.637023
O O14 0.500000 0.000000 0.690894
O O15 0.579545 0.754691 0.860398
O O16 0.942598 0.725485 0.916710
O O17 0.970591 0.206855 0.000000
#
# Coordination Sequence:
#
# PCOD9444901 Si02
#       8
#     8   8   8   8   8   8   8   2
#     4   9  18  33  55  83 108 138 189 251 309 383
#     4   9  18  37  61  84 111 143 187 243 305 383
#     4  12  23  41  56  77 114 171 233 275 327 370
#     4  11  21  38  57  84 113 160 220 264 312 374
#     4  11  23  36  57  82 123 160 207 273 315 385
#     4   9  18  33  55  81 111 145 182 241 327 377
#     4  10  22  36  55  89 117 152 199 252 315 363
#     4  12  26  40  56  78 116 176 244 286 336 376
#
# _framework density 23.258092000000001
#
# number of rings (size 3 to 8) (size 9 to 14) (size 15 to 20)
#    0.000    1.793    3.448    0.621    2.897    1.655 
#    1.241    0.000    0.000    0.828    0.000   13.517 
#    0.000    0.000    0.000    0.000    0.000    0.000 
#
# Total GULP energy -322934.353602 kJ/mol
# GULP energy per Si atom -5567.833683 kJ/mol
# Density = 2.320516 g / cm^3
# Si number density = 23.258092 Si / 1000 Ang^3
#
#
#
# Elastic Constant Matrix: (Units=GPa)
#
#
# Indices 1 2 3 4 5 6 
#
# 1 176.6823 30.9210 21.4831 0.0000 0.0000 0.0000
# 2 30.9210 55.2330 38.7659 0.0000 0.0000 0.0000
# 3 21.4831 38.7659 68.5919 0.0000 0.0000 0.0000
# 4 0.0000 0.0000 0.0000 11.5649 0.0000 0.0000
# 5 0.0000 0.0000 0.0000 0.0000 13.4721 0.0000
# 6 0.0000 0.0000 0.0000 0.0000 0.0000 29.3420
#
#
#
# Elastic Compliance Matrix: (Units=1/GPa)
#
#
# Indices 1 2 3 4 5 6 
#
# 1 0.006275 -0.003536 0.000033 0.000000 0.000000 0.000000
# 2 -0.003536 0.032001 -0.016979 0.000000 0.000000 0.000000
# 3 0.000033 -0.016979 0.024164 0.000000 0.000000 0.000000
# 4 0.000000 0.000000 0.000000 0.086469 0.000000 0.000000
# 5 0.000000 0.000000 0.000000 0.000000 0.074228 0.000000
# 6 0.000000 0.000000 0.000000 0.000000 0.000000 0.034081
#
#
# Mechanical properties :
#
#
# Convention : Reuss Voigt Hill
#
# Bulk Modulus (GPa) = 46.56044 53.64970 50.10507
# Shear Modulus (GPa) = 16.37521 24.83161 20.60341
#
# Velocity S-wave (km/s) = 2.65630 3.27104 2.97957
# Velocity P-wave (km/s) = 5.42867 6.11420 5.78160
#
# Compressibility (1/GPa) = 0.02147746
#
# Stress axis : x y z
#
# Youngs Moduli (GPa) = 159.37068 31.24873 41.38337
#
# Poissons Ratio (x) = 0.11050 -0.00137
# Poissons Ratio (y) = 0.56355 0.70263
# Poissons Ratio (z) = -0.00529 0.53056
#
# Static dielectric constant tensor:
#      x y z
#    x 1.990660 0.000000 0.000000 
#    y 0.000000 1.971040 0.000000 
#    z 0.000000 0.000000 1.894590 
# 
# From -- ./inp_files/34250.got.cif
#   From: 2010.05.17/outbox.cif.g08.bks.cpg/sg58_18_cif.got.tgz:34250.got - 2010.06.03 14:20:14.
