data_PCOD9444193
_publ_section_title
;
Structure prediction by ZEFSAII (Michael W. Deem and Ramdas Pophale) SiO2 
 PCOD9444193
Probable space group: P N N M
;
_chemical_formula_sum "Si O2"
_cell_formula_units_Z 56
_cell_length_a 17.218722
_cell_length_b 5.005513
_cell_length_c 32.910396
_cell_angle_alpha 90.000000
_cell_angle_beta 90.000000
_cell_angle_gamma 90.000000
_cell_volume 2836.498877
_symmetry_space_group_name_H-M "P N N M"
_symmetry_group_IT_number 58
_symmetry_cell_setting 'orthorhombic'
loop_
_space_group_symop_operation_xyz
x,y,z
-x,-y,z
1/2+x,1/2-y,1/2-z
1/2-x,1/2+y,1/2-z
-x,-y,-z
x,y,-z
1/2-x,1/2+y,1/2+z
1/2+x,1/2-y,1/2+z
loop_
_atom_site_type_symbol
_atom_site_label
_atom_site_fract_x
_atom_site_fract_y
_atom_site_fract_z
Si Si1 0.446254 0.756651 0.395919
Si Si2 0.911890 0.946565 0.382954
Si Si3 0.212367 0.024879 0.453658
Si Si4 0.316305 0.519661 0.454073
Si Si5 0.088853 0.550081 0.672983
Si Si6 0.197458 0.354868 0.745466
Si Si7 0.445042 0.759452 0.302994
O O1 0.500000 0.500000 0.391996
O O2 0.377741 0.657918 0.424614
O O3 0.421037 0.820665 0.349745
O O4 0.500000 0.000000 0.411351
O O5 0.899469 0.155613 0.345694
O O6 0.853926 0.970758 0.420241
O O7 0.903820 0.652999 0.364503
O O8 0.000000 0.000000 0.396506
O O9 0.188795 0.099474 0.500000
O O10 0.281561 0.232274 0.442080
O O11 0.245579 0.726996 0.455038
O O12 0.348512 0.495660 0.500000
O O13 0.151374 0.470625 0.706660
O O14 0.000000 0.500000 0.688109
O O15 0.245967 0.605002 0.763467
O O16 0.131718 0.246563 0.776118
O O17 0.500000 0.500000 0.300893
O O18 0.500000 0.000000 0.288991
#
# Coordination Sequence:
#
# PCOD9444193 Si02
#       7
#     8   8   8   8   8   8   8
#     4  10  21  37  58  83 109 146 195 238 279 334
#     4  10  21  38  61  87 113 149 197 239 280 338
#     4  10  21  37  57  83 117 154 187 227 287 346
#     4  10  21  36  56  84 118 154 188 230 289 344
#     4  10  22  40  60  83 116 155 191 235 295 349
#     4  12  25  39  60  91 118 147 196 245 286 339
#     4  10  22  41  61  81 114 157 193 232 291 350
#
# _framework density 19.742647000000002
#
# number of rings (size 3 to 8) (size 9 to 14) (size 15 to 20)
#    0.000    1.714    0.000    3.857    0.000    6.000 
#    0.000    0.000    0.000    5.143    0.000    0.000 
#    0.000    0.000    0.000    0.000    0.000    0.000 
#
# Total GULP energy -312670.165315 kJ/mol
# GULP energy per Si atom -5583.395809 kJ/mol
# Density = 1.969771 g / cm^3
# Si number density = 19.742647 Si / 1000 Ang^3
#
#
#
# Elastic Constant Matrix: (Units=GPa)
#
#
# Indices 1 2 3 4 5 6 
#
# 1 84.1046 0.6573 49.1248 0.0000 0.0000 0.0000
# 2 0.6573 77.1879 -16.7159 0.0000 0.0000 0.0000
# 3 49.1248 -16.7159 65.3621 0.0000 0.0000 0.0000
# 4 0.0000 0.0000 0.0000 23.7452 0.0000 0.0000
# 5 0.0000 0.0000 0.0000 0.0000 44.1484 0.0000
# 6 0.0000 0.0000 0.0000 0.0000 0.0000 30.3278
#
#
#
# Elastic Compliance Matrix: (Units=1/GPa)
#
#
# Indices 1 2 3 4 5 6 
#
# 1 0.022328 -0.004049 -0.017817 0.000000 0.000000 0.000000
# 2 -0.004049 0.014449 0.006738 0.000000 0.000000 0.000000
# 3 -0.017817 0.006738 0.030413 0.000000 0.000000 0.000000
# 4 0.000000 0.000000 0.000000 0.042114 0.000000 0.000000
# 5 0.000000 0.000000 0.000000 0.000000 0.022651 0.000000
# 6 0.000000 0.000000 0.000000 0.000000 0.000000 0.032973
#
#
# Mechanical properties :
#
#
# Convention : Reuss Voigt Hill
#
# Bulk Modulus (GPa) = 27.07387 32.53189 29.80288
# Shear Modulus (GPa) = 24.09695 32.55017 28.32356
#
# Velocity S-wave (km/s) = 3.49743 4.06485 3.79177
# Velocity P-wave (km/s) = 5.48202 6.20842 5.85649
#
# Compressibility (1/GPa) = 0.03693598
#
# Stress axis : x y z
#
# Youngs Moduli (GPa) = 44.78632 69.20863 32.88030
#
# Poissons Ratio (x) = 0.28019 0.58582
# Poissons Ratio (y) = 0.18132 -0.22155
# Poissons Ratio (z) = 0.79795 -0.46633
#
# Static dielectric constant tensor:
#      x y z
#    x 1.666090 0.000000 0.000000 
#    y 0.000000 1.673090 0.000000 
#    z 0.000000 0.000000 1.701800 
# 
# From -- ./inp_files/35018.got.cif
#   From: 2010.05.17/outbox.cif.g08.bks.cpg/sg58_18_cif.got.tgz:35018.got - 2010.06.03 14:20:14.
