data_PCOD9444929
_publ_section_title
;
Structure prediction by ZEFSAII (Michael W. Deem and Ramdas Pophale) SiO2 
 PCOD9444929
Probable space group: P N N M
;
_chemical_formula_sum "Si O2"
_cell_formula_units_Z 48
_cell_length_a 7.481278
_cell_length_b 10.094594
_cell_length_c 29.601112
_cell_angle_alpha 90.000000
_cell_angle_beta 90.000000
_cell_angle_gamma 90.000000
_cell_volume 2235.489713
_symmetry_space_group_name_H-M "P N N M"
_symmetry_group_IT_number 58
_symmetry_cell_setting 'orthorhombic'
loop_
_space_group_symop_operation_xyz
x,y,z
-x,-y,z
1/2+x,1/2-y,1/2-z
1/2-x,1/2+y,1/2-z
-x,-y,-z
x,y,-z
1/2-x,1/2+y,1/2+z
1/2+x,1/2-y,1/2+z
loop_
_atom_site_type_symbol
_atom_site_label
_atom_site_fract_x
_atom_site_fract_y
_atom_site_fract_z
Si Si1 0.208878 0.728227 0.710284
Si Si2 0.311785 0.441763 0.285507
Si Si3 0.549890 0.742454 0.354987
Si Si4 0.467773 0.156233 0.550219
Si Si5 0.067240 0.149601 0.645903
Si Si6 0.542126 0.342850 0.047798
O O1 0.192346 0.571431 0.717888
O O2 0.231823 0.816590 0.754707
O O3 0.382519 0.756805 0.678681
O O4 0.031652 0.772791 0.684811
O O5 0.500000 0.500000 0.267858
O O6 0.351419 0.390486 0.336492
O O7 0.479531 0.757120 0.406266
O O8 0.716945 0.844967 0.351753
O O9 0.543953 0.185281 0.500000
O O10 0.255131 0.172568 0.546599
O O11 0.500000 0.000000 0.559299
O O12 0.996672 0.207021 0.597660
O O13 0.000000 0.000000 0.648430
O O14 0.500000 0.500000 0.048107
O O15 0.469677 0.289109 0.000000
#
# Coordination Sequence:
#
# PCOD9444929 Si02
#       6
#     8   8   8   8   8   8
#     4  11  25  44  65  85 123 160 205 257 305 365
#     4  10  25  47  62  92 120 161 210 255 304 376
#     4  10  24  40  62  89 125 165 198 254 312 356
#     4   9  18  32  55  90 122 157 205 247 300 365
#     4  10  22  37  58  93 125 154 206 247 297 372
#     4   8  15  29  49  78 121 156 185 244 301 343
#
# _framework density 21.471805
#
# number of rings (size 3 to 8) (size 9 to 14) (size 15 to 20)
#    0.000    2.333    0.000    0.500   14.000    0.667 
#    3.000    0.000    0.000    5.500    0.000    4.667 
#    0.000    0.000    0.000    0.000    0.000    0.000 
#
# Total GULP energy -267554.833700 kJ/mol
# GULP energy per Si atom -5574.059035 kJ/mol
# Density = 2.142293 g / cm^3
# Si number density = 21.471805 Si / 1000 Ang^3
#
#
#
# Elastic Constant Matrix: (Units=GPa)
#
#
# Indices 1 2 3 4 5 6 
#
# 1 76.1988 4.9912 20.3725 0.0000 0.0000 0.0000
# 2 4.9912 80.6814 70.9470 0.0000 0.0000 0.0000
# 3 20.3725 70.9470 179.8281 0.0000 0.0000 0.0000
# 4 0.0000 0.0000 0.0000 27.5866 0.0000 0.0000
# 5 0.0000 0.0000 0.0000 0.0000 -85.4583 0.0000
# 6 0.0000 0.0000 0.0000 0.0000 0.0000 29.7381
#
#
#
# Elastic Compliance Matrix: (Units=1/GPa)
#
#
# Indices 1 2 3 4 5 6 
#
# 1 0.013566 0.000784 -0.001846 0.000000 0.000000 0.000000
# 2 0.000784 0.019024 -0.007594 0.000000 0.000000 0.000000
# 3 -0.001846 -0.007594 0.008766 0.000000 0.000000 0.000000
# 4 0.000000 0.000000 0.000000 0.036249 0.000000 0.000000
# 5 0.000000 0.000000 0.000000 0.000000 -0.011702 0.000000
# 6 0.000000 0.000000 0.000000 0.000000 0.000000 0.033627
#
#
# Mechanical properties :
#
#
# Convention : Reuss Voigt Hill
#
# Bulk Modulus (GPa) = 41.59151 58.81440 50.20296
# Shear Modulus (GPa) = 40.04560 10.39980 25.22270
#
# Velocity S-wave (km/s) = 4.32329 2.20318 3.43109
# Velocity P-wave (km/s) = 6.65833 5.82434 6.25525
#
# Compressibility (1/GPa) = 0.02404337
#
# Stress axis : x y z
#
# Youngs Moduli (GPa) = 73.71471 52.56531 114.07472
#
# Poissons Ratio (x) = -0.04123 0.21061
# Poissons Ratio (y) = -0.05781 0.86632
# Poissons Ratio (z) = 0.13610 0.39920
#
# Static dielectric constant tensor:
#      x y z
#    x 1.841180 0.000000 0.000000 
#    y 0.000000 1.877600 0.000000 
#    z 0.000000 0.000000 1.891440 
# 
# From -- ./inp_files/34571.got.cif
#   From: 2010.05.17/outbox.cif.g08.bks.cpg/sg58_18_cif.got.tgz:34571.got - 2010.06.03 14:20:14.
