data_PCOD9444863
_publ_section_title
;
Structure prediction by ZEFSAII (Michael W. Deem and Ramdas Pophale) SiO2 
 PCOD9444863
Probable space group: P N N M
;
_chemical_formula_sum "Si O2"
_cell_formula_units_Z 56
_cell_length_a 14.557989
_cell_length_b 12.770727
_cell_length_c 14.431885
_cell_angle_alpha 90.000000
_cell_angle_beta 90.000000
_cell_angle_gamma 90.000000
_cell_volume 2683.119821
_symmetry_space_group_name_H-M "P N N M"
_symmetry_group_IT_number 58
_symmetry_cell_setting 'orthorhombic'
loop_
_space_group_symop_operation_xyz
x,y,z
-x,-y,z
1/2+x,1/2-y,1/2-z
1/2-x,1/2+y,1/2-z
-x,-y,-z
x,y,-z
1/2-x,1/2+y,1/2+z
1/2+x,1/2-y,1/2+z
loop_
_atom_site_type_symbol
_atom_site_label
_atom_site_fract_x
_atom_site_fract_y
_atom_site_fract_z
Si Si1 0.870468 0.940437 0.894677
Si Si2 0.480504 0.732366 0.709030
Si Si3 0.084343 0.573478 0.802019
Si Si4 0.778648 0.924586 0.390236
Si Si5 0.127398 0.904239 0.272235
Si Si6 0.161136 0.530904 0.395500
Si Si7 0.806308 0.691570 0.310845
O O1 0.930885 0.843049 0.863082
O O2 0.888742 0.034281 0.824173
O O3 0.761632 0.915701 0.885689
O O4 0.887774 0.970762 0.000000
O O5 0.556266 0.809929 0.667932
O O6 0.536514 0.664417 0.784805
O O7 0.400451 0.801446 0.753681
O O8 0.180041 0.542810 0.848098
O O9 0.099761 0.568570 0.690463
O O10 0.000000 0.500000 0.828028
O O11 0.778575 0.929666 0.500000
O O12 0.795289 0.805372 0.356893
O O13 0.850621 0.006363 0.346415
O O14 0.218423 0.834664 0.253679
O O15 0.126318 0.548741 0.500000
O O16 0.181906 0.407156 0.379566
#
# Coordination Sequence:
#
# PCOD9444863 Si02
#       7
#     8   8   8   8   8   8   8
#     4  10  22  41  69 100 127 164 221 278 331 390
#     4  12  23  39  70  99 135 171 215 275 338 394
#     4  12  23  43  68  95 137 175 217 282 340 397
#     4  12  25  45  69  95 134 184 230 272 332 409
#     4  11  23  43  70  94 136 178 217 274 341 385
#     4  10  21  42  70  96 128 173 220 272 334 397
#     4  11  21  43  67  96 133 173 220 274 329 398
#
# _framework density 20.871226
#
# number of rings (size 3 to 8) (size 9 to 14) (size 15 to 20)
#    0.000    0.857    7.143    0.857    0.000    2.857 
#    0.000    5.000    0.000    0.000    0.000    0.000 
#    0.000    0.000    0.000    0.000    0.000    0.000 
#
# Total GULP energy -312964.559754 kJ/mol
# GULP energy per Si atom -5588.652853 kJ/mol
# Density = 2.082372 g / cm^3
# Si number density = 20.871226 Si / 1000 Ang^3
#
#
#
# Elastic Constant Matrix: (Units=GPa)
#
#
# Indices 1 2 3 4 5 6 
#
# 1 55.9832 13.2067 -0.4272 0.0000 0.0000 0.0000
# 2 13.2067 72.3640 10.7028 0.0000 0.0000 0.0000
# 3 -0.4272 10.7028 68.5200 0.0000 0.0000 0.0000
# 4 0.0000 0.0000 0.0000 1.2557 0.0000 0.0000
# 5 0.0000 0.0000 0.0000 0.0000 12.2104 0.0000
# 6 0.0000 0.0000 0.0000 0.0000 0.0000 53.9466
#
#
#
# Elastic Compliance Matrix: (Units=1/GPa)
#
#
# Indices 1 2 3 4 5 6 
#
# 1 0.018696 -0.003510 0.000665 0.000000 0.000000 0.000000
# 2 -0.003510 0.014805 -0.002334 0.000000 0.000000 0.000000
# 3 0.000665 -0.002334 0.014963 0.000000 0.000000 0.000000
# 4 0.000000 0.000000 0.000000 0.796366 0.000000 0.000000
# 5 0.000000 0.000000 0.000000 0.000000 0.081898 0.000000
# 6 0.000000 0.000000 0.000000 0.000000 0.000000 0.018537
#
#
# Mechanical properties :
#
#
# Convention : Reuss Voigt Hill
#
# Bulk Modulus (GPa) = 26.24403 27.09241 26.66822
# Shear Modulus (GPa) = 5.16356 25.04153 15.10254
#
# Velocity S-wave (km/s) = 1.57460 3.46759 2.69291
# Velocity P-wave (km/s) = 3.98841 5.38898 4.74070
#
# Compressibility (1/GPa) = 0.03810390
#
# Stress axis : x y z
#
# Youngs Moduli (GPa) = 53.48825 67.54497 66.83125
#
# Poissons Ratio (x) = 0.23711 -0.04443
# Poissons Ratio (y) = 0.18776 0.15601
# Poissons Ratio (z) = -0.03556 0.15768
#
# Static dielectric constant tensor:
#      x y z
#    x 1.771060 0.000000 0.000000 
#    y 0.000000 1.794360 0.000000 
#    z 0.000000 0.000000 1.704730 
# 
# From -- ./inp_files/22203.got.cif
#   From: 2010.05.17/outbox.cif.g08.bks.cpg/sg58_12_cif.got.tgz:22203.got - 2010.06.03 14:20:14.
