data_PCOD9444781
_publ_section_title
;
Structure prediction by ZEFSAII (Michael W. Deem and Ramdas Pophale) SiO2 
 PCOD9444781
Probable space group: P N N M
;
_chemical_formula_sum "Si O2"
_cell_formula_units_Z 34
_cell_length_a 9.104024
_cell_length_b 19.976658
_cell_length_c 7.885778
_cell_angle_alpha 90.000000
_cell_angle_beta 90.000000
_cell_angle_gamma 90.000000
_cell_volume 1434.170467
_symmetry_space_group_name_H-M "P N N M"
_symmetry_group_IT_number 58
_symmetry_cell_setting 'orthorhombic'
loop_
_space_group_symop_operation_xyz
x,y,z
-x,-y,z
1/2+x,1/2-y,1/2-z
1/2-x,1/2+y,1/2-z
-x,-y,-z
x,y,-z
1/2-x,1/2+y,1/2+z
1/2+x,1/2-y,1/2+z
loop_
_atom_site_type_symbol
_atom_site_label
_atom_site_fract_x
_atom_site_fract_y
_atom_site_fract_z
Si Si1 0.691552 0.304585 0.696089
Si Si2 0.854937 0.033822 0.304975
Si Si3 0.357563 0.320330 0.302924
Si Si4 0.395529 0.079160 0.687709
Si Si5 0.500000 0.000000 0.000000
O O1 0.689030 0.326825 0.500000
O O2 0.525484 0.312546 0.762202
O O3 0.746300 0.228691 0.709266
O O4 0.810357 0.351136 0.788719
O O5 0.888428 0.052174 0.500000
O O6 0.816973 0.102175 0.213427
O O7 0.731784 0.977392 0.306295
O O8 0.000000 0.000000 0.227856
O O9 0.356960 0.300465 0.500000
O O10 0.467065 0.077536 0.500000
O O11 0.489949 0.058212 0.849337
#
# Coordination Sequence:
#
# PCOD9444781 Si02
#       5
#     8   8   8   8   2
#     4  11  24  45  68  99 139 186 231 291 352 417
#     4  10  21  40  70 101 129 172 228 287 343 410
#     4  11  25  41  69 101 137 184 237 289 352 422
#     4  11  24  44  72 101 141 182 232 284 350 420
#     4  12  26  44  66 102 140 192 220 292 342 404
#
# _framework density 23.707083999999998
#
# number of rings (size 3 to 8) (size 9 to 14) (size 15 to 20)
#    0.000    1.176    3.529    1.765    1.647    5.176 
#    0.000    2.353    0.000    0.000    0.000    0.000 
#    0.000    0.000    0.000    0.000    0.000    0.000 
#
# Total GULP energy -189763.713066 kJ/mol
# GULP energy per Si atom -5581.285678 kJ/mol
# Density = 2.365313 g / cm^3
# Si number density = 23.707084 Si / 1000 Ang^3
#
#
#
# Elastic Constant Matrix: (Units=GPa)
#
#
# Indices 1 2 3 4 5 6 
#
# 1 49.3189 16.8321 19.8622 0.0000 0.0000 0.0000
# 2 16.8321 116.5016 3.3472 0.0000 0.0000 0.0000
# 3 19.8622 3.3472 122.5285 0.0000 0.0000 0.0000
# 4 0.0000 0.0000 0.0000 25.6822 0.0000 0.0000
# 5 0.0000 0.0000 0.0000 0.0000 7.3332 0.0000
# 6 0.0000 0.0000 0.0000 0.0000 0.0000 40.2748
#
#
#
# Elastic Compliance Matrix: (Units=1/GPa)
#
#
# Indices 1 2 3 4 5 6 
#
# 1 0.022821 -0.003193 -0.003612 0.000000 0.000000 0.000000
# 2 -0.003193 0.009037 0.000271 0.000000 0.000000 0.000000
# 3 -0.003612 0.000271 0.008739 0.000000 0.000000 0.000000
# 4 0.000000 0.000000 0.000000 0.038938 0.000000 0.000000
# 5 0.000000 0.000000 0.000000 0.000000 0.136366 0.000000
# 6 0.000000 0.000000 0.000000 0.000000 0.000000 0.024829
#
#
# Mechanical properties :
#
#
# Convention : Reuss Voigt Hill
#
# Bulk Modulus (GPa) = 36.32649 40.93690 38.63169
# Shear Modulus (GPa) = 19.01320 31.21187 25.11253
#
# Velocity S-wave (km/s) = 2.83504 3.63238 3.25820
# Velocity P-wave (km/s) = 5.10617 5.90742 5.52134
#
# Compressibility (1/GPa) = 0.02752812
#
# Stress axis : x y z
#
# Youngs Moduli (GPa) = 43.81975 110.65419 114.42308
#
# Poissons Ratio (x) = 0.35336 0.41330
# Poissons Ratio (y) = 0.13993 -0.03098
# Poissons Ratio (z) = 0.15828 -0.02996
#
# Static dielectric constant tensor:
#      x y z
#    x 1.942850 0.000000 0.000000 
#    y 0.000000 1.840640 0.000000 
#    z 0.000000 0.000000 1.928250 
# 
# From -- ./inp_files/2283.got.cif
#   From: 2010.05.17/outbox.cif.g08.bks.cpg/sg58_2_cif.got.tgz:2283.got - 2010.06.03 14:20:14.
