data_PCOD9444579
_publ_section_title
;
Structure prediction by ZEFSAII (Michael W. Deem and Ramdas Pophale) SiO2 
 PCOD9444579
Probable space group: P N N M
;
_chemical_formula_sum "Si O2"
_cell_formula_units_Z 34
_cell_length_a 12.803546
_cell_length_b 15.107239
_cell_length_c 7.286197
_cell_angle_alpha 90.000000
_cell_angle_beta 90.000000
_cell_angle_gamma 90.000000
_cell_volume 1409.341613
_symmetry_space_group_name_H-M "P N N M"
_symmetry_group_IT_number 58
_symmetry_cell_setting 'orthorhombic'
loop_
_space_group_symop_operation_xyz
x,y,z
-x,-y,z
1/2+x,1/2-y,1/2-z
1/2-x,1/2+y,1/2-z
-x,-y,-z
x,y,-z
1/2-x,1/2+y,1/2+z
1/2+x,1/2-y,1/2+z
loop_
_atom_site_type_symbol
_atom_site_label
_atom_site_fract_x
_atom_site_fract_y
_atom_site_fract_z
Si Si1 0.862742 0.419933 0.278737
Si Si2 0.251319 0.402138 0.288765
Si Si3 0.000000 0.500000 0.000000
Si Si4 0.679027 0.286734 0.720549
Si Si5 0.481536 0.397572 0.277566
O O1 0.879348 0.420728 0.500000
O O2 0.803497 0.510518 0.212917
O O3 0.784474 0.340241 0.229720
O O4 0.967014 0.427131 0.161572
O O5 0.270119 0.427505 0.500000
O O6 0.183843 0.314243 0.280307
O O7 0.364876 0.377174 0.211655
O O8 0.676736 0.288021 0.500000
O O9 0.576498 0.337618 0.788835
O O10 0.500000 0.500000 0.232675
O O11 0.483721 0.389810 0.500000
#
# Coordination Sequence:
#
# PCOD9444579 Si02
#       5
#     8   8   2   8   8
#     4  10  23  44  65  94 132 177 217 274 333 395
#     4  10  21  38  64  94 131 166 217 270 327 394
#     4  12  26  40  72  88 136 174 230 268 336 396
#     4  10  21  38  64  94 131 166 217 270 327 394
#     4   9  16  35  65  88 114 167 213 257 320 387
#
# _framework density 24.124742000000001
#
# number of rings (size 3 to 8) (size 9 to 14) (size 15 to 20)
#    0.000    2.118    2.353    0.353    3.294    1.882 
#    4.235    3.529    0.000    2.824    0.000    0.000 
#    0.000    0.000    0.000    0.000    0.000    0.000 
#
# Total GULP energy -189577.123667 kJ/mol
# GULP energy per Si atom -5575.797755 kJ/mol
# Density = 2.406983 g / cm^3
# Si number density = 24.124742 Si / 1000 Ang^3
#
#
#
# Elastic Constant Matrix: (Units=GPa)
#
#
# Indices 1 2 3 4 5 6 
#
# 1 64.7374 8.2698 5.5572 0.0000 0.0000 0.0000
# 2 8.2698 94.0015 -9.5193 0.0000 0.0000 0.0000
# 3 5.5572 -9.5193 125.3977 0.0000 0.0000 0.0000
# 4 0.0000 0.0000 0.0000 322.6993 0.0000 0.0000
# 5 0.0000 0.0000 0.0000 0.0000 -78.8143 0.0000
# 6 0.0000 0.0000 0.0000 0.0000 0.0000 42.1871
#
#
#
# Elastic Compliance Matrix: (Units=1/GPa)
#
#
# Indices 1 2 3 4 5 6 
#
# 1 0.015703 -0.001463 -0.000807 0.000000 0.000000 0.000000
# 2 -0.001463 0.010857 0.000889 0.000000 0.000000 0.000000
# 3 -0.000807 0.000889 0.008078 0.000000 0.000000 0.000000
# 4 0.000000 0.000000 0.000000 0.003099 0.000000 0.000000
# 5 0.000000 0.000000 0.000000 0.000000 -0.012688 0.000000
# 6 0.000000 0.000000 0.000000 0.000000 0.000000 0.023704
#
#
# Mechanical properties :
#
#
# Convention : Reuss Voigt Hill
#
# Bulk Modulus (GPa) = 31.37195 32.52800 31.94998
# Shear Modulus (GPa) = 80.46308 75.86968 78.16638
#
# Velocity S-wave (km/s) = 5.78146 5.61402 5.69836
# Velocity P-wave (km/s) = 7.58943 7.45221 7.52113
#
# Compressibility (1/GPa) = 0.03187561
#
# Stress axis : x y z
#
# Youngs Moduli (GPa) = 63.68123 92.10744 123.79484
#
# Poissons Ratio (x) = 0.13477 0.09990
# Poissons Ratio (y) = 0.09318 -0.11006
# Poissons Ratio (z) = 0.05139 -0.08189
#
# Static dielectric constant tensor:
#      x y z
#    x 2.064300 0.000000 0.000000 
#    y 0.000000 1.872600 0.000000 
#    z 0.000000 0.000000 1.983210 
# 
# From -- ./inp_files/3630.got.cif
#   From: 2010.05.17/outbox.cif.g08.bks.cpg/sg58_2_cif.got.tgz:3630.got - 2010.06.03 14:20:14.
