data_PCOD9444254
_publ_section_title
;
Structure prediction by ZEFSAII (Michael W. Deem and Ramdas Pophale) SiO2 
 PCOD9444254
Probable space group: P N N M
;
_chemical_formula_sum "Si O2"
_cell_formula_units_Z 40
_cell_length_a 5.147263
_cell_length_b 18.072923
_cell_length_c 19.239084
_cell_angle_alpha 90.000000
_cell_angle_beta 90.000000
_cell_angle_gamma 90.000000
_cell_volume 1789.736719
_symmetry_space_group_name_H-M "P N N M"
_symmetry_group_IT_number 58
_symmetry_cell_setting 'orthorhombic'
loop_
_space_group_symop_operation_xyz
x,y,z
-x,-y,z
1/2+x,1/2-y,1/2-z
1/2-x,1/2+y,1/2-z
-x,-y,-z
x,y,-z
1/2-x,1/2+y,1/2+z
1/2+x,1/2-y,1/2+z
loop_
_atom_site_type_symbol
_atom_site_label
_atom_site_fract_x
_atom_site_fract_y
_atom_site_fract_z
Si Si1 0.605321 0.228128 0.713392
Si Si2 0.048697 0.133150 0.579631
Si Si3 0.248066 0.454342 0.415346
Si Si4 0.840346 0.215666 0.918760
Si Si5 0.462379 0.918686 0.658100
O O1 0.399195 0.270639 0.761312
O O2 0.559681 0.258820 0.635614
O O3 0.497470 0.144734 0.714493
O O4 0.978482 0.120070 0.500000
O O5 0.121788 0.220316 0.586937
O O6 0.316841 0.092828 0.599790
O O7 0.818250 0.101038 0.626323
O O8 0.500000 0.500000 0.391970
O O9 0.246391 0.456224 0.500000
O O10 0.252511 0.367050 0.398664
O O11 0.000000 0.500000 0.390694
O O12 0.925636 0.215039 0.000000
O O13 0.500000 0.000000 0.686184
#
# Coordination Sequence:
#
# PCOD9444254 Si02
#       5
#     8   8   8   8   8
#     4  11  24  44  65  88 123 164 203 249 308 369
#     4  10  21  36  60  94 128 165 206 253 313 376
#     4   9  18  32  53  84 120 154 194 252 309 351
#     4   9  20  40  65  91 121 161 210 255 302 371
#     4  11  23  40  62  89 125 165 207 257 310 374
#
# _framework density 22.349657000000001
#
# number of rings (size 3 to 8) (size 9 to 14) (size 15 to 20)
#    0.000    2.000    0.000    3.600    0.000    8.000 
#    0.000   16.000    0.000    0.000    0.000    0.000 
#    0.000    0.000    0.000    0.000    0.000    0.000 
#
# Total GULP energy -223466.798298 kJ/mol
# GULP energy per Si atom -5586.669957 kJ/mol
# Density = 2.229879 g / cm^3
# Si number density = 22.349657 Si / 1000 Ang^3
#
#
#
# Elastic Constant Matrix: (Units=GPa)
#
#
# Indices 1 2 3 4 5 6 
#
# 1 86.5326 -16.6180 3.5017 0.0000 0.0000 0.0000
# 2 -16.6180 122.1863 -8.4229 0.0000 0.0000 0.0000
# 3 3.5017 -8.4229 58.7672 0.0000 0.0000 0.0000
# 4 0.0000 0.0000 0.0000 14.6792 0.0000 0.0000
# 5 0.0000 0.0000 0.0000 0.0000 11.1010 0.0000
# 6 0.0000 0.0000 0.0000 0.0000 0.0000 16.4525
#
#
#
# Elastic Compliance Matrix: (Units=1/GPa)
#
#
# Indices 1 2 3 4 5 6 
#
# 1 0.011880 0.001583 -0.000481 0.000000 0.000000 0.000000
# 2 0.001583 0.008477 0.001121 0.000000 0.000000 0.000000
# 3 -0.000481 0.001121 0.017206 0.000000 0.000000 0.000000
# 4 0.000000 0.000000 0.000000 0.068124 0.000000 0.000000
# 5 0.000000 0.000000 0.000000 0.000000 0.090082 0.000000
# 6 0.000000 0.000000 0.000000 0.000000 0.000000 0.060781
#
#
# Mechanical properties :
#
#
# Convention : Reuss Voigt Hill
#
# Bulk Modulus (GPa) = 23.80596 24.93420 24.37008
# Shear Modulus (GPa) = 18.78947 27.71489 23.25218
#
# Velocity S-wave (km/s) = 2.90264 3.52527 3.22899
# Velocity P-wave (km/s) = 4.68065 5.26789 4.98293
#
# Compressibility (1/GPa) = 0.04200628
#
# Stress axis : x y z
#
# Youngs Moduli (GPa) = 84.17710 117.97035 58.12067
#
# Poissons Ratio (x) = -0.18669 0.02796
# Poissons Ratio (y) = -0.13321 -0.06513
# Poissons Ratio (z) = 0.04049 -0.13220
#
# Static dielectric constant tensor:
#      x y z
#    x 1.835880 0.000000 0.000000 
#    y 0.000000 1.860060 0.000000 
#    z 0.000000 0.000000 1.837430 
# 
# From -- ./inp_files/24194.got.cif
#   From: 2010.05.17/outbox.cif.g08.bks.cpg/sg58_13_cif.got.tgz:24194.got - 2010.06.03 14:20:14.
