data_PCOD9444087
_publ_section_title
;
Structure prediction by ZEFSAII (Michael W. Deem and Ramdas Pophale) SiO2 
 PCOD9444087
Probable space group: P N N M
;
_chemical_formula_sum "Si O2"
_cell_formula_units_Z 56
_cell_length_a 16.304354
_cell_length_b 20.740219
_cell_length_c 7.458221
_cell_angle_alpha 90.000000
_cell_angle_beta 90.000000
_cell_angle_gamma 90.000000
_cell_volume 2522.041230
_symmetry_space_group_name_H-M "P N N M"
_symmetry_group_IT_number 58
_symmetry_cell_setting 'orthorhombic'
loop_
_space_group_symop_operation_xyz
x,y,z
-x,-y,z
1/2+x,1/2-y,1/2-z
1/2-x,1/2+y,1/2-z
-x,-y,-z
x,y,-z
1/2-x,1/2+y,1/2+z
1/2+x,1/2-y,1/2+z
loop_
_atom_site_type_symbol
_atom_site_label
_atom_site_fract_x
_atom_site_fract_y
_atom_site_fract_z
Si Si1 0.075351 0.456133 0.780425
Si Si2 0.743093 0.533772 0.784046
Si Si3 0.327306 0.601084 0.712108
Si Si4 0.514760 0.323355 0.281495
Si Si5 0.826156 0.167507 0.291948
Si Si6 0.676044 0.812951 0.217991
Si Si7 0.013277 0.321375 0.790807
O O1 0.164245 0.480830 0.724021
O O2 0.000000 0.500000 0.721067
O O3 0.060510 0.382996 0.717527
O O4 0.073842 0.456005 0.000000
O O5 0.684409 0.474756 0.737156
O O6 0.715893 0.603846 0.714730
O O7 0.743569 0.537255 0.000000
O O8 0.328104 0.613842 0.500000
O O9 0.412497 0.630284 0.780375
O O10 0.247415 0.639411 0.781618
O O11 0.511453 0.323082 0.500000
O O12 0.424107 0.341920 0.218808
O O13 0.530489 0.249888 0.218254
O O14 0.800765 0.170812 0.500000
O O15 0.809111 0.239185 0.218624
O O16 0.584598 0.832597 0.276217
O O17 0.674467 0.812441 0.000000
O O18 0.035312 0.318166 0.000000
#
# Coordination Sequence:
#
# PCOD9444087 Si02
#       7
#     8   8   8   8   8   8   8
#     4   9  17  29  49  77 105 130 162 208 256 302
#     4  10  21  35  53  77 104 136 173 213 259 306
#     4  10  21  35  52  75 104 138 173 209 256 310
#     4   9  19  34  53  76 100 133 174 214 255 302
#     4   9  19  35  54  76 102 134 171 214 260 305
#     4   9  18  33  53  75 104 136 168 208 257 309
#     4   9  17  31  53  77 101 130 170 214 254 302
#
# _framework density 22.204236999999999
#
# number of rings (size 3 to 8) (size 9 to 14) (size 15 to 20)
#    0.000    2.714    0.000    0.857    2.000    3.429 
#    0.000    3.571    0.000    2.571    0.000    0.000 
#    0.000    0.000    0.000    0.000    0.000    0.000 
#
# Total GULP energy -312710.897585 kJ/mol
# GULP energy per Si atom -5584.123171 kJ/mol
# Density = 2.215370 g / cm^3
# Si number density = 22.204237 Si / 1000 Ang^3
#
#
#
# Elastic Constant Matrix: (Units=GPa)
#
#
# Indices 1 2 3 4 5 6 
#
# 1 23.3632 17.0022 -10.2856 0.0000 0.0000 0.0000
# 2 17.0022 63.7639 -8.2107 0.0000 0.0000 0.0000
# 3 -10.2856 -8.2107 62.6178 0.0000 0.0000 0.0000
# 4 0.0000 0.0000 0.0000 12.8719 0.0000 0.0000
# 5 0.0000 0.0000 0.0000 0.0000 13.6747 0.0000
# 6 0.0000 0.0000 0.0000 0.0000 0.0000 40.0129
#
#
#
# Elastic Compliance Matrix: (Units=1/GPa)
#
#
# Indices 1 2 3 4 5 6 
#
# 1 0.056291 -0.014056 0.007403 0.000000 0.000000 0.000000
# 2 -0.014056 0.019462 0.000243 0.000000 0.000000 0.000000
# 3 0.007403 0.000243 0.017218 0.000000 0.000000 0.000000
# 4 0.000000 0.000000 0.000000 0.077689 0.000000 0.000000
# 5 0.000000 0.000000 0.000000 0.000000 0.073128 0.000000
# 6 0.000000 0.000000 0.000000 0.000000 0.000000 0.024992
#
#
# Mechanical properties :
#
#
# Convention : Reuss Voigt Hill
#
# Bulk Modulus (GPa) = 12.47647 16.30631 14.39139
# Shear Modulus (GPa) = 16.21712 23.39450 19.80581
#
# Velocity S-wave (km/s) = 2.70545 3.24945 2.98985
# Velocity P-wave (km/s) = 3.92307 4.63015 4.29120
#
# Compressibility (1/GPa) = 0.08015086
#
# Stress axis : x y z
#
# Youngs Moduli (GPa) = 17.76485 51.38175 58.07939
#
# Poissons Ratio (x) = 0.72224 -0.42997
# Poissons Ratio (y) = 0.24971 -0.01412
# Poissons Ratio (z) = -0.13152 -0.01249
#
# Static dielectric constant tensor:
#      x y z
#    x 1.773900 0.000000 0.000000 
#    y 0.000000 1.803150 0.000000 
#    z 0.000000 0.000000 1.890010 
# 
# From -- ./inp_files/6325.got.cif
#   From: 2010.05.17/outbox.cif.g08.bks.cpg/sg58_4_cif.got.tgz:6325.got - 2010.06.03 14:20:14.
