data_PCOD9444341
_publ_section_title
;
Structure prediction by ZEFSAII (Michael W. Deem and Ramdas Pophale) SiO2 
 PCOD9444341
Probable space group: P N N M
;
_chemical_formula_sum "Si O2"
_cell_formula_units_Z 56
_cell_length_a 14.754367
_cell_length_b 21.379719
_cell_length_c 7.553246
_cell_angle_alpha 90.000000
_cell_angle_beta 90.000000
_cell_angle_gamma 90.000000
_cell_volume 2382.627797
_symmetry_space_group_name_H-M "P N N M"
_symmetry_group_IT_number 58
_symmetry_cell_setting 'orthorhombic'
loop_
_space_group_symop_operation_xyz
x,y,z
-x,-y,z
1/2+x,1/2-y,1/2-z
1/2-x,1/2+y,1/2-z
-x,-y,-z
x,y,-z
1/2-x,1/2+y,1/2+z
1/2+x,1/2-y,1/2+z
loop_
_atom_site_type_symbol
_atom_site_label
_atom_site_fract_x
_atom_site_fract_y
_atom_site_fract_z
Si Si1 0.921621 0.675794 0.716097
Si Si2 0.612208 0.766587 0.788218
Si Si3 0.907255 0.532944 0.282656
Si Si4 0.810649 0.794576 0.710771
Si Si5 0.567885 0.410737 0.297137
Si Si6 0.129530 0.873525 0.701863
Si Si7 0.216461 0.997646 0.202243
O O1 0.921816 0.674477 0.500000
O O2 0.905740 0.605115 0.774745
O O3 0.846124 0.726337 0.770138
O O4 0.020101 0.701153 0.775110
O O5 0.704997 0.802808 0.751722
O O6 0.625582 0.695961 0.718481
O O7 0.601510 0.760594 0.000000
O O8 0.904520 0.532459 0.500000
O O9 0.816688 0.497755 0.220238
O O10 0.000000 0.500000 0.229086
O O11 0.823755 0.798447 0.500000
O O12 0.873464 0.847525 0.793396
O O13 0.544246 0.427513 0.500000
O O14 0.473366 0.398476 0.203310
O O15 0.633630 0.463571 0.217032
O O16 0.162305 0.869859 0.500000
O O17 0.190389 0.924718 0.797575
O O18 0.221493 0.020919 0.000000
#
# Coordination Sequence:
#
# PCOD9444341 Si02
#       7
#     8   8   8   8   8   8   8
#     4   9  18  35  57  81 116 150 184 236 290 345
#     4  10  21  37  58  85 117 153 192 240 296 351
#     4   9  18  33  58  87 113 148 194 241 290 347
#     4  11  22  38  59  87 119 156 200 244 294 357
#     4  11  23  38  59  87 121 155 194 251 303 355
#     4  11  22  39  61  87 120 158 198 244 300 364
#     4  10  22  38  58  88 119 153 201 249 299 358
#
# _framework density 23.503461000000001
#
# number of rings (size 3 to 8) (size 9 to 14) (size 15 to 20)
#    0.000    1.857    1.429    2.571    2.000    5.143 
#    0.000    0.000    0.000    1.286    0.000    0.000 
#    0.000    0.000    0.000    0.000    0.000    0.000 
#
# Total GULP energy -313226.916775 kJ/mol
# GULP energy per Si atom -5593.337800 kJ/mol
# Density = 2.344997 g / cm^3
# Si number density = 23.503461 Si / 1000 Ang^3
#
#
#
# Elastic Constant Matrix: (Units=GPa)
#
#
# Indices 1 2 3 4 5 6 
#
# 1 113.7192 -2.6039 -10.2137 0.0000 0.0000 0.0000
# 2 -2.6039 61.9122 -4.3128 0.0000 0.0000 0.0000
# 3 -10.2137 -4.3128 62.0742 0.0000 0.0000 0.0000
# 4 0.0000 0.0000 0.0000 9.7314 0.0000 0.0000
# 5 0.0000 0.0000 0.0000 0.0000 29.8546 0.0000
# 6 0.0000 0.0000 0.0000 0.0000 0.0000 22.9649
#
#
#
# Elastic Compliance Matrix: (Units=1/GPa)
#
#
# Indices 1 2 3 4 5 6 
#
# 1 0.008940 0.000481 0.001504 0.000000 0.000000 0.000000
# 2 0.000481 0.016256 0.001209 0.000000 0.000000 0.000000
# 3 0.001504 0.001209 0.016441 0.000000 0.000000 0.000000
# 4 0.000000 0.000000 0.000000 0.102760 0.000000 0.000000
# 5 0.000000 0.000000 0.000000 0.000000 0.033496 0.000000
# 6 0.000000 0.000000 0.000000 0.000000 0.000000 0.043545
#
#
# Mechanical properties :
#
#
# Convention : Reuss Voigt Hill
#
# Bulk Modulus (GPa) = 20.82262 22.60496 21.71379
# Shear Modulus (GPa) = 21.63950 29.49924 25.56937
#
# Velocity S-wave (km/s) = 3.03759 3.54659 3.30191
# Velocity P-wave (km/s) = 4.60230 5.13903 4.87805
#
# Compressibility (1/GPa) = 0.04802469
#
# Stress axis : x y z
#
# Youngs Moduli (GPa) = 111.86046 61.51453 60.82262
#
# Poissons Ratio (x) = -0.02958 -0.09150
# Poissons Ratio (y) = -0.05378 -0.07351
# Poissons Ratio (z) = -0.16828 -0.07434
#
# Static dielectric constant tensor:
#      x y z
#    x 1.853740 0.000000 0.000000 
#    y 0.000000 1.866740 0.000000 
#    z 0.000000 0.000000 1.868610 
# 
# From -- ./inp_files/6372.got.cif
#   From: 2010.05.17/outbox.cif.g08.bks.cpg/sg58_4_cif.got.tgz:6372.got - 2010.06.03 14:20:14.
