data_PCOD9444446
_publ_section_title
;
Structure prediction by ZEFSAII (Michael W. Deem and Ramdas Pophale) SiO2 
 PCOD9444446
Probable space group: P N N M
;
_chemical_formula_sum "Si O2"
_cell_formula_units_Z 58
_cell_length_a 8.501953
_cell_length_b 34.269779
_cell_length_c 9.883689
_cell_angle_alpha 90.000000
_cell_angle_beta 90.000000
_cell_angle_gamma 90.000000
_cell_volume 2879.712125
_symmetry_space_group_name_H-M "P N N M"
_symmetry_group_IT_number 58
_symmetry_cell_setting 'orthorhombic'
loop_
_space_group_symop_operation_xyz
x,y,z
-x,-y,z
1/2+x,1/2-y,1/2-z
1/2-x,1/2+y,1/2-z
-x,-y,-z
x,y,-z
1/2-x,1/2+y,1/2+z
1/2+x,1/2-y,1/2+z
loop_
_atom_site_type_symbol
_atom_site_label
_atom_site_fract_x
_atom_site_fract_y
_atom_site_fract_z
Si Si1 0.673564 0.298379 0.839442
Si Si2 0.829504 0.378272 0.837888
Si Si3 0.138731 0.049461 0.246405
Si Si4 0.677316 0.733801 0.841660
Si Si5 0.153472 0.481139 0.656617
Si Si6 0.324048 0.846979 0.660323
Si Si7 0.000000 0.000000 0.500000
Si Si8 0.332282 0.406915 0.658114
O O1 0.709649 0.343175 0.802509
O O2 0.494203 0.284986 0.817506
O O3 0.783941 0.269776 0.754039
O O4 0.707452 0.294616 0.000000
O O5 0.775195 0.418922 0.774869
O O6 0.003810 0.363093 0.802193
O O7 0.825764 0.383047 0.000000
O O8 0.001368 0.073190 0.173042
O O9 0.210953 0.013366 0.164671
O O10 0.068353 0.029919 0.381608
O O11 0.802917 0.699091 0.817963
O O12 0.685129 0.745116 0.000000
O O13 0.117073 0.472823 0.500000
O O14 0.213548 0.440429 0.713810
O O15 0.000000 0.500000 0.723545
O O16 0.297579 0.853998 0.500000
O O17 0.196635 0.869728 0.749267
O O18 0.302071 0.398607 0.500000
#
# Coordination Sequence:
#
# PCOD9444446 Si02
#       8
#     8   8   8   8   8   8   2   8
#     4  10  21  38  62  89 118 158 195 239 293 352
#     4  10  21  38  60  87 118 152 196 247 297 352
#     4  12  22  39  58  87 119 153 201 248 304 358
#     4  10  21  39  61  90 121 155 196 240 294 353
#     4  10  21  38  58  79 109 150 190 238 297 354
#     4  10  22  39  62  88 116 155 196 245 298 350
#     4  12  24  36  60  92 112 164 200 256 300 364
#     4  11  23  38  58  84 116 153 195 240 294 352
#
# _framework density 20.140902000000001
#
# number of rings (size 3 to 8) (size 9 to 14) (size 15 to 20)
#    0.000    1.517    2.069    2.897    0.966    4.414 
#    0.000    4.483    0.000    0.000    0.000    0.000 
#    0.000    0.000    0.000    0.000    0.000    0.000 
#
# Total GULP energy -323355.735251 kJ/mol
# GULP energy per Si atom -5575.098884 kJ/mol
# Density = 2.009506 g / cm^3
# Si number density = 20.140902 Si / 1000 Ang^3
#
#
#
# Elastic Constant Matrix: (Units=GPa)
#
#
# Indices 1 2 3 4 5 6 
#
# 1 45.2792 -0.4011 6.5239 0.0000 0.0000 0.0000
# 2 -0.4011 75.2151 19.0027 0.0000 0.0000 0.0000
# 3 6.5239 19.0027 27.9759 0.0000 0.0000 0.0000
# 4 0.0000 0.0000 0.0000 25.0588 0.0000 0.0000
# 5 0.0000 0.0000 0.0000 0.0000 17.1163 0.0000
# 6 0.0000 0.0000 0.0000 0.0000 0.0000 39.7553
#
#
#
# Elastic Compliance Matrix: (Units=1/GPa)
#
#
# Indices 1 2 3 4 5 6 
#
# 1 0.023050 0.001788 -0.006590 0.000000 0.000000 0.000000
# 2 0.001788 0.016188 -0.011413 0.000000 0.000000 0.000000
# 3 -0.006590 -0.011413 0.045034 0.000000 0.000000 0.000000
# 4 0.000000 0.000000 0.000000 0.039906 0.000000 0.000000
# 5 0.000000 0.000000 0.000000 0.000000 0.058424 0.000000
# 6 0.000000 0.000000 0.000000 0.000000 0.000000 0.025154
#
#
# Mechanical properties :
#
#
# Convention : Reuss Voigt Hill
#
# Bulk Modulus (GPa) = 19.28892 22.08014 20.68453
# Shear Modulus (GPa) = 19.41999 24.60905 22.01452
#
# Velocity S-wave (km/s) = 3.10854 3.49928 3.30968
# Velocity P-wave (km/s) = 4.74150 5.22621 4.98974
#
# Compressibility (1/GPa) = 0.05184323
#
# Stress axis : x y z
#
# Youngs Moduli (GPa) = 43.38302 61.77375 22.20552
#
# Poissons Ratio (x) = -0.11044 0.14633
# Poissons Ratio (y) = -0.07756 0.25343
# Poissons Ratio (z) = 0.28588 0.70501
#
# Static dielectric constant tensor:
#      x y z
#    x 1.768710 0.000000 0.000000 
#    y 0.000000 1.681390 0.000000 
#    z 0.000000 0.000000 1.679790 
# 
# From -- ./inp_files/13298.got.cif
#   From: 2010.05.17/outbox.cif.g08.bks.cpg/sg58_7_cif.got.tgz:13298.got - 2010.06.03 14:20:14.
