data_PCOD9444893
_publ_section_title
;
Structure prediction by ZEFSAII (Michael W. Deem and Ramdas Pophale) SiO2 
 PCOD9444893
Probable space group: P N N M
;
_chemical_formula_sum "Si O2"
_cell_formula_units_Z 60
_cell_length_a 6.176187
_cell_length_b 20.175550
_cell_length_c 26.366484
_cell_angle_alpha 90.000000
_cell_angle_beta 90.000000
_cell_angle_gamma 90.000000
_cell_volume 3285.474037
_symmetry_space_group_name_H-M "P N N M"
_symmetry_group_IT_number 58
_symmetry_cell_setting 'orthorhombic'
loop_
_space_group_symop_operation_xyz
x,y,z
-x,-y,z
1/2+x,1/2-y,1/2-z
1/2-x,1/2+y,1/2-z
-x,-y,-z
x,y,-z
1/2-x,1/2+y,1/2+z
1/2+x,1/2-y,1/2+z
loop_
_atom_site_type_symbol
_atom_site_label
_atom_site_fract_x
_atom_site_fract_y
_atom_site_fract_z
Si Si1 0.382061 0.774637 0.763453
Si Si2 0.214392 0.884880 0.691635
Si Si3 0.000000 0.500000 0.782186
Si Si4 0.412453 0.647440 0.371145
Si Si5 0.131752 0.565828 0.557080
Si Si6 0.883110 0.932209 0.229324
Si Si7 0.699148 0.189238 0.057187
Si Si8 0.061935 0.763053 0.630717
O O1 0.634844 0.755288 0.746900
O O2 0.346565 0.842913 0.733761
O O3 0.411897 0.764385 0.823366
O O4 0.152766 0.834875 0.646486
O O5 0.994457 0.906123 0.719559
O O6 0.350423 0.951755 0.684182
O O7 0.854303 0.455139 0.744909
O O8 0.307401 0.586330 0.401975
O O9 0.421238 0.622652 0.313439
O O10 0.622694 0.667342 0.402347
O O11 0.260050 0.711730 0.371811
O O12 0.222189 0.556811 0.500000
O O13 0.000000 0.500000 0.570468
O O14 0.969550 0.628242 0.555468
O O15 0.000000 0.000000 0.212665
O O16 0.573353 0.252942 0.079420
O O17 0.783784 0.199096 0.000000
#
# Coordination Sequence:
#
# PCOD9444893 Si02
#       8
#     8   8   4   8   8   8   8   8
#     4  10  22  35  59  89 122 157 201 254 295 359
#     4  10  22  36  57  81 115 155 193 246 299 371
#     4  10  22  38  54  76 120 158 188 244 296 370
#     4  11  22  34  56  80 106 153 196 247 292 361
#     4   9  20  36  52  73 103 144 196 253 299 341
#     4  10  23  36  51  81 117 153 195 240 297 350
#     4  10  22  38  55  80 113 147 198 261 316 360
#     4  10  23  35  58  83 111 149 196 247 305 362
#
# _framework density 18.262205000000002
#
# number of rings (size 3 to 8) (size 9 to 14) (size 15 to 20)
#    0.000    2.000    0.000    2.000   17.733    2.667 
#    0.000    2.000    0.000    0.000    0.000    0.467 
#    0.000    5.867    0.000    0.133    0.000    0.000 
#
# Total GULP energy -334087.947330 kJ/mol
# GULP energy per Si atom -5568.132456 kJ/mol
# Density = 1.822064 g / cm^3
# Si number density = 18.262205 Si / 1000 Ang^3
#
#
#
# Elastic Constant Matrix: (Units=GPa)
#
#
# Indices 1 2 3 4 5 6 
#
# 1 71.0070 27.0412 30.1274 0.0000 0.0000 0.0000
# 2 27.0412 75.0236 36.8494 0.0000 0.0000 0.0000
# 3 30.1274 36.8494 55.6461 0.0000 0.0000 0.0000
# 4 0.0000 0.0000 0.0000 23.2264 0.0000 0.0000
# 5 0.0000 0.0000 0.0000 0.0000 -14.2796 0.0000
# 6 0.0000 0.0000 0.0000 0.0000 0.0000 27.1137
#
#
#
# Elastic Compliance Matrix: (Units=1/GPa)
#
#
# Indices 1 2 3 4 5 6 
#
# 1 0.018621 -0.002608 -0.008354 0.000000 0.000000 0.000000
# 2 -0.002608 0.020120 -0.011911 0.000000 0.000000 0.000000
# 3 -0.008354 -0.011911 0.030382 0.000000 0.000000 0.000000
# 4 0.000000 0.000000 0.000000 0.043055 0.000000 0.000000
# 5 0.000000 0.000000 0.000000 0.000000 -0.070030 0.000000
# 6 0.000000 0.000000 0.000000 0.000000 0.000000 0.036882
#
#
# Mechanical properties :
#
#
# Convention : Reuss Voigt Hill
#
# Bulk Modulus (GPa) = 42.78177 43.30140 43.04159
# Shear Modulus (GPa) = 37.71643 14.38935 26.05289
#
# Velocity S-wave (km/s) = 4.54946 2.81006 3.78114
# Velocity P-wave (km/s) = 7.14661 5.85585 6.53318
#
# Compressibility (1/GPa) = 0.02337444
#
# Stress axis : x y z
#
# Youngs Moduli (GPa) = 53.70258 49.70236 32.91454
#
# Poissons Ratio (x) = 0.12964 0.27498
# Poissons Ratio (y) = 0.14007 0.39206
# Poissons Ratio (z) = 0.44866 0.59202
#
# Static dielectric constant tensor:
#      x y z
#    x 1.706960 0.000000 0.000000 
#    y 0.000000 1.648930 0.000000 
#    z 0.000000 0.000000 1.634030 
# 
# From -- ./inp_files/31061.got.cif
#   From: 2010.05.17/outbox.cif.g08.bks.cpg/sg58_16_cif.got.tgz:31061.got - 2010.06.03 14:20:14.
