data_PCOD9444278
_publ_section_title
;
Structure prediction by ZEFSAII (Michael W. Deem and Ramdas Pophale) SiO2 
 PCOD9444278
Probable space group: P N N M
;
_chemical_formula_sum "Si O2"
_cell_formula_units_Z 64
_cell_length_a 20.596594
_cell_length_b 20.591150
_cell_length_c 8.714625
_cell_angle_alpha 90.000000
_cell_angle_beta 90.000000
_cell_angle_gamma 90.000000
_cell_volume 3695.938315
_symmetry_space_group_name_H-M "P N N M"
_symmetry_group_IT_number 58
_symmetry_cell_setting 'orthorhombic'
loop_
_space_group_symop_operation_xyz
x,y,z
-x,-y,z
1/2+x,1/2-y,1/2-z
1/2-x,1/2+y,1/2-z
-x,-y,-z
x,y,-z
1/2-x,1/2+y,1/2+z
1/2+x,1/2-y,1/2+z
loop_
_atom_site_type_symbol
_atom_site_label
_atom_site_fract_x
_atom_site_fract_y
_atom_site_fract_z
Si Si1 0.925044 0.175581 0.814310
Si Si2 0.574220 0.324729 0.684488
Si Si3 0.824576 0.926686 0.684175
Si Si4 0.923372 0.675363 0.814332
Si Si5 0.675687 0.931349 0.685992
Si Si6 0.572368 0.824279 0.686442
Si Si7 0.321205 0.424193 0.815942
Si Si8 0.821178 0.573910 0.317189
O O1 0.911605 0.250349 0.767658
O O2 0.874609 0.125830 0.742791
O O3 0.999686 0.161081 0.769295
O O4 0.921138 0.172281 0.000000
O O5 0.575562 0.326385 0.500000
O O6 0.624990 0.376152 0.747519
O O7 0.589683 0.250374 0.729922
O O8 0.828167 0.923046 0.500000
O O9 0.749698 0.913120 0.728719
O O10 0.838243 0.001465 0.729186
O O11 0.873086 0.626024 0.741098
O O12 0.998075 0.660922 0.769066
O O13 0.919422 0.671024 0.000000
O O14 0.673458 0.935888 0.500000
O O15 0.624113 0.877565 0.737998
O O16 0.661972 0.002382 0.753061
O O17 0.573213 0.824448 0.500000
O O18 0.250408 0.409661 0.746869
O O19 0.316589 0.422186 0.000000
O O20 0.819385 0.572453 0.500000
#
# Coordination Sequence:
#
# PCOD9444278 Si02
#       8
#     8   8   8   8   8   8   8   8
#     4   9  18  34  54  79 106 134 170 212 253 299
#     4   9  19  34  53  76 105 137 171 210 253 300
#     4   9  19  33  50  73 103 134 171 215 255 300
#     4   9  18  35  55  76 103 137 173 209 249 303
#     4   9  18  35  55  75 100 134 172 211 253 304
#     4   8  16  33  57  78 101 136 175 208 248 304
#     4  10  21  37  54  75 102 135 172 211 254 306
#     4  11  22  35  52  76 104 135 169 212 258 302
#
# _framework density 17.316306000000001
#
# number of rings (size 3 to 8) (size 9 to 14) (size 15 to 20)
#    0.000    2.750    0.000    3.750    0.000    5.500 
#    0.000    9.375    0.000    0.000    0.000    0.000 
#    0.000    0.000    0.000    0.000    0.000    0.000 
#
# Total GULP energy -356919.878779 kJ/mol
# GULP energy per Si atom -5576.873106 kJ/mol
# Density = 1.727689 g / cm^3
# Si number density = 17.316306 Si / 1000 Ang^3
#
#
#
# Elastic Constant Matrix: (Units=GPa)
#
#
# Indices 1 2 3 4 5 6 
#
# 1 161.0293 148.0240 46.4982 0.0000 0.0000 0.0000
# 2 148.0240 158.5613 45.9462 0.0000 0.0000 0.0000
# 3 46.4982 45.9462 35.2111 0.0000 0.0000 0.0000
# 4 0.0000 0.0000 0.0000 27.4825 0.0000 0.0000
# 5 0.0000 0.0000 0.0000 0.0000 28.3886 0.0000
# 6 0.0000 0.0000 0.0000 0.0000 0.0000 43.9288
#
#
#
# Elastic Compliance Matrix: (Units=1/GPa)
#
#
# Indices 1 2 3 4 5 6 
#
# 1 0.044946 -0.039815 -0.007400 0.000000 0.000000 0.000000
# 2 -0.039815 0.045411 -0.006678 0.000000 0.000000 0.000000
# 3 -0.007400 -0.006678 0.046886 0.000000 0.000000 0.000000
# 4 0.000000 0.000000 0.000000 0.036387 0.000000 0.000000
# 5 0.000000 0.000000 0.000000 0.000000 0.035225 0.000000
# 6 0.000000 0.000000 0.000000 0.000000 0.000000 0.022764
#
#
# Mechanical properties :
#
#
# Convention : Reuss Voigt Hill
#
# Bulk Modulus (GPa) = 33.94739 92.85984 63.40361
# Shear Modulus (GPa) = 14.31741 27.58220 20.94981
#
# Velocity S-wave (km/s) = 2.87856 3.99538 3.48204
# Velocity P-wave (km/s) = 5.54031 8.66176 7.27053
#
# Compressibility (1/GPa) = 0.02945735
#
# Stress axis : x y z
#
# Youngs Moduli (GPa) = 22.24869 22.02119 21.32820
#
# Poissons Ratio (x) = 0.87678 0.15784
# Poissons Ratio (y) = 0.88583 0.14242
# Poissons Ratio (z) = 0.16465 0.14705
#
# Static dielectric constant tensor:
#      x y z
#    x 1.570560 0.000000 0.000000 
#    y 0.000000 1.570530 0.000000 
#    z 0.000000 0.000000 1.588380 
# 
# From -- ./inp_files/8404.got.cif
#   From: 2010.05.17/outbox.cif.g08.bks.cpg/sg58_5_cif.got.tgz:8404.got - 2010.06.03 14:20:14.
