data_PCOD9444279
_publ_section_title
;
Structure prediction by ZEFSAII (Michael W. Deem and Ramdas Pophale) SiO2 
 PCOD9444279
Probable space group: P N N M
;
_chemical_formula_sum "Si O2"
_cell_formula_units_Z 64
_cell_length_a 12.658447
_cell_length_b 29.066602
_cell_length_c 8.762329
_cell_angle_alpha 90.000000
_cell_angle_beta 90.000000
_cell_angle_gamma 90.000000
_cell_volume 3223.994166
_symmetry_space_group_name_H-M "P N N M"
_symmetry_group_IT_number 58
_symmetry_cell_setting 'orthorhombic'
loop_
_space_group_symop_operation_xyz
x,y,z
-x,-y,z
1/2+x,1/2-y,1/2-z
1/2-x,1/2+y,1/2-z
-x,-y,-z
x,y,-z
1/2-x,1/2+y,1/2+z
1/2+x,1/2-y,1/2+z
loop_
_atom_site_type_symbol
_atom_site_label
_atom_site_fract_x
_atom_site_fract_y
_atom_site_fract_z
Si Si1 0.947381 0.408832 0.817372
Si Si2 0.114495 0.103519 0.174493
Si Si3 0.017235 0.818744 0.680365
Si Si4 0.822046 0.330608 0.673727
Si Si5 0.749484 0.472183 0.184186
Si Si6 0.163975 0.244792 0.816425
Si Si7 0.257858 0.330928 0.319713
Si Si8 0.687139 0.074255 0.684793
O O1 0.911415 0.358365 0.762529
O O2 0.857293 0.445328 0.769751
O O3 0.063876 0.423497 0.767613
O O4 0.947361 0.408752 0.000000
O O5 0.220255 0.135292 0.173157
O O6 0.152773 0.054930 0.239885
O O7 0.033319 0.131575 0.278432
O O8 0.076483 0.100523 0.000000
O O9 0.033992 0.814391 0.500000
O O10 0.126062 0.815046 0.769823
O O11 0.934172 0.780855 0.739381
O O12 0.857578 0.323529 0.500000
O O13 0.770400 0.283366 0.732026
O O14 0.761991 0.525363 0.225696
O O15 0.740667 0.468615 0.000000
O O16 0.176334 0.296894 0.764112
O O17 0.156260 0.240777 0.000000
O O18 0.243789 0.328091 0.500000
O O19 0.242975 0.382546 0.260579
O O20 0.691413 0.078413 0.500000
#
# Coordination Sequence:
#
# PCOD9444279 Si02
#       8
#     8   8   8   8   8   8   8   8
#     4   9  17  30  53  83 114 149 187 229 279 335
#     4   9  17  32  55  84 115 145 182 231 283 336
#     4  11  22  40  65  89 114 147 187 233 287 342
#     4   8  16  30  51  80 112 143 178 224 274 328
#     4   9  17  32  56  84 113 149 193 237 285 343
#     4  10  21  40  63  87 115 148 189 236 285 339
#     4  12  26  42  59  83 116 154 194 235 284 340
#     4  10  21  37  54  77 114 155 194 240 290 339
#
# _framework density 19.851151999999999
#
# number of rings (size 3 to 8) (size 9 to 14) (size 15 to 20)
#    0.000    2.250    0.000    4.125    0.000    7.000 
#    0.000    3.125    0.000    7.500    0.000    0.000 
#    0.000    0.000    0.000    0.000    0.000    0.000 
#
# Total GULP energy -357333.150157 kJ/mol
# GULP energy per Si atom -5583.330471 kJ/mol
# Density = 1.980597 g / cm^3
# Si number density = 19.851152 Si / 1000 Ang^3
#
#
#
# Elastic Constant Matrix: (Units=GPa)
#
#
# Indices 1 2 3 4 5 6 
#
# 1 -141.9578 329.9175 19.8637 0.0000 0.0000 0.0000
# 2 329.9175 -483.8431 -30.3826 0.0000 0.0000 0.0000
# 3 19.8637 -30.3826 27.4542 0.0000 0.0000 0.0000
# 4 0.0000 0.0000 0.0000 16.2235 0.0000 0.0000
# 5 0.0000 0.0000 0.0000 0.0000 21.2288 0.0000
# 6 0.0000 0.0000 0.0000 0.0000 0.0000 18.0202
#
#
#
# Elastic Compliance Matrix: (Units=1/GPa)
#
#
# Indices 1 2 3 4 5 6 
#
# 1 0.012051 0.008195 0.000350 0.000000 0.000000 0.000000
# 2 0.008195 0.003641 -0.001900 0.000000 0.000000 0.000000
# 3 0.000350 -0.001900 0.034068 0.000000 0.000000 0.000000
# 4 0.000000 0.000000 0.000000 0.061639 0.000000 0.000000
# 5 0.000000 0.000000 0.000000 0.000000 0.047106 0.000000
# 6 0.000000 0.000000 0.000000 0.000000 0.000000 0.055493
#
#
# Mechanical properties :
#
#
# Convention : Reuss Voigt Hill
#
# Bulk Modulus (GPa) = 15.86035 4.49452 10.17744
# Shear Modulus (GPa) = 22.55050 -50.08854 -13.76902
#
# Velocity S-wave (km/s) = 3.37409 -5.02860 -2.63651
# Velocity P-wave (km/s) = 4.81521 5.60774 2.03230
#
# Compressibility (1/GPa) = 0.06305031
#
# Stress axis : x y z
#
# Youngs Moduli (GPa) = 82.97789 274.66494 29.35332
#
# Poissons Ratio (x) = -2.25101 -0.01028
# Poissons Ratio (y) = -0.68004 0.05579
# Poissons Ratio (z) = -0.02906 0.52199
#
# Static dielectric constant tensor:
#      x y z
#    x 1.710760 0.000000 0.000000 
#    y 0.000000 1.704430 0.000000 
#    z 0.000000 0.000000 1.668510 
# 
# From -- ./inp_files/4810.got.cif
#   From: 2010.05.17/outbox.cif.g08.bks.cpg/sg58_3_cif.got.tgz:4810.got - 2010.06.03 14:20:14.
