data_PCOD9444175
_publ_section_title
;
Structure prediction by ZEFSAII (Michael W. Deem and Ramdas Pophale) SiO2 
 PCOD9444175
Probable space group: P N N M
;
_chemical_formula_sum "Si O2"
_cell_formula_units_Z 64
_cell_length_a 14.321951
_cell_length_b 24.691983
_cell_length_c 9.217528
_cell_angle_alpha 90.000000
_cell_angle_beta 90.000000
_cell_angle_gamma 90.000000
_cell_volume 3259.662366
_symmetry_space_group_name_H-M "P N N M"
_symmetry_group_IT_number 58
_symmetry_cell_setting 'orthorhombic'
loop_
_space_group_symop_operation_xyz
x,y,z
-x,-y,z
1/2+x,1/2-y,1/2-z
1/2-x,1/2+y,1/2-z
-x,-y,-z
x,y,-z
1/2-x,1/2+y,1/2+z
1/2+x,1/2-y,1/2+z
loop_
_atom_site_type_symbol
_atom_site_label
_atom_site_fract_x
_atom_site_fract_y
_atom_site_fract_z
Si Si1 0.988801 0.869273 0.673690
Si Si2 0.189401 0.322174 0.834458
Si Si3 0.953111 0.575338 0.166908
Si Si4 0.191080 0.492418 0.667189
Si Si5 0.330813 0.389851 0.666252
Si Si6 0.608559 0.845005 0.324064
Si Si7 0.783438 0.906480 0.674465
Si Si8 0.020983 0.246229 0.175403
O O1 0.993691 0.866351 0.500000
O O2 0.890200 0.896120 0.715152
O O3 0.991310 0.809806 0.743689
O O4 0.078206 0.899826 0.737575
O O5 0.119391 0.373924 0.835821
O O6 0.273502 0.338823 0.730481
O O7 0.122327 0.272716 0.791810
O O8 0.222689 0.314479 0.000000
O O9 0.903122 0.528576 0.256455
O O10 0.047162 0.603156 0.225765
O O11 0.966964 0.558759 0.000000
O O12 0.174160 0.506673 0.500000
O O13 0.262170 0.441308 0.670833
O O14 0.239958 0.540955 0.751789
O O15 0.357294 0.379504 0.500000
O O16 0.601032 0.845288 0.500000
O O17 0.715478 0.856156 0.285684
O O18 0.557845 0.789958 0.278002
O O19 0.778967 0.912650 0.500000
O O20 0.015789 0.240086 0.000000
#
# Coordination Sequence:
#
# PCOD9444175 Si02
#       8
#     8   8   8   8   8   8   8   8
#     4  11  24  38  53  78 109 142 187 234 271 318
#     4   8  15  30  54  83 110 135 170 216 261 312
#     4   8  14  29  55  82 108 140 176 211 251 310
#     4  10  21  36  55  81 110 139 176 224 277 326
#     4  10  21  37  57  78 103 140 183 227 275 325
#     4   8  16  34  59  84 109 143 184 216 254 321
#     4  10  22  39  56  76 107 145 182 220 264 320
#     4   9  18  35  59  84 112 144 175 215 269 323
#
# _framework density 19.633935999999999
#
# number of rings (size 3 to 8) (size 9 to 14) (size 15 to 20)
#    0.000    2.750    0.000    2.625    0.000    5.000 
#    0.000    9.375    0.000    0.000    0.000    0.000 
#    0.000    0.000    0.000    0.000    0.000    0.000 
#
# Total GULP energy -357164.436042 kJ/mol
# GULP energy per Si atom -5580.694313 kJ/mol
# Density = 1.958925 g / cm^3
# Si number density = 19.633936 Si / 1000 Ang^3
#
#
#
# Elastic Constant Matrix: (Units=GPa)
#
#
# Indices 1 2 3 4 5 6 
#
# 1 88.0012 0.3227 30.4096 0.0000 0.0000 0.0000
# 2 0.3227 39.5005 9.2689 0.0000 0.0000 0.0000
# 3 30.4096 9.2689 41.7271 0.0000 0.0000 0.0000
# 4 0.0000 0.0000 0.0000 25.7953 0.0000 0.0000
# 5 0.0000 0.0000 0.0000 0.0000 0.7140 0.0000
# 6 0.0000 0.0000 0.0000 0.0000 0.0000 53.9446
#
#
#
# Elastic Compliance Matrix: (Units=1/GPa)
#
#
# Indices 1 2 3 4 5 6 
#
# 1 0.015448 0.002654 -0.011847 0.000000 0.000000 0.000000
# 2 0.002654 0.027164 -0.007968 0.000000 0.000000 0.000000
# 3 -0.011847 -0.007968 0.034369 0.000000 0.000000 0.000000
# 4 0.000000 0.000000 0.000000 0.038767 0.000000 0.000000
# 5 0.000000 0.000000 0.000000 0.000000 1.400564 0.000000
# 6 0.000000 0.000000 0.000000 0.000000 0.000000 0.018538
#
#
# Mechanical properties :
#
#
# Convention : Reuss Voigt Hill
#
# Bulk Modulus (GPa) = 23.44231 27.69238 25.56734
# Shear Modulus (GPa) = 3.15778 24.70596 13.93187
#
# Velocity S-wave (km/s) = 1.26957 3.55114 2.66669
# Velocity P-wave (km/s) = 3.75695 5.56319 4.74678
#
# Compressibility (1/GPa) = 0.04265791
#
# Stress axis : x y z
#
# Youngs Moduli (GPa) = 64.73448 36.81319 29.09580
#
# Poissons Ratio (x) = -0.09770 0.34471
# Poissons Ratio (y) = -0.17179 0.23184
# Poissons Ratio (z) = 0.76693 0.29333
#
# Static dielectric constant tensor:
#      x y z
#    x 1.717010 0.000000 0.000000 
#    y 0.000000 1.692110 0.000000 
#    z 0.000000 0.000000 1.656240 
# 
# From -- ./inp_files/6898.got.cif
#   From: 2010.05.17/outbox.cif.g08.bks.cpg/sg58_4_cif.got.tgz:6898.got - 2010.06.03 14:20:14.
