data_PCOD9444283
_publ_section_title
;
Structure prediction by ZEFSAII (Michael W. Deem and Ramdas Pophale) SiO2 
 PCOD9444283
Probable space group: P N N M
;
_chemical_formula_sum "Si O2"
_cell_formula_units_Z 48
_cell_length_a 15.360340
_cell_length_b 19.309709
_cell_length_c 8.435054
_cell_angle_alpha 90.000000
_cell_angle_beta 90.000000
_cell_angle_gamma 90.000000
_cell_volume 2501.868188
_symmetry_space_group_name_H-M "P N N M"
_symmetry_group_IT_number 58
_symmetry_cell_setting 'orthorhombic'
loop_
_space_group_symop_operation_xyz
x,y,z
-x,-y,z
1/2+x,1/2-y,1/2-z
1/2-x,1/2+y,1/2-z
-x,-y,-z
x,y,-z
1/2-x,1/2+y,1/2+z
1/2+x,1/2-y,1/2+z
loop_
_atom_site_type_symbol
_atom_site_label
_atom_site_fract_x
_atom_site_fract_y
_atom_site_fract_z
Si Si1 0.107707 0.929130 0.692539
Si Si2 0.238659 0.328110 0.807774
Si Si3 0.750665 0.330379 0.311567
Si Si4 0.390683 0.061757 0.684878
Si Si5 0.590177 0.412397 0.807969
Si Si6 0.079474 0.413483 0.314255
O O1 0.108508 0.928745 0.500000
O O2 0.184508 0.879430 0.747025
O O3 0.010889 0.904842 0.738858
O O4 0.118118 0.009410 0.738625
O O5 0.258023 0.249371 0.760036
O O6 0.147841 0.356509 0.742124
O O7 0.235080 0.330406 0.000000
O O8 0.764113 0.333357 0.500000
O O9 0.820135 0.381296 0.231621
O O10 0.655147 0.358258 0.268477
O O11 0.382688 0.044934 0.500000
O O12 0.487809 0.088675 0.722672
O O13 0.381022 0.989713 0.779191
O O14 0.595548 0.407618 0.000000
O O15 0.061550 0.406885 0.500000
#
# Coordination Sequence:
#
# PCOD9444283 Si02
#       6
#     8   8   8   8   8   8
#     4   8  16  33  57  80 101 134 182 228 271 326
#     4  10  21  37  55  79 116 157 188 221 276 340
#     4  11  23  36  52  81 118 152 188 230 275 329
#     4  11  22  39  62  84 111 150 193 234 284 343
#     4   9  17  33  58  82 102 134 184 234 279 330
#     4  11  22  38  61  88 115 143 186 241 289 336
#
# _framework density 19.185663000000002
#
# number of rings (size 3 to 8) (size 9 to 14) (size 15 to 20)
#    0.000    2.000    0.000    6.500    0.000    4.000 
#    0.000    4.167    0.000    0.000    0.000    0.000 
#    0.000    0.000    0.000    0.000    0.000    0.000 
#
# Total GULP energy -268155.133425 kJ/mol
# GULP energy per Si atom -5586.565280 kJ/mol
# Density = 1.914200 g / cm^3
# Si number density = 19.185663 Si / 1000 Ang^3
#
#
#
# Elastic Constant Matrix: (Units=GPa)
#
#
# Indices 1 2 3 4 5 6 
#
# 1 33.6483 11.7220 -6.6406 0.0000 0.0000 0.0000
# 2 11.7220 33.2633 -4.7628 0.0000 0.0000 0.0000
# 3 -6.6406 -4.7628 19.3745 0.0000 0.0000 0.0000
# 4 0.0000 0.0000 0.0000 22.7953 0.0000 0.0000
# 5 0.0000 0.0000 0.0000 0.0000 19.5504 0.0000
# 6 0.0000 0.0000 0.0000 0.0000 0.0000 2.8301
#
#
#
# Elastic Compliance Matrix: (Units=1/GPa)
#
#
# Indices 1 2 3 4 5 6 
#
# 1 0.035461 -0.011148 0.009414 0.000000 0.000000 0.000000
# 2 -0.011148 0.034665 0.004700 0.000000 0.000000 0.000000
# 3 0.009414 0.004700 0.055996 0.000000 0.000000 0.000000
# 4 0.000000 0.000000 0.000000 0.043869 0.000000 0.000000
# 5 0.000000 0.000000 0.000000 0.000000 0.051150 0.000000
# 6 0.000000 0.000000 0.000000 0.000000 0.000000 0.353349
#
#
# Mechanical properties :
#
#
# Convention : Reuss Voigt Hill
#
# Bulk Modulus (GPa) = 7.57272 9.65814 8.61543
# Shear Modulus (GPa) = 8.16225 14.76632 11.46429
#
# Velocity S-wave (km/s) = 2.06485 2.77727 2.44712
# Velocity P-wave (km/s) = 3.10490 3.91526 3.53339
#
# Compressibility (1/GPa) = 0.13205294
#
# Stress axis : x y z
#
# Youngs Moduli (GPa) = 28.20019 28.84764 17.85835
#
# Poissons Ratio (x) = 0.32161 -0.16811
# Poissons Ratio (y) = 0.31439 -0.08394
# Poissons Ratio (z) = -0.26546 -0.13560
#
# Static dielectric constant tensor:
#      x y z
#    x 1.653320 0.000000 0.000000 
#    y 0.000000 1.649140 0.000000 
#    z 0.000000 0.000000 1.660430 
# 
# From -- ./inp_files/5821.got.cif
#   From: 2010.05.17/outbox.cif.g08.bks.cpg/sg58_3_cif.got.tgz:5821.got - 2010.06.03 14:20:14.
