data_PCOD9444451
_publ_section_title
;
Structure prediction by ZEFSAII (Michael W. Deem and Ramdas Pophale) SiO2 
 PCOD9444451
Probable space group: P N N M
;
_chemical_formula_sum "Si O2"
_cell_formula_units_Z 58
_cell_length_a 28.900768
_cell_length_b 11.114565
_cell_length_c 7.627120
_cell_angle_alpha 90.000000
_cell_angle_beta 90.000000
_cell_angle_gamma 90.000000
_cell_volume 2449.979402
_symmetry_space_group_name_H-M "P N N M"
_symmetry_group_IT_number 58
_symmetry_cell_setting 'orthorhombic'
loop_
_space_group_symop_operation_xyz
x,y,z
-x,-y,z
1/2+x,1/2-y,1/2-z
1/2-x,1/2+y,1/2-z
-x,-y,-z
x,y,-z
1/2-x,1/2+y,1/2+z
1/2+x,1/2-y,1/2+z
loop_
_atom_site_type_symbol
_atom_site_label
_atom_site_fract_x
_atom_site_fract_y
_atom_site_fract_z
Si Si1 0.355745 0.495360 0.715485
Si Si2 0.608462 0.162386 0.192206
Si Si3 0.199242 0.232593 0.207835
Si Si4 0.386928 0.098487 0.293208
Si Si5 0.693372 0.746682 0.710385
Si Si6 0.054308 0.114382 0.196073
Si Si7 0.519493 0.789279 0.287688
Si Si8 0.500000 0.000000 0.000000
O O1 0.357413 0.494272 0.500000
O O2 0.322209 0.605511 0.767474
O O3 0.331660 0.373660 0.775151
O O4 0.407733 0.525427 0.778220
O O5 0.663587 0.169605 0.218604
O O6 0.583241 0.258623 0.313165
O O7 0.595388 0.023758 0.207601
O O8 0.596675 0.206667 0.000000
O O9 0.252634 0.247789 0.251555
O O10 0.194903 0.237873 0.000000
O O11 0.383581 0.070740 0.500000
O O12 0.337464 0.141894 0.225142
O O13 0.424972 0.202582 0.270912
O O14 0.688451 0.746915 0.500000
O O15 0.005229 0.163560 0.263174
O O16 0.046154 0.068970 0.000000
O O17 0.510523 0.809836 0.500000
O O18 0.502011 0.893155 0.156260
#
# Coordination Sequence:
#
# PCOD9444451 Si02
#       8
#     8   8   8   8   8   8   8   2
#     4   8  17  36  60  82 108 145 192 240 289 351
#     4  11  22  34  55  84 114 149 195 237 287 352
#     4  10  21  38  58  83 114 149 188 241 300 350
#     4  10  22  38  54  83 124 159 189 243 301 353
#     4  10  21  38  60  84 114 151 196 241 293 355
#     4   9  18  36  59  83 115 152 190 243 297 347
#     4  10  22  37  56  87 126 162 202 247 307 361
#     4  12  22  32  60  90 118 168 198 256 292 368
#
# _framework density 23.673666999999998
#
# number of rings (size 3 to 8) (size 9 to 14) (size 15 to 20)
#    0.000    2.207    0.000    3.517    5.793    2.759 
#    0.000    3.448    0.000    4.138    0.000    0.966 
#    0.000    0.000    0.000    0.000    0.000    0.276 
#
# Total GULP energy -323328.127212 kJ/mol
# GULP energy per Si atom -5574.622883 kJ/mol
# Density = 2.361978 g / cm^3
# Si number density = 23.673667 Si / 1000 Ang^3
#
#
#
# Elastic Constant Matrix: (Units=GPa)
#
#
# Indices 1 2 3 4 5 6 
#
# 1 131.2359 18.5660 8.6292 0.0000 0.0000 0.0000
# 2 18.5660 48.2204 4.6736 0.0000 0.0000 0.0000
# 3 8.6292 4.6736 83.9815 0.0000 0.0000 0.0000
# 4 0.0000 0.0000 0.0000 3.2526 0.0000 0.0000
# 5 0.0000 0.0000 0.0000 0.0000 25.9016 0.0000
# 6 0.0000 0.0000 0.0000 0.0000 0.0000 34.4338
#
#
#
# Elastic Compliance Matrix: (Units=1/GPa)
#
#
# Indices 1 2 3 4 5 6 
#
# 1 0.008095 -0.003053 -0.000662 0.000000 0.000000 0.000000
# 2 -0.003053 0.022002 -0.000911 0.000000 0.000000 0.000000
# 3 -0.000662 -0.000911 0.012026 0.000000 0.000000 0.000000
# 4 0.000000 0.000000 0.000000 0.307446 0.000000 0.000000
# 5 0.000000 0.000000 0.000000 0.000000 0.038608 0.000000
# 6 0.000000 0.000000 0.000000 0.000000 0.000000 0.029041
#
#
# Mechanical properties :
#
#
# Convention : Reuss Voigt Hill
#
# Bulk Modulus (GPa) = 30.42070 36.35283 33.38676
# Shear Modulus (GPa) = 11.43050 28.15553 19.79302
#
# Velocity S-wave (km/s) = 2.19974 3.45239 2.89464
# Velocity P-wave (km/s) = 4.39656 5.59296 5.03045
#
# Compressibility (1/GPa) = 0.03287235
#
# Stress axis : x y z
#
# Youngs Moduli (GPa) = 123.52910 45.45094 83.15263
#
# Poissons Ratio (x) = 0.13875 0.05504
# Poissons Ratio (y) = 0.37710 0.07573
# Poissons Ratio (z) = 0.08177 0.04139
#
# Static dielectric constant tensor:
#      x y z
#    x 1.972930 0.000000 0.000000 
#    y 0.000000 1.880040 0.000000 
#    z 0.000000 0.000000 1.962060 
# 
# From -- ./inp_files/10448.got.cif
#   From: 2010.05.17/outbox.cif.g08.bks.cpg/sg58_6_cif.got.tgz:10448.got - 2010.06.03 14:20:14.
