data_PCOD9444003
_publ_section_title
;
Structure prediction by ZEFSAII (Michael W. Deem and Ramdas Pophale) SiO2 
 PCOD9444003
Probable space group: P N N M
;
_chemical_formula_sum "Si O2"
_cell_formula_units_Z 48
_cell_length_a 19.275432
_cell_length_b 15.340160
_cell_length_c 8.906122
_cell_angle_alpha 90.000000
_cell_angle_beta 90.000000
_cell_angle_gamma 90.000000
_cell_volume 2633.435281
_symmetry_space_group_name_H-M "P N N M"
_symmetry_group_IT_number 58
_symmetry_cell_setting 'orthorhombic'
loop_
_space_group_symop_operation_xyz
x,y,z
-x,-y,z
1/2+x,1/2-y,1/2-z
1/2-x,1/2+y,1/2-z
-x,-y,-z
x,y,-z
1/2-x,1/2+y,1/2+z
1/2+x,1/2-y,1/2+z
loop_
_atom_site_type_symbol
_atom_site_label
_atom_site_fract_x
_atom_site_fract_y
_atom_site_fract_z
Si Si1 0.420117 0.523793 0.179867
Si Si2 0.920109 0.773378 0.679830
Si Si3 0.676133 0.127073 0.679395
Si Si4 0.420855 0.222770 0.820597
Si Si5 0.171914 0.873776 0.821139
Si Si6 0.576817 0.965103 0.319966
O O1 0.500000 0.500000 0.214671
O O2 0.408078 0.625148 0.215462
O O3 0.369063 0.459066 0.264556
O O4 0.411343 0.511715 0.000000
O O5 0.911650 0.762431 0.500000
O O6 0.868464 0.709185 0.764425
O O7 0.999706 0.749091 0.716506
O O8 0.684304 0.130826 0.500000
O O9 0.750562 0.125524 0.756946
O O10 0.632165 0.040110 0.716055
O O11 0.369387 0.290686 0.743299
O O12 0.408882 0.125016 0.763430
O O13 0.413014 0.228442 0.000000
O O14 0.172947 0.870555 0.000000
O O15 0.577734 0.950271 0.500000
O O16 0.500000 0.000000 0.280280
#
# Coordination Sequence:
#
# PCOD9444003 Si02
#       6
#     8   8   8   8   8   8
#     4  10  20  40  66  92 124 162 204 250 308 372
#     4  10  21  38  64  94 125 161 204 253 304 366
#     4  11  24  42  64  89 127 167 204 254 313 370
#     4  11  22  39  65  94 124 164 209 252 306 369
#     4  12  26  42  62  91 128 163 207 260 310 365
#     4  10  21  39  63  94 126 162 206 255 309 364
#
# _framework density 18.227142000000001
#
# number of rings (size 3 to 8) (size 9 to 14) (size 15 to 20)
#    0.000    1.333    3.333    2.500    0.000    4.667 
#    0.000    1.667    0.000    0.000    0.000    0.000 
#    0.000    0.000    0.000    0.000    0.000    0.000 
#
# Total GULP energy -268390.953216 kJ/mol
# GULP energy per Si atom -5591.478192 kJ/mol
# Density = 1.818566 g / cm^3
# Si number density = 18.227142 Si / 1000 Ang^3
#
#
#
# Elastic Constant Matrix: (Units=GPa)
#
#
# Indices 1 2 3 4 5 6 
#
# 1 180.6771 110.3461 96.4858 0.0000 0.0000 0.0000
# 2 110.3461 186.0256 95.2303 0.0000 0.0000 0.0000
# 3 96.4858 95.2303 87.7011 0.0000 0.0000 0.0000
# 4 0.0000 0.0000 0.0000 37.3845 0.0000 0.0000
# 5 0.0000 0.0000 0.0000 0.0000 36.4603 0.0000
# 6 0.0000 0.0000 0.0000 0.0000 0.0000 26.5026
#
#
#
# Elastic Compliance Matrix: (Units=1/GPa)
#
#
# Indices 1 2 3 4 5 6 
#
# 1 0.013486 -0.000910 -0.013849 0.000000 0.000000 0.000000
# 2 -0.000910 0.012165 -0.012208 0.000000 0.000000 0.000000
# 3 -0.013849 -0.012208 0.039894 0.000000 0.000000 0.000000
# 4 0.000000 0.000000 0.000000 0.026749 0.000000 0.000000
# 5 0.000000 0.000000 0.000000 0.000000 0.027427 0.000000
# 6 0.000000 0.000000 0.000000 0.000000 0.000000 0.037732
#
#
# Mechanical properties :
#
#
# Convention : Reuss Voigt Hill
#
# Bulk Modulus (GPa) = 86.12017 117.61425 101.86721
# Shear Modulus (GPa) = 23.22796 30.22559 26.72678
#
# Velocity S-wave (km/s) = 3.57369 4.07661 3.83341
# Velocity P-wave (km/s) = 8.02367 9.31801 8.69496
#
# Compressibility (1/GPa) = 0.01161168
#
# Stress axis : x y z
#
# Youngs Moduli (GPa) = 74.15019 82.20241 25.06636
#
# Poissons Ratio (x) = 0.07483 0.34713
# Poissons Ratio (y) = 0.06750 0.30601
# Poissons Ratio (z) = 1.02687 1.00352
#
# Static dielectric constant tensor:
#      x y z
#    x 1.594300 0.000000 0.000000 
#    y 0.000000 1.597540 0.000000 
#    z 0.000000 0.000000 1.609210 
# 
# From -- ./inp_files/5839.got.cif
#   From: 2010.05.17/outbox.cif.g08.bks.cpg/sg58_3_cif.got.tgz:5839.got - 2010.06.03 14:20:14.
