data_PCOD9444569
_publ_section_title
;
Structure prediction by ZEFSAII (Michael W. Deem and Ramdas Pophale) SiO2 
 PCOD9444569
Probable space group: P N N M
;
_chemical_formula_sum "Si O2"
_cell_formula_units_Z 48
_cell_length_a 9.342122
_cell_length_b 15.677282
_cell_length_c 15.900796
_cell_angle_alpha 90.000000
_cell_angle_beta 90.000000
_cell_angle_gamma 90.000000
_cell_volume 2328.815970
_symmetry_space_group_name_H-M "P N N M"
_symmetry_group_IT_number 58
_symmetry_cell_setting 'orthorhombic'
loop_
_space_group_symop_operation_xyz
x,y,z
-x,-y,z
1/2+x,1/2-y,1/2-z
1/2-x,1/2+y,1/2-z
-x,-y,-z
x,y,-z
1/2-x,1/2+y,1/2+z
1/2+x,1/2-y,1/2+z
loop_
_atom_site_type_symbol
_atom_site_label
_atom_site_fract_x
_atom_site_fract_y
_atom_site_fract_z
Si Si1 0.499549 0.245851 0.355049
Si Si2 0.281805 0.325229 0.230361
Si Si3 0.382261 0.574072 0.404950
Si Si4 0.503185 0.599990 0.903403
Si Si5 0.335933 0.005747 0.226278
Si Si6 0.822153 0.407400 0.092283
O O1 0.369834 0.265843 0.292227
O O2 0.639864 0.217099 0.305235
O O3 0.541176 0.334168 0.399412
O O4 0.441364 0.165818 0.407076
O O5 0.390408 0.350178 0.155941
O O6 0.235165 0.412788 0.274954
O O7 0.500000 0.500000 0.390453
O O8 0.324750 0.562729 0.500000
O O9 0.261102 0.565128 0.333342
O O10 0.500000 0.500000 0.878062
O O11 0.338849 0.630060 0.899982
O O12 0.551496 0.603965 0.000000
O O13 0.339832 0.036316 0.323892
O O14 0.500000 0.000000 0.197267
O O15 0.825853 0.451775 0.000000
#
# Coordination Sequence:
#
# PCOD9444569 Si02
#       6
#     8   8   8   8   8   8
#     4  12  25  43  67  99 137 176 225 286 336 398
#     4  12  24  40  69  98 136 179 226 277 338 401
#     4  11  25  47  73  94 126 183 235 275 333 400
#     4  10  21  38  63  96 136 179 219 266 332 402
#     4  12  24  44  69 102 135 179 222 279 339 404
#     4  11  24  43  67 102 142 176 220 274 341 412
#
# _framework density 20.611332000000001
#
# number of rings (size 3 to 8) (size 9 to 14) (size 15 to 20)
#    0.000    0.667    5.000    3.500    0.000    2.000 
#    0.000    0.000    0.000    0.000    0.000    0.000 
#    0.000    0.000    0.000    0.000    0.000    0.000 
#
# Total GULP energy -268363.546558 kJ/mol
# GULP energy per Si atom -5590.907220 kJ/mol
# Density = 2.056442 g / cm^3
# Si number density = 20.611332 Si / 1000 Ang^3
#
#
#
# Elastic Constant Matrix: (Units=GPa)
#
#
# Indices 1 2 3 4 5 6 
#
# 1 104.2770 3.5186 42.5329 0.0000 0.0000 0.0000
# 2 3.5186 28.8857 11.9460 0.0000 0.0000 0.0000
# 3 42.5329 11.9460 101.6131 0.0000 0.0000 0.0000
# 4 0.0000 0.0000 0.0000 -34.4294 0.0000 0.0000
# 5 0.0000 0.0000 0.0000 0.0000 43.7137 0.0000
# 6 0.0000 0.0000 0.0000 0.0000 0.0000 45.0914
#
#
#
# Elastic Compliance Matrix: (Units=1/GPa)
#
#
# Indices 1 2 3 4 5 6 
#
# 1 0.011575 0.000624 -0.004918 0.000000 0.000000 0.000000
# 2 0.000624 0.036422 -0.004543 0.000000 0.000000 0.000000
# 3 -0.004918 -0.004543 0.012434 0.000000 0.000000 0.000000
# 4 0.000000 0.000000 0.000000 -0.029045 0.000000 0.000000
# 5 0.000000 0.000000 0.000000 0.000000 0.022876 0.000000
# 6 0.000000 0.000000 0.000000 0.000000 0.000000 0.022177
#
#
# Mechanical properties :
#
#
# Convention : Reuss Voigt Hill
#
# Bulk Modulus (GPa) = 23.38842 38.97455 31.18148
# Shear Modulus (GPa) = 46.13984 22.66038 34.40011
#
# Velocity S-wave (km/s) = 4.73648 3.31934 4.08976
# Velocity P-wave (km/s) = 6.42529 5.80009 6.12068
#
# Compressibility (1/GPa) = 0.04275620
#
# Stress axis : x y z
#
# Youngs Moduli (GPa) = 86.39388 27.45588 80.42421
#
# Poissons Ratio (x) = -0.01713 0.39555
# Poissons Ratio (y) = -0.05392 0.36538
# Poissons Ratio (z) = 0.42492 0.12474
#
# Static dielectric constant tensor:
#      x y z
#    x 1.712830 0.000000 0.000000 
#    y 0.000000 1.747680 0.000000 
#    z 0.000000 0.000000 1.765660 
# 
# From -- ./inp_files/19805.got.cif
#   From: 2010.05.17/outbox.cif.g08.bks.cpg/sg58_10_cif.got.tgz:19805.got - 2010.06.03 14:20:14.
