data_PCOD9444561
_publ_section_title
;
Structure prediction by ZEFSAII (Michael W. Deem and Ramdas Pophale) SiO2 
 PCOD9444561
Probable space group: P N N M
;
_chemical_formula_sum "Si O2"
_cell_formula_units_Z 58
_cell_length_a 18.173263
_cell_length_b 18.405067
_cell_length_c 8.024443
_cell_angle_alpha 90.000000
_cell_angle_beta 90.000000
_cell_angle_gamma 90.000000
_cell_volume 2684.016683
_symmetry_space_group_name_H-M "P N N M"
_symmetry_group_IT_number 58
_symmetry_cell_setting 'orthorhombic'
loop_
_space_group_symop_operation_xyz
x,y,z
-x,-y,z
1/2+x,1/2-y,1/2-z
1/2-x,1/2+y,1/2-z
-x,-y,-z
x,y,-z
1/2-x,1/2+y,1/2+z
1/2+x,1/2-y,1/2+z
loop_
_atom_site_type_symbol
_atom_site_label
_atom_site_fract_x
_atom_site_fract_y
_atom_site_fract_z
Si Si1 0.574103 0.082637 0.304390
Si Si2 0.502031 0.337329 0.813417
Si Si3 0.562358 0.808475 0.304284
Si Si4 0.110981 0.953337 0.805892
Si Si5 0.500000 0.000000 0.000000
Si Si6 0.800390 0.399089 0.195594
Si Si7 0.852867 0.885396 0.808017
Si Si8 0.266631 0.936647 0.302107
O O1 0.570937 0.054079 0.500000
O O2 0.511592 0.143784 0.291850
O O3 0.658378 0.108204 0.281019
O O4 0.555148 0.029305 0.151801
O O5 0.451880 0.267390 0.783465
O O6 0.452232 0.407504 0.779992
O O7 0.575115 0.336302 0.702379
O O8 0.530158 0.338268 0.000000
O O9 0.575862 0.793645 0.500000
O O10 0.630652 0.854994 0.233301
O O11 0.190838 0.915763 0.785352
O O12 0.122313 0.035273 0.739703
O O13 0.091275 0.958245 0.000000
O O14 0.721647 0.360814 0.219391
O O15 0.788078 0.481472 0.256792
O O16 0.816448 0.406937 0.000000
O O17 0.832288 0.896143 0.000000
O O18 0.250279 0.939564 0.500000
#
# Coordination Sequence:
#
# PCOD9444561 Si02
#       8
#     8   8   8   8   2   8   8   8
#     4  10  22  39  59  92 129 170 210 261 316 369
#     4  12  25  40  61  88 120 160 208 254 308 376
#     4  10  22  42  62  85 125 167 206 251 308 370
#     4  10  21  38  63  93 122 154 201 256 314 372
#     4  12  22  32  64  90 124 164 214 260 304 366
#     4   9  18  35  61  89 119 155 194 243 300 362
#     4  10  21  39  63  91 120 153 198 254 312 364
#     4   9  18  36  61  91 126 157 199 252 310 363
#
# _framework density 21.609403
#
# number of rings (size 3 to 8) (size 9 to 14) (size 15 to 20)
#    0.000    1.931    0.000    3.517    1.931    6.069 
#    7.448    0.000    0.000    0.000    0.000    0.000 
#    0.000    0.000    0.000    0.000    0.000    0.000 
#
# Total GULP energy -323161.439859 kJ/mol
# GULP energy per Si atom -5571.748963 kJ/mol
# Density = 2.156022 g / cm^3
# Si number density = 21.609403 Si / 1000 Ang^3
#
#
#
# Elastic Constant Matrix: (Units=GPa)
#
#
# Indices 1 2 3 4 5 6 
#
# 1 99.5278 25.5895 -2.4070 0.0000 0.0000 0.0000
# 2 25.5895 29.5296 3.1142 0.0000 0.0000 0.0000
# 3 -2.4070 3.1142 60.9773 0.0000 0.0000 0.0000
# 4 0.0000 0.0000 0.0000 10.9003 0.0000 0.0000
# 5 0.0000 0.0000 0.0000 0.0000 -22.0915 0.0000
# 6 0.0000 0.0000 0.0000 0.0000 0.0000 16.6110
#
#
#
# Elastic Compliance Matrix: (Units=1/GPa)
#
#
# Indices 1 2 3 4 5 6 
#
# 1 0.013000 -0.011381 0.001094 0.000000 0.000000 0.000000
# 2 -0.011381 0.044011 -0.002697 0.000000 0.000000 0.000000
# 3 0.001094 -0.002697 0.016580 0.000000 0.000000 0.000000
# 4 0.000000 0.000000 0.000000 0.091740 0.000000 0.000000
# 5 0.000000 0.000000 0.000000 0.000000 -0.045266 0.000000
# 6 0.000000 0.000000 0.000000 0.000000 0.000000 0.060201
#
#
# Mechanical properties :
#
#
# Convention : Reuss Voigt Hill
#
# Bulk Modulus (GPa) = 20.99751 26.95869 23.97810
# Shear Modulus (GPa) = 22.51150 11.99981 17.25566
#
# Velocity S-wave (km/s) = 3.23111 2.35905 2.82888
# Velocity P-wave (km/s) = 4.86395 4.46348 4.66801
#
# Compressibility (1/GPa) = 0.04762469
#
# Stress axis : x y z
#
# Youngs Moduli (GPa) = 76.92286 22.72156 60.31185
#
# Poissons Ratio (x) = 0.25859 -0.06601
# Poissons Ratio (y) = 0.87545 0.16266
# Poissons Ratio (z) = -0.08418 0.06128
#
# Static dielectric constant tensor:
#      x y z
#    x 1.805740 0.000000 0.000000 
#    y 0.000000 1.798910 0.000000 
#    z 0.000000 0.000000 1.768830 
# 
# From -- ./inp_files/8051.got.cif
#   From: 2010.05.17/outbox.cif.g08.bks.cpg/sg58_5_cif.got.tgz:8051.got - 2010.06.03 14:20:14.
