data_PCOD9444951
_publ_section_title
;
Structure prediction by ZEFSAII (Michael W. Deem and Ramdas Pophale) SiO2 
 PCOD9444951
Probable space group: P N N M
;
_chemical_formula_sum "Si O2"
_cell_formula_units_Z 32
_cell_length_a 23.583866
_cell_length_b 5.709520
_cell_length_c 10.046397
_cell_angle_alpha 90.000000
_cell_angle_beta 90.000000
_cell_angle_gamma 90.000000
_cell_volume 1352.773021
_symmetry_space_group_name_H-M "P N N M"
_symmetry_group_IT_number 58
_symmetry_cell_setting 'orthorhombic'
loop_
_space_group_symop_operation_xyz
x,y,z
-x,-y,z
1/2+x,1/2-y,1/2-z
1/2-x,1/2+y,1/2-z
-x,-y,-z
x,y,-z
1/2-x,1/2+y,1/2+z
1/2+x,1/2-y,1/2+z
loop_
_atom_site_type_symbol
_atom_site_label
_atom_site_fract_x
_atom_site_fract_y
_atom_site_fract_z
Si Si1 0.710214 0.875543 0.359253
Si Si2 0.835813 0.710748 0.350426
Si Si3 0.466798 0.248635 0.849623
Si Si4 0.112974 0.965376 0.850889
O O1 0.693852 0.000720 0.500000
O O2 0.687815 0.986489 0.224899
O O3 0.777692 0.860566 0.358904
O O4 0.676945 0.631457 0.365488
O O5 0.857021 0.677890 0.500000
O O6 0.881718 0.823484 0.252993
O O7 0.500000 0.500000 0.841962
O O8 0.423777 0.270977 0.726214
O O9 0.500000 0.000000 0.839664
O O10 0.441152 0.250595 0.000000
O O11 0.091650 0.016722 0.000000
#
# Coordination Sequence:
#
# PCOD9444951 Si02
#       4
#     8   8   8   8
#     4  10  22  38  57  88 128 169 211 260 316 383
#     4  11  22  37  60  89 127 172 215 259 317 386
#     4  10  24  47  71  98 131 170 223 281 339 404
#     4  11  24  42  64  93 128 167 216 268 328 392
#
# _framework density 23.655114000000001
#
# number of rings (size 3 to 8) (size 9 to 14) (size 15 to 20)
#    0.000    1.500    2.500    1.500    3.500    4.000 
#    0.000    0.000    0.000    0.000    0.000    0.000 
#    0.000    0.000    0.000    0.000    0.000    0.000 
#
# Total GULP energy -178418.037972 kJ/mol
# GULP energy per Si atom -5575.563687 kJ/mol
# Density = 2.360127 g / cm^3
# Si number density = 23.655114 Si / 1000 Ang^3
#
#
#
# Elastic Constant Matrix: (Units=GPa)
#
#
# Indices 1 2 3 4 5 6 
#
# 1 55.6437 20.1383 39.7488 0.0000 0.0000 0.0000
# 2 20.1383 76.8423 47.5880 0.0000 0.0000 0.0000
# 3 39.7488 47.5880 232.1135 0.0000 0.0000 0.0000
# 4 0.0000 0.0000 0.0000 13.7132 0.0000 0.0000
# 5 0.0000 0.0000 0.0000 0.0000 26.1317 0.0000
# 6 0.0000 0.0000 0.0000 0.0000 0.0000 42.2895
#
#
#
# Elastic Compliance Matrix: (Units=1/GPa)
#
#
# Indices 1 2 3 4 5 6 
#
# 1 0.021416 -0.003827 -0.002883 0.000000 0.000000 0.000000
# 2 -0.003827 0.015590 -0.002541 0.000000 0.000000 0.000000
# 3 -0.002883 -0.002541 0.005323 0.000000 0.000000 0.000000
# 4 0.000000 0.000000 0.000000 0.072922 0.000000 0.000000
# 5 0.000000 0.000000 0.000000 0.000000 0.038268 0.000000
# 6 0.000000 0.000000 0.000000 0.000000 0.000000 0.023647
#
#
# Mechanical properties :
#
#
# Convention : Reuss Voigt Hill
#
# Bulk Modulus (GPa) = 41.96893 64.39442 53.18168
# Shear Modulus (GPa) = 24.55677 33.56851 29.06264
#
# Velocity S-wave (km/s) = 3.22548 3.77116 3.50894
# Velocity P-wave (km/s) = 5.62602 6.80025 6.24082
#
# Compressibility (1/GPa) = 0.02382715
#
# Stress axis : x y z
#
# Youngs Moduli (GPa) = 46.69427 64.14259 187.86969
#
# Poissons Ratio (x) = 0.24549 0.54158
# Poissons Ratio (y) = 0.17871 0.47736
# Poissons Ratio (z) = 0.13461 0.16298
#
# Static dielectric constant tensor:
#      x y z
#    x 1.961320 0.000000 0.000000 
#    y 0.000000 1.941000 0.000000 
#    z 0.000000 0.000000 1.938360 
# 
# From -- ./inp_files/1322.got.cif
#   From: 2010.05.17/outbox.cif.g08.bks.cpg/sg58_1_cif.got.tgz:1322.got - 2010.06.03 14:20:14.
