data_PCOD9444600
_publ_section_title
;
Structure prediction by ZEFSAII (Michael W. Deem and Ramdas Pophale) SiO2 
 PCOD9444600
Probable space group: P N N M
;
_chemical_formula_sum "Si O2"
_cell_formula_units_Z 32
_cell_length_a 8.013642
_cell_length_b 7.422412
_cell_length_c 22.757120
_cell_angle_alpha 90.000000
_cell_angle_beta 90.000000
_cell_angle_gamma 90.000000
_cell_volume 1353.606072
_symmetry_space_group_name_H-M "P N N M"
_symmetry_group_IT_number 58
_symmetry_cell_setting 'orthorhombic'
loop_
_space_group_symop_operation_xyz
x,y,z
-x,-y,z
1/2+x,1/2-y,1/2-z
1/2-x,1/2+y,1/2-z
-x,-y,-z
x,y,-z
1/2-x,1/2+y,1/2+z
1/2+x,1/2-y,1/2+z
loop_
_atom_site_type_symbol
_atom_site_label
_atom_site_fract_x
_atom_site_fract_y
_atom_site_fract_z
Si Si1 0.998100 0.286758 0.230708
Si Si2 0.800040 0.979780 0.932943
Si Si3 0.170762 0.239726 0.657267
Si Si4 0.171565 0.387245 0.117412
O O1 0.025787 0.215012 0.295495
O O2 0.131530 0.274195 0.177480
O O3 0.000000 0.500000 0.240291
O O4 0.827125 0.224453 0.201631
O O5 0.770846 0.766401 0.926507
O O6 0.687528 0.099947 0.889503
O O7 0.774834 0.039027 0.000000
O O8 0.000000 0.000000 0.919694
O O9 0.203025 0.050141 0.626387
O O10 0.000000 0.500000 0.102916
#
# Coordination Sequence:
#
# PCOD9444600 Si02
#       4
#     8   8   8   8
#     4   9  20  35  57  90 121 152 193 245 308 363
#     4  11  21  33  57  85 118 162 204 249 298 353
#     4  10  21  39  56  87 124 155 195 247 305 358
#     4   9  19  34  48  83 116 146 189 243 298 350
#
# _framework density 23.640556
#
# number of rings (size 3 to 8) (size 9 to 14) (size 15 to 20)
#    0.000    2.750    5.000    0.000    7.000    1.500 
#    0.000    0.000    0.000    0.750    0.000    1.750 
#    0.000    0.000    0.000    0.000    0.000    0.000 
#
# Total GULP energy -178638.418898 kJ/mol
# GULP energy per Si atom -5582.450591 kJ/mol
# Density = 2.358675 g / cm^3
# Si number density = 23.640556 Si / 1000 Ang^3
#
#
#
# Elastic Constant Matrix: (Units=GPa)
#
#
# Indices 1 2 3 4 5 6 
#
# 1 52.6877 19.4190 22.0117 0.0000 0.0000 0.0000
# 2 19.4190 106.6998 61.7829 0.0000 0.0000 0.0000
# 3 22.0117 61.7829 95.2315 0.0000 0.0000 0.0000
# 4 0.0000 0.0000 0.0000 44.5681 0.0000 0.0000
# 5 0.0000 0.0000 0.0000 0.0000 5.5033 0.0000
# 6 0.0000 0.0000 0.0000 0.0000 0.0000 8.2514
#
#
#
# Elastic Compliance Matrix: (Units=1/GPa)
#
#
# Indices 1 2 3 4 5 6 
#
# 1 0.021185 -0.001634 -0.003836 0.000000 0.000000 0.000000
# 2 -0.001634 0.015137 -0.009443 0.000000 0.000000 0.000000
# 3 -0.003836 -0.009443 0.017514 0.000000 0.000000 0.000000
# 4 0.000000 0.000000 0.000000 0.022438 0.000000 0.000000
# 5 0.000000 0.000000 0.000000 0.000000 0.181709 0.000000
# 6 0.000000 0.000000 0.000000 0.000000 0.000000 0.121192
#
#
# Mechanical properties :
#
#
# Convention : Reuss Voigt Hill
#
# Bulk Modulus (GPa) = 41.65116 51.22734 46.43925
# Shear Modulus (GPa) = 11.99030 21.75826 16.87428
#
# Velocity S-wave (km/s) = 2.25454 3.03707 2.67457
# Velocity P-wave (km/s) = 4.94308 5.83221 5.40595
#
# Compressibility (1/GPa) = 0.02400893
#
# Stress axis : x y z
#
# Youngs Moduli (GPa) = 47.20354 66.06250 57.09842
#
# Poissons Ratio (x) = 0.10795 0.21906
# Poissons Ratio (y) = 0.07714 0.53917
# Poissons Ratio (z) = 0.18110 0.62381
#
# Static dielectric constant tensor:
#      x y z
#    x 2.076240 0.000000 0.000000 
#    y 0.000000 1.886250 0.000000 
#    z 0.000000 0.000000 1.960720 
# 
# From -- ./inp_files/25877.got.cif
#   From: 2010.05.17/outbox.cif.g08.bks.cpg/sg58_13_cif.got.tgz:25877.got - 2010.06.03 14:20:14.
