data_PCOD9444802
_publ_section_title
;
Structure prediction by ZEFSAII (Michael W. Deem and Ramdas Pophale) SiO2 
 PCOD9444802
Probable space group: P N N M
;
_chemical_formula_sum "Si O2"
_cell_formula_units_Z 56
_cell_length_a 15.060188
_cell_length_b 21.542557
_cell_length_c 8.429863
_cell_angle_alpha 90.000000
_cell_angle_beta 90.000000
_cell_angle_gamma 90.000000
_cell_volume 2734.942252
_symmetry_space_group_name_H-M "P N N M"
_symmetry_group_IT_number 58
_symmetry_cell_setting 'orthorhombic'
loop_
_space_group_symop_operation_xyz
x,y,z
-x,-y,z
1/2+x,1/2-y,1/2-z
1/2-x,1/2+y,1/2-z
-x,-y,-z
x,y,-z
1/2-x,1/2+y,1/2+z
1/2+x,1/2-y,1/2+z
loop_
_atom_site_type_symbol
_atom_site_label
_atom_site_fract_x
_atom_site_fract_y
_atom_site_fract_z
Si Si1 0.694356 0.742055 0.689596
Si Si2 0.736225 0.476964 0.809513
Si Si3 0.662164 0.344936 0.805964
Si Si4 0.001412 0.233158 0.683053
Si Si5 0.929948 0.443755 0.317353
Si Si6 0.438816 0.853081 0.680947
Si Si7 0.739648 0.105549 0.190243
O O1 0.701764 0.743426 0.500000
O O2 0.759751 0.797130 0.748742
O O3 0.591208 0.747607 0.733379
O O4 0.722367 0.672512 0.741007
O O5 0.680976 0.415916 0.761324
O O6 0.834344 0.464210 0.741651
O O7 0.707870 0.544363 0.744871
O O8 0.738974 0.479522 0.000000
O O9 0.565693 0.320639 0.752434
O O10 0.662063 0.342150 0.000000
O O11 0.981882 0.220758 0.500000
O O12 0.060912 0.294763 0.702292
O O13 0.925364 0.422111 0.500000
O O14 0.000000 0.500000 0.312002
O O15 0.970779 0.390382 0.208321
O O16 0.430897 0.832423 0.500000
O O17 0.356969 0.896305 0.728841
O O18 0.730525 0.104201 0.000000
#
# Coordination Sequence:
#
# PCOD9444802 Si02
#       7
#     8   8   8   8   8   8   8
#     4  10  21  41  65  89 120 161 207 254 306 362
#     4  11  22  37  60  88 121 159 204 254 304 363
#     4   9  20  40  62  86 121 162 197 245 309 362
#     4  11  22  40  64  90 120 157 202 253 308 363
#     4  11  22  35  54  82 119 157 194 240 301 366
#     4  12  23  36  58  87 119 155 199 247 300 363
#     4  11  22  39  61  85 121 162 198 246 307 361
#
# _framework density 20.475753000000001
#
# number of rings (size 3 to 8) (size 9 to 14) (size 15 to 20)
#    0.000    1.286    2.857    3.857    0.000    2.857 
#    0.000    4.286    0.000    4.286    0.000    0.000 
#    0.000    0.000    0.000    0.000    0.000    0.000 
#
# Total GULP energy -312736.021056 kJ/mol
# GULP energy per Si atom -5584.571805 kJ/mol
# Density = 2.042915 g / cm^3
# Si number density = 20.475753 Si / 1000 Ang^3
#
#
#
# Elastic Constant Matrix: (Units=GPa)
#
#
# Indices 1 2 3 4 5 6 
#
# 1 36.6356 10.0680 -0.9306 0.0000 0.0000 0.0000
# 2 10.0680 96.3370 6.7667 0.0000 0.0000 0.0000
# 3 -0.9306 6.7667 36.9286 0.0000 0.0000 0.0000
# 4 0.0000 0.0000 0.0000 28.7102 0.0000 0.0000
# 5 0.0000 0.0000 0.0000 0.0000 10.2713 0.0000
# 6 0.0000 0.0000 0.0000 0.0000 0.0000 29.1549
#
#
#
# Elastic Compliance Matrix: (Units=1/GPa)
#
#
# Indices 1 2 3 4 5 6 
#
# 1 0.028161 -0.003032 0.001265 0.000000 0.000000 0.000000
# 2 -0.003032 0.010842 -0.002063 0.000000 0.000000 0.000000
# 3 0.001265 -0.002063 0.027489 0.000000 0.000000 0.000000
# 4 0.000000 0.000000 0.000000 0.034831 0.000000 0.000000
# 5 0.000000 0.000000 0.000000 0.000000 0.097359 0.000000
# 6 0.000000 0.000000 0.000000 0.000000 0.000000 0.034300
#
#
# Mechanical properties :
#
#
# Convention : Reuss Voigt Hill
#
# Bulk Modulus (GPa) = 16.99732 22.41216 19.70474
# Shear Modulus (GPa) = 19.21212 23.89375 21.55293
#
# Velocity S-wave (km/s) = 3.06647 3.41974 3.24791
# Velocity P-wave (km/s) = 4.56693 5.15386 4.86925
#
# Compressibility (1/GPa) = 0.05883280
#
# Stress axis : x y z
#
# Youngs Moduli (GPa) = 35.50983 92.23394 36.37795
#
# Poissons Ratio (x) = 0.27965 -0.04603
# Poissons Ratio (y) = 0.10766 0.07505
# Poissons Ratio (z) = -0.04493 0.19028
#
# Static dielectric constant tensor:
#      x y z
#    x 1.730180 0.000000 0.000000 
#    y 0.000000 1.786740 0.000000 
#    z 0.000000 0.000000 1.705610 
# 
# From -- ./inp_files/6355.got.cif
#   From: 2010.05.17/outbox.cif.g08.bks.cpg/sg58_4_cif.got.tgz:6355.got - 2010.06.03 14:20:14.
