data_PCOD9444987
_publ_section_title
;
Structure prediction by ZEFSAII (Michael W. Deem and Ramdas Pophale) SiO2 
 PCOD9444987
Probable space group: P N N M
;
_chemical_formula_sum "Si O2"
_cell_formula_units_Z 56
_cell_length_a 8.334495
_cell_length_b 20.718904
_cell_length_c 16.577750
_cell_angle_alpha 90.000000
_cell_angle_beta 90.000000
_cell_angle_gamma 90.000000
_cell_volume 2862.672424
_symmetry_space_group_name_H-M "P N N M"
_symmetry_group_IT_number 58
_symmetry_cell_setting 'orthorhombic'
loop_
_space_group_symop_operation_xyz
x,y,z
-x,-y,z
1/2+x,1/2-y,1/2-z
1/2-x,1/2+y,1/2-z
-x,-y,-z
x,y,-z
1/2-x,1/2+y,1/2+z
1/2+x,1/2-y,1/2+z
loop_
_atom_site_type_symbol
_atom_site_label
_atom_site_fract_x
_atom_site_fract_y
_atom_site_fract_z
Si Si1 0.974183 0.160786 0.409035
Si Si2 0.789377 0.251353 0.088264
Si Si3 0.106735 0.122295 0.908497
Si Si4 0.554604 0.572686 0.244888
Si Si5 0.830793 0.654532 0.290400
Si Si6 0.869749 0.726009 0.128439
Si Si7 0.962830 0.426887 0.591696
O O1 0.981776 0.132494 0.500000
O O2 0.997990 0.113567 0.333361
O O3 0.797668 0.194029 0.400806
O O4 0.123471 0.210068 0.402779
O O5 0.790979 0.197212 0.156467
O O6 0.954607 0.291873 0.092785
O O7 0.784180 0.220977 0.000000
O O8 0.141902 0.197881 0.890470
O O9 0.274202 0.084558 0.910182
O O10 0.014478 0.093462 0.832006
O O11 0.037878 0.116237 0.000000
O O12 0.500000 0.500000 0.231959
O O13 0.741363 0.592673 0.252446
O O14 0.885578 0.703298 0.220929
O O15 0.963300 0.626496 0.349662
O O16 0.025881 0.419035 0.500000
O O17 0.000000 0.500000 0.617560
#
# Coordination Sequence:
#
# PCOD9444987 Si02
#       7
#     8   8   8   8   8   8   8
#     4  10  23  42  65  93 122 157 205 257 310 367
#     4  11  22  38  63  92 122 157 197 251 312 367
#     4  11  22  37  60  87 122 161 196 250 308 361
#     4  11  24  40  59  87 121 163 208 246 296 360
#     4  11  23  36  58  89 118 160 200 251 303 364
#     4  11  23  38  61  94 127 158 196 253 316 365
#     4  10  22  39  59  84 118 164 209 250 300 358
#
# _framework density 19.562141
#
# number of rings (size 3 to 8) (size 9 to 14) (size 15 to 20)
#    0.000    1.286    1.429    4.286    6.000    3.429 
#    0.000    0.000    0.000    0.000    0.000    5.000 
#    0.000    0.000    0.000    0.000    0.000    0.000 
#
# Total GULP energy -312185.226634 kJ/mol
# GULP energy per Si atom -5574.736190 kJ/mol
# Density = 1.951762 g / cm^3
# Si number density = 19.562141 Si / 1000 Ang^3
#
#
#
# Elastic Constant Matrix: (Units=GPa)
#
#
# Indices 1 2 3 4 5 6 
#
# 1 92.1333 14.2081 23.3135 0.0000 0.0000 0.0000
# 2 14.2081 37.9115 25.4081 0.0000 0.0000 0.0000
# 3 23.3135 25.4081 100.8276 0.0000 0.0000 0.0000
# 4 0.0000 0.0000 0.0000 3.3473 0.0000 0.0000
# 5 0.0000 0.0000 0.0000 0.0000 51.6300 0.0000
# 6 0.0000 0.0000 0.0000 0.0000 0.0000 18.1180
#
#
#
# Elastic Compliance Matrix: (Units=1/GPa)
#
#
# Indices 1 2 3 4 5 6 
#
# 1 0.011829 -0.003128 -0.001947 0.000000 0.000000 0.000000
# 2 -0.003128 0.032565 -0.007483 0.000000 0.000000 0.000000
# 3 -0.001947 -0.007483 0.012254 0.000000 0.000000 0.000000
# 4 0.000000 0.000000 0.000000 0.298746 0.000000 0.000000
# 5 0.000000 0.000000 0.000000 0.000000 0.019369 0.000000
# 6 0.000000 0.000000 0.000000 0.000000 0.000000 0.055194
#
#
# Mechanical properties :
#
#
# Convention : Reuss Voigt Hill
#
# Bulk Modulus (GPa) = 31.71457 39.63689 35.67573
# Shear Modulus (GPa) = 10.73926 25.81525 18.27725
#
# Velocity S-wave (km/s) = 2.34558 3.63664 3.05998
# Velocity P-wave (km/s) = 4.85624 6.15951 5.54629
#
# Compressibility (1/GPa) = 0.03153125
#
# Stress axis : x y z
#
# Youngs Moduli (GPa) = 84.53884 30.70826 81.60817
#
# Poissons Ratio (x) = 0.09607 0.15887
# Poissons Ratio (y) = 0.26447 0.61066
# Poissons Ratio (z) = 0.16458 0.22978
#
# Static dielectric constant tensor:
#      x y z
#    x 1.732350 0.000000 0.000000 
#    y 0.000000 1.667170 0.000000 
#    z 0.000000 0.000000 1.794560 
# 
# From -- ./inp_files/20114.got.cif
#   From: 2010.05.17/outbox.cif.g08.bks.cpg/sg58_11_cif.got.tgz:20114.got - 2010.06.03 14:20:14.
