data_PCOD9444814
_publ_section_title
;
Structure prediction by ZEFSAII (Michael W. Deem and Ramdas Pophale) SiO2 
 PCOD9444814
Probable space group: P N N M
;
_chemical_formula_sum "Si O2"
_cell_formula_units_Z 48
_cell_length_a 8.388517
_cell_length_b 14.322321
_cell_length_c 19.394592
_cell_angle_alpha 90.000000
_cell_angle_beta 90.000000
_cell_angle_gamma 90.000000
_cell_volume 2330.125110
_symmetry_space_group_name_H-M "P N N M"
_symmetry_group_IT_number 58
_symmetry_cell_setting 'orthorhombic'
loop_
_space_group_symop_operation_xyz
x,y,z
-x,-y,z
1/2+x,1/2-y,1/2-z
1/2-x,1/2+y,1/2-z
-x,-y,-z
x,y,-z
1/2-x,1/2+y,1/2+z
1/2+x,1/2-y,1/2+z
loop_
_atom_site_type_symbol
_atom_site_label
_atom_site_fract_x
_atom_site_fract_y
_atom_site_fract_z
Si Si1 0.192260 0.125379 0.710392
Si Si2 0.177273 0.038909 0.920805
Si Si3 0.325068 0.962946 0.211068
Si Si4 0.680702 0.237781 0.578708
Si Si5 0.660130 0.703805 0.779548
Si Si6 0.103782 0.593358 0.920216
O O1 0.317623 0.192855 0.749334
O O2 0.252762 0.109963 0.632628
O O3 0.019903 0.168922 0.722554
O O4 0.201168 0.026257 0.747038
O O5 0.169665 0.150705 0.910603
O O6 0.293388 0.986735 0.868444
O O7 0.222619 0.021486 0.000000
O O8 0.000000 0.000000 0.909646
O O9 0.278992 0.859498 0.233581
O O10 0.500000 0.000000 0.229995
O O11 0.738804 0.221745 0.500000
O O12 0.786970 0.200329 0.640877
O O13 0.513695 0.182713 0.584177
O O14 0.000000 0.500000 0.902764
O O15 0.154595 0.582813 0.000000
#
# Coordination Sequence:
#
# PCOD9444814 Si02
#       6
#     8   8   8   8   8   8
#     4  12  24  41  62  93 129 166 212 263 316 377
#     4  10  22  41  65  94 128 170 214 259 320 381
#     4  12  25  42  65  94 127 166 212 267 319 378
#     4  10  21  41  66  94 132 171 211 262 318 379
#     4  12  25  40  65  95 129 170 212 262 320 377
#     4  10  22  41  66  94 128 170 212 260 320 383
#
# _framework density 20.599753
#
# number of rings (size 3 to 8) (size 9 to 14) (size 15 to 20)
#    0.000    1.000    1.667    6.000    2.333    1.000 
#    0.000    0.000    0.000    5.000    0.000    0.000 
#    0.000    0.000    0.000    0.000    0.000    0.000 
#
# Total GULP energy -268354.585183 kJ/mol
# GULP energy per Si atom -5590.720525 kJ/mol
# Density = 2.055287 g / cm^3
# Si number density = 20.599753 Si / 1000 Ang^3
#
#
#
# Elastic Constant Matrix: (Units=GPa)
#
#
# Indices 1 2 3 4 5 6 
#
# 1 73.7545 3.1766 28.9331 0.0000 0.0000 0.0000
# 2 3.1766 66.2646 12.5074 0.0000 0.0000 0.0000
# 3 28.9331 12.5074 101.4561 0.0000 0.0000 0.0000
# 4 0.0000 0.0000 0.0000 -33.5902 0.0000 0.0000
# 5 0.0000 0.0000 0.0000 0.0000 66.9118 0.0000
# 6 0.0000 0.0000 0.0000 0.0000 0.0000 24.4753
#
#
#
# Elastic Compliance Matrix: (Units=1/GPa)
#
#
# Indices 1 2 3 4 5 6 
#
# 1 0.015267 0.000092 -0.004365 0.000000 0.000000 0.000000
# 2 0.000092 0.015451 -0.001931 0.000000 0.000000 0.000000
# 3 -0.004365 -0.001931 0.011339 0.000000 0.000000 0.000000
# 4 0.000000 0.000000 0.000000 -0.029771 0.000000 0.000000
# 5 0.000000 0.000000 0.000000 0.000000 0.014945 0.000000
# 6 0.000000 0.000000 0.000000 0.000000 0.000000 0.040858
#
#
# Mechanical properties :
#
#
# Convention : Reuss Voigt Hill
#
# Bulk Modulus (GPa) = 33.72781 36.74548 35.23664
# Shear Modulus (GPa) = 55.32156 24.68326 40.00241
#
# Velocity S-wave (km/s) = 5.18785 3.46530 4.41147
# Velocity P-wave (km/s) = 7.23142 5.82131 6.56434
#
# Compressibility (1/GPa) = 0.02964913
#
# Stress axis : x y z
#
# Youngs Moduli (GPa) = 65.50107 64.72037 88.18826
#
# Poissons Ratio (x) = -0.00596 0.38495
# Poissons Ratio (y) = -0.00603 0.17029
# Poissons Ratio (z) = 0.28592 0.12498
#
# Static dielectric constant tensor:
#      x y z
#    x 1.716240 0.000000 0.000000 
#    y 0.000000 1.690490 0.000000 
#    z 0.000000 0.000000 1.755600 
# 
# From -- ./inp_files/25292.got.cif
#   From: 2010.05.17/outbox.cif.g08.bks.cpg/sg58_13_cif.got.tgz:25292.got - 2010.06.03 14:20:14.
