data_PCOD9444450
_publ_section_title
;
Structure prediction by ZEFSAII (Michael W. Deem and Ramdas Pophale) SiO2 
 PCOD9444450
Probable space group: P N N M
;
_chemical_formula_sum "Si O2"
_cell_formula_units_Z 48
_cell_length_a 22.944905
_cell_length_b 12.143573
_cell_length_c 8.672473
_cell_angle_alpha 90.000000
_cell_angle_beta 90.000000
_cell_angle_gamma 90.000000
_cell_volume 2416.438287
_symmetry_space_group_name_H-M "P N N M"
_symmetry_group_IT_number 58
_symmetry_cell_setting 'orthorhombic'
loop_
_space_group_symop_operation_xyz
x,y,z
-x,-y,z
1/2+x,1/2-y,1/2-z
1/2-x,1/2+y,1/2-z
-x,-y,-z
x,y,-z
1/2-x,1/2+y,1/2+z
1/2+x,1/2-y,1/2+z
loop_
_atom_site_type_symbol
_atom_site_label
_atom_site_fract_x
_atom_site_fract_y
_atom_site_fract_z
Si Si1 0.546452 0.916136 0.824599
Si Si2 0.567365 0.492689 0.311725
Si Si3 0.663837 0.058593 0.826673
Si Si4 0.883925 0.225143 0.185071
Si Si5 0.229093 0.634097 0.817158
Si Si6 0.649009 0.295126 0.316593
O O1 0.563596 0.804837 0.738447
O O2 0.500000 0.000000 0.752013
O O3 0.605802 0.985442 0.832704
O O4 0.527008 0.890364 0.000000
O O5 0.500000 0.500000 0.262822
O O6 0.567693 0.493086 0.500000
O O7 0.603043 0.601358 0.261267
O O8 0.599862 0.381380 0.262849
O O9 0.646912 0.177044 0.763424
O O10 0.707187 0.989000 0.720045
O O11 0.688244 0.068178 0.000000
O O12 0.822599 0.281119 0.233288
O O13 0.883024 0.225019 0.000000
O O14 0.287839 0.656705 0.725704
O O15 0.238202 0.647709 0.000000
O O16 0.643523 0.281687 0.500000
#
# Coordination Sequence:
#
# PCOD9444450 Si02
#       6
#     8   8   8   8   8   8
#     4   9  19  35  56  82 113 149 185 232 292 342
#     4   9  20  38  58  84 118 156 196 239 291 350
#     4  10  21  38  58  82 117 152 191 241 292 346
#     4   9  19  36  59  84 111 148 192 239 287 342
#     4  10  21  38  60  88 117 149 195 243 297 356
#     4  11  23  37  60  89 118 153 194 240 296 355
#
# _framework density 19.863945999999999
#
# number of rings (size 3 to 8) (size 9 to 14) (size 15 to 20)
#    0.000    2.333    0.000    1.500    4.667    1.667 
#    0.000    1.667    0.000    2.500    0.000    0.000 
#    0.000    0.000    0.000    0.000    0.000    0.000 
#
# Total GULP energy -267850.975486 kJ/mol
# GULP energy per Si atom -5580.228656 kJ/mol
# Density = 1.981874 g / cm^3
# Si number density = 19.863946 Si / 1000 Ang^3
#
#
#
# Elastic Constant Matrix: (Units=GPa)
#
#
# Indices 1 2 3 4 5 6 
#
# 1 46.3870 18.1682 2.7794 0.0000 0.0000 0.0000
# 2 18.1682 127.3461 8.4818 0.0000 0.0000 0.0000
# 3 2.7794 8.4818 15.5607 0.0000 0.0000 0.0000
# 4 0.0000 0.0000 0.0000 23.1170 0.0000 0.0000
# 5 0.0000 0.0000 0.0000 0.0000 21.1666 0.0000
# 6 0.0000 0.0000 0.0000 0.0000 0.0000 11.2223
#
#
#
# Elastic Compliance Matrix: (Units=1/GPa)
#
#
# Indices 1 2 3 4 5 6 
#
# 1 0.022920 -0.003110 -0.002398 0.000000 0.000000 0.000000
# 2 -0.003110 0.008570 -0.004116 0.000000 0.000000 0.000000
# 3 -0.002398 -0.004116 0.066937 0.000000 0.000000 0.000000
# 4 0.000000 0.000000 0.000000 0.043258 0.000000 0.000000
# 5 0.000000 0.000000 0.000000 0.000000 0.047244 0.000000
# 6 0.000000 0.000000 0.000000 0.000000 0.000000 0.089108
#
#
# Mechanical properties :
#
#
# Convention : Reuss Voigt Hill
#
# Bulk Modulus (GPa) = 12.62990 27.57251 20.10120
# Shear Modulus (GPa) = 15.44738 21.75879 18.60308
#
# Velocity S-wave (km/s) = 2.79168 3.31326 3.06359
# Velocity P-wave (km/s) = 4.09430 5.34301 4.75978
#
# Compressibility (1/GPa) = 0.07917721
#
# Stress axis : x y z
#
# Youngs Moduli (GPa) = 43.63080 116.67951 14.93951
#
# Poissons Ratio (x) = 0.36289 0.03583
# Poissons Ratio (y) = 0.13570 0.06149
# Poissons Ratio (z) = 0.10465 0.48026
#
# Static dielectric constant tensor:
#      x y z
#    x 1.699880 0.000000 0.000000 
#    y 0.000000 1.699720 0.000000 
#    z 0.000000 0.000000 1.689350 
# 
# From -- ./inp_files/4222.got.cif
#   From: 2010.05.17/outbox.cif.g08.bks.cpg/sg58_3_cif.got.tgz:4222.got - 2010.06.03 14:20:14.
