data_PCOD9444961
_publ_section_title
;
Structure prediction by ZEFSAII (Michael W. Deem and Ramdas Pophale) SiO2 
 PCOD9444961
Probable space group: P N N M
;
_chemical_formula_sum "Si O2"
_cell_formula_units_Z 32
_cell_length_a 4.957435
_cell_length_b 29.179239
_cell_length_c 9.808078
_cell_angle_alpha 90.000000
_cell_angle_beta 90.000000
_cell_angle_gamma 90.000000
_cell_volume 1418.779487
_symmetry_space_group_name_H-M "P N N M"
_symmetry_group_IT_number 58
_symmetry_cell_setting 'orthorhombic'
loop_
_space_group_symop_operation_xyz
x,y,z
-x,-y,z
1/2+x,1/2-y,1/2-z
1/2-x,1/2+y,1/2-z
-x,-y,-z
x,y,-z
1/2-x,1/2+y,1/2+z
1/2+x,1/2-y,1/2+z
loop_
_atom_site_type_symbol
_atom_site_label
_atom_site_fract_x
_atom_site_fract_y
_atom_site_fract_z
Si Si1 0.426011 0.451415 0.717015
Si Si2 0.818945 0.233919 0.163895
Si Si3 0.661163 0.357068 0.645428
Si Si4 0.589068 0.916820 0.651527
O O1 0.500000 0.500000 0.654271
O O2 0.503722 0.405479 0.637177
O O3 0.121334 0.446050 0.762100
O O4 0.630422 0.444488 0.844224
O O5 0.033652 0.262617 0.257048
O O6 0.951911 0.183449 0.169031
O O7 0.801021 0.246242 0.000000
O O8 0.802107 0.348431 0.500000
O O9 0.856255 0.368883 0.770950
O O10 0.491248 0.909339 0.500000
#
# Coordination Sequence:
#
# PCOD9444961 Si02
#       4
#     8   8   8   8
#     4  10  22  39  61  92 125 167 212 257 310 373
#     4  11  25  46  70  99 133 172 219 275 336 401
#     4   9  24  44  64  91 129 166 207 260 322 378
#     4  10  22  38  60  89 122 161 210 258 307 366
#
# _framework density 22.554597000000001
#
# number of rings (size 3 to 8) (size 9 to 14) (size 15 to 20)
#    1.500    0.500    0.000    2.250    3.500    6.500 
#    0.000    1.250    0.000    0.000    0.000    0.000 
#    0.000    0.000    0.000    0.000    0.000    0.000 
#
# Total GULP energy -178176.189169 kJ/mol
# GULP energy per Si atom -5568.005912 kJ/mol
# Density = 2.250326 g / cm^3
# Si number density = 22.554597 Si / 1000 Ang^3
#
#
#
# Elastic Constant Matrix: (Units=GPa)
#
#
# Indices 1 2 3 4 5 6 
#
# 1 74.0108 -12.5255 8.3108 0.0000 0.0000 0.0000
# 2 -12.5255 100.8175 17.7610 0.0000 0.0000 0.0000
# 3 8.3108 17.7610 115.8525 0.0000 0.0000 0.0000
# 4 0.0000 0.0000 0.0000 -8.7134 0.0000 0.0000
# 5 0.0000 0.0000 0.0000 0.0000 2.5055 0.0000
# 6 0.0000 0.0000 0.0000 0.0000 0.0000 31.6502
#
#
#
# Elastic Compliance Matrix: (Units=1/GPa)
#
#
# Indices 1 2 3 4 5 6 
#
# 1 0.013991 0.001968 -0.001305 0.000000 0.000000 0.000000
# 2 0.001968 0.010471 -0.001746 0.000000 0.000000 0.000000
# 3 -0.001305 -0.001746 0.008993 0.000000 0.000000 0.000000
# 4 0.000000 0.000000 0.000000 -0.114766 0.000000 0.000000
# 5 0.000000 0.000000 0.000000 0.000000 0.399129 0.000000
# 6 0.000000 0.000000 0.000000 0.000000 0.000000 0.031595
#
#
# Mechanical properties :
#
#
# Convention : Reuss Voigt Hill
#
# Bulk Modulus (GPa) = 31.96105 35.30815 33.63460
# Shear Modulus (GPa) = 13.81175 23.56410 18.68792
#
# Velocity S-wave (km/s) = 2.47729 3.23578 2.88160
# Velocity P-wave (km/s) = 4.73117 5.44508 5.10063
#
# Compressibility (1/GPa) = 0.03128808
#
# Stress axis : x y z
#
# Youngs Moduli (GPa) = 71.47333 95.50075 111.19686
#
# Poissons Ratio (x) = -0.18797 0.14516
# Poissons Ratio (y) = -0.14068 0.19420
# Poissons Ratio (z) = 0.09330 0.16679
#
# Static dielectric constant tensor:
#      x y z
#    x 1.811190 0.000000 0.000000 
#    y 0.000000 1.857100 0.000000 
#    z 0.000000 0.000000 1.847360 
# 
# From -- ./inp_files/1388.got.cif
#   From: 2010.05.17/outbox.cif.g08.bks.cpg/sg58_1_cif.got.tgz:1388.got - 2010.06.03 14:20:14.
