data_PCOD9444255
_publ_section_title
;
Structure prediction by ZEFSAII (Michael W. Deem and Ramdas Pophale) SiO2 
 PCOD9444255
Probable space group: P N N M
;
_chemical_formula_sum "Si O2"
_cell_formula_units_Z 64
_cell_length_a 21.883026
_cell_length_b 8.578117
_cell_length_c 12.952430
_cell_angle_alpha 90.000000
_cell_angle_beta 90.000000
_cell_angle_gamma 90.000000
_cell_volume 2431.367435
_symmetry_space_group_name_H-M "P N N M"
_symmetry_group_IT_number 58
_symmetry_cell_setting 'orthorhombic'
loop_
_space_group_symop_operation_xyz
x,y,z
-x,-y,z
1/2+x,1/2-y,1/2-z
1/2-x,1/2+y,1/2-z
-x,-y,-z
x,y,-z
1/2-x,1/2+y,1/2+z
1/2+x,1/2-y,1/2+z
loop_
_atom_site_type_symbol
_atom_site_label
_atom_site_fract_x
_atom_site_fract_y
_atom_site_fract_z
Si Si1 0.147002 0.852404 0.665499
Si Si2 0.421681 0.045467 0.386350
Si Si3 0.688135 0.751340 0.617803
Si Si4 0.075848 0.149868 0.673231
Si Si5 0.755892 0.835525 0.119532
Si Si6 0.464639 0.153523 0.163917
Si Si7 0.815936 0.636669 0.376937
Si Si8 0.601881 0.317317 0.615059
O O1 0.156361 0.846645 0.790537
O O2 0.215025 0.817940 0.628514
O O3 0.102519 0.709807 0.630811
O O4 0.114707 0.008860 0.627440
O O5 0.443396 0.101771 0.500000
O O6 0.350362 0.091695 0.381039
O O7 0.454192 0.120795 0.287098
O O8 0.422075 0.859942 0.385853
O O9 0.682360 0.688854 0.500000
O O10 0.760196 0.759141 0.639452
O O11 0.120389 0.301810 0.667490
O O12 0.066702 0.102371 0.792364
O O13 0.010216 0.205140 0.636506
O O14 0.826363 0.817132 0.147195
O O15 0.715624 0.978141 0.165535
O O16 0.758743 0.875776 0.000000
O O17 0.500000 0.000000 0.124607
O O18 0.826596 0.623489 0.500000
O O19 0.595212 0.381622 0.500000
#
# Coordination Sequence:
#
# PCOD9444255 Si02
#       8
#     8   8   8   8   8   8   8   8
#     4  11  24  39  61  90 122 160 206 255 306 359
#     4   9  19  35  59  91 121 160 206 248 299 359
#     4   9  19  36  59  88 126 162 196 245 305 368
#     4  12  24  38  61  90 121 163 207 254 302 351
#     4  10  22  40  62  89 123 159 198 251 310 372
#     4  11  22  41  61  82 118 164 206 256 292 355
#     4  10  22  40  63  90 123 162 205 251 311 369
#     4  10  21  36  60  94 129 162 200 243 303 372
#
# _framework density 26.322638000000001
#
# number of rings (size 3 to 8) (size 9 to 14) (size 15 to 20)
#    0.000    1.750    1.250    2.625    3.500    2.750 
#    0.000    0.625    0.000    7.500    0.000    0.000 
#    0.000    0.000    0.000    0.000    0.000    0.000 
#
# Total GULP energy -357669.322923 kJ/mol
# GULP energy per Si atom -5588.583171 kJ/mol
# Density = 2.626273 g / cm^3
# Si number density = 26.322638 Si / 1000 Ang^3
#
#
#
# Elastic Constant Matrix: (Units=GPa)
#
#
# Indices 1 2 3 4 5 6 
#
# 1 124.2374 8.7768 2.7119 0.0000 0.0000 0.0000
# 2 8.7768 44.6784 -8.0923 0.0000 0.0000 0.0000
# 3 2.7119 -8.0923 93.6180 0.0000 0.0000 0.0000
# 4 0.0000 0.0000 0.0000 6.8481 0.0000 0.0000
# 5 0.0000 0.0000 0.0000 0.0000 15.6758 0.0000
# 6 0.0000 0.0000 0.0000 0.0000 0.0000 52.0693
#
#
#
# Elastic Compliance Matrix: (Units=1/GPa)
#
#
# Indices 1 2 3 4 5 6 
#
# 1 0.008176 -0.001675 -0.000382 0.000000 0.000000 0.000000
# 2 -0.001675 0.023081 0.002044 0.000000 0.000000 0.000000
# 3 -0.000382 0.002044 0.010869 0.000000 0.000000 0.000000
# 4 0.000000 0.000000 0.000000 0.146026 0.000000 0.000000
# 5 0.000000 0.000000 0.000000 0.000000 0.063793 0.000000
# 6 0.000000 0.000000 0.000000 0.000000 0.000000 0.019205
#
#
# Mechanical properties :
#
#
# Convention : Reuss Voigt Hill
#
# Bulk Modulus (GPa) = 23.75283 29.92520 26.83901
# Shear Modulus (GPa) = 17.53091 32.19446 24.86269
#
# Velocity S-wave (km/s) = 2.58350 3.50104 3.07667
# Velocity P-wave (km/s) = 4.23587 5.26653 4.77907
#
# Compressibility (1/GPa) = 0.04210025
#
# Stress axis : x y z
#
# Youngs Moduli (GPa) = 122.31252 43.32492 92.00128
#
# Poissons Ratio (x) = 0.07258 0.03511
# Poissons Ratio (y) = 0.20490 -0.18802
# Poissons Ratio (z) = 0.04668 -0.08854
#
# Static dielectric constant tensor:
#      x y z
#    x 2.013710 0.000000 0.000000 
#    y 0.000000 2.114920 0.000000 
#    z 0.000000 0.000000 2.134590 
# 
# From -- ./inp_files/23555.got.cif
#   From: 2010.05.17/outbox.cif.g08.bks.cpg/sg58_12_cif.got.tgz:23555.got - 2010.06.03 14:20:14.
