data_PCOD9444239
_publ_section_title
;
Structure prediction by ZEFSAII (Michael W. Deem and Ramdas Pophale) SiO2 
 PCOD9444239
Probable space group: P N N M
;
_chemical_formula_sum "Si O2"
_cell_formula_units_Z 58
_cell_length_a 8.837483
_cell_length_b 11.645628
_cell_length_c 27.100404
_cell_angle_alpha 90.000000
_cell_angle_beta 90.000000
_cell_angle_gamma 90.000000
_cell_volume 2789.120449
_symmetry_space_group_name_H-M "P N N M"
_symmetry_group_IT_number 58
_symmetry_cell_setting 'orthorhombic'
loop_
_space_group_symop_operation_xyz
x,y,z
-x,-y,z
1/2+x,1/2-y,1/2-z
1/2-x,1/2+y,1/2-z
-x,-y,-z
x,y,-z
1/2-x,1/2+y,1/2+z
1/2+x,1/2-y,1/2+z
loop_
_atom_site_type_symbol
_atom_site_label
_atom_site_fract_x
_atom_site_fract_y
_atom_site_fract_z
Si Si1 0.280128 0.471360 0.927372
Si Si2 0.677343 0.029092 0.789948
Si Si3 0.000000 0.500000 0.000000
Si Si4 0.612032 0.391884 0.640710
Si Si5 0.180247 0.506158 0.179828
Si Si6 0.650878 0.278580 0.943000
Si Si7 0.820440 0.239287 0.845567
Si Si8 0.825949 0.295468 0.555530
O O1 0.259585 0.457714 0.868652
O O2 0.383870 0.584784 0.936052
O O3 0.302653 0.342252 0.946097
O O4 0.130316 0.510667 0.956696
O O5 0.721160 0.140925 0.820802
O O6 0.500000 0.000000 0.792434
O O7 0.777825 0.930079 0.815219
O O8 0.719569 0.045860 0.732639
O O9 0.500000 0.500000 0.628983
O O10 0.496920 0.292536 0.657295
O O11 0.714942 0.353428 0.594725
O O12 0.216269 0.641230 0.180111
O O13 0.000000 0.500000 0.172385
O O14 0.778063 0.249912 0.903215
O O15 0.504316 0.200087 0.931937
O O16 0.692812 0.260254 0.000000
O O17 0.801065 0.340520 0.500000
#
# Coordination Sequence:
#
# PCOD9444239 Si02
#       8
#     8   8   2   8   8   8   8   8
#     4  11  21  34  57  92 128 160 193 236 298 360
#     4  10  22  42  61  83 118 156 196 251 300 353
#     4  12  20  32  58  92 138 158 190 244 296 348
#     4  10  23  41  61  84 114 153 205 257 298 358
#     4  10  21  36  59  90 121 153 202 245 295 360
#     4  10  21  37  58  88 123 156 193 242 299 366
#     4  10  22  39  62  88 117 154 200 248 305 358
#     4  11  22  36  58  86 121 160 197 242 305 363
#
# _framework density 20.795086000000001
#
# number of rings (size 3 to 8) (size 9 to 14) (size 15 to 20)
#    0.000    1.655    2.069    2.069    1.931    5.241 
#    0.000   10.345    0.000    7.448    0.000    0.000 
#    0.000    0.000    0.000    0.000    0.000    0.000 
#
# Total GULP energy -323210.447743 kJ/mol
# GULP energy per Si atom -5572.593927 kJ/mol
# Density = 2.074776 g / cm^3
# Si number density = 20.795086 Si / 1000 Ang^3
#
#
#
# Elastic Constant Matrix: (Units=GPa)
#
#
# Indices 1 2 3 4 5 6 
#
# 1 57.9654 7.5521 33.0997 0.0000 0.0000 0.0000
# 2 7.5521 20.7642 20.5187 0.0000 0.0000 0.0000
# 3 33.0997 20.5187 131.8996 0.0000 0.0000 0.0000
# 4 0.0000 0.0000 0.0000 5.3327 0.0000 0.0000
# 5 0.0000 0.0000 0.0000 0.0000 21.5936 0.0000
# 6 0.0000 0.0000 0.0000 0.0000 0.0000 18.7059
#
#
#
# Elastic Compliance Matrix: (Units=1/GPa)
#
#
# Indices 1 2 3 4 5 6 
#
# 1 0.020271 -0.002772 -0.004656 0.000000 0.000000 0.000000
# 2 -0.002772 0.057287 -0.008216 0.000000 0.000000 0.000000
# 3 -0.004656 -0.008216 0.010028 0.000000 0.000000 0.000000
# 4 0.000000 0.000000 0.000000 0.187524 0.000000 0.000000
# 5 0.000000 0.000000 0.000000 0.000000 0.046310 0.000000
# 6 0.000000 0.000000 0.000000 0.000000 0.000000 0.053459
#
#
# Mechanical properties :
#
#
# Convention : Reuss Voigt Hill
#
# Bulk Modulus (GPa) = 17.76249 36.99670 27.37959
# Shear Modulus (GPa) = 11.76654 19.09034 15.42844
#
# Velocity S-wave (km/s) = 2.38130 3.03317 2.72679
# Velocity P-wave (km/s) = 4.01510 5.48603 4.80716
#
# Compressibility (1/GPa) = 0.05629842
#
# Stress axis : x y z
#
# Youngs Moduli (GPa) = 49.33047 17.45593 99.72072
#
# Poissons Ratio (x) = 0.04839 0.46428
# Poissons Ratio (y) = 0.13675 0.81932
# Poissons Ratio (z) = 0.22967 0.14342
#
# Static dielectric constant tensor:
#      x y z
#    x 1.780980 0.000000 0.000000 
#    y 0.000000 1.777160 0.000000 
#    z 0.000000 0.000000 1.711060 
# 
# From -- ./inp_files/33345.got.cif
#   From: 2010.05.17/outbox.cif.g08.bks.cpg/sg58_17_cif.got.tgz:33345.got - 2010.06.03 14:20:14.
