data_PCOD9444737
_publ_section_title
;
Structure prediction by ZEFSAII (Michael W. Deem and Ramdas Pophale) SiO2 
 PCOD9444737
Probable space group: P N N M
;
_chemical_formula_sum "Si O2"
_cell_formula_units_Z 48
_cell_length_a 8.935836
_cell_length_b 10.534061
_cell_length_c 25.197089
_cell_angle_alpha 90.000000
_cell_angle_beta 90.000000
_cell_angle_gamma 90.000000
_cell_volume 2371.818152
_symmetry_space_group_name_H-M "P N N M"
_symmetry_group_IT_number 58
_symmetry_cell_setting 'orthorhombic'
loop_
_space_group_symop_operation_xyz
x,y,z
-x,-y,z
1/2+x,1/2-y,1/2-z
1/2-x,1/2+y,1/2-z
-x,-y,-z
x,y,-z
1/2-x,1/2+y,1/2+z
1/2+x,1/2-y,1/2+z
loop_
_atom_site_type_symbol
_atom_site_label
_atom_site_fract_x
_atom_site_fract_y
_atom_site_fract_z
Si Si1 0.953981 0.148554 0.135332
Si Si2 0.319859 0.748156 0.561752
Si Si3 0.661962 0.282468 0.844167
Si Si4 0.822236 0.974968 0.440544
Si Si5 0.884857 0.388395 0.354510
Si Si6 0.629925 0.393138 0.729932
O O1 0.780623 0.170725 0.145026
O O2 0.015963 0.225922 0.085638
O O3 0.041532 0.196962 0.188125
O O4 0.000000 0.000000 0.129332
O O5 0.312063 0.717569 0.500000
O O6 0.217953 0.653166 0.596344
O O7 0.262755 0.892055 0.568596
O O8 0.695432 0.381459 0.891107
O O9 0.492524 0.232042 0.844386
O O10 0.681221 0.339959 0.785856
O O11 0.778472 0.927470 0.500000
O O12 0.000000 0.000000 0.442753
O O13 0.779480 0.422257 0.304268
O O14 0.000000 0.500000 0.366969
O O15 0.500000 0.500000 0.739633
#
# Coordination Sequence:
#
# PCOD9444737 Si02
#       6
#     8   8   8   8   8   8
#     4  10  23  44  62  90 135 170 209 271 317 382
#     4  10  22  42  65  90 130 172 213 269 330 383
#     4  12  22  39  68  93 121 174 221 256 326 394
#     4  10  21  40  64  95 128 160 211 280 327 375
#     4  11  23  39  62  93 127 166 215 270 316 383
#     4  10  22  41  63  89 129 165 206 266 320 376
#
# _framework density 20.237639000000001
#
# number of rings (size 3 to 8) (size 9 to 14) (size 15 to 20)
#    0.000    1.500    1.667    4.500    0.000    2.000 
#    9.000    3.333    0.000    0.000    0.000    0.000 
#    0.000    0.000    0.000    0.000    0.000    0.000 
#
# Total GULP energy -267642.828626 kJ/mol
# GULP energy per Si atom -5575.892263 kJ/mol
# Density = 2.019158 g / cm^3
# Si number density = 20.237639 Si / 1000 Ang^3
#
#
#
# Elastic Constant Matrix: (Units=GPa)
#
#
# Indices 1 2 3 4 5 6 
#
# 1 116.6306 34.6082 48.7496 0.0000 0.0000 0.0000
# 2 34.6082 68.7824 74.1135 0.0000 0.0000 0.0000
# 3 48.7496 74.1135 165.4588 0.0000 0.0000 0.0000
# 4 0.0000 0.0000 0.0000 18.1025 0.0000 0.0000
# 5 0.0000 0.0000 0.0000 0.0000 34.9558 0.0000
# 6 0.0000 0.0000 0.0000 0.0000 0.0000 30.7340
#
#
#
# Elastic Compliance Matrix: (Units=1/GPa)
#
#
# Indices 1 2 3 4 5 6 
#
# 1 0.010237 -0.003674 -0.001370 0.000000 0.000000 0.000000
# 2 -0.003674 0.029421 -0.012096 0.000000 0.000000 0.000000
# 3 -0.001370 -0.012096 0.011866 0.000000 0.000000 0.000000
# 4 0.000000 0.000000 0.000000 0.055241 0.000000 0.000000
# 5 0.000000 0.000000 0.000000 0.000000 0.028608 0.000000
# 6 0.000000 0.000000 0.000000 0.000000 0.000000 0.032537
#
#
# Mechanical properties :
#
#
# Convention : Reuss Voigt Hill
#
# Bulk Modulus (GPa) = 57.99614 73.97937 65.98776
# Shear Modulus (GPa) = 24.04570 29.65182 26.84876
#
# Velocity S-wave (km/s) = 3.45072 3.83192 3.64631
# Velocity P-wave (km/s) = 6.67805 7.49752 7.09962
#
# Compressibility (1/GPa) = 0.01724253
#
# Stress axis : x y z
#
# Youngs Moduli (GPa) = 97.68339 33.98988 84.27758
#
# Poissons Ratio (x) = 0.12489 0.11549
# Poissons Ratio (y) = 0.35891 1.01940
# Poissons Ratio (z) = 0.13387 0.41113
#
# Static dielectric constant tensor:
#      x y z
#    x 1.765610 0.000000 0.000000 
#    y 0.000000 1.764760 0.000000 
#    z 0.000000 0.000000 1.704200 
# 
# From -- ./inp_files/31469.got.cif
#   From: 2010.05.17/outbox.cif.g08.bks.cpg/sg58_16_cif.got.tgz:31469.got - 2010.06.03 14:20:14.
