data_PCOD9444022
_publ_section_title
;
Structure prediction by ZEFSAII (Michael W. Deem and Ramdas Pophale) SiO2 
 PCOD9444022
Probable space group: P N N M
;
_chemical_formula_sum "Si O2"
_cell_formula_units_Z 58
_cell_length_a 17.918073
_cell_length_b 18.992453
_cell_length_c 7.563006
_cell_angle_alpha 90.000000
_cell_angle_beta 90.000000
_cell_angle_gamma 90.000000
_cell_volume 2573.752651
_symmetry_space_group_name_H-M "P N N M"
_symmetry_group_IT_number 58
_symmetry_cell_setting 'orthorhombic'
loop_
_space_group_symop_operation_xyz
x,y,z
-x,-y,z
1/2+x,1/2-y,1/2-z
1/2-x,1/2+y,1/2-z
-x,-y,-z
x,y,-z
1/2-x,1/2+y,1/2+z
1/2+x,1/2-y,1/2+z
loop_
_atom_site_type_symbol
_atom_site_label
_atom_site_fract_x
_atom_site_fract_y
_atom_site_fract_z
Si Si1 0.069027 0.578816 0.706315
Si Si2 0.442479 0.815731 0.795896
Si Si3 0.649365 0.581995 0.285435
Si Si4 0.868114 0.919472 0.294419
Si Si5 0.007626 0.832254 0.798929
Si Si6 0.000000 0.500000 0.000000
Si Si7 0.725883 0.186923 0.783909
Si Si8 0.280779 0.160707 0.285766
O O1 0.059187 0.559985 0.500000
O O2 0.144946 0.623333 0.718947
O O3 0.002482 0.629759 0.778619
O O4 0.063153 0.515016 0.842165
O O5 0.477388 0.738035 0.790160
O O6 0.359328 0.814064 0.718899
O O7 0.434379 0.836674 0.000000
O O8 0.646388 0.579964 0.500000
O O9 0.639600 0.502814 0.221987
O O10 0.581076 0.631072 0.223467
O O11 0.726245 0.619176 0.232418
O O12 0.876617 0.899803 0.500000
O O13 0.941340 0.889169 0.202419
O O14 0.792846 0.882152 0.229153
O O15 0.025246 0.811219 0.000000
O O16 0.768152 0.258519 0.730045
O O17 0.723754 0.189221 0.000000
O O18 0.284241 0.159295 0.500000
#
# Coordination Sequence:
#
# PCOD9444022 Si02
#       8
#     8   8   8   8   8   2   8   8
#     4  11  25  43  70 101 133 179 229 279 344 400
#     4  10  21  40  65  97 127 163 219 277 327 391
#     4  10  22  38  59  90 124 165 212 262 325 397
#     4  11  23  39  62  91 128 172 216 267 330 390
#     4  11  22  37  62  92 127 171 215 262 328 398
#     4  12  26  48  68  94 140 176 226 296 328 406
#     4   9  18  38  65  90 126 168 212 272 335 392
#     4  10  20  41  67  91 126 173 220 270 336 402
#
# _framework density 22.535187000000001
#
# number of rings (size 3 to 8) (size 9 to 14) (size 15 to 20)
#    0.000    1.655    2.069    2.276    0.966    6.069 
#    0.000    2.759    0.000    0.000    0.000    0.000 
#    0.000    0.000    0.000    0.000    0.000    0.000 
#
# Total GULP energy -323800.229222 kJ/mol
# GULP energy per Si atom -5582.762573 kJ/mol
# Density = 2.248390 g / cm^3
# Si number density = 22.535187 Si / 1000 Ang^3
#
#
#
# Elastic Constant Matrix: (Units=GPa)
#
#
# Indices 1 2 3 4 5 6 
#
# 1 49.1987 20.5695 0.1372 0.0000 0.0000 0.0000
# 2 20.5695 60.4024 -10.2247 0.0000 0.0000 0.0000
# 3 0.1372 -10.2247 87.9866 0.0000 0.0000 0.0000
# 4 0.0000 0.0000 0.0000 12.2043 0.0000 0.0000
# 5 0.0000 0.0000 0.0000 0.0000 18.5001 0.0000
# 6 0.0000 0.0000 0.0000 0.0000 0.0000 -17.9030
#
#
#
# Elastic Compliance Matrix: (Units=1/GPa)
#
#
# Indices 1 2 3 4 5 6 
#
# 1 0.023786 -0.008269 -0.000998 0.000000 0.000000 0.000000
# 2 -0.008269 0.019762 0.002309 0.000000 0.000000 0.000000
# 3 -0.000998 0.002309 0.011635 0.000000 0.000000 0.000000
# 4 0.000000 0.000000 0.000000 0.081938 0.000000 0.000000
# 5 0.000000 0.000000 0.000000 0.000000 0.054054 0.000000
# 6 0.000000 0.000000 0.000000 0.000000 0.000000 -0.055856
#
#
# Mechanical properties :
#
#
# Convention : Reuss Voigt Hill
#
# Bulk Modulus (GPa) = 24.23159 24.28353 24.25756
# Shear Modulus (GPa) = 30.67671 15.03400 22.85536
#
# Velocity S-wave (km/s) = 3.69356 2.58570 3.18812
# Velocity P-wave (km/s) = 5.38200 4.44001 4.93354
#
# Compressibility (1/GPa) = 0.04126844
#
# Stress axis : x y z
#
# Youngs Moduli (GPa) = 42.04212 50.60097 85.94542
#
# Poissons Ratio (x) = 0.41842 0.08577
# Poissons Ratio (y) = 0.34764 -0.19848
# Poissons Ratio (z) = 0.04196 -0.11686
#
# Static dielectric constant tensor:
#      x y z
#    x 1.816570 0.000000 0.000000 
#    y 0.000000 1.833240 0.000000 
#    z 0.000000 0.000000 1.868090 
# 
# From -- ./inp_files/8062.got.cif
#   From: 2010.05.17/outbox.cif.g08.bks.cpg/sg58_5_cif.got.tgz:8062.got - 2010.06.03 14:20:14.
