data_PCOD9444001
_publ_section_title
;
Structure prediction by ZEFSAII (Michael W. Deem and Ramdas Pophale) SiO2 
 PCOD9444001
Probable space group: P N N M
;
_chemical_formula_sum "Si O2"
_cell_formula_units_Z 56
_cell_length_a 24.577823
_cell_length_b 8.445256
_cell_length_c 13.966510
_cell_angle_alpha 90.000000
_cell_angle_beta 90.000000
_cell_angle_gamma 90.000000
_cell_volume 2898.972715
_symmetry_space_group_name_H-M "P N N M"
_symmetry_group_IT_number 58
_symmetry_cell_setting 'orthorhombic'
loop_
_space_group_symop_operation_xyz
x,y,z
-x,-y,z
1/2+x,1/2-y,1/2-z
1/2-x,1/2+y,1/2-z
-x,-y,-z
x,y,-z
1/2-x,1/2+y,1/2+z
1/2+x,1/2-y,1/2+z
loop_
_atom_site_type_symbol
_atom_site_label
_atom_site_fract_x
_atom_site_fract_y
_atom_site_fract_z
Si Si1 0.398416 0.884964 0.886761
Si Si2 0.209125 0.278548 0.280440
Si Si3 0.346479 0.947740 0.390240
Si Si4 0.682055 0.563840 0.703534
Si Si5 0.409952 0.617052 0.603915
Si Si6 0.898955 0.314005 0.744039
Si Si7 0.985430 0.836729 0.283443
O O1 0.341644 0.812778 0.849152
O O2 0.447594 0.781877 0.842996
O O3 0.399475 0.059298 0.841051
O O4 0.401420 0.888146 0.000000
O O5 0.199264 0.384393 0.183935
O O6 0.266374 0.330294 0.324837
O O7 0.204989 0.096158 0.250681
O O8 0.329636 0.981423 0.500000
O O9 0.386699 0.796013 0.393861
O O10 0.377637 0.091679 0.338089
O O11 0.640790 0.500198 0.622597
O O12 0.643759 0.671753 0.770741
O O13 0.434160 0.585809 0.500000
O O14 0.450681 0.608106 0.691731
O O15 0.959731 0.248295 0.751023
O O16 0.000000 0.000000 0.337455
#
# Coordination Sequence:
#
# PCOD9444001 Si02
#       7
#     8   8   8   8   8   8   8
#     4  11  24  43  65  94 125 166 223 269 319 377
#     4  10  20  40  66  87 124 166 206 263 319 371
#     4   9  19  37  60  92 124 159 202 250 308 373
#     4  11  21  41  64  91 126 167 206 260 316 382
#     4  10  21  39  63  93 128 163 204 252 311 381
#     4  11  22  38  64  89 127 167 208 261 322 371
#     4  12  22  42  64  89 130 170 207 261 315 372
#
# _framework density 19.317188999999999
#
# number of rings (size 3 to 8) (size 9 to 14) (size 15 to 20)
#    0.000    1.429    5.714    2.143    0.000    3.429 
#    0.000    9.286    0.000    0.000    0.000    0.000 
#    0.000    0.000    0.000    0.000    0.000    0.000 
#
# Total GULP energy -312468.127565 kJ/mol
# GULP energy per Si atom -5579.787992 kJ/mol
# Density = 1.927322 g / cm^3
# Si number density = 19.317189 Si / 1000 Ang^3
#
#
#
# Elastic Constant Matrix: (Units=GPa)
#
#
# Indices 1 2 3 4 5 6 
#
# 1 112.7269 49.9052 20.4514 0.0000 0.0000 0.0000
# 2 49.9052 102.0358 44.6560 0.0000 0.0000 0.0000
# 3 20.4514 44.6560 98.1246 0.0000 0.0000 0.0000
# 4 0.0000 0.0000 0.0000 2.4002 0.0000 0.0000
# 5 0.0000 0.0000 0.0000 0.0000 1.4538 0.0000
# 6 0.0000 0.0000 0.0000 0.0000 0.0000 45.6965
#
#
#
# Elastic Compliance Matrix: (Units=1/GPa)
#
#
# Indices 1 2 3 4 5 6 
#
# 1 0.011326 -0.005627 0.000200 0.000000 0.000000 0.000000
# 2 -0.005627 0.015034 -0.005669 0.000000 0.000000 0.000000
# 3 0.000200 -0.005669 0.012729 0.000000 0.000000 0.000000
# 4 0.000000 0.000000 0.000000 0.416624 0.000000 0.000000
# 5 0.000000 0.000000 0.000000 0.000000 0.687867 0.000000
# 6 0.000000 0.000000 0.000000 0.000000 0.000000 0.021884
#
#
# Mechanical properties :
#
#
# Convention : Reuss Voigt Hill
#
# Bulk Modulus (GPa) = 59.18088 60.32361 59.75224
# Shear Modulus (GPa) = 4.19011 23.10175 13.64593
#
# Velocity S-wave (km/s) = 1.47439 3.46195 2.66073
# Velocity P-wave (km/s) = 5.79666 6.87575 6.35914
#
# Compressibility (1/GPa) = 0.01689735
#
# Stress axis : x y z
#
# Youngs Moduli (GPa) = 88.29388 66.51740 78.55902
#
# Poissons Ratio (x) = 0.37430 -0.01573
# Poissons Ratio (y) = 0.49683 0.44535
# Poissons Ratio (z) = -0.01768 0.37708
#
# Static dielectric constant tensor:
#      x y z
#    x 1.680340 0.000000 0.000000 
#    y 0.000000 1.718610 0.000000 
#    z 0.000000 0.000000 1.653200 
# 
# From -- ./inp_files/23259.got.cif
#   From: 2010.05.17/outbox.cif.g08.bks.cpg/sg58_12_cif.got.tgz:23259.got - 2010.06.03 14:20:14.
