data_PCOD9444715
_publ_section_title
;
Structure prediction by ZEFSAII (Michael W. Deem and Ramdas Pophale) SiO2 
 PCOD9444715
Probable space group: P N N M
;
_chemical_formula_sum "Si O2"
_cell_formula_units_Z 34
_cell_length_a 8.645587
_cell_length_b 10.990413
_cell_length_c 17.042994
_cell_angle_alpha 90.000000
_cell_angle_beta 90.000000
_cell_angle_gamma 90.000000
_cell_volume 1619.400948
_symmetry_space_group_name_H-M "P N N M"
_symmetry_group_IT_number 58
_symmetry_cell_setting 'orthorhombic'
loop_
_space_group_symop_operation_xyz
x,y,z
-x,-y,z
1/2+x,1/2-y,1/2-z
1/2-x,1/2+y,1/2-z
-x,-y,-z
x,y,-z
1/2-x,1/2+y,1/2+z
1/2+x,1/2-y,1/2+z
loop_
_atom_site_type_symbol
_atom_site_label
_atom_site_fract_x
_atom_site_fract_y
_atom_site_fract_z
Si Si1 0.044643 0.799641 0.865172
Si Si2 0.741457 0.569483 0.500000
Si Si3 0.697458 0.281200 0.500000
Si Si4 0.000000 0.000000 0.260507
Si Si5 0.960303 0.786297 0.500000
Si Si6 0.753139 0.919641 0.626559
Si Si7 0.500000 0.000000 0.500000
O O1 0.148167 0.883046 0.923802
O O2 0.149809 0.688534 0.836210
O O3 0.909420 0.755571 0.924231
O O4 0.988006 0.882238 0.794685
O O5 0.738970 0.424671 0.500000
O O6 0.899615 0.646362 0.500000
O O7 0.856441 0.209334 0.500000
O O8 0.154687 0.997521 0.312838
O O9 0.884778 0.852340 0.574618
O O10 0.634416 0.981794 0.567687
#
# Coordination Sequence:
#
# PCOD9444715 Si02
#       7
#     8   4   4   4   4   8   2
#     4  10  21  40  62  93 127 163 210 253 313 377
#     4   9  16  37  63  90 120 165 203 249 295 368
#     4  11  17  34  71  90 121 169 199 265 305 363
#     4  12  24  42  62  92 136 164 202 266 328 372
#     4   9  21  37  59  96 117 150 222 257 299 367
#     4  10  25  41  64  88 124 164 212 266 308 378
#     4  10  22  50  66  88 114 166 222 258 312 372
#
# _framework density 20.995418999999998
#
# number of rings (size 3 to 8) (size 9 to 14) (size 15 to 20)
#    0.000    1.882    2.353    3.176    0.000    9.412 
#    0.000    2.353    0.000    0.000    0.000    0.000 
#    0.000    0.000    0.000    0.000    0.000    0.000 
#
# Total GULP energy -189519.046550 kJ/mol
# GULP energy per Si atom -5574.089604 kJ/mol
# Density = 2.094763 g / cm^3
# Si number density = 20.995419 Si / 1000 Ang^3
#
#
#
# Elastic Constant Matrix: (Units=GPa)
#
#
# Indices 1 2 3 4 5 6 
#
# 1 173.7221 35.0548 53.4480 0.0000 0.0000 0.0000
# 2 35.0548 70.1187 17.0003 0.0000 0.0000 0.0000
# 3 53.4480 17.0003 84.8181 0.0000 0.0000 0.0000
# 4 0.0000 0.0000 0.0000 54.5582 0.0000 0.0000
# 5 0.0000 0.0000 0.0000 0.0000 -6.5921 0.0000
# 6 0.0000 0.0000 0.0000 0.0000 0.0000 30.6838
#
#
#
# Elastic Compliance Matrix: (Units=1/GPa)
#
#
# Indices 1 2 3 4 5 6 
#
# 1 0.007624 -0.002782 -0.004247 0.000000 0.000000 0.000000
# 2 -0.002782 0.016005 -0.001455 0.000000 0.000000 0.000000
# 3 -0.004247 -0.001455 0.014758 0.000000 0.000000 0.000000
# 4 0.000000 0.000000 0.000000 0.018329 0.000000 0.000000
# 5 0.000000 0.000000 0.000000 0.000000 -0.151696 0.000000
# 6 0.000000 0.000000 0.000000 0.000000 0.000000 0.032590
#
#
# Mechanical properties :
#
#
# Convention : Reuss Voigt Hill
#
# Bulk Modulus (GPa) = 46.68609 59.96279 53.32444
# Shear Modulus (GPa) = -130.60944 30.60703 -50.00121
#
# Velocity S-wave (km/s) = -7.89580 3.82225 -4.88539
# Velocity P-wave (km/s) = 7.80001 6.93552 2.52377
#
# Compressibility (1/GPa) = 0.02141966
#
# Stress axis : x y z
#
# Youngs Moduli (GPa) = 131.15979 62.48014 67.76134
#
# Poissons Ratio (x) = 0.17382 0.28777
# Poissons Ratio (y) = 0.36489 0.09858
# Poissons Ratio (z) = 0.55701 0.09090
#
# Static dielectric constant tensor:
#      x y z
#    x 1.733580 0.000000 0.000000 
#    y 0.000000 1.843850 0.000000 
#    z 0.000000 0.000000 1.704310 
# 
# From -- ./inp_files/24922.got.cif
#   From: 2010.05.17/outbox.cif.g08.bks.cpg/sg58_13_cif.got.tgz:24922.got - 2010.06.03 14:20:14.
