data_PCOD9444686
_publ_section_title
;
Structure prediction by ZEFSAII (Michael W. Deem and Ramdas Pophale) SiO2 
 PCOD9444686
Probable space group: P N N M
;
_chemical_formula_sum "Si O2"
_cell_formula_units_Z 64
_cell_length_a 12.252710
_cell_length_b 14.800925
_cell_length_c 14.902556
_cell_angle_alpha 90.000000
_cell_angle_beta 90.000000
_cell_angle_gamma 90.000000
_cell_volume 2702.600016
_symmetry_space_group_name_H-M "P N N M"
_symmetry_group_IT_number 58
_symmetry_cell_setting 'orthorhombic'
loop_
_space_group_symop_operation_xyz
x,y,z
-x,-y,z
1/2+x,1/2-y,1/2-z
1/2-x,1/2+y,1/2-z
-x,-y,-z
x,y,-z
1/2-x,1/2+y,1/2+z
1/2+x,1/2-y,1/2+z
loop_
_atom_site_type_symbol
_atom_site_label
_atom_site_fract_x
_atom_site_fract_y
_atom_site_fract_z
Si Si1 0.478214 0.209868 0.109656
Si Si2 0.081422 0.250504 0.105029
Si Si3 0.343495 0.277165 0.601266
Si Si4 0.256187 0.117020 0.840663
Si Si5 0.776484 0.906117 0.369718
Si Si6 0.493494 0.403650 0.168163
Si Si7 0.746033 0.101755 0.604244
Si Si8 0.327005 0.917379 0.892195
O O1 0.355119 0.184210 0.135386
O O2 0.518460 0.295262 0.168000
O O3 0.556233 0.124947 0.131851
O O4 0.484387 0.227170 0.000000
O O5 0.149132 0.157950 0.112672
O O6 0.157000 0.330075 0.144115
O O7 0.960705 0.240034 0.144202
O O8 0.066429 0.274236 0.000000
O O9 0.365836 0.310491 0.500000
O O10 0.276879 0.184438 0.594224
O O11 0.267262 0.351844 0.645912
O O12 0.225784 0.109621 0.736776
O O13 0.298470 0.018980 0.868571
O O14 0.902331 0.924825 0.397197
O O15 0.710514 0.997114 0.390512
O O16 0.500000 0.500000 0.224627
O O17 0.365707 0.395248 0.146653
O O18 0.761666 0.126486 0.500000
O O19 0.325220 0.910911 0.000000
#
# Coordination Sequence:
#
# PCOD9444686 Si02
#       8
#     8   8   8   8   8   8   8   8
#     4  11  21  40  71  98 123 162 216 273 316 362
#     4  10  22  42  67  93 119 164 219 261 310 371
#     4  10  22  43  67  91 121 164 217 260 308 375
#     4  12  25  41  60  92 135 170 206 258 318 387
#     4  11  25  41  60  95 132 170 199 252 329 391
#     4  10  21  39  65  99 125 155 207 263 321 373
#     4  10  21  41  69  96 122 159 213 271 315 369
#     4  10  22  42  68  93 122 166 221 272 307 360
#
# _framework density 23.680900000000001
#
# number of rings (size 3 to 8) (size 9 to 14) (size 15 to 20)
#    0.000    1.500    2.500    2.250    0.000    9.000 
#   11.250    3.750    0.000    0.000    0.000    0.000 
#    0.000    0.000    0.000    0.000    0.000    0.000 
#
# Total GULP energy -356830.196477 kJ/mol
# GULP energy per Si atom -5575.471820 kJ/mol
# Density = 2.362700 g / cm^3
# Si number density = 23.680900 Si / 1000 Ang^3
#
#
#
# Elastic Constant Matrix: (Units=GPa)
#
#
# Indices 1 2 3 4 5 6 
#
# 1 126.1557 25.4554 8.0332 0.0000 0.0000 0.0000
# 2 25.4554 132.2901 -16.6021 0.0000 0.0000 0.0000
# 3 8.0332 -16.6021 64.7314 0.0000 0.0000 0.0000
# 4 0.0000 0.0000 0.0000 954.4451 0.0000 0.0000
# 5 0.0000 0.0000 0.0000 0.0000 12.6231 0.0000
# 6 0.0000 0.0000 0.0000 0.0000 0.0000 3.4940
#
#
#
# Elastic Compliance Matrix: (Units=1/GPa)
#
#
# Indices 1 2 3 4 5 6 
#
# 1 0.008386 -0.001802 -0.001503 0.000000 0.000000 0.000000
# 2 -0.001802 0.008198 0.002326 0.000000 0.000000 0.000000
# 3 -0.001503 0.002326 0.016232 0.000000 0.000000 0.000000
# 4 0.000000 0.000000 0.000000 0.001048 0.000000 0.000000
# 5 0.000000 0.000000 0.000000 0.000000 0.079220 0.000000
# 6 0.000000 0.000000 0.000000 0.000000 0.000000 0.286207
#
#
# Mechanical properties :
#
#
# Convention : Reuss Voigt Hill
#
# Bulk Modulus (GPa) = 32.40698 39.66113 36.03405
# Shear Modulus (GPa) = 12.14965 214.53182 113.34074
#
# Velocity S-wave (km/s) = 2.26753 9.52835 6.92572
# Velocity P-wave (km/s) = 4.53544 11.74040 8.89964
#
# Compressibility (1/GPa) = 0.03085755
#
# Stress axis : x y z
#
# Youngs Moduli (GPa) = 119.24533 121.98281 61.60820
#
# Poissons Ratio (x) = 0.21985 0.09259
# Poissons Ratio (y) = 0.21491 -0.14332
# Poissons Ratio (z) = 0.17922 -0.28376
#
# Static dielectric constant tensor:
#      x y z
#    x 1.869430 0.000000 0.000000 
#    y 0.000000 1.942250 0.000000 
#    z 0.000000 0.000000 1.955970 
# 
# From -- ./inp_files/26352.got.cif
#   From: 2010.05.17/outbox.cif.g08.bks.cpg/sg58_14_cif.got.tgz:26352.got - 2010.06.03 14:20:14.
