data_PCOD9444676
_publ_section_title
;
Structure prediction by ZEFSAII (Michael W. Deem and Ramdas Pophale) SiO2 
 PCOD9444676
Probable space group: P N N M
;
_chemical_formula_sum "Si O2"
_cell_formula_units_Z 48
_cell_length_a 9.760019
_cell_length_b 8.164571
_cell_length_c 26.675927
_cell_angle_alpha 90.000000
_cell_angle_beta 90.000000
_cell_angle_gamma 90.000000
_cell_volume 2125.707738
_symmetry_space_group_name_H-M "P N N M"
_symmetry_group_IT_number 58
_symmetry_cell_setting 'orthorhombic'
loop_
_space_group_symop_operation_xyz
x,y,z
-x,-y,z
1/2+x,1/2-y,1/2-z
1/2-x,1/2+y,1/2-z
-x,-y,-z
x,y,-z
1/2-x,1/2+y,1/2+z
1/2+x,1/2-y,1/2+z
loop_
_atom_site_type_symbol
_atom_site_label
_atom_site_fract_x
_atom_site_fract_y
_atom_site_fract_z
Si Si1 0.559238 0.315536 0.944934
Si Si2 0.149313 0.921805 0.846477
Si Si3 0.145994 0.915525 0.729097
Si Si4 0.668318 0.006667 0.446306
Si Si5 0.600023 0.861655 0.147201
Si Si6 0.851000 0.449168 0.156529
O O1 0.500000 0.500000 0.941941
O O2 0.723458 0.353221 0.946708
O O3 0.488491 0.221541 0.898265
O O4 0.523065 0.244943 0.000000
O O5 0.181504 0.900828 0.787182
O O6 0.142185 0.734675 0.863882
O O7 0.264559 0.038755 0.869969
O O8 0.000000 0.000000 0.852106
O O9 0.139211 0.758439 0.692808
O O10 0.249569 0.035473 0.701688
O O11 0.000000 0.000000 0.727278
O O12 0.699781 0.090978 0.500000
O O13 0.694262 0.067315 0.389685
O O14 0.500000 0.000000 0.446101
O O15 0.500000 0.000000 0.168854
O O16 0.000000 0.500000 0.173915
#
# Coordination Sequence:
#
# PCOD9444676 Si02
#       6
#     8   8   8   8   8   8
#     4  10  21  39  64  95 131 174 222 268 326 405
#     4  11  25  41  59  88 123 162 212 272 336 398
#     4  11  23  40  61  86 120 163 212 261 320 398
#     4   9  18  34  59  90 121 157 205 256 303 367
#     4  12  24  39  63  93 129 168 214 279 345 398
#     4  11  22  39  63  87 118 162 210 260 319 392
#
# _framework density 22.580715000000001
#
# number of rings (size 3 to 8) (size 9 to 14) (size 15 to 20)
#    0.000    1.333    0.000    6.500    0.000    7.000 
#    0.000    0.833    0.000    1.000    0.000    0.000 
#    0.000    0.000    0.000    0.000    0.000    0.000 
#
# Total GULP energy -267401.450990 kJ/mol
# GULP energy per Si atom -5570.863562 kJ/mol
# Density = 2.252932 g / cm^3
# Si number density = 22.580715 Si / 1000 Ang^3
#
#
#
# Elastic Constant Matrix: (Units=GPa)
#
#
# Indices 1 2 3 4 5 6 
#
# 1 125.4857 37.6705 50.7073 0.0000 0.0000 0.0000
# 2 37.6705 98.2696 9.0897 0.0000 0.0000 0.0000
# 3 50.7073 9.0897 102.2082 0.0000 0.0000 0.0000
# 4 0.0000 0.0000 0.0000 11.8722 0.0000 0.0000
# 5 0.0000 0.0000 0.0000 0.0000 27.1149 0.0000
# 6 0.0000 0.0000 0.0000 0.0000 0.0000 23.2433
#
#
#
# Elastic Compliance Matrix: (Units=1/GPa)
#
#
# Indices 1 2 3 4 5 6 
#
# 1 0.011230 -0.003821 -0.005232 0.000000 0.000000 0.000000
# 2 -0.003821 0.011561 0.000868 0.000000 0.000000 0.000000
# 3 -0.005232 0.000868 0.012302 0.000000 0.000000 0.000000
# 4 0.000000 0.000000 0.000000 0.084230 0.000000 0.000000
# 5 0.000000 0.000000 0.000000 0.000000 0.036880 0.000000
# 6 0.000000 0.000000 0.000000 0.000000 0.000000 0.043023
#
#
# Mechanical properties :
#
#
# Convention : Reuss Voigt Hill
#
# Bulk Modulus (GPa) = 53.41084 57.87762 55.64423
# Shear Modulus (GPa) = 22.53897 27.67915 25.10906
#
# Velocity S-wave (km/s) = 3.16278 3.50492 3.33824
# Velocity P-wave (km/s) = 6.08623 6.48586 6.28922
#
# Compressibility (1/GPa) = 0.01872279
#
# Stress axis : x y z
#
# Youngs Moduli (GPa) = 89.04590 86.50081 81.28550
#
# Poissons Ratio (x) = 0.33052 0.42526
# Poissons Ratio (y) = 0.34025 -0.07052
# Poissons Ratio (z) = 0.46586 -0.07505
#
# Static dielectric constant tensor:
#      x y z
#    x 1.853010 0.000000 0.000000 
#    y 0.000000 1.847740 0.000000 
#    z 0.000000 0.000000 1.858370 
# 
# From -- ./inp_files/34592.got.cif
#   From: 2010.05.17/outbox.cif.g08.bks.cpg/sg58_18_cif.got.tgz:34592.got - 2010.06.03 14:20:14.
