data_PCOD9444083
_publ_section_title
;
Structure prediction by ZEFSAII (Michael W. Deem and Ramdas Pophale) SiO2 
 PCOD9444083
Probable space group: P N N M
;
_chemical_formula_sum "Si O2"
_cell_formula_units_Z 56
_cell_length_a 5.303287
_cell_length_b 16.082166
_cell_length_c 35.399432
_cell_angle_alpha 90.000000
_cell_angle_beta 90.000000
_cell_angle_gamma 90.000000
_cell_volume 3019.158859
_symmetry_space_group_name_H-M "P N N M"
_symmetry_group_IT_number 58
_symmetry_cell_setting 'orthorhombic'
loop_
_space_group_symop_operation_xyz
x,y,z
-x,-y,z
1/2+x,1/2-y,1/2-z
1/2-x,1/2+y,1/2-z
-x,-y,-z
x,y,-z
1/2-x,1/2+y,1/2+z
1/2+x,1/2-y,1/2+z
loop_
_atom_site_type_symbol
_atom_site_label
_atom_site_fract_x
_atom_site_fract_y
_atom_site_fract_z
Si Si1 0.673715 0.080850 0.682339
Si Si2 0.802073 0.295987 0.781519
Si Si3 0.247180 0.945769 0.544518
Si Si4 0.828576 0.739506 0.639430
Si Si5 0.563749 0.613480 0.743476
Si Si6 0.807786 0.677995 0.889561
Si Si7 0.239945 0.948896 0.163122
O O1 0.529699 0.163677 0.695967
O O2 0.858250 0.071927 0.717519
O O3 0.759147 0.103936 0.640449
O O4 0.500000 0.000000 0.680323
O O5 0.625265 0.275489 0.817754
O O6 0.729653 0.365512 0.750426
O O7 0.844632 0.209017 0.761236
O O8 0.222926 0.926177 0.500000
O O9 0.281496 0.864147 0.569836
O O10 0.500000 0.000000 0.549859
O O11 0.000000 0.000000 0.555301
O O12 0.587044 0.785604 0.620049
O O13 0.767434 0.642240 0.644833
O O14 0.087255 0.755122 0.617267
O O15 0.666685 0.568035 0.707061
O O16 0.500000 0.000000 0.160558
O O17 0.000000 0.000000 0.147431
#
# Coordination Sequence:
#
# PCOD9444083 Si02
#       7
#     8   8   8   8   8   8   8
#     4  11  23  33  48  72 101 134 187 239 280 320
#     4  10  21  35  51  66  96 144 183 237 288 346
#     4  10  21  38  61  91 128 162 190 226 272 323
#     4  10  22  39  60  78 110 148 191 236 292 339
#     4  11  21  34  52  66 100 141 190 233 295 337
#     4  11  21  39  58  84 112 154 189 226 275 344
#     4  11  25  39  56  81 109 143 194 251 297 347
#
# _framework density 18.548210999999998
#
# number of rings (size 3 to 8) (size 9 to 14) (size 15 to 20)
#    0.000    1.429    2.857    2.571    4.000    1.143 
#    0.000    0.000    0.000    0.000    0.000    0.000 
#    0.000   11.429    0.000    0.000    0.000    0.000 
#
# Total GULP energy -312158.841985 kJ/mol
# GULP energy per Si atom -5574.265035 kJ/mol
# Density = 1.850599 g / cm^3
# Si number density = 18.548211 Si / 1000 Ang^3
#
#
#
# Elastic Constant Matrix: (Units=GPa)
#
#
# Indices 1 2 3 4 5 6 
#
# 1 89.8541 33.3112 26.1563 0.0000 0.0000 0.0000
# 2 33.3112 95.5470 34.3989 0.0000 0.0000 0.0000
# 3 26.1563 34.3989 57.8204 0.0000 0.0000 0.0000
# 4 0.0000 0.0000 0.0000 15.9787 0.0000 0.0000
# 5 0.0000 0.0000 0.0000 0.0000 13.1761 0.0000
# 6 0.0000 0.0000 0.0000 0.0000 0.0000 38.5938
#
#
#
# Elastic Compliance Matrix: (Units=1/GPa)
#
#
# Indices 1 2 3 4 5 6 
#
# 1 0.013545 -0.003202 -0.004222 0.000000 0.000000 0.000000
# 2 -0.003202 0.014076 -0.006925 0.000000 0.000000 0.000000
# 3 -0.004222 -0.006925 0.023325 0.000000 0.000000 0.000000
# 4 0.000000 0.000000 0.000000 0.062583 0.000000 0.000000
# 5 0.000000 0.000000 0.000000 0.000000 0.075895 0.000000
# 6 0.000000 0.000000 0.000000 0.000000 0.000000 0.025911
#
#
# Mechanical properties :
#
#
# Convention : Reuss Voigt Hill
#
# Bulk Modulus (GPa) = 44.95177 47.88382 46.41779
# Shear Modulus (GPa) = 19.88458 23.50674 21.69566
#
# Velocity S-wave (km/s) = 3.27777 3.56382 3.42378
# Velocity P-wave (km/s) = 6.21391 6.54266 6.38040
#
# Compressibility (1/GPa) = 0.02224607
#
# Stress axis : x y z
#
# Youngs Moduli (GPa) = 73.82551 71.04400 42.87213
#
# Poissons Ratio (x) = 0.22750 0.18103
# Poissons Ratio (y) = 0.23641 0.29691
# Poissons Ratio (z) = 0.31173 0.49201
#
# Static dielectric constant tensor:
#      x y z
#    x 1.828300 0.000000 0.000000 
#    y 0.000000 1.640800 0.000000 
#    z 0.000000 0.000000 1.636840 
# 
# From -- ./inp_files/34178.got.cif
#   From: 2010.05.17/outbox.cif.g08.bks.cpg/sg58_18_cif.got.tgz:34178.got - 2010.06.03 14:20:14.
