data_PCOD9444895
_publ_section_title
;
Structure prediction by ZEFSAII (Michael W. Deem and Ramdas Pophale) SiO2 
 PCOD9444895
Probable space group: P N N M
;
_chemical_formula_sum "Si O2"
_cell_formula_units_Z 64
_cell_length_a 13.038404
_cell_length_b 16.130113
_cell_length_c 16.695109
_cell_angle_alpha 90.000000
_cell_angle_beta 90.000000
_cell_angle_gamma 90.000000
_cell_volume 3511.163898
_symmetry_space_group_name_H-M "P N N M"
_symmetry_group_IT_number 58
_symmetry_cell_setting 'orthorhombic'
loop_
_space_group_symop_operation_xyz
x,y,z
-x,-y,z
1/2+x,1/2-y,1/2-z
1/2-x,1/2+y,1/2-z
-x,-y,-z
x,y,-z
1/2-x,1/2+y,1/2+z
1/2+x,1/2-y,1/2+z
loop_
_atom_site_type_symbol
_atom_site_label
_atom_site_fract_x
_atom_site_fract_y
_atom_site_fract_z
Si Si1 0.378341 0.000627 0.406832
Si Si2 0.543071 0.910445 0.092645
Si Si3 0.399889 0.776238 0.838243
Si Si4 0.269930 0.902897 0.265474
Si Si5 0.281289 0.165966 0.658575
Si Si6 0.459015 0.593975 0.590964
Si Si7 0.428284 0.305089 0.269850
Si Si8 0.249995 0.575961 0.319942
O O1 0.367408 0.977384 0.500000
O O2 0.331463 0.092391 0.392488
O O3 0.500000 0.000000 0.386876
O O4 0.318409 0.939949 0.346312
O O5 0.458201 0.840199 0.104422
O O6 0.642796 0.892544 0.144968
O O7 0.500000 0.000000 0.118721
O O8 0.572647 0.917535 0.000000
O O9 0.343066 0.832947 0.771817
O O10 0.310650 0.720733 0.877968
O O11 0.485812 0.722777 0.792909
O O12 0.158041 0.861978 0.272263
O O13 0.260852 0.979273 0.203036
O O14 0.369432 0.226776 0.691436
O O15 0.231104 0.122969 0.736787
O O16 0.500000 0.500000 0.592862
O O17 0.470099 0.625515 0.500000
O O18 0.520801 0.645926 0.656509
O O19 0.341066 0.591406 0.618512
#
# Coordination Sequence:
#
# PCOD9444895 Si02
#       8
#     8   8   8   8   8   8   8   8
#     4  10  22  41  64  90 117 149 197 250 297 343
#     4  11  23  37  57  85 117 153 192 240 291 343
#     4  11  21  38  60  86 119 155 197 238 290 353
#     4  10  22  36  61  89 111 156 199 240 283 350
#     4  10  22  35  64  90 114 153 195 245 291 351
#     4  11  23  38  57  86 122 155 192 240 295 348
#     4  11  21  38  59  86 120 155 197 232 292 354
#     4  11  19  38  59  87 116 151 201 240 281 357
#
# _framework density 18.227574000000001
#
# number of rings (size 3 to 8) (size 9 to 14) (size 15 to 20)
#    0.000    1.375    5.000    1.125    1.750    1.000 
#    0.000    3.125    0.000    0.750    0.000    0.000 
#    0.000    0.000    0.000    0.000    0.000    0.000 
#
# Total GULP energy -357304.118210 kJ/mol
# GULP energy per Si atom -5582.876847 kJ/mol
# Density = 1.818609 g / cm^3
# Si number density = 18.227574 Si / 1000 Ang^3
#
#
#
# Elastic Constant Matrix: (Units=GPa)
#
#
# Indices 1 2 3 4 5 6 
#
# 1 107.3234 39.9131 25.8042 0.0000 0.0000 0.0000
# 2 39.9131 75.0880 18.0538 0.0000 0.0000 0.0000
# 3 25.8042 18.0538 56.8292 0.0000 0.0000 0.0000
# 4 0.0000 0.0000 0.0000 140.7595 0.0000 0.0000
# 5 0.0000 0.0000 0.0000 0.0000 21.9009 0.0000
# 6 0.0000 0.0000 0.0000 0.0000 0.0000 33.6938
#
#
#
# Elastic Compliance Matrix: (Units=1/GPa)
#
#
# Indices 1 2 3 4 5 6 
#
# 1 0.012330 -0.005639 -0.003807 0.000000 0.000000 0.000000
# 2 -0.005639 0.016998 -0.002840 0.000000 0.000000 0.000000
# 3 -0.003807 -0.002840 0.020227 0.000000 0.000000 0.000000
# 4 0.000000 0.000000 0.000000 0.007104 0.000000 0.000000
# 5 0.000000 0.000000 0.000000 0.000000 0.045660 0.000000
# 6 0.000000 0.000000 0.000000 0.000000 0.000000 0.029679
#
#
# Mechanical properties :
#
#
# Convention : Reuss Voigt Hill
#
# Bulk Modulus (GPa) = 40.02555 45.19809 42.61182
# Shear Modulus (GPa) = 30.32178 49.63547 39.97862
#
# Velocity S-wave (km/s) = 4.08304 5.22399 4.68835
# Velocity P-wave (km/s) = 6.65092 7.82542 7.26195
#
# Compressibility (1/GPa) = 0.02498404
#
# Stress axis : x y z
#
# Youngs Moduli (GPa) = 81.10286 58.83161 49.43770
#
# Poissons Ratio (x) = 0.33173 0.18823
# Poissons Ratio (y) = 0.45731 0.14038
# Poissons Ratio (z) = 0.30879 0.16706
#
# Static dielectric constant tensor:
#      x y z
#    x 1.617860 0.000000 0.000000 
#    y 0.000000 1.640920 0.000000 
#    z 0.000000 0.000000 1.585530 
# 
# From -- ./inp_files/26390.got.cif
#   From: 2010.05.17/outbox.cif.g08.bks.cpg/sg58_14_cif.got.tgz:26390.got - 2010.06.03 14:20:14.
