data_PCOD9444630
_publ_section_title
;
Structure prediction by ZEFSAII (Michael W. Deem and Ramdas Pophale) SiO2 
 PCOD9444630
Probable space group: P N N M
;
_chemical_formula_sum "Si O2"
_cell_formula_units_Z 48
_cell_length_a 12.297955
_cell_length_b 23.412817
_cell_length_c 7.737131
_cell_angle_alpha 90.000000
_cell_angle_beta 90.000000
_cell_angle_gamma 90.000000
_cell_volume 2227.750348
_symmetry_space_group_name_H-M "P N N M"
_symmetry_group_IT_number 58
_symmetry_cell_setting 'orthorhombic'
loop_
_space_group_symop_operation_xyz
x,y,z
-x,-y,z
1/2+x,1/2-y,1/2-z
1/2-x,1/2+y,1/2-z
-x,-y,-z
x,y,-z
1/2-x,1/2+y,1/2+z
1/2+x,1/2-y,1/2+z
loop_
_atom_site_type_symbol
_atom_site_label
_atom_site_fract_x
_atom_site_fract_y
_atom_site_fract_z
Si Si1 0.517929 0.064125 0.702752
Si Si2 0.550954 0.560342 0.792560
Si Si3 0.614037 0.731090 0.706187
Si Si4 0.764187 0.623299 0.207165
Si Si5 0.822478 0.356400 0.300829
Si Si6 0.911421 0.835536 0.196562
O O1 0.544559 0.056067 0.500000
O O2 0.618756 0.102056 0.774475
O O3 0.408462 0.101068 0.716941
O O4 0.500000 0.000000 0.775400
O O5 0.500000 0.500000 0.748161
O O6 0.676909 0.573028 0.754554
O O7 0.482679 0.607760 0.695051
O O8 0.537914 0.568768 0.000000
O O9 0.604907 0.739389 0.500000
O O10 0.706669 0.682361 0.732698
O O11 0.638480 0.791207 0.791217
O O12 0.496837 0.709130 0.773854
O O13 0.771978 0.630153 0.000000
O O14 0.812401 0.375270 0.500000
O O15 0.702394 0.351909 0.219037
O O16 0.886752 0.816157 0.000000
#
# Coordination Sequence:
#
# PCOD9444630 Si02
#       6
#     8   8   8   8   8   8
#     4  10  23  41  62  87 120 163 204 242 294 356
#     4   9  18  32  57  87 112 143 187 236 280 333
#     4  10  21  39  62  88 114 150 196 239 296 357
#     4   9  19  37  58  85 120 153 189 241 294 341
#     4  11  24  40  60  87 119 154 194 244 297 347
#     4   9  21  39  56  80 115 149 185 235 289 344
#
# _framework density 21.546399000000001
#
# number of rings (size 3 to 8) (size 9 to 14) (size 15 to 20)
#    0.000    2.333    0.000    1.000    4.667    3.333 
#    0.000    0.000    0.000    0.000    0.000    0.000 
#    0.000    0.000    0.000    0.000    0.000    0.000 
#
# Total GULP energy -267666.667987 kJ/mol
# GULP energy per Si atom -5576.388916 kJ/mol
# Density = 2.149736 g / cm^3
# Si number density = 21.546399 Si / 1000 Ang^3
#
#
#
# Elastic Constant Matrix: (Units=GPa)
#
#
# Indices 1 2 3 4 5 6 
#
# 1 148.7406 35.7511 0.6208 0.0000 0.0000 0.0000
# 2 35.7511 60.5683 -4.1710 0.0000 0.0000 0.0000
# 3 0.6208 -4.1710 31.3134 0.0000 0.0000 0.0000
# 4 0.0000 0.0000 0.0000 4.5388 0.0000 0.0000
# 5 0.0000 0.0000 0.0000 0.0000 20.2879 0.0000
# 6 0.0000 0.0000 0.0000 0.0000 0.0000 11.7195
#
#
#
# Elastic Compliance Matrix: (Units=1/GPa)
#
#
# Indices 1 2 3 4 5 6 
#
# 1 0.007853 -0.004689 -0.000780 0.000000 0.000000 0.000000
# 2 -0.004689 0.019463 0.002685 0.000000 0.000000 0.000000
# 3 -0.000780 0.002685 0.032308 0.000000 0.000000 0.000000
# 4 0.000000 0.000000 0.000000 0.220320 0.000000 0.000000
# 5 0.000000 0.000000 0.000000 0.000000 0.049290 0.000000
# 6 0.000000 0.000000 0.000000 0.000000 0.000000 0.085328
#
#
# Mechanical properties :
#
#
# Convention : Reuss Voigt Hill
#
# Bulk Modulus (GPa) = 18.49912 33.89157 26.19535
# Shear Modulus (GPa) = 11.41159 21.20401 16.30780
#
# Velocity S-wave (km/s) = 2.30386 3.14045 2.75411
# Velocity P-wave (km/s) = 3.95997 5.37714 4.72203
#
# Compressibility (1/GPa) = 0.05405662
#
# Stress axis : x y z
#
# Youngs Moduli (GPa) = 127.33177 51.37916 30.95173
#
# Poissons Ratio (x) = 0.24093 0.02415
# Poissons Ratio (y) = 0.59710 -0.08312
# Poissons Ratio (z) = 0.09936 -0.13798
#
# Static dielectric constant tensor:
#      x y z
#    x 1.842890 0.000000 0.000000 
#    y 0.000000 1.785720 0.000000 
#    z 0.000000 0.000000 1.774750 
# 
# From -- ./inp_files/4171.got.cif
#   From: 2010.05.17/outbox.cif.g08.bks.cpg/sg58_3_cif.got.tgz:4171.got - 2010.06.03 14:20:14.
