data_PCOD9444667
_publ_section_title
;
Structure prediction by ZEFSAII (Michael W. Deem and Ramdas Pophale) SiO2 
 PCOD9444667
Probable space group: P N N M
;
_chemical_formula_sum "Si O2"
_cell_formula_units_Z 64
_cell_length_a 9.865768
_cell_length_b 21.523345
_cell_length_c 13.235293
_cell_angle_alpha 90.000000
_cell_angle_beta 90.000000
_cell_angle_gamma 90.000000
_cell_volume 2810.439403
_symmetry_space_group_name_H-M "P N N M"
_symmetry_group_IT_number 58
_symmetry_cell_setting 'orthorhombic'
loop_
_space_group_symop_operation_xyz
x,y,z
-x,-y,z
1/2+x,1/2-y,1/2-z
1/2-x,1/2+y,1/2-z
-x,-y,-z
x,y,-z
1/2-x,1/2+y,1/2+z
1/2+x,1/2-y,1/2+z
loop_
_atom_site_type_symbol
_atom_site_label
_atom_site_fract_x
_atom_site_fract_y
_atom_site_fract_z
Si Si1 0.839482 0.493967 0.883194
Si Si2 0.104634 0.556917 0.619324
Si Si3 0.217902 0.142500 0.619252
Si Si4 0.459468 0.228533 0.615071
Si Si5 0.345324 0.482172 0.292930
Si Si6 0.924539 0.182403 0.381726
Si Si7 0.822532 0.153266 0.167221
Si Si8 0.027934 0.315127 0.322451
O O1 0.791929 0.422868 0.866579
O O2 0.742307 0.530863 0.808450
O O3 0.000000 0.500000 0.864440
O O4 0.816246 0.510422 0.000000
O O5 0.101495 0.567197 0.500000
O O6 0.253784 0.534329 0.652588
O O7 0.055353 0.620784 0.670028
O O8 0.000000 0.500000 0.641557
O O9 0.203866 0.150654 0.500000
O O10 0.315940 0.198074 0.649784
O O11 0.064473 0.148182 0.653810
O O12 0.492254 0.209024 0.500000
O O13 0.435154 0.301669 0.620518
O O14 0.551223 0.204870 0.705664
O O15 0.500000 0.500000 0.270961
O O16 0.345450 0.418619 0.354948
O O17 0.891545 0.167475 0.500000
O O18 0.829077 0.164699 0.288597
O O19 0.955146 0.256300 0.373970
O O20 0.674021 0.172192 0.129600
#
# Coordination Sequence:
#
# PCOD9444667 Si02
#       8
#     8   8   8   8   8   8   8   8
#     4  10  22  39  65 100 138 182 231 282 337 402
#     4  11  24  44  73 101 131 176 228 280 335 399
#     4   9  17  34  61  89 121 166 214 262 328 399
#     4  10  22  39  63  93 127 166 210 271 341 404
#     4  12  26  44  66  95 140 184 227 281 338 405
#     4  10  21  39  63  94 132 173 218 276 348 411
#     4  11  24  39  63  96 130 173 222 279 330 404
#     4  11  22  41  68  98 131 168 227 284 337 398
#
# _framework density 22.772238999999999
#
# number of rings (size 3 to 8) (size 9 to 14) (size 15 to 20)
#    0.000    1.500    2.500    2.250    1.750    2.500 
#    2.250    0.000    0.000    0.375    0.000    0.000 
#    0.000    0.000    0.000    0.000    0.000    0.000 
#
# Total GULP energy -357487.830079 kJ/mol
# GULP energy per Si atom -5585.747345 kJ/mol
# Density = 2.272041 g / cm^3
# Si number density = 22.772239 Si / 1000 Ang^3
#
#
#
# Elastic Constant Matrix: (Units=GPa)
#
#
# Indices 1 2 3 4 5 6 
#
# 1 101.0013 33.5058 -7.3380 0.0000 0.0000 0.0000
# 2 33.5058 75.3647 -18.8401 0.0000 0.0000 0.0000
# 3 -7.3380 -18.8401 87.6677 0.0000 0.0000 0.0000
# 4 0.0000 0.0000 0.0000 1.4164 0.0000 0.0000
# 5 0.0000 0.0000 0.0000 0.0000 -1.8055 0.0000
# 6 0.0000 0.0000 0.0000 0.0000 0.0000 28.3040
#
#
#
# Elastic Compliance Matrix: (Units=1/GPa)
#
#
# Indices 1 2 3 4 5 6 
#
# 1 0.011615 -0.005200 -0.000145 0.000000 0.000000 0.000000
# 2 -0.005200 0.016350 0.003078 0.000000 0.000000 0.000000
# 3 -0.000145 0.003078 0.012056 0.000000 0.000000 0.000000
# 4 0.000000 0.000000 0.000000 0.706004 0.000000 0.000000
# 5 0.000000 0.000000 0.000000 0.000000 -0.553851 0.000000
# 6 0.000000 0.000000 0.000000 0.000000 0.000000 0.035331
#
#
# Mechanical properties :
#
#
# Convention : Reuss Voigt Hill
#
# Bulk Modulus (GPa) = 28.17895 30.96548 29.57221
# Shear Modulus (GPa) = 20.50273 22.69671 21.59972
#
# Velocity S-wave (km/s) = 3.00382 3.16045 3.08313
# Velocity P-wave (km/s) = 4.94284 5.19089 5.06839
#
# Compressibility (1/GPa) = 0.03548748
#
# Stress axis : x y z
#
# Youngs Moduli (GPa) = 86.09225 61.16072 82.94547
#
# Poissons Ratio (x) = 0.31806 0.01206
# Poissons Ratio (y) = 0.44771 -0.25534
# Poissons Ratio (z) = 0.01251 -0.18828
#
# Static dielectric constant tensor:
#      x y z
#    x 1.882510 0.000000 0.000000 
#    y 0.000000 1.860650 0.000000 
#    z 0.000000 0.000000 1.866050 
# 
# From -- ./inp_files/20304.got.cif
#   From: 2010.05.17/outbox.cif.g08.bks.cpg/sg58_11_cif.got.tgz:20304.got - 2010.06.03 14:20:14.
