data_PCOD9444787
_publ_section_title
;
Structure prediction by ZEFSAII (Michael W. Deem and Ramdas Pophale) SiO2 
 PCOD9444787
Probable space group: P N N M
;
_chemical_formula_sum "Si O2"
_cell_formula_units_Z 58
_cell_length_a 23.859227
_cell_length_b 15.660801
_cell_length_c 8.808735
_cell_angle_alpha 90.000000
_cell_angle_beta 90.000000
_cell_angle_gamma 90.000000
_cell_volume 3291.424406
_symmetry_space_group_name_H-M "P N N M"
_symmetry_group_IT_number 58
_symmetry_cell_setting 'orthorhombic'
loop_
_space_group_symop_operation_xyz
x,y,z
-x,-y,z
1/2+x,1/2-y,1/2-z
1/2-x,1/2+y,1/2-z
-x,-y,-z
x,y,-z
1/2-x,1/2+y,1/2+z
1/2+x,1/2-y,1/2+z
loop_
_atom_site_type_symbol
_atom_site_label
_atom_site_fract_x
_atom_site_fract_y
_atom_site_fract_z
Si Si1 0.704450 0.603561 0.681902
Si Si2 0.500000 0.000000 0.500000
Si Si3 0.262207 0.729124 0.317715
Si Si4 0.618021 0.231039 0.818044
Si Si5 0.966778 0.873795 0.316062
Si Si6 0.290909 0.048490 0.817703
Si Si7 0.915269 0.056355 0.683831
Si Si8 0.388667 0.951420 0.333396
O O1 0.704218 0.612197 0.500000
O O2 0.729117 0.689116 0.755271
O O3 0.745361 0.524465 0.720990
O O4 0.642388 0.584284 0.741755
O O5 0.450910 0.983638 0.370268
O O6 0.264463 0.732004 0.500000
O O7 0.324711 0.732749 0.251353
O O8 0.231829 0.641129 0.272119
O O9 0.566048 0.289850 0.765376
O O10 0.611283 0.133844 0.765855
O O11 0.621600 0.234910 0.000000
O O12 0.967994 0.872890 0.500000
O O13 0.031180 0.886288 0.268372
O O14 0.932405 0.959254 0.274390
O O15 0.348982 0.021876 0.740999
O O16 0.297632 0.047834 0.000000
O O17 0.910358 0.060105 0.500000
O O18 0.364062 0.928186 0.500000
#
# Coordination Sequence:
#
# PCOD9444787 Si02
#       8
#     8   2   8   8   8   8   8   8
#     4  11  22  37  56  86 121 154 190 243 300 354
#     4   8  24  44  62  88 112 154 218 250 296 368
#     4  11  23  38  58  89 119 154 198 244 303 369
#     4  11  20  35  60  90 118 151 203 253 302 363
#     4   8  17  33  56  83 113 153 197 240 288 356
#     4  10  22  40  62  87 121 158 197 250 311 368
#     4   9  17  35  57  80 116 157 196 237 291 358
#     4  10  21  41  63  82 115 154 201 251 302 356
#
# _framework density 17.621549999999999
#
# number of rings (size 3 to 8) (size 9 to 14) (size 15 to 20)
#    0.414    1.655    1.379    3.310    0.000    1.655 
#    2.483    4.828    0.000    0.000    0.000    0.000 
#    0.000    0.000    0.000    0.000    0.000    0.000 
#
# Total GULP energy -323010.729217 kJ/mol
# GULP energy per Si atom -5569.150504 kJ/mol
# Density = 1.758144 g / cm^3
# Si number density = 17.621550 Si / 1000 Ang^3
#
#
#
# Elastic Constant Matrix: (Units=GPa)
#
#
# Indices 1 2 3 4 5 6 
#
# 1 125.8800 49.9116 34.8152 0.0000 0.0000 0.0000
# 2 49.9116 88.7973 31.1845 0.0000 0.0000 0.0000
# 3 34.8152 31.1845 43.2397 0.0000 0.0000 0.0000
# 4 0.0000 0.0000 0.0000 15.0946 0.0000 0.0000
# 5 0.0000 0.0000 0.0000 0.0000 27.5727 0.0000
# 6 0.0000 0.0000 0.0000 0.0000 0.0000 29.4755
#
#
#
# Elastic Compliance Matrix: (Units=1/GPa)
#
#
# Indices 1 2 3 4 5 6 
#
# 1 0.011290 -0.004223 -0.006045 0.000000 0.000000 0.000000
# 2 -0.004223 0.016661 -0.008616 0.000000 0.000000 0.000000
# 3 -0.006045 -0.008616 0.034208 0.000000 0.000000 0.000000
# 4 0.000000 0.000000 0.000000 0.066249 0.000000 0.000000
# 5 0.000000 0.000000 0.000000 0.000000 0.036268 0.000000
# 6 0.000000 0.000000 0.000000 0.000000 0.000000 0.033926
#
#
# Mechanical properties :
#
#
# Convention : Reuss Voigt Hill
#
# Bulk Modulus (GPa) = 40.99750 54.41551 47.70650
# Shear Modulus (GPa) = 20.44988 23.89561 22.17274
#
# Velocity S-wave (km/s) = 3.41031 3.68645 3.55106
# Velocity P-wave (km/s) = 6.23081 7.00478 6.62910
#
# Compressibility (1/GPa) = 0.02439173
#
# Stress axis : x y z
#
# Youngs Moduli (GPa) = 88.57007 60.01990 29.23329
#
# Poissons Ratio (x) = 0.25348 0.17671
# Poissons Ratio (y) = 0.37406 0.25186
# Poissons Ratio (z) = 0.53539 0.51710
#
# Static dielectric constant tensor:
#      x y z
#    x 1.580350 0.000000 0.000000 
#    y 0.000000 1.594400 0.000000 
#    z 0.000000 0.000000 1.600910 
# 
# From -- ./inp_files/9869.got.cif
#   From: 2010.05.17/outbox.cif.g08.bks.cpg/sg58_5_cif.got.tgz:9869.got - 2010.06.03 14:20:14.
