data_PCOD9444099
_publ_section_title
;
Structure prediction by ZEFSAII (Michael W. Deem and Ramdas Pophale) SiO2 
 PCOD9444099
Probable space group: P N N M
;
_chemical_formula_sum "Si O2"
_cell_formula_units_Z 64
_cell_length_a 8.493442
_cell_length_b 14.453941
_cell_length_c 26.576680
_cell_angle_alpha 90.000000
_cell_angle_beta 90.000000
_cell_angle_gamma 90.000000
_cell_volume 3262.651824
_symmetry_space_group_name_H-M "P N N M"
_symmetry_group_IT_number 58
_symmetry_cell_setting 'orthorhombic'
loop_
_space_group_symop_operation_xyz
x,y,z
-x,-y,z
1/2+x,1/2-y,1/2-z
1/2-x,1/2+y,1/2-z
-x,-y,-z
x,y,-z
1/2-x,1/2+y,1/2+z
1/2+x,1/2-y,1/2+z
loop_
_atom_site_type_symbol
_atom_site_label
_atom_site_fract_x
_atom_site_fract_y
_atom_site_fract_z
Si Si1 0.657245 0.859199 0.669306
Si Si2 0.152029 0.312144 0.350857
Si Si3 0.359554 0.625630 0.440986
Si Si4 0.768659 0.079225 0.058941
Si Si5 0.327844 0.776010 0.641679
Si Si6 0.333480 0.456437 0.289082
Si Si7 0.166415 0.955476 0.669380
Si Si8 0.160660 0.644010 0.289076
O O1 0.798736 0.794383 0.649990
O O2 0.498496 0.822875 0.644235
O O3 0.640503 0.845825 0.729471
O O4 0.701609 0.965947 0.660904
O O5 0.159221 0.359621 0.405389
O O6 0.287783 0.366974 0.320105
O O7 0.992762 0.329455 0.320561
O O8 0.329642 0.641905 0.500000
O O9 0.274311 0.529311 0.426761
O O10 0.548590 0.611177 0.435515
O O11 0.310169 0.708745 0.405486
O O12 0.727839 0.086306 0.000000
O O13 0.205976 0.860267 0.642582
O O14 0.297383 0.711315 0.690420
O O15 0.500000 0.500000 0.304185
O O16 0.337961 0.436003 0.229569
O O17 0.206998 0.537465 0.297874
O O18 0.000000 0.000000 0.655719
#
# Coordination Sequence:
#
# PCOD9444099 Si02
#       8
#     8   8   8   8   8   8   8   8
#     4  11  22  36  55  82 115 160 197 235 280 340
#     4  12  21  34  57  84 116 153 193 236 293 349
#     4   9  19  37  62  89 113 143 188 241 290 347
#     4   9  19  37  60  88 118 145 183 236 296 352
#     4  12  21  37  59  82 112 154 200 236 282 351
#     4  10  21  35  54  79 114 156 196 235 281 346
#     4  10  22  39  55  78 115 156 194 242 290 332
#     4  11  23  34  51  85 123 153 192 235 285 344
#
# _framework density 19.615943999999999
#
# number of rings (size 3 to 8) (size 9 to 14) (size 15 to 20)
#    0.000    1.500    1.250    6.000    1.750    4.000 
#    0.000    0.625    0.000    5.625    0.000    0.000 
#    0.000    0.000    0.000    0.000    0.000    0.000 
#
# Total GULP energy -358043.765093 kJ/mol
# GULP energy per Si atom -5594.433830 kJ/mol
# Density = 1.957130 g / cm^3
# Si number density = 19.615944 Si / 1000 Ang^3
#
#
#
# Elastic Constant Matrix: (Units=GPa)
#
#
# Indices 1 2 3 4 5 6 
#
# 1 45.9985 7.7772 17.8076 0.0000 0.0000 0.0000
# 2 7.7772 109.5187 53.6109 0.0000 0.0000 0.0000
# 3 17.8076 53.6109 79.4717 0.0000 0.0000 0.0000
# 4 0.0000 0.0000 0.0000 33.1731 0.0000 0.0000
# 5 0.0000 0.0000 0.0000 0.0000 8.7721 0.0000
# 6 0.0000 0.0000 0.0000 0.0000 0.0000 23.8500
#
#
#
# Elastic Compliance Matrix: (Units=1/GPa)
#
#
# Indices 1 2 3 4 5 6 
#
# 1 0.023944 0.001383 -0.006298 0.000000 0.000000 0.000000
# 2 0.001383 0.013713 -0.009560 0.000000 0.000000 0.000000
# 3 -0.006298 -0.009560 0.020443 0.000000 0.000000 0.000000
# 4 0.000000 0.000000 0.000000 0.030145 0.000000 0.000000
# 5 0.000000 0.000000 0.000000 0.000000 0.113998 0.000000
# 6 0.000000 0.000000 0.000000 0.000000 0.000000 0.041929
#
#
# Mechanical properties :
#
#
# Convention : Reuss Voigt Hill
#
# Bulk Modulus (GPa) = 34.30626 43.70892 39.00759
# Shear Modulus (GPa) = 17.67789 23.54525 20.61157
#
# Velocity S-wave (km/s) = 3.00526 3.46831 3.24505
# Velocity P-wave (km/s) = 5.43774 6.19432 5.82832
#
# Compressibility (1/GPa) = 0.02914920
#
# Stress axis : x y z
#
# Youngs Moduli (GPa) = 41.76373 72.92610 48.91531
#
# Poissons Ratio (x) = -0.10083 0.30807
# Poissons Ratio (y) = -0.05774 0.46764
# Poissons Ratio (z) = 0.26303 0.69718
#
# Static dielectric constant tensor:
#      x y z
#    x 1.727590 0.000000 0.000000 
#    y 0.000000 1.683900 0.000000 
#    z 0.000000 0.000000 1.667550 
# 
# From -- ./inp_files/34819.got.cif
#   From: 2010.05.17/outbox.cif.g08.bks.cpg/sg58_18_cif.got.tgz:34819.got - 2010.06.03 14:20:14.
