data_PCOD9444812
_publ_section_title
;
Structure prediction by ZEFSAII (Michael W. Deem and Ramdas Pophale) SiO2 
 PCOD9444812
Probable space group: P N N M
;
_chemical_formula_sum "Si O2"
_cell_formula_units_Z 48
_cell_length_a 15.705204
_cell_length_b 18.922490
_cell_length_c 7.543946
_cell_angle_alpha 90.000000
_cell_angle_beta 90.000000
_cell_angle_gamma 90.000000
_cell_volume 2241.921683
_symmetry_space_group_name_H-M "P N N M"
_symmetry_group_IT_number 58
_symmetry_cell_setting 'orthorhombic'
loop_
_space_group_symop_operation_xyz
x,y,z
-x,-y,z
1/2+x,1/2-y,1/2-z
1/2-x,1/2+y,1/2-z
-x,-y,-z
x,y,-z
1/2-x,1/2+y,1/2+z
1/2+x,1/2-y,1/2+z
loop_
_atom_site_type_symbol
_atom_site_label
_atom_site_fract_x
_atom_site_fract_y
_atom_site_fract_z
Si Si1 0.371762 0.659957 0.713985
Si Si2 0.020355 0.620819 0.500000
Si Si3 0.254903 0.922665 0.713248
Si Si4 0.223051 0.764490 0.286076
Si Si5 0.131583 0.491676 0.500000
Si Si6 0.972912 0.261546 0.795766
Si Si7 0.092554 0.001167 0.294554
O O1 0.369392 0.656193 0.500000
O O2 0.288774 0.703993 0.772905
O O3 0.459411 0.701112 0.761286
O O4 0.372745 0.580531 0.783724
O O5 0.105370 0.573380 0.500000
O O6 0.015609 0.671259 0.669695
O O7 0.946923 0.562656 0.500000
O O8 0.263176 0.931800 0.500000
O O9 0.264639 0.840252 0.756488
O O10 0.160996 0.946292 0.774604
O O11 0.317109 0.971837 0.823720
O O12 0.216120 0.760641 0.500000
O O13 0.126401 0.760223 0.217600
O O14 0.992895 0.278646 0.000000
O O15 0.082169 0.980537 0.500000
O O16 0.000000 0.000000 0.208725
#
# Coordination Sequence:
#
# PCOD9444812 Si02
#       7
#     8   4   8   8   4   8   8
#     4  10  23  39  63  95 127 167 212 264 324 385
#     4  11  26  46  66  94 129 176 218 281 334 383
#     4  10  23  42  66  96 135 172 221 270 324 397
#     4  10  21  41  66  93 131 173 210 270 328 382
#     4  11  26  44  69  92 128 178 227 267 335 398
#     4  11  24  42  66  97 132 167 222 273 329 392
#     4  10  22  39  61  90 130 174 208 257 333 392
#
# _framework density 21.410204
#
# number of rings (size 3 to 8) (size 9 to 14) (size 15 to 20)
#    0.000    1.667    0.833    2.000    5.833    5.000 
#    0.000    1.667    0.000    0.000    0.000    0.000 
#    0.000    0.000    0.000    0.000    0.000    0.000 
#
# Total GULP energy -268314.421254 kJ/mol
# GULP energy per Si atom -5589.883776 kJ/mol
# Density = 2.136147 g / cm^3
# Si number density = 21.410204 Si / 1000 Ang^3
#
#
#
# Elastic Constant Matrix: (Units=GPa)
#
#
# Indices 1 2 3 4 5 6 
#
# 1 61.7514 -15.3536 -9.8489 0.0000 0.0000 0.0000
# 2 -15.3536 46.8758 -5.0814 0.0000 0.0000 0.0000
# 3 -9.8489 -5.0814 68.4308 0.0000 0.0000 0.0000
# 4 0.0000 0.0000 0.0000 25.3849 0.0000 0.0000
# 5 0.0000 0.0000 0.0000 0.0000 13.3855 0.0000
# 6 0.0000 0.0000 0.0000 0.0000 0.0000 36.4658
#
#
#
# Elastic Compliance Matrix: (Units=1/GPa)
#
#
# Indices 1 2 3 4 5 6 
#
# 1 0.018258 0.006316 0.003097 0.000000 0.000000 0.000000
# 2 0.006316 0.023691 0.002668 0.000000 0.000000 0.000000
# 3 0.003097 0.002668 0.015257 0.000000 0.000000 0.000000
# 4 0.000000 0.000000 0.000000 0.039393 0.000000 0.000000
# 5 0.000000 0.000000 0.000000 0.000000 0.074707 0.000000
# 6 0.000000 0.000000 0.000000 0.000000 0.000000 0.027423
#
#
# Mechanical properties :
#
#
# Convention : Reuss Voigt Hill
#
# Bulk Modulus (GPa) = 12.28981 12.94338 12.61660
# Shear Modulus (GPa) = 24.79040 28.87004 26.83022
#
# Velocity S-wave (km/s) = 3.40645 3.67607 3.54383
# Velocity P-wave (km/s) = 4.60701 4.90679 4.75926
#
# Compressibility (1/GPa) = 0.08136819
#
# Stress axis : x y z
#
# Youngs Moduli (GPa) = 54.76976 42.21031 65.54308
#
# Poissons Ratio (x) = -0.26660 -0.20297
# Poissons Ratio (y) = -0.34592 -0.17488
# Poissons Ratio (z) = -0.16961 -0.11263
#
# Static dielectric constant tensor:
#      x y z
#    x 1.873190 0.000000 0.000000 
#    y 0.000000 1.719920 0.000000 
#    z 0.000000 0.000000 1.776030 
# 
# From -- ./inp_files/5962.got.cif
#   From: 2010.05.17/outbox.cif.g08.bks.cpg/sg58_3_cif.got.tgz:5962.got - 2010.06.03 14:20:14.
