data_PCOD9444778
_publ_section_title
;
Structure prediction by ZEFSAII (Michael W. Deem and Ramdas Pophale) SiO2 
 PCOD9444778
Probable space group: P N N M
;
_chemical_formula_sum "Si O2"
_cell_formula_units_Z 56
_cell_length_a 20.813223
_cell_length_b 8.038272
_cell_length_c 15.296730
_cell_angle_alpha 90.000000
_cell_angle_beta 90.000000
_cell_angle_gamma 90.000000
_cell_volume 2559.178841
_symmetry_space_group_name_H-M "P N N M"
_symmetry_group_IT_number 58
_symmetry_cell_setting 'orthorhombic'
loop_
_space_group_symop_operation_xyz
x,y,z
-x,-y,z
1/2+x,1/2-y,1/2-z
1/2-x,1/2+y,1/2-z
-x,-y,-z
x,y,-z
1/2-x,1/2+y,1/2+z
1/2+x,1/2-y,1/2+z
loop_
_atom_site_type_symbol
_atom_site_label
_atom_site_fract_x
_atom_site_fract_y
_atom_site_fract_z
Si Si1 0.086796 0.398430 0.595886
Si Si2 0.800288 0.815603 0.634672
Si Si3 0.867758 0.314791 0.274541
Si Si4 0.638232 0.341218 0.676055
Si Si5 0.828028 0.191597 0.101352
Si Si6 0.758866 0.175947 0.596576
Si Si7 0.007359 0.308292 0.746950
O O1 0.077567 0.471816 0.500000
O O2 0.135437 0.245951 0.590293
O O3 0.115977 0.522178 0.669092
O O4 0.025081 0.327503 0.644614
O O5 0.821503 0.852307 0.733567
O O6 0.748074 0.670677 0.619712
O O7 0.769266 0.979074 0.595034
O O8 0.845882 0.329644 0.174192
O O9 0.810449 0.233423 0.330104
O O10 0.937056 0.225913 0.259154
O O11 0.638180 0.519314 0.628417
O O12 0.685759 0.224321 0.619611
O O13 0.566756 0.276366 0.701751
O O14 0.839682 0.230456 0.000000
O O15 0.774527 0.245937 0.500000
O O16 0.000000 0.500000 0.781173
#
# Coordination Sequence:
#
# PCOD9444778 Si02
#       7
#     8   8   8   8   8   8   8
#     4  10  21  40  68  99 138 180 219 269 341 423
#     4  11  22  41  63 100 141 170 215 277 338 404
#     4  11  23  42  65  99 131 178 228 280 339 401
#     4  11  22  44  69  95 136 181 225 274 337 402
#     4  12  25  42  66  94 130 175 226 280 338 395
#     4  12  24  39  68 103 136 172 218 283 346 411
#     4   9  23  41  69  96 135 181 226 273 337 405
#
# _framework density 21.882017999999999
#
# number of rings (size 3 to 8) (size 9 to 14) (size 15 to 20)
#    0.000    1.143    2.857    3.000    6.000    3.714 
#    0.000    2.143    0.000    8.143    0.000    0.000 
#    0.000    0.000    0.000    0.000    0.000    0.000 
#
# Total GULP energy -312205.362255 kJ/mol
# GULP energy per Si atom -5575.095755 kJ/mol
# Density = 2.183221 g / cm^3
# Si number density = 21.882018 Si / 1000 Ang^3
#
#
#
# Elastic Constant Matrix: (Units=GPa)
#
#
# Indices 1 2 3 4 5 6 
#
# 1 118.3728 9.3386 45.2694 0.0000 0.0000 0.0000
# 2 9.3386 42.1866 26.9775 0.0000 0.0000 0.0000
# 3 45.2694 26.9775 189.5209 0.0000 0.0000 0.0000
# 4 0.0000 0.0000 0.0000 -62.5347 0.0000 0.0000
# 5 0.0000 0.0000 0.0000 0.0000 -11.0182 0.0000
# 6 0.0000 0.0000 0.0000 0.0000 0.0000 33.7146
#
#
#
# Elastic Compliance Matrix: (Units=1/GPa)
#
#
# Indices 1 2 3 4 5 6 
#
# 1 0.009316 -0.000703 -0.002125 0.000000 0.000000 0.000000
# 2 -0.000703 0.026131 -0.003552 0.000000 0.000000 0.000000
# 3 -0.002125 -0.003552 0.006290 0.000000 0.000000 0.000000
# 4 0.000000 0.000000 0.000000 -0.015991 0.000000 0.000000
# 5 0.000000 0.000000 0.000000 0.000000 -0.090759 0.000000
# 6 0.000000 0.000000 0.000000 0.000000 0.000000 0.029661
#
#
# Mechanical properties :
#
#
# Convention : Reuss Voigt Hill
#
# Bulk Modulus (GPa) = 34.51048 57.02791 45.76919
# Shear Modulus (GPa) = -386.60527 9.93200 -188.33663
#
# Velocity S-wave (km/s) = -13.30642 2.13278 -9.28741
# Velocity P-wave (km/s) = 14.84168 5.67302 9.69774
#
# Compressibility (1/GPa) = 0.02897671
#
# Stress axis : x y z
#
# Youngs Moduli (GPa) = 107.34113 38.26852 158.99142
#
# Poissons Ratio (x) = 0.02691 0.33788
# Poissons Ratio (y) = 0.07549 0.56469
# Poissons Ratio (z) = 0.22812 0.13592
#
# Static dielectric constant tensor:
#      x y z
#    x 1.877590 0.000000 0.000000 
#    y 0.000000 1.868860 0.000000 
#    z 0.000000 0.000000 1.831280 
# 
# From -- ./inp_files/20124.got.cif
#   From: 2010.05.17/outbox.cif.g08.bks.cpg/sg58_11_cif.got.tgz:20124.got - 2010.06.03 14:20:14.
