data_PCOD9444155
_publ_section_title
;
Structure prediction by ZEFSAII (Michael W. Deem and Ramdas Pophale) SiO2 
 PCOD9444155
Probable space group: P N N M
;
_chemical_formula_sum "Si O2"
_cell_formula_units_Z 40
_cell_length_a 10.738908
_cell_length_b 21.380299
_cell_length_c 7.325652
_cell_angle_alpha 90.000000
_cell_angle_beta 90.000000
_cell_angle_gamma 90.000000
_cell_volume 1681.977493
_symmetry_space_group_name_H-M "P N N M"
_symmetry_group_IT_number 58
_symmetry_cell_setting 'orthorhombic'
loop_
_space_group_symop_operation_xyz
x,y,z
-x,-y,z
1/2+x,1/2-y,1/2-z
1/2-x,1/2+y,1/2-z
-x,-y,-z
x,y,-z
1/2-x,1/2+y,1/2+z
1/2+x,1/2-y,1/2+z
loop_
_atom_site_type_symbol
_atom_site_label
_atom_site_fract_x
_atom_site_fract_y
_atom_site_fract_z
Si Si1 0.092240 0.589312 0.778478
Si Si2 0.814798 0.274617 0.780415
Si Si3 0.951646 0.067935 0.723438
Si Si4 0.445103 0.694920 0.210389
Si Si5 0.323291 0.953071 0.721882
O O1 0.151779 0.654474 0.723868
O O2 0.162193 0.525786 0.722485
O O3 0.948404 0.582312 0.719942
O O4 0.093444 0.588902 0.000000
O O5 0.672010 0.265316 0.717689
O O6 0.923384 0.229704 0.712782
O O7 0.823906 0.268875 0.000000
O O8 0.953919 0.068854 0.500000
O O9 0.807898 0.074727 0.780417
O O10 0.033335 0.126003 0.789590
O O11 0.000000 0.000000 0.778638
O O12 0.410372 0.683824 0.000000
O O13 0.323745 0.952672 0.500000
#
# Coordination Sequence:
#
# PCOD9444155 Si02
#       5
#     8   8   8   8   8
#     4   8  14  25  43  69 101 130 162 207 257 307
#     4  10  21  36  53  75 108 144 176 215 261 312
#     4   9  16  27  46  71 102 132 165 216 271 311
#     4  10  22  36  53  80 109 140 179 218 263 317
#     4   8  13  22  41  70  97 126 163 206 259 309
#
# _framework density 23.781533
#
# number of rings (size 3 to 8) (size 9 to 14) (size 15 to 20)
#    0.000    3.000    0.000    2.400    2.800    5.600 
#    0.000    0.000    0.000    0.600    0.000    4.200 
#    0.000    0.000    0.000    0.000    0.000    0.000 
#
# Total GULP energy -223431.729961 kJ/mol
# GULP energy per Si atom -5585.793249 kJ/mol
# Density = 2.372740 g / cm^3
# Si number density = 23.781533 Si / 1000 Ang^3
#
#
#
# Elastic Constant Matrix: (Units=GPa)
#
#
# Indices 1 2 3 4 5 6 
#
# 1 120.6919 30.3689 -8.7421 0.0000 0.0000 0.0000
# 2 30.3689 56.7296 -7.4854 0.0000 0.0000 0.0000
# 3 -8.7421 -7.4854 89.6918 0.0000 0.0000 0.0000
# 4 0.0000 0.0000 0.0000 -9.2936 0.0000 0.0000
# 5 0.0000 0.0000 0.0000 0.0000 2.4855 0.0000
# 6 0.0000 0.0000 0.0000 0.0000 0.0000 32.6495
#
#
#
# Elastic Compliance Matrix: (Units=1/GPa)
#
#
# Indices 1 2 3 4 5 6 
#
# 1 0.009599 -0.005071 0.000512 0.000000 0.000000 0.000000
# 2 -0.005071 0.020503 0.001217 0.000000 0.000000 0.000000
# 3 0.000512 0.001217 0.011301 0.000000 0.000000 0.000000
# 4 0.000000 0.000000 0.000000 -0.107601 0.000000 0.000000
# 5 0.000000 0.000000 0.000000 0.000000 0.402341 0.000000
# 6 0.000000 0.000000 0.000000 0.000000 0.000000 0.030628
#
#
# Mechanical properties :
#
#
# Convention : Reuss Voigt Hill
#
# Bulk Modulus (GPa) = 28.80284 32.82180 30.81232
# Shear Modulus (GPa) = 12.98610 22.03306 17.50958
#
# Velocity S-wave (km/s) = 2.33932 3.04711 2.71637
# Velocity P-wave (km/s) = 4.40844 5.11969 4.77732
#
# Compressibility (1/GPa) = 0.03471880
#
# Stress axis : x y z
#
# Youngs Moduli (GPa) = 104.18183 48.77438 88.48946
#
# Poissons Ratio (x) = 0.24732 -0.04534
# Poissons Ratio (y) = 0.52828 -0.10768
# Poissons Ratio (z) = -0.05338 -0.05935
#
# Static dielectric constant tensor:
#      x y z
#    x 1.918870 0.000000 0.000000 
#    y 0.000000 1.854770 0.000000 
#    z 0.000000 0.000000 1.969030 
# 
# From -- ./inp_files/4017.got.cif
#   From: 2010.05.17/outbox.cif.g08.bks.cpg/sg58_3_cif.got.tgz:4017.got - 2010.06.03 14:20:14.
