data_PCOD9444691
_publ_section_title
;
Structure prediction by ZEFSAII (Michael W. Deem and Ramdas Pophale) SiO2 
 PCOD9444691
Probable space group: P N N M
;
_chemical_formula_sum "Si O2"
_cell_formula_units_Z 48
_cell_length_a 8.602240
_cell_length_b 17.380946
_cell_length_c 15.637000
_cell_angle_alpha 90.000000
_cell_angle_beta 90.000000
_cell_angle_gamma 90.000000
_cell_volume 2337.967133
_symmetry_space_group_name_H-M "P N N M"
_symmetry_group_IT_number 58
_symmetry_cell_setting 'orthorhombic'
loop_
_space_group_symop_operation_xyz
x,y,z
-x,-y,z
1/2+x,1/2-y,1/2-z
1/2-x,1/2+y,1/2-z
-x,-y,-z
x,y,-z
1/2-x,1/2+y,1/2+z
1/2+x,1/2-y,1/2+z
loop_
_atom_site_type_symbol
_atom_site_label
_atom_site_fract_x
_atom_site_fract_y
_atom_site_fract_z
Si Si1 0.168119 0.957505 0.000000
Si Si2 0.620784 0.779521 0.332303
Si Si3 0.893112 0.925282 0.500000
Si Si4 0.213191 0.208499 0.840982
Si Si5 0.317343 0.524419 0.322968
Si Si6 0.915798 0.237139 0.500000
Si Si7 0.239606 0.287093 0.500000
Si Si8 0.647717 0.953128 0.348949
O O1 0.240838 0.982417 0.909283
O O2 0.163664 0.865633 0.000000
O O3 0.000000 0.000000 0.000000
O O4 0.713293 0.760437 0.246790
O O5 0.463756 0.733810 0.343390
O O6 0.720559 0.760864 0.415807
O O7 0.583926 0.869319 0.324917
O O8 0.781887 0.935223 0.417544
O O9 0.998968 0.847135 0.500000
O O10 0.000000 0.000000 0.500000
O O11 0.206075 0.115547 0.840111
O O12 0.309968 0.245753 0.917929
O O13 0.500000 0.500000 0.311368
O O14 0.223480 0.508347 0.235562
O O15 0.055568 0.299124 0.500000
O O16 0.500000 0.000000 0.382578
#
# Coordination Sequence:
#
# PCOD9444691 Si02
#       8
#     4   8   4   8   8   4   4   8
#     4  10  21  39  68 100 130 178 223 271 339 403
#     4  11  23  42  66 100 137 177 226 279 346 405
#     4  12  27  47  70  93 132 188 232 284 350 409
#     4  11  25  41  71 100 139 181 229 284 342 414
#     4  10  22  43  68 102 140 181 233 275 346 421
#     4  12  26  46  67 103 135 179 240 279 348 411
#     4  12  23  44  70  97 140 179 223 289 336 411
#     4  11  25  43  67 101 137 176 232 288 347 409
#
# _framework density 20.530657000000001
#
# number of rings (size 3 to 8) (size 9 to 14) (size 15 to 20)
#    0.000    1.000    1.667    4.750    4.667    5.333 
#    0.000    1.250    0.000    0.000    0.000    0.000 
#    0.000    0.000    0.000    0.000    0.000    0.000 
#
# Total GULP energy -268072.611216 kJ/mol
# GULP energy per Si atom -5584.846067 kJ/mol
# Density = 2.048393 g / cm^3
# Si number density = 20.530657 Si / 1000 Ang^3
#
#
#
# Elastic Constant Matrix: (Units=GPa)
#
#
# Indices 1 2 3 4 5 6 
#
# 1 65.4677 29.7861 37.9597 0.0000 0.0000 0.0000
# 2 29.7861 79.7690 32.3377 0.0000 0.0000 0.0000
# 3 37.9597 32.3377 166.9845 0.0000 0.0000 0.0000
# 4 0.0000 0.0000 0.0000 25.5176 0.0000 0.0000
# 5 0.0000 0.0000 0.0000 0.0000 15.2969 0.0000
# 6 0.0000 0.0000 0.0000 0.0000 0.0000 34.0831
#
#
#
# Elastic Compliance Matrix: (Units=1/GPa)
#
#
# Indices 1 2 3 4 5 6 
#
# 1 0.020004 -0.006105 -0.003365 0.000000 0.000000 0.000000
# 2 -0.006105 0.015468 -0.001608 0.000000 0.000000 0.000000
# 3 -0.003365 -0.001608 0.007065 0.000000 0.000000 0.000000
# 4 0.000000 0.000000 0.000000 0.039189 0.000000 0.000000
# 5 0.000000 0.000000 0.000000 0.000000 0.065373 0.000000
# 6 0.000000 0.000000 0.000000 0.000000 0.000000 0.029340
#
#
# Mechanical properties :
#
#
# Convention : Reuss Voigt Hill
#
# Bulk Modulus (GPa) = 49.06670 56.93205 52.99937
# Shear Modulus (GPa) = 24.34435 29.12204 26.73319
#
# Velocity S-wave (km/s) = 3.44722 3.77034 3.61239
# Velocity P-wave (km/s) = 6.30837 6.83699 6.57799
#
# Compressibility (1/GPa) = 0.02038042
#
# Stress axis : x y z
#
# Youngs Moduli (GPa) = 49.99108 64.65118 141.54620
#
# Poissons Ratio (x) = 0.39471 0.47630
# Poissons Ratio (y) = 0.30521 0.22754
# Poissons Ratio (z) = 0.16822 0.10393
#
# Static dielectric constant tensor:
#      x y z
#    x 1.704720 0.000000 0.000000 
#    y 0.000000 1.762040 0.000000 
#    z 0.000000 0.000000 1.738530 
# 
# From -- ./inp_files/19931.got.cif
#   From: 2010.05.17/outbox.cif.g08.bks.cpg/sg58_10_cif.got.tgz:19931.got - 2010.06.03 14:20:14.
