data_PCOD9444625
_publ_section_title
;
Structure prediction by ZEFSAII (Michael W. Deem and Ramdas Pophale) SiO2 
 PCOD9444625
Probable space group: P N N M
;
_chemical_formula_sum "Si O2"
_cell_formula_units_Z 40
_cell_length_a 14.993472
_cell_length_b 7.568888
_cell_length_c 18.289939
_cell_angle_alpha 90.000000
_cell_angle_beta 90.000000
_cell_angle_gamma 90.000000
_cell_volume 2075.613797
_symmetry_space_group_name_H-M "P N N M"
_symmetry_group_IT_number 58
_symmetry_cell_setting 'orthorhombic'
loop_
_space_group_symop_operation_xyz
x,y,z
-x,-y,z
1/2+x,1/2-y,1/2-z
1/2-x,1/2+y,1/2-z
-x,-y,-z
x,y,-z
1/2-x,1/2+y,1/2+z
1/2+x,1/2-y,1/2+z
loop_
_atom_site_type_symbol
_atom_site_label
_atom_site_fract_x
_atom_site_fract_y
_atom_site_fract_z
Si Si1 0.928606 0.841615 0.418045
Si Si2 0.024411 0.297792 0.262423
Si Si3 0.796689 0.819403 0.819004
Si Si4 0.727704 0.988226 0.585052
Si Si5 0.156866 0.786040 0.195393
O O1 0.929095 0.759747 0.500000
O O2 0.829371 0.918775 0.404671
O O3 0.956814 0.726487 0.348562
O O4 0.000000 0.000000 0.419349
O O5 0.940313 0.190027 0.230860
O O6 0.000000 0.500000 0.248336
O O7 0.112499 0.241836 0.219772
O O8 0.779347 0.688164 0.886046
O O9 0.718652 0.785155 0.760810
O O10 0.805549 0.027475 0.833480
O O11 0.706202 0.978049 0.500000
O O12 0.664380 0.860889 0.632547
#
# Coordination Sequence:
#
# PCOD9444625 Si02
#       5
#     8   8   8   8   8
#     4  10  21  39  61  92 133 168 206 267 332 383
#     4  12  22  38  65  95 124 166 220 267 315 387
#     4  12  22  41  65  93 125 171 217 263 323 384
#     4  11  24  43  65  96 134 170 214 273 327 381
#     4  12  23  40  66  95 129 169 218 268 320 386
#
# _framework density 19.271408000000001
#
# number of rings (size 3 to 8) (size 9 to 14) (size 15 to 20)
#    0.000    0.600    6.000    3.000    0.000    1.200 
#    0.000    2.000    0.000    2.400    0.000    0.000 
#    0.000    0.000    0.000    0.000    0.000    0.000 
#
# Total GULP energy -223575.966114 kJ/mol
# GULP energy per Si atom -5589.399153 kJ/mol
# Density = 1.922754 g / cm^3
# Si number density = 19.271408 Si / 1000 Ang^3
#
#
#
# Elastic Constant Matrix: (Units=GPa)
#
#
# Indices 1 2 3 4 5 6 
#
# 1 88.3983 -20.2662 37.4910 0.0000 0.0000 0.0000
# 2 -20.2662 78.9406 28.5717 0.0000 0.0000 0.0000
# 3 37.4910 28.5717 106.7889 0.0000 0.0000 0.0000
# 4 0.0000 0.0000 0.0000 74.2864 0.0000 0.0000
# 5 0.0000 0.0000 0.0000 0.0000 10.7553 0.0000
# 6 0.0000 0.0000 0.0000 0.0000 0.0000 24.2492
#
#
#
# Elastic Compliance Matrix: (Units=1/GPa)
#
#
# Indices 1 2 3 4 5 6 
#
# 1 0.016036 0.006814 -0.007453 0.000000 0.000000 0.000000
# 2 0.006814 0.016922 -0.006920 0.000000 0.000000 0.000000
# 3 -0.007453 -0.006920 0.013832 0.000000 0.000000 0.000000
# 4 0.000000 0.000000 0.000000 0.013461 0.000000 0.000000
# 5 0.000000 0.000000 0.000000 0.000000 0.092977 0.000000
# 6 0.000000 0.000000 0.000000 0.000000 0.000000 0.041239
#
#
# Mechanical properties :
#
#
# Convention : Reuss Voigt Hill
#
# Bulk Modulus (GPa) = 31.57296 40.63562 36.10429
# Shear Modulus (GPa) = 22.71274 37.08027 29.89650
#
# Velocity S-wave (km/s) = 3.43676 4.39122 3.94298
# Velocity P-wave (km/s) = 5.67162 6.84414 6.28528
#
# Compressibility (1/GPa) = 0.03167268
#
# Stress axis : x y z
#
# Youngs Moduli (GPa) = 62.36149 59.09572 72.29515
#
# Poissons Ratio (x) = -0.40269 0.53881
# Poissons Ratio (y) = -0.42495 0.50027
# Poissons Ratio (z) = 0.46477 0.40893
#
# Static dielectric constant tensor:
#      x y z
#    x 1.688540 0.000000 0.000000 
#    y 0.000000 1.683440 0.000000 
#    z 0.000000 0.000000 1.661530 
# 
# From -- ./inp_files/26655.got.cif
#   From: 2010.05.17/outbox.cif.g08.bks.cpg/sg58_14_cif.got.tgz:26655.got - 2010.06.03 14:20:14.
