data_PCOD9444734
_publ_section_title
;
Structure prediction by ZEFSAII (Michael W. Deem and Ramdas Pophale) SiO2 
 PCOD9444734
Probable space group: P N N M
;
_chemical_formula_sum "Si O2"
_cell_formula_units_Z 48
_cell_length_a 9.281984
_cell_length_b 24.683519
_cell_length_c 8.511123
_cell_angle_alpha 90.000000
_cell_angle_beta 90.000000
_cell_angle_gamma 90.000000
_cell_volume 1950.000655
_symmetry_space_group_name_H-M "P N N M"
_symmetry_group_IT_number 58
_symmetry_cell_setting 'orthorhombic'
loop_
_space_group_symop_operation_xyz
x,y,z
-x,-y,z
1/2+x,1/2-y,1/2-z
1/2-x,1/2+y,1/2-z
-x,-y,-z
x,y,-z
1/2-x,1/2+y,1/2+z
1/2+x,1/2-y,1/2+z
loop_
_atom_site_type_symbol
_atom_site_label
_atom_site_fract_x
_atom_site_fract_y
_atom_site_fract_z
Si Si1 0.829588 0.492390 0.500000
Si Si2 0.334751 0.689938 0.185161
Si Si3 0.654268 0.115744 0.675966
Si Si4 0.154416 0.790728 0.186140
Si Si5 0.333059 0.077238 0.688172
Si Si6 0.556714 0.561396 0.833527
Si Si7 0.933559 0.060171 0.000000
O O1 0.792690 0.461599 0.664672
O O2 0.737092 0.547790 0.500000
O O3 0.000000 0.500000 0.500000
O O4 0.226124 0.735648 0.251220
O O5 0.497448 0.697926 0.243174
O O6 0.261240 0.631418 0.204716
O O7 0.339835 0.700412 0.000000
O O8 0.638011 0.139109 0.500000
O O9 0.730535 0.161762 0.777573
O O10 0.499418 0.093037 0.719074
O O11 0.771317 0.067615 0.663722
O O12 0.134369 0.787167 0.000000
O O13 0.323131 0.059259 0.500000
O O14 0.500000 0.500000 0.835776
O O15 0.520013 0.585393 0.663462
O O16 0.508084 0.586715 0.000000
O O17 0.000000 0.000000 0.000000
#
# Coordination Sequence:
#
# PCOD9444734 Si02
#       7
#     4   8   8   8   8   8   4
#     4  12  26  42  66 100 132 174 226 280 345 403
#     4  10  23  44  62  92 132 172 220 267 336 401
#     4  10  21  40  64  93 128 171 218 269 334 392
#     4  11  24  39  67 100 131 173 220 278 333 405
#     4  10  24  45  68  93 134 181 224 281 335 408
#     4   9  19  36  59  88 124 169 214 268 328 388
#     4  10  22  38  58  86 122 160 212 274 318 383
#
# _framework density 24.615376000000001
#
# number of rings (size 3 to 8) (size 9 to 14) (size 15 to 20)
#    0.000    1.833    0.000    2.500    3.500    6.333 
#    0.000    5.000    0.000    0.000    0.000    0.000 
#    0.000    0.000    0.000    0.000    0.000    0.000 
#
# Total GULP energy -268318.334667 kJ/mol
# GULP energy per Si atom -5589.965306 kJ/mol
# Density = 2.455935 g / cm^3
# Si number density = 24.615376 Si / 1000 Ang^3
#
#
#
# Elastic Constant Matrix: (Units=GPa)
#
#
# Indices 1 2 3 4 5 6 
#
# 1 181.2121 38.8979 29.0112 0.0000 0.0000 0.0000
# 2 38.8979 96.3970 54.8748 0.0000 0.0000 0.0000
# 3 29.0112 54.8748 173.5865 0.0000 0.0000 0.0000
# 4 0.0000 0.0000 0.0000 27.6962 0.0000 0.0000
# 5 0.0000 0.0000 0.0000 0.0000 38.6809 0.0000
# 6 0.0000 0.0000 0.0000 0.0000 0.0000 36.1693
#
#
#
# Elastic Compliance Matrix: (Units=1/GPa)
#
#
# Indices 1 2 3 4 5 6 
#
# 1 0.006054 -0.002277 -0.000292 0.000000 0.000000 0.000000
# 2 -0.002277 0.013506 -0.003889 0.000000 0.000000 0.000000
# 3 -0.000292 -0.003889 0.007039 0.000000 0.000000 0.000000
# 4 0.000000 0.000000 0.000000 0.036106 0.000000 0.000000
# 5 0.000000 0.000000 0.000000 0.000000 0.025853 0.000000
# 6 0.000000 0.000000 0.000000 0.000000 0.000000 0.027648
#
#
# Mechanical properties :
#
#
# Convention : Reuss Voigt Hill
#
# Bulk Modulus (GPa) = 73.08024 77.41817 75.24921
# Shear Modulus (GPa) = 37.40206 42.40340 39.90273
#
# Velocity S-wave (km/s) = 3.90225 4.15497 4.03059
# Velocity P-wave (km/s) = 7.07508 7.38497 7.23169
#
# Compressibility (1/GPa) = 0.01368359
#
# Stress axis : x y z
#
# Youngs Moduli (GPa) = 165.18471 74.03922 142.06350
#
# Poissons Ratio (x) = 0.16855 0.04150
# Poissons Ratio (y) = 0.37605 0.55251
# Poissons Ratio (z) = 0.04825 0.28795
#
# Static dielectric constant tensor:
#      x y z
#    x 1.967880 0.000000 0.000000 
#    y 0.000000 1.965080 0.000000 
#    z 0.000000 0.000000 1.983350 
# 
# From -- ./inp_files/3054.got.cif
#   From: 2010.05.17/outbox.cif.g08.bks.cpg/sg58_2_cif.got.tgz:3054.got - 2010.06.03 14:20:14.
