data_PCOD9444366
_publ_section_title
;
Structure prediction by ZEFSAII (Michael W. Deem and Ramdas Pophale) SiO2 
 PCOD9444366
Probable space group: P N N M
;
_chemical_formula_sum "Si O2"
_cell_formula_units_Z 64
_cell_length_a 19.304609
_cell_length_b 20.190928
_cell_length_c 7.760575
_cell_angle_alpha 90.000000
_cell_angle_beta 90.000000
_cell_angle_gamma 90.000000
_cell_volume 3024.901173
_symmetry_space_group_name_H-M "P N N M"
_symmetry_group_IT_number 58
_symmetry_cell_setting 'orthorhombic'
loop_
_space_group_symop_operation_xyz
x,y,z
-x,-y,z
1/2+x,1/2-y,1/2-z
1/2-x,1/2+y,1/2-z
-x,-y,-z
x,y,-z
1/2-x,1/2+y,1/2+z
1/2+x,1/2-y,1/2+z
loop_
_atom_site_type_symbol
_atom_site_label
_atom_site_fract_x
_atom_site_fract_y
_atom_site_fract_z
Si Si1 0.303036 0.102469 0.300665
Si Si2 0.047601 0.560050 0.296930
Si Si3 0.967221 0.192196 0.802191
Si Si4 0.176795 0.750822 0.699233
Si Si5 0.548386 0.183171 0.290178
Si Si6 0.715937 0.519576 0.788484
Si Si7 0.060841 0.955011 0.701149
Si Si8 0.203355 0.349863 0.210177
O O1 0.287545 0.116577 0.500000
O O2 0.377790 0.067050 0.289230
O O3 0.308542 0.173026 0.209671
O O4 0.246504 0.050809 0.232561
O O5 0.059575 0.549302 0.500000
O O6 0.000000 0.500000 0.230434
O O7 0.005334 0.627722 0.271170
O O8 0.893355 0.229587 0.795207
O O9 0.959000 0.121893 0.712286
O O10 0.022780 0.244580 0.731479
O O11 0.985055 0.177962 0.000000
O O12 0.164788 0.769731 0.500000
O O13 0.241982 0.793450 0.762710
O O14 0.546421 0.183185 0.500000
O O15 0.625539 0.164813 0.232022
O O16 0.637957 0.533534 0.727384
O O17 0.766152 0.579495 0.734445
O O18 0.716806 0.520023 0.000000
O O19 0.066524 0.973600 0.500000
O O20 0.000000 0.000000 0.778458
O O21 0.201417 0.349694 0.000000
#
# Coordination Sequence:
#
# PCOD9444366 Si02
#       8
#     8   8   8   8   8   8   8   8
#     4  11  22  36  58  85 116 153 196 243 292 351
#     4  11  23  37  54  81 118 154 192 239 292 350
#     4  11  22  37  59  88 120 154 198 247 297 353
#     4  11  21  37  62  85 116 156 197 241 293 353
#     4  10  21  37  59  86 115 152 199 242 292 354
#     4   9  18  35  58  84 114 152 199 243 286 350
#     4  10  21  39  64  90 117 157 204 247 302 360
#     4   9  18  35  60  85 109 151 200 239 284 347
#
# _framework density 21.157716000000001
#
# number of rings (size 3 to 8) (size 9 to 14) (size 15 to 20)
#    0.000    1.750    2.500    2.250    0.000    3.750 
#    0.000    2.500    0.000    0.000    0.000    0.000 
#    0.000    0.000    0.000    0.000    0.000    0.000 
#
# Total GULP energy -357670.480021 kJ/mol
# GULP energy per Si atom -5588.601250 kJ/mol
# Density = 2.110956 g / cm^3
# Si number density = 21.157716 Si / 1000 Ang^3
#
#
#
# Elastic Constant Matrix: (Units=GPa)
#
#
# Indices 1 2 3 4 5 6 
#
# 1 116.1031 48.5554 -4.3674 0.0000 0.0000 0.0000
# 2 48.5554 118.9265 -11.2447 0.0000 0.0000 0.0000
# 3 -4.3674 -11.2447 32.0544 0.0000 0.0000 0.0000
# 4 0.0000 0.0000 0.0000 16.8562 0.0000 0.0000
# 5 0.0000 0.0000 0.0000 0.0000 -8.7840 0.0000
# 6 0.0000 0.0000 0.0000 0.0000 0.0000 44.4866
#
#
#
# Elastic Compliance Matrix: (Units=1/GPa)
#
#
# Indices 1 2 3 4 5 6 
#
# 1 0.010387 -0.004248 -0.000075 0.000000 0.000000 0.000000
# 2 -0.004248 0.010434 0.003082 0.000000 0.000000 0.000000
# 3 -0.000075 0.003082 0.032268 0.000000 0.000000 0.000000
# 4 0.000000 0.000000 0.000000 0.059325 0.000000 0.000000
# 5 0.000000 0.000000 0.000000 0.000000 -0.113843 0.000000
# 6 0.000000 0.000000 0.000000 0.000000 0.000000 0.022479
#
#
# Mechanical properties :
#
#
# Convention : Reuss Voigt Hill
#
# Bulk Modulus (GPa) = 19.76032 36.99672 28.37852
# Shear Modulus (GPa) = 123.76067 26.12115 74.94091
#
# Velocity S-wave (km/s) = 7.65646 3.51749 5.95794
# Velocity P-wave (km/s) = 9.35530 5.83276 7.79560
#
# Compressibility (1/GPa) = 0.05060646
#
# Stress axis : x y z
#
# Youngs Moduli (GPa) = 96.27731 95.83871 30.99063
#
# Poissons Ratio (x) = 0.40710 0.00232
# Poissons Ratio (y) = 0.40896 -0.09550
# Poissons Ratio (z) = 0.00721 -0.29533
#
# Static dielectric constant tensor:
#      x y z
#    x 1.741360 0.000000 0.000000 
#    y 0.000000 1.727990 0.000000 
#    z 0.000000 0.000000 1.775310 
# 
# From -- ./inp_files/9228.got.cif
#   From: 2010.05.17/outbox.cif.g08.bks.cpg/sg58_5_cif.got.tgz:9228.got - 2010.06.03 14:20:14.
