data_PCOD9444148
_publ_section_title
;
Structure prediction by ZEFSAII (Michael W. Deem and Ramdas Pophale) SiO2 
 PCOD9444148
Probable space group: P N N M
;
_chemical_formula_sum "Si O2"
_cell_formula_units_Z 40
_cell_length_a 22.088913
_cell_length_b 10.388127
_cell_length_c 7.410245
_cell_angle_alpha 90.000000
_cell_angle_beta 90.000000
_cell_angle_gamma 90.000000
_cell_volume 1700.372851
_symmetry_space_group_name_H-M "P N N M"
_symmetry_group_IT_number 58
_symmetry_cell_setting 'orthorhombic'
loop_
_space_group_symop_operation_xyz
x,y,z
-x,-y,z
1/2+x,1/2-y,1/2-z
1/2-x,1/2+y,1/2-z
-x,-y,-z
x,y,-z
1/2-x,1/2+y,1/2+z
1/2+x,1/2-y,1/2+z
loop_
_atom_site_type_symbol
_atom_site_label
_atom_site_fract_x
_atom_site_fract_y
_atom_site_fract_z
Si Si1 0.065370 0.528355 0.706369
Si Si2 0.913579 0.904740 0.219483
Si Si3 0.194385 0.478266 0.286031
Si Si4 0.544785 0.686242 0.281703
Si Si5 0.283909 0.695123 0.717066
O O1 0.061510 0.480325 0.500000
O O2 0.126222 0.470526 0.789869
O O3 0.072304 0.682620 0.708662
O O4 0.000000 0.500000 0.791933
O O5 0.850759 0.845271 0.282911
O O6 0.974329 0.829030 0.274087
O O7 0.922310 0.054007 0.272690
O O8 0.913662 0.903375 0.000000
O O9 0.187145 0.500527 0.500000
O O10 0.233682 0.596202 0.214028
O O11 0.227550 0.343056 0.261871
O O12 0.546587 0.692784 0.500000
O O13 0.285244 0.684030 0.500000
#
# Coordination Sequence:
#
# PCOD9444148 Si02
#       5
#     8   8   8   8   8
#     4  10  21  36  52  74 111 147 177 220 271 320
#     4   8  16  32  53  79 109 136 170 224 275 314
#     4  10  23  39  56  82 113 145 184 227 272 324
#     4   9  17  31  55  82 104 134 179 223 266 318
#     4  10  21  38  58  79 109 145 182 225 273 325
#
# _framework density 23.524253999999999
#
# number of rings (size 3 to 8) (size 9 to 14) (size 15 to 20)
#    0.000    2.600    0.000    2.400    2.800    2.000 
#    0.000    3.000    0.000    0.000    0.000    0.000 
#    0.000    0.000    0.000    0.000    0.000    0.000 
#
# Total GULP energy -223602.614983 kJ/mol
# GULP energy per Si atom -5590.065375 kJ/mol
# Density = 2.347071 g / cm^3
# Si number density = 23.524254 Si / 1000 Ang^3
#
#
#
# Elastic Constant Matrix: (Units=GPa)
#
#
# Indices 1 2 3 4 5 6 
#
# 1 104.1561 54.7964 5.2542 0.0000 0.0000 0.0000
# 2 54.7964 119.5572 -9.9937 0.0000 0.0000 0.0000
# 3 5.2542 -9.9937 82.0448 0.0000 0.0000 0.0000
# 4 0.0000 0.0000 0.0000 23.2666 0.0000 0.0000
# 5 0.0000 0.0000 0.0000 0.0000 -14.8919 0.0000
# 6 0.0000 0.0000 0.0000 0.0000 0.0000 33.2144
#
#
#
# Elastic Compliance Matrix: (Units=1/GPa)
#
#
# Indices 1 2 3 4 5 6 
#
# 1 0.012845 -0.006017 -0.001556 0.000000 0.000000 0.000000
# 2 -0.006017 0.011269 0.001758 0.000000 0.000000 0.000000
# 3 -0.001556 0.001758 0.012502 0.000000 0.000000 0.000000
# 4 0.000000 0.000000 0.000000 0.042980 0.000000 0.000000
# 5 0.000000 0.000000 0.000000 0.000000 -0.067151 0.000000
# 6 0.000000 0.000000 0.000000 0.000000 0.000000 0.030107
#
#
# Mechanical properties :
#
#
# Convention : Reuss Voigt Hill
#
# Bulk Modulus (GPa) = 40.02134 45.09688 42.55911
# Shear Modulus (GPa) = 79.98457 25.36456 52.67457
#
# Velocity S-wave (km/s) = 5.83735 3.28720 4.73711
# Velocity P-wave (km/s) = 7.90460 5.79824 6.93189
#
# Compressibility (1/GPa) = 0.02498667
#
# Stress axis : x y z
#
# Youngs Moduli (GPa) = 77.85035 88.73855 79.98582
#
# Poissons Ratio (x) = 0.53397 0.12442
# Poissons Ratio (y) = 0.46845 -0.14062
# Poissons Ratio (z) = 0.12110 -0.15600
#
# Static dielectric constant tensor:
#      x y z
#    x 1.902450 0.000000 0.000000 
#    y 0.000000 1.854420 0.000000 
#    z 0.000000 0.000000 1.883940 
# 
# From -- ./inp_files/4019.got.cif
#   From: 2010.05.17/outbox.cif.g08.bks.cpg/sg58_3_cif.got.tgz:4019.got - 2010.06.03 14:20:14.
