data_PCOD9444898
_publ_section_title
;
Structure prediction by ZEFSAII (Michael W. Deem and Ramdas Pophale) SiO2 
 PCOD9444898
Probable space group: P N N M
;
_chemical_formula_sum "Si O2"
_cell_formula_units_Z 48
_cell_length_a 7.051322
_cell_length_b 17.527284
_cell_length_c 16.574656
_cell_angle_alpha 90.000000
_cell_angle_beta 90.000000
_cell_angle_gamma 90.000000
_cell_volume 2048.470408
_symmetry_space_group_name_H-M "P N N M"
_symmetry_group_IT_number 58
_symmetry_cell_setting 'orthorhombic'
loop_
_space_group_symop_operation_xyz
x,y,z
-x,-y,z
1/2+x,1/2-y,1/2-z
1/2-x,1/2+y,1/2-z
-x,-y,-z
x,y,-z
1/2-x,1/2+y,1/2+z
1/2+x,1/2-y,1/2+z
loop_
_atom_site_type_symbol
_atom_site_label
_atom_site_fract_x
_atom_site_fract_y
_atom_site_fract_z
Si Si1 0.936911 0.589907 0.500000
Si Si2 0.099725 0.334206 0.172208
Si Si3 0.570163 0.333652 0.661134
Si Si4 0.173814 0.137212 0.655117
Si Si5 0.274070 0.978578 0.407095
Si Si6 0.511505 0.411156 0.500000
Si Si7 0.613175 0.192668 0.855233
O O1 0.710543 0.607160 0.500000
O O2 0.983008 0.636190 0.581211
O O3 0.000000 0.500000 0.500000
O O4 0.238497 0.402735 0.148162
O O5 0.047700 0.330053 0.266255
O O6 0.165733 0.249215 0.151855
O O7 0.895277 0.347502 0.133024
O O8 0.627220 0.365883 0.748708
O O9 0.606170 0.383185 0.582046
O O10 0.341881 0.319541 0.656675
O O11 0.082808 0.217512 0.626795
O O12 0.153682 0.052901 0.618335
O O13 0.236732 0.958982 0.500000
O O14 0.500000 0.000000 0.400478
O O15 0.500000 0.500000 0.500000
#
# Coordination Sequence:
#
# PCOD9444898 Si02
#       7
#     4   8   8   8   8   4   8
#     4  10  22  36  54  81 109 145 183 238 283 325
#     4   9  18  33  54  80 109 144 186 228 280 332
#     4   9  19  35  54  76 108 149 186 227 280 340
#     4   9  18  33  55  81 110 147 185 228 278 338
#     4   9  18  30  52  86 111 138 182 238 282 329
#     4  10  22  36  52  79 107 143 189 230 282 337
#     4   9  19  35  54  78 110 149 187 228 282 336
#
# _framework density 23.432119
#
# number of rings (size 3 to 8) (size 9 to 14) (size 15 to 20)
#    0.000    2.833    0.000    0.000    2.333    6.000 
#    0.000    0.000    0.000    2.000    0.000    0.000 
#    0.000    0.000    0.000    0.000    0.000    0.000 
#
# Total GULP energy -267702.918576 kJ/mol
# GULP energy per Si atom -5577.144137 kJ/mol
# Density = 2.337879 g / cm^3
# Si number density = 23.432119 Si / 1000 Ang^3
#
#
#
# Elastic Constant Matrix: (Units=GPa)
#
#
# Indices 1 2 3 4 5 6 
#
# 1 99.7176 11.3079 -7.9660 0.0000 0.0000 0.0000
# 2 11.3079 192.6102 108.7046 0.0000 0.0000 0.0000
# 3 -7.9660 108.7046 100.4165 0.0000 0.0000 0.0000
# 4 0.0000 0.0000 0.0000 99.2207 0.0000 0.0000
# 5 0.0000 0.0000 0.0000 0.0000 9.6414 0.0000
# 6 0.0000 0.0000 0.0000 0.0000 0.0000 33.3723
#
#
#
# Elastic Compliance Matrix: (Units=1/GPa)
#
#
# Indices 1 2 3 4 5 6 
#
# 1 0.010663 -0.002836 0.003916 0.000000 0.000000 0.000000
# 2 -0.002836 0.014100 -0.015488 0.000000 0.000000 0.000000
# 3 0.003916 -0.015488 0.027036 0.000000 0.000000 0.000000
# 4 0.000000 0.000000 0.000000 0.010079 0.000000 0.000000
# 5 0.000000 0.000000 0.000000 0.000000 0.103719 0.000000
# 6 0.000000 0.000000 0.000000 0.000000 0.000000 0.029965
#
#
# Mechanical properties :
#
#
# Convention : Reuss Voigt Hill
#
# Bulk Modulus (GPa) = 43.51325 68.53751 56.02538
# Shear Modulus (GPa) = 21.54820 47.16008 34.35414
#
# Velocity S-wave (km/s) = 3.03578 4.49110 3.83314
# Velocity P-wave (km/s) = 5.55861 7.49708 6.59941
#
# Compressibility (1/GPa) = 0.02298151
#
# Stress axis : x y z
#
# Youngs Moduli (GPa) = 93.78421 70.92413 36.98793
#
# Poissons Ratio (x) = 0.20115 -0.14485
# Poissons Ratio (y) = 0.26599 0.57288
# Poissons Ratio (z) = -0.36727 1.09849
#
# Static dielectric constant tensor:
#      x y z
#    x 1.914210 0.000000 0.000000 
#    y 0.000000 1.857880 0.000000 
#    z 0.000000 0.000000 1.850050 
# 
# From -- ./inp_files/25321.got.cif
#   From: 2010.05.17/outbox.cif.g08.bks.cpg/sg58_13_cif.got.tgz:25321.got - 2010.06.03 14:20:14.
