data_PCOD9444380
_publ_section_title
;
Structure prediction by ZEFSAII (Michael W. Deem and Ramdas Pophale) SiO2 
 PCOD9444380
Probable space group: P N N M
;
_chemical_formula_sum "Si O2"
_cell_formula_units_Z 64
_cell_length_a 14.074128
_cell_length_b 24.749857
_cell_length_c 8.816796
_cell_angle_alpha 90.000000
_cell_angle_beta 90.000000
_cell_angle_gamma 90.000000
_cell_volume 3071.177963
_symmetry_space_group_name_H-M "P N N M"
_symmetry_group_IT_number 58
_symmetry_cell_setting 'orthorhombic'
loop_
_space_group_symop_operation_xyz
x,y,z
-x,-y,z
1/2+x,1/2-y,1/2-z
1/2-x,1/2+y,1/2-z
-x,-y,-z
x,y,-z
1/2-x,1/2+y,1/2+z
1/2+x,1/2-y,1/2+z
loop_
_atom_site_type_symbol
_atom_site_label
_atom_site_fract_x
_atom_site_fract_y
_atom_site_fract_z
Si Si1 0.262833 0.555081 0.316363
Si Si2 0.958877 0.439425 0.322570
Si Si3 0.377061 0.870908 0.675650
Si Si4 0.819724 0.132054 0.821407
Si Si5 0.403380 0.469702 0.181327
Si Si6 0.523924 0.240329 0.321677
Si Si7 0.163326 0.170415 0.184260
Si Si8 0.332033 0.249373 0.179605
O O1 0.267125 0.550324 0.500000
O O2 0.151627 0.560625 0.275767
O O3 0.314955 0.504449 0.242959
O O4 0.318684 0.609345 0.267383
O O5 0.962755 0.422694 0.500000
O O6 0.000000 0.500000 0.312222
O O7 0.028009 0.401564 0.226256
O O8 0.354943 0.882501 0.500000
O O9 0.287186 0.886114 0.777250
O O10 0.398121 0.806907 0.689294
O O11 0.892656 0.090331 0.746432
O O12 0.828638 0.192499 0.758320
O O13 0.832905 0.131728 0.000000
O O14 0.500000 0.500000 0.229901
O O15 0.401168 0.467814 0.000000
O O16 0.497054 0.243846 0.500000
O O17 0.568971 0.297247 0.271183
O O18 0.434214 0.225418 0.221401
O O19 0.251315 0.208013 0.232715
O O20 0.163480 0.170029 0.000000
O O21 0.321051 0.256730 0.000000
#
# Coordination Sequence:
#
# PCOD9444380 Si02
#       8
#     8   8   8   8   8   8   8   8
#     4  10  21  39  64  92 124 167 212 256 311 377
#     4  10  21  37  59  90 126 161 205 257 310 374
#     4  11  22  39  64  93 129 166 206 259 315 374
#     4  12  25  42  66  93 125 167 215 263 316 381
#     4  11  26  46  66  92 127 165 211 268 322 374
#     4  10  21  38  58  87 124 164 206 252 309 376
#     4   9  19  38  61  86 125 166 202 247 307 371
#     4  11  22  40  64  93 128 167 209 260 318 372
#
# _framework density 20.838909999999998
#
# number of rings (size 3 to 8) (size 9 to 14) (size 15 to 20)
#    0.000    1.500    1.250    3.750    1.750    4.750 
#    0.000    1.250    0.000    0.000    0.000    0.000 
#    0.000    0.000    0.000    0.000    0.000    0.000 
#
# Total GULP energy -357897.757266 kJ/mol
# GULP energy per Si atom -5592.152457 kJ/mol
# Density = 2.079148 g / cm^3
# Si number density = 20.838910 Si / 1000 Ang^3
#
#
#
# Elastic Constant Matrix: (Units=GPa)
#
#
# Indices 1 2 3 4 5 6 
#
# 1 40.6401 -15.1654 5.4929 0.0000 0.0000 0.0000
# 2 -15.1654 67.0949 15.5035 0.0000 0.0000 0.0000
# 3 5.4929 15.5035 45.0313 0.0000 0.0000 0.0000
# 4 0.0000 0.0000 0.0000 27.5514 0.0000 0.0000
# 5 0.0000 0.0000 0.0000 0.0000 22.7188 0.0000
# 6 0.0000 0.0000 0.0000 0.0000 0.0000 34.9908
#
#
#
# Elastic Compliance Matrix: (Units=1/GPa)
#
#
# Indices 1 2 3 4 5 6 
#
# 1 0.028361 0.007833 -0.006156 0.000000 0.000000 0.000000
# 2 0.007833 0.018356 -0.007275 0.000000 0.000000 0.000000
# 3 -0.006156 -0.007275 0.025462 0.000000 0.000000 0.000000
# 4 0.000000 0.000000 0.000000 0.036296 0.000000 0.000000
# 5 0.000000 0.000000 0.000000 0.000000 0.044016 0.000000
# 6 0.000000 0.000000 0.000000 0.000000 0.000000 0.028579
#
#
# Mechanical properties :
#
#
# Convention : Reuss Voigt Hill
#
# Bulk Modulus (GPa) = 16.39806 18.26982 17.33394
# Shear Modulus (GPa) = 23.51891 26.84789 25.18340
#
# Velocity S-wave (km/s) = 3.36312 3.59326 3.48009
# Velocity P-wave (km/s) = 4.79237 5.09917 4.94815
#
# Compressibility (1/GPa) = 0.06098283
#
# Stress axis : x y z
#
# Youngs Moduli (GPa) = 35.25932 54.47874 39.27361
#
# Poissons Ratio (x) = -0.42673 0.24178
# Poissons Ratio (y) = -0.27619 0.28572
# Poissons Ratio (z) = 0.21707 0.39634
#
# Static dielectric constant tensor:
#      x y z
#    x 1.755600 0.000000 0.000000 
#    y 0.000000 1.744110 0.000000 
#    z 0.000000 0.000000 1.701640 
# 
# From -- ./inp_files/6984.got.cif
#   From: 2010.05.17/outbox.cif.g08.bks.cpg/sg58_4_cif.got.tgz:6984.got - 2010.06.03 14:20:14.
