data_PCOD9444727
_publ_section_title
;
Structure prediction by ZEFSAII (Michael W. Deem and Ramdas Pophale) SiO2 
 PCOD9444727
Probable space group: P N N M
;
_chemical_formula_sum "Si O2"
_cell_formula_units_Z 58
_cell_length_a 28.661153
_cell_length_b 12.030893
_cell_length_c 7.869987
_cell_angle_alpha 90.000000
_cell_angle_beta 90.000000
_cell_angle_gamma 90.000000
_cell_volume 2713.723133
_symmetry_space_group_name_H-M "P N N M"
_symmetry_group_IT_number 58
_symmetry_cell_setting 'orthorhombic'
loop_
_space_group_symop_operation_xyz
x,y,z
-x,-y,z
1/2+x,1/2-y,1/2-z
1/2-x,1/2+y,1/2-z
-x,-y,-z
x,y,-z
1/2-x,1/2+y,1/2+z
1/2+x,1/2-y,1/2+z
loop_
_atom_site_type_symbol
_atom_site_label
_atom_site_fract_x
_atom_site_fract_y
_atom_site_fract_z
Si Si1 0.844742 0.901792 0.699632
Si Si2 0.500000 0.500000 0.500000
Si Si3 0.700248 0.181667 0.693960
Si Si4 0.066870 0.238043 0.294130
Si Si5 0.034054 0.862874 0.298755
Si Si6 0.799240 0.129339 0.190166
Si Si7 0.377315 0.203944 0.797711
Si Si8 0.885877 0.543269 0.301371
O O1 0.850871 0.924429 0.500000
O O2 0.807094 0.803413 0.725630
O O3 0.893087 0.847454 0.765035
O O4 0.827497 0.015841 0.779584
O O5 0.535403 0.544287 0.346236
O O6 0.684134 0.189014 0.500000
O O7 0.753250 0.141799 0.697742
O O8 0.665441 0.096841 0.786692
O O9 0.071045 0.240723 0.500000
O O10 0.079976 0.361179 0.230264
O O11 0.014801 0.199355 0.257523
O O12 0.033649 0.898773 0.500000
O O13 0.076745 0.778802 0.279128
O O14 0.834156 0.231380 0.217749
O O15 0.780840 0.129928 0.000000
O O16 0.385647 0.080176 0.727918
O O17 0.367470 0.195719 0.000000
O O18 0.898438 0.530894 0.500000
#
# Coordination Sequence:
#
# PCOD9444727 Si02
#       8
#     8   2   8   8   8   8   8   8
#     4  10  21  40  64  90 120 155 207 261 314 377
#     4  12  26  40  64  92 132 180 214 272 314 398
#     4  11  23  41  62  90 121 162 209 256 318 383
#     4   8  17  37  65  93 122 163 209 260 314 379
#     4  10  23  42  65  96 132 174 222 269 330 382
#     4  12  26  40  61  87 125 166 208 261 319 382
#     4  10  23  41  63  94 130 169 211 264 320 382
#     4   9  19  40  67  92 126 165 213 264 319 379
#
# _framework density 21.372852000000002
#
# number of rings (size 3 to 8) (size 9 to 14) (size 15 to 20)
#    0.000    1.931    0.000    3.931    4.828    1.103 
#    4.966    2.759    0.000    0.828    0.000    0.000 
#    0.000    0.000    0.000    0.000    0.000    0.000 
#
# Total GULP energy -323428.520802 kJ/mol
# GULP energy per Si atom -5576.353807 kJ/mol
# Density = 2.132421 g / cm^3
# Si number density = 21.372852 Si / 1000 Ang^3
#
#
#
# Elastic Constant Matrix: (Units=GPa)
#
#
# Indices 1 2 3 4 5 6 
#
# 1 35.5659 1.5232 0.3378 0.0000 0.0000 0.0000
# 2 1.5232 94.4059 14.9197 0.0000 0.0000 0.0000
# 3 0.3378 14.9197 70.3534 0.0000 0.0000 0.0000
# 4 0.0000 0.0000 0.0000 8.6482 0.0000 0.0000
# 5 0.0000 0.0000 0.0000 0.0000 68.4396 0.0000
# 6 0.0000 0.0000 0.0000 0.0000 0.0000 15.3256
#
#
#
# Elastic Compliance Matrix: (Units=1/GPa)
#
#
# Indices 1 2 3 4 5 6 
#
# 1 0.028136 -0.000448 -0.000040 0.000000 0.000000 0.000000
# 2 -0.000448 0.010967 -0.002324 0.000000 0.000000 0.000000
# 3 -0.000040 -0.002324 0.014707 0.000000 0.000000 0.000000
# 4 0.000000 0.000000 0.000000 0.115632 0.000000 0.000000
# 5 0.000000 0.000000 0.000000 0.000000 0.014611 0.000000
# 6 0.000000 0.000000 0.000000 0.000000 0.000000 0.065250
#
#
# Mechanical properties :
#
#
# Convention : Reuss Voigt Hill
#
# Bulk Modulus (GPa) = 20.75227 25.98741 23.36984
# Shear Modulus (GPa) = 18.45095 30.71898 24.58497
#
# Velocity S-wave (km/s) = 2.94137 3.79527 3.39527
# Velocity P-wave (km/s) = 4.61153 5.60276 5.13114
#
# Compressibility (1/GPa) = 0.04818751
#
# Stress axis : x y z
#
# Youngs Moduli (GPa) = 35.54115 91.18269 67.99522
#
# Poissons Ratio (x) = 0.04082 0.00273
# Poissons Ratio (y) = 0.01591 0.15799
# Poissons Ratio (z) = 0.00143 0.21187
#
# Static dielectric constant tensor:
#      x y z
#    x 1.756990 0.000000 0.000000 
#    y 0.000000 1.791300 0.000000 
#    z 0.000000 0.000000 1.715740 
# 
# From -- ./inp_files/4624.got.cif
#   From: 2010.05.17/outbox.cif.g08.bks.cpg/sg58_3_cif.got.tgz:4624.got - 2010.06.03 14:20:14.
