data_PCOD9444043
_publ_section_title
;
Structure prediction by ZEFSAII (Michael W. Deem and Ramdas Pophale) SiO2 
 PCOD9444043
Probable space group: P N N M
;
_chemical_formula_sum "Si O2"
_cell_formula_units_Z 48
_cell_length_a 5.377282
_cell_length_b 22.287826
_cell_length_c 23.181917
_cell_angle_alpha 90.000000
_cell_angle_beta 90.000000
_cell_angle_gamma 90.000000
_cell_volume 2778.304663
_symmetry_space_group_name_H-M "P N N M"
_symmetry_group_IT_number 58
_symmetry_cell_setting 'orthorhombic'
loop_
_space_group_symop_operation_xyz
x,y,z
-x,-y,z
1/2+x,1/2-y,1/2-z
1/2-x,1/2+y,1/2-z
-x,-y,-z
x,y,-z
1/2-x,1/2+y,1/2+z
1/2+x,1/2-y,1/2+z
loop_
_atom_site_type_symbol
_atom_site_label
_atom_site_fract_x
_atom_site_fract_y
_atom_site_fract_z
Si Si1 0.249998 0.651014 0.932080
Si Si2 0.750002 0.169292 0.757690
Si Si3 0.250000 0.519311 0.905028
Si Si4 0.750002 0.227599 0.567613
Si Si5 0.749998 0.788069 0.818082
Si Si6 0.250000 0.468670 0.776333
O O1 0.250000 0.590339 0.895478
O O2 0.499867 0.688875 0.921847
O O3 0.000128 0.688875 0.921847
O O4 0.249998 0.633673 0.000000
O O5 0.499537 0.181027 0.794328
O O6 0.750002 0.220146 0.707912
O O7 0.750001 0.102012 0.734018
O O8 0.000469 0.181027 0.794328
O O9 0.500000 0.500000 0.935801
O O10 0.250000 0.482745 0.844891
O O11 0.000000 0.500000 0.935801
O O12 0.750001 0.244738 0.500000
O O13 0.750001 0.281282 0.613200
O O14 0.500000 0.500000 0.753107
O O15 0.000000 0.500000 0.753107
#
# Coordination Sequence:
#
# PCOD9444043 Si02
#       6
#     8   8   8   8   8   8
#     4  10  21  34  50  73 105 139 184 229 253 296
#     4  10  21  36  51  82 106 137 186 212 279 312
#     4  10  21  32  46  71  91 144 178 219 262 290
#     4  10  21  36  56  79 104 140 180 226 270 308
#     4  10  21  35  57  76 105 143 169 238 260 325
#     4  10  21  33  51  75 105 141 175 218 258 323
#
# _framework density 17.276721999999999
#
# number of rings (size 3 to 8) (size 9 to 14) (size 15 to 20)
#    0.000    2.000    0.000    3.000    9.333    0.667 
#    0.000    0.000    0.000    0.000    0.000    0.000 
#    0.000   13.333    0.000    0.000    0.000    0.000 
#
# Total GULP energy -267925.353565 kJ/mol
# GULP energy per Si atom -5581.778199 kJ/mol
# Density = 1.723740 g / cm^3
# Si number density = 17.276722 Si / 1000 Ang^3
#
#
#
# Elastic Constant Matrix: (Units=GPa)
#
#
# Indices 1 2 3 4 5 6 
#
# 1 175.4125 43.4657 36.9115 0.0000 0.0000 0.0000
# 2 43.4657 102.7063 45.1314 0.0000 0.0000 0.0000
# 3 36.9115 45.1314 83.7294 0.0000 0.0000 0.0000
# 4 0.0000 0.0000 0.0000 80.3785 0.0000 0.0000
# 5 0.0000 0.0000 0.0000 0.0000 19.7101 0.0000
# 6 0.0000 0.0000 0.0000 0.0000 0.0000 21.1407
#
#
#
# Elastic Compliance Matrix: (Units=1/GPa)
#
#
# Indices 1 2 3 4 5 6 
#
# 1 0.006577 -0.001978 -0.001833 0.000000 0.000000 0.000000
# 2 -0.001978 0.013353 -0.006326 0.000000 0.000000 0.000000
# 3 -0.001833 -0.006326 0.016161 0.000000 0.000000 0.000000
# 4 0.000000 0.000000 0.000000 0.012441 0.000000 0.000000
# 5 0.000000 0.000000 0.000000 0.000000 0.050736 0.000000
# 6 0.000000 0.000000 0.000000 0.000000 0.000000 0.047302
#
#
# Mechanical properties :
#
#
# Convention : Reuss Voigt Hill
#
# Bulk Modulus (GPa) = 63.22089 68.09615 65.65852
# Shear Modulus (GPa) = 29.05029 40.00183 34.52606
#
# Velocity S-wave (km/s) = 4.10502 4.81704 4.47521
# Velocity P-wave (km/s) = 7.69031 8.39280 8.04922
#
# Compressibility (1/GPa) = 0.01581756
#
# Stress axis : x y z
#
# Youngs Moduli (GPa) = 152.05256 74.88891 61.87715
#
# Poissons Ratio (x) = 0.14811 0.11344
# Poissons Ratio (y) = 0.30071 0.39141
# Poissons Ratio (z) = 0.27875 0.47372
#
# Static dielectric constant tensor:
#      x y z
#    x 1.690360 0.000000 0.000000 
#    y 0.000000 1.559330 0.000000 
#    z 0.000000 0.000000 1.595230 
# 
# From -- ./inp_files/30960.got.cif
#   From: 2010.05.17/outbox.cif.g08.bks.cpg/sg58_16_cif.got.tgz:30960.got - 2010.06.03 14:20:14.
