data_PCOD9444185
_publ_section_title
;
Structure prediction by ZEFSAII (Michael W. Deem and Ramdas Pophale) SiO2 
 PCOD9444185
Probable space group: P N N M
;
_chemical_formula_sum "Si O2"
_cell_formula_units_Z 58
_cell_length_a 19.839291
_cell_length_b 18.515132
_cell_length_c 7.599628
_cell_angle_alpha 90.000000
_cell_angle_beta 90.000000
_cell_angle_gamma 90.000000
_cell_volume 2791.549251
_symmetry_space_group_name_H-M "P N N M"
_symmetry_group_IT_number 58
_symmetry_cell_setting 'orthorhombic'
loop_
_space_group_symop_operation_xyz
x,y,z
-x,-y,z
1/2+x,1/2-y,1/2-z
1/2-x,1/2+y,1/2-z
-x,-y,-z
x,y,-z
1/2-x,1/2+y,1/2+z
1/2+x,1/2-y,1/2+z
loop_
_atom_site_type_symbol
_atom_site_label
_atom_site_fract_x
_atom_site_fract_y
_atom_site_fract_z
Si Si1 0.312463 0.397306 0.287938
Si Si2 0.322275 0.974093 0.787358
Si Si3 0.536530 0.764620 0.202064
Si Si4 0.604413 0.172315 0.291863
Si Si5 0.000000 0.000000 0.500000
Si Si6 0.964553 0.100792 0.797435
Si Si7 0.840500 0.363442 0.283875
Si Si8 0.762143 0.748877 0.207910
O O1 0.313475 0.397476 0.500000
O O2 0.252584 0.449950 0.227562
O O3 0.387866 0.416090 0.231962
O O4 0.290233 0.317213 0.231249
O O5 0.372817 0.910358 0.733946
O O6 0.341430 0.053775 0.725807
O O7 0.321063 0.974976 0.000000
O O8 0.466198 0.806837 0.209012
O O9 0.529619 0.687470 0.293661
O O10 0.595414 0.816250 0.273463
O O11 0.554180 0.748054 0.000000
O O12 0.598149 0.185303 0.500000
O O13 0.666577 0.220855 0.219974
O O14 0.989044 0.938657 0.656956
O O15 0.973143 0.077941 0.000000
O O16 0.840985 0.364042 0.500000
O O17 0.773513 0.320850 0.224708
O O18 0.772241 0.758939 0.000000
#
# Coordination Sequence:
#
# PCOD9444185 Si02
#       8
#     8   8   8   8   2   8   8   8
#     4   9  18  33  59  85 113 152 199 253 314 372
#     4   9  18  36  57  85 119 155 204 260 324 379
#     4  11  21  38  63  89 119 164 211 255 312 379
#     4  10  21  36  55  84 121 164 202 257 320 378
#     4  12  26  44  64  90 128 166 210 254 316 368
#     4  11  23  42  65  94 125 167 213 260 313 378
#     4   9  18  33  59  87 111 150 208 262 306 375
#     4   9  17  33  58  82 109 150 204 255 310 376
#
# _framework density 20.776993999999998
#
# number of rings (size 3 to 8) (size 9 to 14) (size 15 to 20)
#    0.000    2.207    2.069    1.034    0.966    1.103 
#    2.483    4.828    0.000    0.000    0.000    0.000 
#    0.000    0.000    0.000    0.000    0.000    0.000 
#
# Total GULP energy -323260.934457 kJ/mol
# GULP energy per Si atom -5573.464387 kJ/mol
# Density = 2.072971 g / cm^3
# Si number density = 20.776994 Si / 1000 Ang^3
#
#
#
# Elastic Constant Matrix: (Units=GPa)
#
#
# Indices 1 2 3 4 5 6 
#
# 1 60.5349 52.8567 2.2598 0.0000 0.0000 0.0000
# 2 52.8567 129.3799 9.4124 0.0000 0.0000 0.0000
# 3 2.2598 9.4124 75.8598 0.0000 0.0000 0.0000
# 4 0.0000 0.0000 0.0000 12.2844 0.0000 0.0000
# 5 0.0000 0.0000 0.0000 0.0000 15.1752 0.0000
# 6 0.0000 0.0000 0.0000 0.0000 0.0000 15.4656
#
#
#
# Elastic Compliance Matrix: (Units=1/GPa)
#
#
# Indices 1 2 3 4 5 6 
#
# 1 0.025702 -0.010540 0.000542 0.000000 0.000000 0.000000
# 2 -0.010540 0.012122 -0.001190 0.000000 0.000000 0.000000
# 3 0.000542 -0.001190 0.013314 0.000000 0.000000 0.000000
# 4 0.000000 0.000000 0.000000 0.081404 0.000000 0.000000
# 5 0.000000 0.000000 0.000000 0.000000 0.065897 0.000000
# 6 0.000000 0.000000 0.000000 0.000000 0.000000 0.064660
#
#
# Mechanical properties :
#
#
# Convention : Reuss Voigt Hill
#
# Bulk Modulus (GPa) = 34.76807 43.87029 39.31918
# Shear Modulus (GPa) = 16.94567 22.00142 19.47354
#
# Velocity S-wave (km/s) = 2.85897 3.25765 3.06480
# Velocity P-wave (km/s) = 5.26009 5.94226 5.61155
#
# Compressibility (1/GPa) = 0.02876202
#
# Stress axis : x y z
#
# Youngs Moduli (GPa) = 38.90750 82.49724 75.11047
#
# Poissons Ratio (x) = 0.86950 -0.04072
# Poissons Ratio (y) = 0.41007 0.08938
# Poissons Ratio (z) = -0.02109 0.09817
#
# Static dielectric constant tensor:
#      x y z
#    x 1.760890 0.000000 0.000000 
#    y 0.000000 1.731270 0.000000 
#    z 0.000000 0.000000 1.773890 
# 
# From -- ./inp_files/8030.got.cif
#   From: 2010.05.17/outbox.cif.g08.bks.cpg/sg58_5_cif.got.tgz:8030.got - 2010.06.03 14:20:14.
