data_PCOD9444219
_publ_section_title
;
Structure prediction by ZEFSAII (Michael W. Deem and Ramdas Pophale) SiO2 
 PCOD9444219
Probable space group: P N N M
;
_chemical_formula_sum "Si O2"
_cell_formula_units_Z 58
_cell_length_a 12.826431
_cell_length_b 25.260091
_cell_length_c 9.076727
_cell_angle_alpha 90.000000
_cell_angle_beta 90.000000
_cell_angle_gamma 90.000000
_cell_volume 2940.830632
_symmetry_space_group_name_H-M "P N N M"
_symmetry_group_IT_number 58
_symmetry_cell_setting 'orthorhombic'
loop_
_space_group_symop_operation_xyz
x,y,z
-x,-y,z
1/2+x,1/2-y,1/2-z
1/2-x,1/2+y,1/2-z
-x,-y,-z
x,y,-z
1/2-x,1/2+y,1/2+z
1/2+x,1/2-y,1/2+z
loop_
_atom_site_type_symbol
_atom_site_label
_atom_site_fract_x
_atom_site_fract_y
_atom_site_fract_z
Si Si1 0.333422 0.510771 0.764314
Si Si2 0.255432 0.211055 0.320216
Si Si3 0.098577 0.534254 0.676738
Si Si4 0.325404 0.819755 0.320593
Si Si5 0.412040 0.625394 0.168333
Si Si6 0.451608 0.157123 0.822629
Si Si7 0.362252 0.391223 0.832437
Si Si8 0.500000 0.500000 0.500000
O O1 0.210141 0.515747 0.735862
O O2 0.369022 0.565793 0.836058
O O3 0.353097 0.454306 0.838495
O O4 0.408878 0.507273 0.624852
O O5 0.259070 0.214100 0.500000
O O6 0.217101 0.265095 0.246485
O O7 0.173617 0.165285 0.269946
O O8 0.366792 0.194472 0.254849
O O9 0.102688 0.528098 0.500000
O O10 0.000000 0.500000 0.731689
O O11 0.080113 0.596154 0.707585
O O12 0.334036 0.818041 0.500000
O O13 0.436303 0.832151 0.248227
O O14 0.241361 0.864367 0.271167
O O15 0.527045 0.624210 0.240730
O O16 0.425281 0.643088 0.000000
O O17 0.453331 0.164954 0.000000
O O18 0.366512 0.371574 0.000000
#
# Coordination Sequence:
#
# PCOD9444219 Si02
#       8
#     8   8   8   8   8   8   8   2
#     4  12  20  39  58  93 130 163 209 257 325 377
#     4  11  24  43  67  97 125 167 218 272 324 388
#     4  10  21  36  58  87 126 173 215 256 315 385
#     4  11  25  45  66  96 130 169 217 276 327 387
#     4  10  21  39  65  90 122 163 210 259 317 385
#     4  11  23  43  67  94 128 174 217 267 323 387
#     4  10  22  40  64  91 125 167 208 258 320 383
#     4  12  24  32  56  96 136 168 200 280 308 402
#
# _framework density 19.722318999999999
#
# number of rings (size 3 to 8) (size 9 to 14) (size 15 to 20)
#    0.000    1.241    3.448    2.483    1.931    1.103 
#    3.724    0.000    0.000    3.310    0.000    0.000 
#    0.000    0.000    0.000    0.000    0.000    0.000 
#
# Total GULP energy -323017.096617 kJ/mol
# GULP energy per Si atom -5569.260286 kJ/mol
# Density = 1.967743 g / cm^3
# Si number density = 19.722319 Si / 1000 Ang^3
#
#
#
# Elastic Constant Matrix: (Units=GPa)
#
#
# Indices 1 2 3 4 5 6 
#
# 1 175.0288 24.2531 34.5562 0.0000 0.0000 0.0000
# 2 24.2531 54.8131 18.1383 0.0000 0.0000 0.0000
# 3 34.5562 18.1383 67.9468 0.0000 0.0000 0.0000
# 4 0.0000 0.0000 0.0000 33.3334 0.0000 0.0000
# 5 0.0000 0.0000 0.0000 0.0000 29.3426 0.0000
# 6 0.0000 0.0000 0.0000 0.0000 0.0000 13.8569
#
#
#
# Elastic Compliance Matrix: (Units=1/GPa)
#
#
# Indices 1 2 3 4 5 6 
#
# 1 0.006539 -0.001966 -0.002801 0.000000 0.000000 0.000000
# 2 -0.001966 0.020603 -0.004500 0.000000 0.000000 0.000000
# 3 -0.002801 -0.004500 0.017343 0.000000 0.000000 0.000000
# 4 0.000000 0.000000 0.000000 0.030000 0.000000 0.000000
# 5 0.000000 0.000000 0.000000 0.000000 0.034080 0.000000
# 6 0.000000 0.000000 0.000000 0.000000 0.000000 0.072166
#
#
# Mechanical properties :
#
#
# Convention : Reuss Voigt Hill
#
# Bulk Modulus (GPa) = 38.53418 50.18710 44.36064
# Shear Modulus (GPa) = 24.04833 30.02932 27.03882
#
# Velocity S-wave (km/s) = 3.49570 3.90629 3.70669
# Velocity P-wave (km/s) = 5.98949 6.77108 6.39225
#
# Compressibility (1/GPa) = 0.02595099
#
# Stress axis : x y z
#
# Youngs Moduli (GPa) = 152.93464 48.53666 57.66045
#
# Poissons Ratio (x) = 0.09545 0.16148
# Poissons Ratio (y) = 0.30074 0.25946
# Poissons Ratio (z) = 0.42830 0.21841
#
# Static dielectric constant tensor:
#      x y z
#    x 1.709040 0.000000 0.000000 
#    y 0.000000 1.681410 0.000000 
#    z 0.000000 0.000000 1.704050 
# 
# From -- ./inp_files/4442.got.cif
#   From: 2010.05.17/outbox.cif.g08.bks.cpg/sg58_3_cif.got.tgz:4442.got - 2010.06.03 14:20:14.
