data_PCOD9444580
_publ_section_title
;
Structure prediction by ZEFSAII (Michael W. Deem and Ramdas Pophale) SiO2 
 PCOD9444580
Probable space group: P N N M
;
_chemical_formula_sum "Si O2"
_cell_formula_units_Z 58
_cell_length_a 12.125941
_cell_length_b 23.875407
_cell_length_c 10.840377
_cell_angle_alpha 90.000000
_cell_angle_beta 90.000000
_cell_angle_gamma 90.000000
_cell_volume 3138.416805
_symmetry_space_group_name_H-M "P N N M"
_symmetry_group_IT_number 58
_symmetry_cell_setting 'orthorhombic'
loop_
_space_group_symop_operation_xyz
x,y,z
-x,-y,z
1/2+x,1/2-y,1/2-z
1/2-x,1/2+y,1/2-z
-x,-y,-z
x,y,-z
1/2-x,1/2+y,1/2+z
1/2+x,1/2-y,1/2+z
loop_
_atom_site_type_symbol
_atom_site_label
_atom_site_fract_x
_atom_site_fract_y
_atom_site_fract_z
Si Si1 0.069137 0.442959 0.867665
Si Si2 0.718059 0.419263 0.356387
Si Si3 0.466493 0.121827 0.141399
Si Si4 0.825780 0.144052 0.856776
Si Si5 0.432001 0.688338 0.644584
Si Si6 0.315098 0.468371 0.199809
Si Si7 0.384192 0.776237 0.143148
Si Si8 0.000000 0.000000 0.500000
O O1 0.196946 0.458134 0.862805
O O2 0.000000 0.500000 0.863820
O O3 0.035663 0.409073 0.746573
O O4 0.044410 0.414335 0.000000
O O5 0.713856 0.434971 0.500000
O O6 0.838544 0.391687 0.334569
O O7 0.627426 0.371348 0.335017
O O8 0.698530 0.474685 0.278116
O O9 0.504580 0.186237 0.147274
O O10 0.491985 0.103035 0.000000
O O11 0.833476 0.087420 0.779671
O O12 0.718363 0.181943 0.831367
O O13 0.937168 0.179709 0.840354
O O14 0.818657 0.127840 0.000000
O O15 0.410259 0.704584 0.500000
O O16 0.389723 0.730494 0.749446
O O17 0.413886 0.477644 0.106392
O O18 0.372296 0.755682 0.000000
#
# Coordination Sequence:
#
# PCOD9444580 Si02
#       8
#     8   8   8   8   8   8   8   2
#     4  11  22  38  58  90 130 169 204 251 317 384
#     4  10  22  40  67  97 125 162 210 261 317 384
#     4  10  21  38  64  95 127 157 207 263 313 376
#     4  10  22  42  68  92 123 164 219 269 315 384
#     4  10  23  43  62  89 125 167 215 260 310 381
#     4  12  22  42  64  91 130 170 209 261 325 374
#     4  10  22  41  63  93 125 161 210 268 320 373
#     4  12  28  40  56  88 140 172 212 264 300 396
#
# _framework density 18.480654999999999
#
# number of rings (size 3 to 8) (size 9 to 14) (size 15 to 20)
#    0.000    1.517    3.448    1.241    1.931    1.379 
#    6.207    2.759    0.000    0.000    0.000    0.000 
#    0.000    0.000    0.000    0.000    0.000    0.000 
#
# Total GULP energy -323051.937258 kJ/mol
# GULP energy per Si atom -5569.860987 kJ/mol
# Density = 1.843859 g / cm^3
# Si number density = 18.480655 Si / 1000 Ang^3
#
#
#
# Elastic Constant Matrix: (Units=GPa)
#
#
# Indices 1 2 3 4 5 6 
#
# 1 74.7077 23.8764 40.7132 0.0000 0.0000 0.0000
# 2 23.8764 66.4520 71.3031 0.0000 0.0000 0.0000
# 3 40.7132 71.3031 122.4294 0.0000 0.0000 0.0000
# 4 0.0000 0.0000 0.0000 -50.4781 0.0000 0.0000
# 5 0.0000 0.0000 0.0000 0.0000 33.6873 0.0000
# 6 0.0000 0.0000 0.0000 0.0000 0.0000 13.9458
#
#
#
# Elastic Compliance Matrix: (Units=1/GPa)
#
#
# Indices 1 2 3 4 5 6 
#
# 1 0.016349 -0.000108 -0.005374 0.000000 0.000000 0.000000
# 2 -0.000108 0.040121 -0.023331 0.000000 0.000000 0.000000
# 3 -0.005374 -0.023331 0.023543 0.000000 0.000000 0.000000
# 4 0.000000 0.000000 0.000000 -0.019811 0.000000 0.000000
# 5 0.000000 0.000000 0.000000 0.000000 0.029685 0.000000
# 6 0.000000 0.000000 0.000000 0.000000 0.000000 0.071706
#
#
# Mechanical properties :
#
#
# Convention : Reuss Voigt Hill
#
# Bulk Modulus (GPa) = 44.66768 59.48604 52.07686
# Shear Modulus (GPa) = 22.05752 7.94408 15.00080
#
# Velocity S-wave (km/s) = 3.45852 2.07555 2.85213
# Velocity P-wave (km/s) = 6.33805 6.16458 6.25192
#
# Compressibility (1/GPa) = 0.02238755
#
# Stress axis : x y z
#
# Youngs Moduli (GPa) = 61.16764 24.92450 42.47591
#
# Poissons Ratio (x) = 0.00270 0.22825
# Poissons Ratio (y) = 0.00662 0.99099
# Poissons Ratio (z) = 0.32869 0.58151
#
# Static dielectric constant tensor:
#      x y z
#    x 1.645160 0.000000 0.000000 
#    y 0.000000 1.604860 0.000000 
#    z 0.000000 0.000000 1.651650 
# 
# From -- ./inp_files/4478.got.cif
#   From: 2010.05.17/outbox.cif.g08.bks.cpg/sg58_3_cif.got.tgz:4478.got - 2010.06.03 14:20:14.
