data_PCOD9444495
_publ_section_title
;
Structure prediction by ZEFSAII (Michael W. Deem and Ramdas Pophale) SiO2 
 PCOD9444495
Probable space group: P N N M
;
_chemical_formula_sum "Si O2"
_cell_formula_units_Z 56
_cell_length_a 16.415326
_cell_length_b 20.644745
_cell_length_c 8.841334
_cell_angle_alpha 90.000000
_cell_angle_beta 90.000000
_cell_angle_gamma 90.000000
_cell_volume 2996.241619
_symmetry_space_group_name_H-M "P N N M"
_symmetry_group_IT_number 58
_symmetry_cell_setting 'orthorhombic'
loop_
_space_group_symop_operation_xyz
x,y,z
-x,-y,z
1/2+x,1/2-y,1/2-z
1/2-x,1/2+y,1/2-z
-x,-y,-z
x,y,-z
1/2-x,1/2+y,1/2+z
1/2+x,1/2-y,1/2+z
loop_
_atom_site_type_symbol
_atom_site_label
_atom_site_fract_x
_atom_site_fract_y
_atom_site_fract_z
Si Si1 0.254094 0.532518 0.181932
Si Si2 0.162710 0.157552 0.819377
Si Si3 0.324561 0.804635 0.318126
Si Si4 0.172684 0.897266 0.682494
Si Si5 0.069597 0.551027 0.817333
Si Si6 0.974724 0.180607 0.180773
Si Si7 0.001797 0.680939 0.680243
O O1 0.290638 0.599365 0.241127
O O2 0.305131 0.469924 0.232442
O O3 0.159382 0.526830 0.226281
O O4 0.256333 0.532802 0.000000
O O5 0.193436 0.229702 0.778400
O O6 0.066446 0.157295 0.781971
O O7 0.170964 0.150705 0.000000
O O8 0.338626 0.807207 0.500000
O O9 0.249818 0.851300 0.281775
O O10 0.408514 0.824244 0.238287
O O11 0.162860 0.896559 0.500000
O O12 0.092732 0.868212 0.758306
O O13 0.051021 0.620201 0.744602
O O14 0.000000 0.500000 0.772555
O O15 0.066762 0.557307 0.000000
O O16 0.964713 0.251218 0.255237
O O17 0.969675 0.187128 0.000000
O O18 0.004310 0.681884 0.500000
#
# Coordination Sequence:
#
# PCOD9444495 Si02
#       7
#     8   8   8   8   8   8   8
#     4  10  22  37  57  86 117 153 194 240 291 350
#     4   9  20  38  58  81 113 152 193 241 292 346
#     4   9  19  38  61  83 114 154 194 237 293 352
#     4  10  21  38  60  87 117 151 194 241 294 347
#     4  10  21  39  61  84 118 161 197 235 292 359
#     4  10  22  40  60  84 113 152 198 241 294 351
#     4  11  22  36  58  88 118 150 193 244 294 343
#
# _framework density 18.690080999999999
#
# number of rings (size 3 to 8) (size 9 to 14) (size 15 to 20)
#    0.000    2.143    0.000    3.429    2.000    7.714 
#    0.000    4.286    0.000    0.000    0.000    0.000 
#    0.000    0.000    0.000    0.000    0.000    0.000 
#
# Total GULP energy -312820.111616 kJ/mol
# GULP energy per Si atom -5586.073422 kJ/mol
# Density = 1.864754 g / cm^3
# Si number density = 18.690081 Si / 1000 Ang^3
#
#
#
# Elastic Constant Matrix: (Units=GPa)
#
#
# Indices 1 2 3 4 5 6 
#
# 1 27.2948 20.4443 16.8224 0.0000 0.0000 0.0000
# 2 20.4443 70.1951 17.4320 0.0000 0.0000 0.0000
# 3 16.8224 17.4320 23.2808 0.0000 0.0000 0.0000
# 4 0.0000 0.0000 0.0000 29.2090 0.0000 0.0000
# 5 0.0000 0.0000 0.0000 0.0000 16.6156 0.0000
# 6 0.0000 0.0000 0.0000 0.0000 0.0000 32.4902
#
#
#
# Elastic Compliance Matrix: (Units=1/GPa)
#
#
# Indices 1 2 3 4 5 6 
#
# 1 0.071118 -0.009767 -0.044075 0.000000 0.000000 0.000000
# 2 -0.009767 0.018842 -0.007050 0.000000 0.000000 0.000000
# 3 -0.044075 -0.007050 0.080081 0.000000 0.000000 0.000000
# 4 0.000000 0.000000 0.000000 0.034236 0.000000 0.000000
# 5 0.000000 0.000000 0.000000 0.000000 0.060184 0.000000
# 6 0.000000 0.000000 0.000000 0.000000 0.000000 0.030778
#
#
# Mechanical properties :
#
#
# Convention : Reuss Voigt Hill
#
# Bulk Modulus (GPa) = 20.72342 25.57425 23.14883
# Shear Modulus (GPa) = 11.54442 20.06777 15.80610
#
# Velocity S-wave (km/s) = 2.48801 3.28031 2.91124
# Velocity P-wave (km/s) = 4.40063 5.29720 4.86959
#
# Compressibility (1/GPa) = 0.04825459
#
# Stress axis : x y z
#
# Youngs Moduli (GPa) = 14.06123 53.07402 12.48735
#
# Poissons Ratio (x) = 0.51840 0.55038
# Poissons Ratio (y) = 0.13734 0.08804
# Poissons Ratio (z) = 0.61975 0.37418
#
# Static dielectric constant tensor:
#      x y z
#    x 1.631240 0.000000 0.000000 
#    y 0.000000 1.625720 0.000000 
#    z 0.000000 0.000000 1.629090 
# 
# From -- ./inp_files/6323.got.cif
#   From: 2010.05.17/outbox.cif.g08.bks.cpg/sg58_4_cif.got.tgz:6323.got - 2010.06.03 14:20:14.
