data_PCOD9444548
_publ_section_title
;
Structure prediction by ZEFSAII (Michael W. Deem and Ramdas Pophale) SiO2 
 PCOD9444548
Probable space group: P N N M
;
_chemical_formula_sum "Si O2"
_cell_formula_units_Z 56
_cell_length_a 13.219549
_cell_length_b 11.941198
_cell_length_c 16.820178
_cell_angle_alpha 90.000000
_cell_angle_beta 90.000000
_cell_angle_gamma 90.000000
_cell_volume 2655.187079
_symmetry_space_group_name_H-M "P N N M"
_symmetry_group_IT_number 58
_symmetry_cell_setting 'orthorhombic'
loop_
_space_group_symop_operation_xyz
x,y,z
-x,-y,z
1/2+x,1/2-y,1/2-z
1/2-x,1/2+y,1/2-z
-x,-y,-z
x,y,-z
1/2-x,1/2+y,1/2+z
1/2+x,1/2-y,1/2+z
loop_
_atom_site_type_symbol
_atom_site_label
_atom_site_fract_x
_atom_site_fract_y
_atom_site_fract_z
Si Si1 0.953744 0.119479 0.171538
Si Si2 0.675976 0.865723 0.095257
Si Si3 0.944804 0.160784 0.358690
Si Si4 0.777779 0.596309 0.328428
Si Si5 0.760130 0.538663 0.141749
Si Si6 0.881373 0.737986 0.092272
Si Si7 0.836069 0.816654 0.408440
O O1 0.957478 0.128812 0.266826
O O2 0.837763 0.118907 0.145424
O O3 0.020802 0.219513 0.137745
O O4 0.000000 0.000000 0.147198
O O5 0.587131 0.790283 0.131421
O O6 0.783266 0.809657 0.121054
O O7 0.675809 0.992366 0.124466
O O8 0.669776 0.858968 0.000000
O O9 0.844892 0.095634 0.387875
O O10 0.049535 0.136910 0.402050
O O11 0.771939 0.561985 0.235836
O O12 0.833708 0.711007 0.349239
O O13 0.850697 0.608696 0.102946
O O14 0.744157 0.409459 0.120827
O O15 0.894930 0.763227 0.000000
O O16 0.815862 0.785035 0.500000
#
# Coordination Sequence:
#
# PCOD9444548 Si02
#       7
#     8   8   8   8   8   8   8
#     4  11  21  39  66  97 124 164 220 265 315 384
#     4  10  21  39  62  92 127 162 205 254 319 375
#     4  10  22  38  65  94 125 166 210 261 311 383
#     4  11  24  39  65  92 130 165 210 261 315 381
#     4  10  23  40  67  91 125 170 215 259 316 382
#     4  10  21  38  62  91 124 160 208 263 316 369
#     4  12  25  41  63  95 133 167 211 268 326 381
#
# _framework density 21.090793000000001
#
# number of rings (size 3 to 8) (size 9 to 14) (size 15 to 20)
#    0.000    1.429    1.429    4.286    6.000    4.286 
#    0.000    2.143    0.000    1.714    0.000    0.000 
#    0.000    0.000    0.000    0.000    0.000    0.000 
#
# Total GULP energy -313017.944329 kJ/mol
# GULP energy per Si atom -5589.606149 kJ/mol
# Density = 2.104279 g / cm^3
# Si number density = 21.090793 Si / 1000 Ang^3
#
#
#
# Elastic Constant Matrix: (Units=GPa)
#
#
# Indices 1 2 3 4 5 6 
#
# 1 49.7905 6.5048 8.9507 0.0000 0.0000 0.0000
# 2 6.5048 97.3042 7.5059 0.0000 0.0000 0.0000
# 3 8.9507 7.5059 43.0035 0.0000 0.0000 0.0000
# 4 0.0000 0.0000 0.0000 25.4565 0.0000 0.0000
# 5 0.0000 0.0000 0.0000 0.0000 220.9804 0.0000
# 6 0.0000 0.0000 0.0000 0.0000 0.0000 30.2298
#
#
#
# Elastic Compliance Matrix: (Units=1/GPa)
#
#
# Indices 1 2 3 4 5 6 
#
# 1 0.020976 -0.001080 -0.004177 0.000000 0.000000 0.000000
# 2 -0.001080 0.010473 -0.001603 0.000000 0.000000 0.000000
# 3 -0.004177 -0.001603 0.024403 0.000000 0.000000 0.000000
# 4 0.000000 0.000000 0.000000 0.039283 0.000000 0.000000
# 5 0.000000 0.000000 0.000000 0.000000 0.004525 0.000000
# 6 0.000000 0.000000 0.000000 0.000000 0.000000 0.033080
#
#
# Mechanical properties :
#
#
# Convention : Reuss Voigt Hill
#
# Bulk Modulus (GPa) = 23.73544 26.22454 24.97999
# Shear Modulus (GPa) = 31.15162 66.47578 48.81370
#
# Velocity S-wave (km/s) = 3.84738 5.62026 4.81610
# Velocity P-wave (km/s) = 5.56909 7.38766 6.54188
#
# Compressibility (1/GPa) = 0.04213110
#
# Stress axis : x y z
#
# Youngs Moduli (GPa) = 47.67305 95.48441 40.97820
#
# Poissons Ratio (x) = 0.10312 0.17118
# Poissons Ratio (y) = 0.05149 0.06569
# Poissons Ratio (z) = 0.19915 0.15308
#
# Static dielectric constant tensor:
#      x y z
#    x 1.753210 0.000000 0.000000 
#    y 0.000000 1.778840 0.000000 
#    z 0.000000 0.000000 1.737870 
# 
# From -- ./inp_files/22189.got.cif
#   From: 2010.05.17/outbox.cif.g08.bks.cpg/sg58_12_cif.got.tgz:22189.got - 2010.06.03 14:20:14.
