data_PCOD9444596
_publ_section_title
;
Structure prediction by ZEFSAII (Michael W. Deem and Ramdas Pophale) SiO2 
 PCOD9444596
Probable space group: P N N M
;
_chemical_formula_sum "Si O2"
_cell_formula_units_Z 44
_cell_length_a 13.257412
_cell_length_b 14.414673
_cell_length_c 11.646874
_cell_angle_alpha 90.000000
_cell_angle_beta 90.000000
_cell_angle_gamma 90.000000
_cell_volume 2225.732283
_symmetry_space_group_name_H-M "P N N M"
_symmetry_group_IT_number 58
_symmetry_cell_setting 'orthorhombic'
loop_
_space_group_symop_operation_xyz
x,y,z
-x,-y,z
1/2+x,1/2-y,1/2-z
1/2-x,1/2+y,1/2-z
-x,-y,-z
x,y,-z
1/2-x,1/2+y,1/2+z
1/2+x,1/2-y,1/2+z
loop_
_atom_site_type_symbol
_atom_site_label
_atom_site_fract_x
_atom_site_fract_y
_atom_site_fract_z
Si Si1 0.026600 0.607336 0.363528
Si Si2 0.154289 0.275847 0.282021
Si Si3 0.269927 0.662667 0.000000
Si Si4 0.112099 0.967796 0.500000
Si Si5 0.618075 0.979648 0.500000
Si Si6 0.262987 0.448916 0.199858
Si Si7 0.766548 0.882319 0.134307
O O1 0.003412 0.614880 0.500000
O O2 0.957047 0.681995 0.299038
O O3 0.000000 0.500000 0.331096
O O4 0.145260 0.626408 0.348249
O O5 0.192618 0.216708 0.389543
O O6 0.224717 0.365559 0.275602
O O7 0.174913 0.210104 0.173052
O O8 0.326206 0.564000 0.000000
O O9 0.153545 0.628520 0.000000
O O10 0.147638 0.917524 0.385150
O O11 0.000000 0.000000 0.500000
O O12 0.500000 0.000000 0.500000
O O13 0.670824 0.023289 0.386308
O O14 0.295278 0.534206 0.279734
O O15 0.783020 0.903180 0.000000
#
# Coordination Sequence:
#
# PCOD9444596 Si02
#       7
#     8   8   4   4   4   8   8
#     4  10  21  38  67  96 121 169 221 265 322 389
#     4  12  22  39  65  94 135 162 215 276 323 380
#     4  10  22  40  63  98 123 173 218 263 322 390
#     4  10  22  46  68  84 126 177 224 262 320 396
#     4  10  22  42  64  90 130 175 216 273 335 390
#     4  10  23  40  63  96 125 169 216 273 329 381
#     4  11  24  41  63  98 132 167 221 267 331 396
#
# _framework density 19.768774000000001
#
# number of rings (size 3 to 8) (size 9 to 14) (size 15 to 20)
#    0.000    1.636    6.364    0.000    6.364    1.455 
#    0.000    0.000    2.000    0.545    0.000    0.000 
#    0.000    0.000    0.000    0.000    0.000    0.000 
#
# Total GULP energy -245538.796256 kJ/mol
# GULP energy per Si atom -5580.427188 kJ/mol
# Density = 1.972378 g / cm^3
# Si number density = 19.768774 Si / 1000 Ang^3
#
#
#
# Elastic Constant Matrix: (Units=GPa)
#
#
# Indices 1 2 3 4 5 6 
#
# 1 53.5932 -14.8243 14.9259 0.0000 0.0000 0.0000
# 2 -14.8243 57.3172 4.7356 0.0000 0.0000 0.0000
# 3 14.9259 4.7356 67.7445 0.0000 0.0000 0.0000
# 4 0.0000 0.0000 0.0000 22.7302 0.0000 0.0000
# 5 0.0000 0.0000 0.0000 0.0000 16.3694 0.0000
# 6 0.0000 0.0000 0.0000 0.0000 0.0000 28.7161
#
#
#
# Elastic Compliance Matrix: (Units=1/GPa)
#
#
# Indices 1 2 3 4 5 6 
#
# 1 0.021793 0.006068 -0.005226 0.000000 0.000000 0.000000
# 2 0.006068 0.019238 -0.002682 0.000000 0.000000 0.000000
# 3 -0.005226 -0.002682 0.016100 0.000000 0.000000 0.000000
# 4 0.000000 0.000000 0.000000 0.043994 0.000000 0.000000
# 5 0.000000 0.000000 0.000000 0.000000 0.061090 0.000000
# 6 0.000000 0.000000 0.000000 0.000000 0.000000 0.034824
#
#
# Mechanical properties :
#
#
# Convention : Reuss Voigt Hill
#
# Bulk Modulus (GPa) = 18.70827 20.92549 19.81688
# Shear Modulus (GPa) = 22.87967 25.15099 24.01533
#
# Velocity S-wave (km/s) = 3.40570 3.57074 3.48920
# Velocity P-wave (km/s) = 4.99491 5.25437 5.12628
#
# Compressibility (1/GPa) = 0.05345231
#
# Stress axis : x y z
#
# Youngs Moduli (GPa) = 45.88630 51.98097 62.11107
#
# Poissons Ratio (x) = -0.31543 0.32458
# Poissons Ratio (y) = -0.27845 0.16657
# Poissons Ratio (z) = 0.23979 0.13940
#
# Static dielectric constant tensor:
#      x y z
#    x 1.735410 0.000000 0.000000 
#    y 0.000000 1.701170 0.000000 
#    z 0.000000 0.000000 1.726300 
# 
# From -- ./inp_files/15537.got.cif
#   From: 2010.05.17/outbox.cif.g08.bks.cpg/sg58_8_cif.got.tgz:15537.got - 2010.06.03 14:20:14.
