data_PCOD9444483
_publ_section_title
;
Structure prediction by ZEFSAII (Michael W. Deem and Ramdas Pophale) SiO2 
 PCOD9444483
Probable space group: P N N M
;
_chemical_formula_sum "Si O2"
_cell_formula_units_Z 64
_cell_length_a 26.684420
_cell_length_b 6.725696
_cell_length_c 19.006158
_cell_angle_alpha 90.000000
_cell_angle_beta 90.000000
_cell_angle_gamma 90.000000
_cell_volume 3411.059825
_symmetry_space_group_name_H-M "P N N M"
_symmetry_group_IT_number 58
_symmetry_cell_setting 'orthorhombic'
loop_
_space_group_symop_operation_xyz
x,y,z
-x,-y,z
1/2+x,1/2-y,1/2-z
1/2-x,1/2+y,1/2-z
-x,-y,-z
x,y,-z
1/2-x,1/2+y,1/2+z
1/2+x,1/2-y,1/2+z
loop_
_atom_site_type_symbol
_atom_site_label
_atom_site_fract_x
_atom_site_fract_y
_atom_site_fract_z
Si Si1 0.792914 0.610793 0.917532
Si Si2 0.793404 0.250026 0.165932
Si Si3 0.851831 0.868666 0.804887
Si Si4 0.182328 0.995867 0.578799
Si Si5 0.801477 0.554669 0.291255
Si Si6 0.590547 0.236486 0.081754
Si Si7 0.609912 0.824317 0.133655
Si Si8 0.943584 0.975429 0.713718
O O1 0.807948 0.382843 0.900656
O O2 0.831089 0.751451 0.873909
O O3 0.734148 0.596528 0.890170
O O4 0.793937 0.661579 0.000000
O O5 0.783961 0.405636 0.229221
O O6 0.743745 0.115798 0.157770
O O7 0.835748 0.095956 0.187294
O O8 0.820701 0.755708 0.744895
O O9 0.908010 0.877354 0.773404
O O10 0.198486 0.041632 0.500000
O O11 0.140701 0.825093 0.584228
O O12 0.148064 0.187490 0.598484
O O13 0.847849 0.439928 0.323252
O O14 0.558452 0.342709 0.142334
O O15 0.583654 0.000731 0.091319
O O16 0.580939 0.291620 0.000000
O O17 0.577934 0.687167 0.186090
O O18 0.000000 0.000000 0.738593
#
# Coordination Sequence:
#
# PCOD9444483 Si02
#       8
#     8   8   8   8   8   8   8   8
#     4  10  23  38  57  88 122 159 196 231 286 362
#     4  11  21  32  56  86 122 154 186 232 284 349
#     4  11  22  39  58  83 117 155 192 248 299 350
#     4   9  19  34  52  81 119 156 189 225 274 341
#     4  11  20  31  54  87 116 151 189 225 281 347
#     4  10  21  38  60  83 115 156 195 241 295 352
#     4  11  20  34  57  82 113 151 195 238 288 345
#     4  11  25  42  59  83 114 150 203 262 309 349
#
# _framework density 18.762497
#
# number of rings (size 3 to 8) (size 9 to 14) (size 15 to 20)
#    0.000    1.500    3.750    1.875    3.500    1.750 
#    0.000    3.750    0.000    0.375    0.000    0.875 
#    0.000    0.000    0.000    0.000    0.000    0.000 
#
# Total GULP energy -356338.596230 kJ/mol
# GULP energy per Si atom -5567.790566 kJ/mol
# Density = 1.871979 g / cm^3
# Si number density = 18.762497 Si / 1000 Ang^3
#
#
#
# Elastic Constant Matrix: (Units=GPa)
#
#
# Indices 1 2 3 4 5 6 
#
# 1 65.7503 20.3601 14.2968 0.0000 0.0000 0.0000
# 2 20.3601 90.1525 14.0993 0.0000 0.0000 0.0000
# 3 14.2968 14.0993 56.1336 0.0000 0.0000 0.0000
# 4 0.0000 0.0000 0.0000 23.0895 0.0000 0.0000
# 5 0.0000 0.0000 0.0000 0.0000 16.2141 0.0000
# 6 0.0000 0.0000 0.0000 0.0000 0.0000 10.5350
#
#
#
# Elastic Compliance Matrix: (Units=1/GPa)
#
#
# Indices 1 2 3 4 5 6 
#
# 1 0.016989 -0.003289 -0.003501 0.000000 0.000000 0.000000
# 2 -0.003289 0.012183 -0.002222 0.000000 0.000000 0.000000
# 3 -0.003501 -0.002222 0.019264 0.000000 0.000000 0.000000
# 4 0.000000 0.000000 0.000000 0.043310 0.000000 0.000000
# 5 0.000000 0.000000 0.000000 0.000000 0.061675 0.000000
# 6 0.000000 0.000000 0.000000 0.000000 0.000000 0.094921
#
#
# Mechanical properties :
#
#
# Convention : Reuss Voigt Hill
#
# Bulk Modulus (GPa) = 32.88236 34.39432 33.63834
# Shear Modulus (GPa) = 18.08295 20.85306 19.46800
#
# Velocity S-wave (km/s) = 3.10785 3.33742 3.22468
# Velocity P-wave (km/s) = 5.51742 5.76388 5.64200
#
# Compressibility (1/GPa) = 0.03041145
#
# Stress axis : x y z
#
# Youngs Moduli (GPa) = 58.86229 82.08352 51.90918
#
# Poissons Ratio (x) = 0.26999 0.18172
# Poissons Ratio (y) = 0.19361 0.11535
# Poissons Ratio (z) = 0.20606 0.18241
#
# Static dielectric constant tensor:
#      x y z
#    x 1.666750 0.000000 0.000000 
#    y 0.000000 1.729710 0.000000 
#    z 0.000000 0.000000 1.691380 
# 
# From -- ./inp_files/30608.got.cif
#   From: 2010.05.17/outbox.cif.g08.bks.cpg/sg58_16_cif.got.tgz:30608.got - 2010.06.03 14:20:14.
