data_PCOD9444158
_publ_section_title
;
Structure prediction by ZEFSAII (Michael W. Deem and Ramdas Pophale) SiO2 
 PCOD9444158
Probable space group: P N N M
;
_chemical_formula_sum "Si O2"
_cell_formula_units_Z 56
_cell_length_a 23.952738
_cell_length_b 13.965706
_cell_length_c 7.802378
_cell_angle_alpha 90.000000
_cell_angle_beta 90.000000
_cell_angle_gamma 90.000000
_cell_volume 2610.027276
_symmetry_space_group_name_H-M "P N N M"
_symmetry_group_IT_number 58
_symmetry_cell_setting 'orthorhombic'
loop_
_space_group_symop_operation_xyz
x,y,z
-x,-y,z
1/2+x,1/2-y,1/2-z
1/2-x,1/2+y,1/2-z
-x,-y,-z
x,y,-z
1/2-x,1/2+y,1/2+z
1/2+x,1/2-y,1/2+z
loop_
_atom_site_type_symbol
_atom_site_label
_atom_site_fract_x
_atom_site_fract_y
_atom_site_fract_z
Si Si1 0.472559 0.600273 0.709130
Si Si2 0.541693 0.788852 0.800049
Si Si3 0.832427 0.498580 0.792850
Si Si4 0.067485 0.379437 0.294431
Si Si5 0.635717 0.307654 0.696669
Si Si6 0.731384 0.184278 0.297618
Si Si7 0.167305 0.710294 0.197666
O O1 0.500000 0.500000 0.758816
O O2 0.472376 0.605844 0.500000
O O3 0.509022 0.688707 0.776704
O O4 0.408497 0.616347 0.770101
O O5 0.496911 0.869043 0.740699
O O6 0.600858 0.781872 0.709855
O O7 0.553196 0.805709 0.000000
O O8 0.895756 0.528024 0.745795
O O9 0.792221 0.583826 0.728833
O O10 0.818120 0.393728 0.725438
O O11 0.829590 0.494560 0.000000
O O12 0.068817 0.363965 0.500000
O O13 0.100555 0.291916 0.205164
O O14 0.645622 0.336902 0.500000
O O15 0.694468 0.273290 0.774841
O O16 0.718854 0.182226 0.500000
O O17 0.796200 0.205837 0.278094
O O18 0.183450 0.711287 0.000000
#
# Coordination Sequence:
#
# PCOD9444158 Si02
#       7
#     8   8   8   8   8   8   8
#     4   9  17  32  55  82 113 145 184 229 269 324
#     4  10  21  36  53  78 114 148 178 223 280 328
#     4   9  20  38  58  79 107 143 181 222 277 335
#     4   9  17  30  53  81 106 134 174 217 260 318
#     4   8  15  30  52  75 103 141 176 215 269 318
#     4   9  18  36  57  75 104 143 182 225 276 329
#     4  11  23  38  56  80 110 144 186 231 274 328
#
# _framework density 21.455715000000001
#
# number of rings (size 3 to 8) (size 9 to 14) (size 15 to 20)
#    0.000    2.714    0.000    2.143    0.000    6.000 
#    2.571    2.857    0.000    0.000    0.000    0.000 
#    0.000    0.000    0.000    0.000    0.000    0.000 
#
# Total GULP energy -312148.903096 kJ/mol
# GULP energy per Si atom -5574.087555 kJ/mol
# Density = 2.140688 g / cm^3
# Si number density = 21.455715 Si / 1000 Ang^3
#
#
#
# Elastic Constant Matrix: (Units=GPa)
#
#
# Indices 1 2 3 4 5 6 
#
# 1 95.2420 14.6609 -0.5000 0.0000 0.0000 0.0000
# 2 14.6609 50.2605 -3.7695 0.0000 0.0000 0.0000
# 3 -0.5000 -3.7695 35.7461 0.0000 0.0000 0.0000
# 4 0.0000 0.0000 0.0000 4.4698 0.0000 0.0000
# 5 0.0000 0.0000 0.0000 0.0000 1.7064 0.0000
# 6 0.0000 0.0000 0.0000 0.0000 0.0000 30.0254
#
#
#
# Elastic Compliance Matrix: (Units=1/GPa)
#
#
# Indices 1 2 3 4 5 6 
#
# 1 0.010994 -0.003221 -0.000186 0.000000 0.000000 0.000000
# 2 -0.003221 0.020999 0.002169 0.000000 0.000000 0.000000
# 3 -0.000186 0.002169 0.028201 0.000000 0.000000 0.000000
# 4 0.000000 0.000000 0.000000 0.223722 0.000000 0.000000
# 5 0.000000 0.000000 0.000000 0.000000 0.586040 0.000000
# 6 0.000000 0.000000 0.000000 0.000000 0.000000 0.033305
#
#
# Mechanical properties :
#
#
# Convention : Reuss Voigt Hill
#
# Bulk Modulus (GPa) = 17.32527 22.44790 19.88659
# Shear Modulus (GPa) = 5.40554 18.63081 12.01817
#
# Velocity S-wave (km/s) = 1.58898 2.94995 2.36929
# Velocity P-wave (km/s) = 3.38510 4.69980 4.09555
#
# Compressibility (1/GPa) = 0.05771915
#
# Stress axis : x y z
#
# Youngs Moduli (GPa) = 90.95528 47.62221 35.45947
#
# Poissons Ratio (x) = 0.15339 0.00659
# Poissons Ratio (y) = 0.29297 -0.07692
# Poissons Ratio (z) = 0.01691 -0.10331
#
# Static dielectric constant tensor:
#      x y z
#    x 1.807530 0.000000 0.000000 
#    y 0.000000 1.782180 0.000000 
#    z 0.000000 0.000000 1.763090 
# 
# From -- ./inp_files/9058.got.cif
#   From: 2010.05.17/outbox.cif.g08.bks.cpg/sg58_5_cif.got.tgz:9058.got - 2010.06.03 14:20:14.
