data_PCOD9444216
_publ_section_title
;
Structure prediction by ZEFSAII (Michael W. Deem and Ramdas Pophale) SiO2 
 PCOD9444216
Probable space group: P N N M
;
_chemical_formula_sum "Si O2"
_cell_formula_units_Z 64
_cell_length_a 18.987937
_cell_length_b 20.462281
_cell_length_c 7.703966
_cell_angle_alpha 90.000000
_cell_angle_beta 90.000000
_cell_angle_gamma 90.000000
_cell_volume 2993.272005
_symmetry_space_group_name_H-M "P N N M"
_symmetry_group_IT_number 58
_symmetry_cell_setting 'orthorhombic'
loop_
_space_group_symop_operation_xyz
x,y,z
-x,-y,z
1/2+x,1/2-y,1/2-z
1/2-x,1/2+y,1/2-z
-x,-y,-z
x,y,-z
1/2-x,1/2+y,1/2+z
1/2+x,1/2-y,1/2+z
loop_
_atom_site_type_symbol
_atom_site_label
_atom_site_fract_x
_atom_site_fract_y
_atom_site_fract_z
Si Si1 0.446845 0.554705 0.199525
Si Si2 0.319847 0.740565 0.295523
Si Si3 0.043933 0.830419 0.799583
Si Si4 0.796612 0.153849 0.789393
Si Si5 0.552730 0.057036 0.787511
Si Si6 0.795600 0.904158 0.200422
Si Si7 0.711752 0.025837 0.787343
Si Si8 0.030790 0.297554 0.700772
O O1 0.500000 0.500000 0.271303
O O2 0.488109 0.623202 0.205604
O O3 0.372705 0.562968 0.293311
O O4 0.431248 0.537069 0.000000
O O5 0.337182 0.733725 0.500000
O O6 0.253717 0.788133 0.273476
O O7 0.303223 0.668343 0.223038
O O8 0.388602 0.772664 0.211135
O O9 0.122938 0.838671 0.731023
O O10 0.017839 0.756173 0.789792
O O11 0.043327 0.851746 0.000000
O O12 0.762828 0.084999 0.734775
O O13 0.796170 0.156089 0.000000
O O14 0.632424 0.041628 0.733035
O O15 0.529506 0.128943 0.728179
O O16 0.500000 0.000000 0.733762
O O17 0.553164 0.058970 0.000000
O O18 0.741104 0.956378 0.275925
O O19 0.774632 0.894190 0.000000
O O20 0.712726 0.024523 0.000000
O O21 0.009099 0.299506 0.500000
#
# Coordination Sequence:
#
# PCOD9444216 Si02
#       8
#     8   8   8   8   8   8   8   8
#     4  11  23  37  55  82 118 155 192 242 299 355
#     4  11  22  36  58  88 119 154 199 245 292 354
#     4  11  23  38  59  87 118 155 202 247 296 359
#     4  10  21  38  60  84 113 156 198 241 295 355
#     4   9  18  33  59  91 117 149 198 250 294 347
#     4  10  21  36  58  84 113 154 196 243 292 348
#     4   9  17  34  57  82 113 150 197 241 289 347
#     4  11  21  37  62  87 119 158 196 246 304 354
#
# _framework density 21.381284999999998
#
# number of rings (size 3 to 8) (size 9 to 14) (size 15 to 20)
#    0.000    1.750    2.500    2.250    0.000    4.500 
#    0.000    3.125    0.000    1.500    0.000    0.000 
#    0.000    0.000    0.000    0.000    0.000    0.000 
#
# Total GULP energy -357723.317751 kJ/mol
# GULP energy per Si atom -5589.426840 kJ/mol
# Density = 2.133262 g / cm^3
# Si number density = 21.381285 Si / 1000 Ang^3
#
#
#
# Elastic Constant Matrix: (Units=GPa)
#
#
# Indices 1 2 3 4 5 6 
#
# 1 92.9482 37.6900 -8.4904 0.0000 0.0000 0.0000
# 2 37.6900 155.0580 -4.4416 0.0000 0.0000 0.0000
# 3 -8.4904 -4.4416 40.2062 0.0000 0.0000 0.0000
# 4 0.0000 0.0000 0.0000 -64.5791 0.0000 0.0000
# 5 0.0000 0.0000 0.0000 0.0000 3.6632 0.0000
# 6 0.0000 0.0000 0.0000 0.0000 0.0000 41.9385
#
#
#
# Elastic Compliance Matrix: (Units=1/GPa)
#
#
# Indices 1 2 3 4 5 6 
#
# 1 0.012133 -0.002885 0.002244 0.000000 0.000000 0.000000
# 2 -0.002885 0.007156 0.000181 0.000000 0.000000 0.000000
# 3 0.002244 0.000181 0.025366 0.000000 0.000000 0.000000
# 4 0.000000 0.000000 0.000000 -0.015485 0.000000 0.000000
# 5 0.000000 0.000000 0.000000 0.000000 0.272988 0.000000
# 6 0.000000 0.000000 0.000000 0.000000 0.000000 0.023844
#
#
# Mechanical properties :
#
#
# Convention : Reuss Voigt Hill
#
# Bulk Modulus (GPa) = 22.86538 37.52536 30.19537
# Shear Modulus (GPa) = 14.64126 13.76814 14.20470
#
# Velocity S-wave (km/s) = 2.61965 2.54034 2.58030
# Velocity P-wave (km/s) = 4.45729 5.11792 4.79898
#
# Compressibility (1/GPa) = 0.04373424
#
# Stress axis : x y z
#
# Youngs Moduli (GPa) = 82.41659 139.74960 39.42350
#
# Poissons Ratio (x) = 0.40318 -0.08845
# Poissons Ratio (y) = 0.23777 -0.00715
# Poissons Ratio (z) = -0.18490 -0.02533
#
# Static dielectric constant tensor:
#      x y z
#    x 1.720070 0.000000 0.000000 
#    y 0.000000 1.765840 0.000000 
#    z 0.000000 0.000000 1.816970 
# 
# From -- ./inp_files/9251.got.cif
#   From: 2010.05.17/outbox.cif.g08.bks.cpg/sg58_5_cif.got.tgz:9251.got - 2010.06.03 14:20:14.
