data_PCOD9444853
_publ_section_title
;
Structure prediction by ZEFSAII (Michael W. Deem and Ramdas Pophale) SiO2 
 PCOD9444853
Probable space group: P N N M
;
_chemical_formula_sum "Si O2"
_cell_formula_units_Z 48
_cell_length_a 17.419536
_cell_length_b 9.277216
_cell_length_c 13.665015
_cell_angle_alpha 90.000000
_cell_angle_beta 90.000000
_cell_angle_gamma 90.000000
_cell_volume 2208.331990
_symmetry_space_group_name_H-M "P N N M"
_symmetry_group_IT_number 58
_symmetry_cell_setting 'orthorhombic'
loop_
_space_group_symop_operation_xyz
x,y,z
-x,-y,z
1/2+x,1/2-y,1/2-z
1/2-x,1/2+y,1/2-z
-x,-y,-z
x,y,-z
1/2-x,1/2+y,1/2+z
1/2+x,1/2-y,1/2+z
loop_
_atom_site_type_symbol
_atom_site_label
_atom_site_fract_x
_atom_site_fract_y
_atom_site_fract_z
Si Si1 0.584392 0.067537 0.610802
Si Si2 0.415747 0.575833 0.112637
Si Si3 0.835830 0.342566 0.250501
Si Si4 0.440068 0.612091 0.388688
Si Si5 0.192579 0.978020 0.206796
Si Si6 0.480378 0.166121 0.886662
O O1 0.614290 0.083560 0.500000
O O2 0.573862 0.228741 0.653250
O O3 0.500000 0.000000 0.607727
O O4 0.635186 0.954125 0.668707
O O5 0.500000 0.500000 0.120143
O O6 0.354345 0.527338 0.194136
O O7 0.442723 0.740700 0.126493
O O8 0.388823 0.553603 0.000000
O O9 0.800305 0.193762 0.211361
O O10 0.770578 0.434053 0.304023
O O11 0.909401 0.299243 0.316043
O O12 0.500000 0.500000 0.341450
O O13 0.466883 0.637835 0.500000
O O14 0.361619 0.526123 0.381559
O O15 0.500000 0.000000 0.870358
O O16 0.456653 0.187738 0.000000
#
# Coordination Sequence:
#
# PCOD9444853 Si02
#       6
#     8   8   8   8   8   8
#     4  10  22  41  65  92 123 164 210 258 311 370
#     4  10  21  42  69  94 121 163 216 264 314 378
#     4  12  26  41  62  94 132 172 211 264 322 383
#     4  10  22  41  66  93 123 163 211 260 312 374
#     4  12  26  40  62  94 129 170 211 260 327 381
#     4  10  23  42  68  97 126 165 213 265 318 378
#
# _framework density 21.735861
#
# number of rings (size 3 to 8) (size 9 to 14) (size 15 to 20)
#    0.000    1.333    1.667    3.000    7.000    3.333 
#    0.000    0.000    0.000    0.000    0.000    0.000 
#    0.000    0.000    0.000    0.000    0.000    0.000 
#
# Total GULP energy -268091.059948 kJ/mol
# GULP energy per Si atom -5585.230416 kJ/mol
# Density = 2.168639 g / cm^3
# Si number density = 21.735861 Si / 1000 Ang^3
#
#
#
# Elastic Constant Matrix: (Units=GPa)
#
#
# Indices 1 2 3 4 5 6 
#
# 1 51.2106 8.9679 -7.5944 0.0000 0.0000 0.0000
# 2 8.9679 165.9296 -3.8457 0.0000 0.0000 0.0000
# 3 -7.5944 -3.8457 70.2817 0.0000 0.0000 0.0000
# 4 0.0000 0.0000 0.0000 39.3503 0.0000 0.0000
# 5 0.0000 0.0000 0.0000 0.0000 5.9831 0.0000
# 6 0.0000 0.0000 0.0000 0.0000 0.0000 35.7281
#
#
#
# Elastic Compliance Matrix: (Units=1/GPa)
#
#
# Indices 1 2 3 4 5 6 
#
# 1 0.020021 -0.001033 0.002107 0.000000 0.000000 0.000000
# 2 -0.001033 0.006088 0.000221 0.000000 0.000000 0.000000
# 3 0.002107 0.000221 0.014468 0.000000 0.000000 0.000000
# 4 0.000000 0.000000 0.000000 0.025413 0.000000 0.000000
# 5 0.000000 0.000000 0.000000 0.000000 0.167137 0.000000
# 6 0.000000 0.000000 0.000000 0.000000 0.000000 0.027989
#
#
# Mechanical properties :
#
#
# Convention : Reuss Voigt Hill
#
# Bulk Modulus (GPa) = 23.16609 31.38640 27.27624
# Shear Modulus (GPa) = 18.32076 35.53858 26.92967
#
# Velocity S-wave (km/s) = 2.90639 4.04793 3.52369
# Velocity P-wave (km/s) = 4.68444 6.02651 5.39735
#
# Compressibility (1/GPa) = 0.04316655
#
# Stress axis : x y z
#
# Youngs Moduli (GPa) = 49.94865 164.26769 69.11695
#
# Poissons Ratio (x) = 0.16972 -0.14562
# Poissons Ratio (y) = 0.05161 -0.01531
# Poissons Ratio (z) = -0.10523 -0.03638
#
# Static dielectric constant tensor:
#      x y z
#    x 1.811850 0.000000 0.000000 
#    y 0.000000 1.867970 0.000000 
#    z 0.000000 0.000000 1.870340 
# 
# From -- ./inp_files/19838.got.cif
#   From: 2010.05.17/outbox.cif.g08.bks.cpg/sg58_10_cif.got.tgz:19838.got - 2010.06.03 14:20:14.
