data_PCOD9444816
_publ_section_title
;
Structure prediction by ZEFSAII (Michael W. Deem and Ramdas Pophale) SiO2 
 PCOD9444816
Probable space group: P N N M
;
_chemical_formula_sum "Si O2"
_cell_formula_units_Z 56
_cell_length_a 9.226848
_cell_length_b 16.846855
_cell_length_c 14.749429
_cell_angle_alpha 90.000000
_cell_angle_beta 90.000000
_cell_angle_gamma 90.000000
_cell_volume 2292.700955
_symmetry_space_group_name_H-M "P N N M"
_symmetry_group_IT_number 58
_symmetry_cell_setting 'orthorhombic'
loop_
_space_group_symop_operation_xyz
x,y,z
-x,-y,z
1/2+x,1/2-y,1/2-z
1/2-x,1/2+y,1/2-z
-x,-y,-z
x,y,-z
1/2-x,1/2+y,1/2+z
1/2+x,1/2-y,1/2+z
loop_
_atom_site_type_symbol
_atom_site_label
_atom_site_fract_x
_atom_site_fract_y
_atom_site_fract_z
Si Si1 0.113907 0.933676 0.604712
Si Si2 0.372163 0.434258 0.605284
Si Si3 0.418226 0.721654 0.099307
Si Si4 0.328423 0.158579 0.902686
Si Si5 0.023072 0.236607 0.895993
Si Si6 0.171645 0.488734 0.230240
Si Si7 0.824017 0.349577 0.797305
O O1 0.144332 0.952790 0.500000
O O2 0.027264 0.851401 0.607123
O O3 0.257961 0.923478 0.663353
O O4 0.000000 0.000000 0.642296
O O5 0.500000 0.500000 0.610678
O O6 0.322708 0.430689 0.500000
O O7 0.444496 0.348122 0.626041
O O8 0.249688 0.461579 0.675800
O O9 0.517084 0.798860 0.100053
O O10 0.301962 0.711348 0.177458
O O11 0.346034 0.717255 0.000000
O O12 0.319612 0.118642 0.805769
O O13 0.194303 0.219598 0.897389
O O14 0.311716 0.116200 0.000000
O O15 0.966024 0.304008 0.828766
O O16 0.984491 0.257477 0.000000
O O17 0.208753 0.564819 0.162349
O O18 0.000000 0.500000 0.240787
#
# Coordination Sequence:
#
# PCOD9444816 Si02
#       7
#     8   8   8   8   8   8   8
#     4  10  21  41  67  91 123 169 220 271 328 398
#     4  10  23  46  74  98 130 181 235 287 343 413
#     4  10  22  41  65  92 124 168 220 272 328 402
#     4  10  23  40  62  95 127 164 211 266 332 399
#     4  10  23  42  67  97 131 169 217 279 343 404
#     4  12  28  41  62  98 138 178 226 282 338 414
#     4  12  24  40  64  96 131 177 217 276 339 404
#
# _framework density 24.425339999999998
#
# number of rings (size 3 to 8) (size 9 to 14) (size 15 to 20)
#    0.000    1.429    1.429    2.571    6.000    4.000 
#    0.000    1.429    0.000    0.000    0.000    0.000 
#    0.000    0.000    0.000    0.000    0.000    0.000 
#
# Total GULP energy -312518.582107 kJ/mol
# GULP energy per Si atom -5580.688966 kJ/mol
# Density = 2.436975 g / cm^3
# Si number density = 24.425340 Si / 1000 Ang^3
#
#
#
# Elastic Constant Matrix: (Units=GPa)
#
#
# Indices 1 2 3 4 5 6 
#
# 1 128.2637 -2.6403 35.6087 0.0000 0.0000 0.0000
# 2 -2.6403 31.3705 6.3630 0.0000 0.0000 0.0000
# 3 35.6087 6.3630 86.9732 0.0000 0.0000 0.0000
# 4 0.0000 0.0000 0.0000 6.4169 0.0000 0.0000
# 5 0.0000 0.0000 0.0000 0.0000 82.5430 0.0000
# 6 0.0000 0.0000 0.0000 0.0000 0.0000 30.8359
#
#
#
# Elastic Compliance Matrix: (Units=1/GPa)
#
#
# Indices 1 2 3 4 5 6 
#
# 1 0.008866 0.001505 -0.003740 0.000000 0.000000 0.000000
# 2 0.001505 0.032613 -0.003002 0.000000 0.000000 0.000000
# 3 -0.003740 -0.003002 0.013249 0.000000 0.000000 0.000000
# 4 0.000000 0.000000 0.000000 0.155839 0.000000 0.000000
# 5 0.000000 0.000000 0.000000 0.000000 0.012115 0.000000
# 6 0.000000 0.000000 0.000000 0.000000 0.000000 0.032430
#
#
# Mechanical properties :
#
#
# Convention : Reuss Voigt Hill
#
# Bulk Modulus (GPa) = 22.59758 36.14115 29.36937
# Shear Modulus (GPa) = 17.83576 37.77756 27.80666
#
# Velocity S-wave (km/s) = 2.70518 3.93702 3.37773
# Velocity P-wave (km/s) = 4.36224 5.95781 5.22133
#
# Compressibility (1/GPa) = 0.04425253
#
# Stress axis : x y z
#
# Youngs Moduli (GPa) = 112.79444 30.66300 75.47958
#
# Poissons Ratio (x) = -0.04614 0.28229
# Poissons Ratio (y) = -0.16973 0.22659
# Poissons Ratio (z) = 0.42184 0.09205
#
# Static dielectric constant tensor:
#      x y z
#    x 1.971360 0.000000 0.000000 
#    y 0.000000 2.082810 0.000000 
#    z 0.000000 0.000000 2.055200 
# 
# From -- ./inp_files/20141.got.cif
#   From: 2010.05.17/outbox.cif.g08.bks.cpg/sg58_11_cif.got.tgz:20141.got - 2010.06.03 14:20:14.
