data_PCOD9444912
_publ_section_title
;
Structure prediction by ZEFSAII (Michael W. Deem and Ramdas Pophale) SiO2 
 PCOD9444912
Probable space group: P N N M
;
_chemical_formula_sum "Si O2"
_cell_formula_units_Z 58
_cell_length_a 16.517870
_cell_length_b 11.258724
_cell_length_c 16.508244
_cell_angle_alpha 90.000000
_cell_angle_beta 90.000000
_cell_angle_gamma 90.000000
_cell_volume 3070.040438
_symmetry_space_group_name_H-M "P N N M"
_symmetry_group_IT_number 58
_symmetry_cell_setting 'orthorhombic'
loop_
_space_group_symop_operation_xyz
x,y,z
-x,-y,z
1/2+x,1/2-y,1/2-z
1/2-x,1/2+y,1/2-z
-x,-y,-z
x,y,-z
1/2-x,1/2+y,1/2+z
1/2+x,1/2-y,1/2+z
loop_
_atom_site_type_symbol
_atom_site_label
_atom_site_fract_x
_atom_site_fract_y
_atom_site_fract_z
Si Si1 0.658091 0.496275 0.694580
Si Si2 0.730508 0.880450 0.680517
Si Si3 0.286547 0.848062 0.905532
Si Si4 0.951546 0.614318 0.313329
Si Si5 0.000000 0.500000 0.000000
Si Si6 0.923827 0.229999 0.769695
Si Si7 0.552774 0.320127 0.405858
Si Si8 0.622341 0.076429 0.365286
O O1 0.700177 0.400448 0.752827
O O2 0.727736 0.562603 0.643309
O O3 0.613190 0.600157 0.744193
O O4 0.594272 0.432775 0.635565
O O5 0.756824 0.784851 0.614474
O O6 0.649347 0.823295 0.719939
O O7 0.706577 0.009023 0.645735
O O8 0.376495 0.858447 0.870236
O O9 0.282693 0.873642 0.000000
O O10 0.916739 0.582337 0.224068
O O11 0.000000 0.500000 0.343542
O O12 0.013286 0.722069 0.296414
O O13 0.069450 0.497813 0.928642
O O14 0.974358 0.218552 0.853998
O O15 0.532614 0.336517 0.500000
O O16 0.616045 0.210561 0.398086
#
# Coordination Sequence:
#
# PCOD9444912 Si02
#       8
#     8   8   8   8   2   8   8   8
#     4  11  23  41  62  88 125 168 204 257 318 382
#     4  11  22  40  62  86 126 163 207 256 313 375
#     4  11  25  40  61  93 125 166 215 261 315 380
#     4  11  19  41  63  89 122 158 215 261 310 372
#     4  12  20  32  60 100 120 144 208 258 318 372
#     4  10  22  36  63  90 114 162 206 254 308 376
#     4  11  23  36  57  91 129 159 199 253 316 383
#     4  11  20  35  59  90 122 158 198 252 310 379
#
# _framework density 18.892258999999999
#
# number of rings (size 3 to 8) (size 9 to 14) (size 15 to 20)
#    0.000    1.103    4.138    3.310    2.897    3.586 
#    0.000    0.000    0.000    1.655    0.000    0.000 
#    0.000    0.000    0.000    0.000    0.000    0.000 
#
# Total GULP energy -323421.287513 kJ/mol
# GULP energy per Si atom -5576.229095 kJ/mol
# Density = 1.884926 g / cm^3
# Si number density = 18.892259 Si / 1000 Ang^3
#
#
#
# Elastic Constant Matrix: (Units=GPa)
#
#
# Indices 1 2 3 4 5 6 
#
# 1 63.8076 22.5948 4.3942 0.0000 0.0000 0.0000
# 2 22.5948 50.7978 -12.1112 0.0000 0.0000 0.0000
# 3 4.3942 -12.1112 34.9288 0.0000 0.0000 0.0000
# 4 0.0000 0.0000 0.0000 13.6795 0.0000 0.0000
# 5 0.0000 0.0000 0.0000 0.0000 -5.8710 0.0000
# 6 0.0000 0.0000 0.0000 0.0000 0.0000 42.2270
#
#
#
# Elastic Compliance Matrix: (Units=1/GPa)
#
#
# Indices 1 2 3 4 5 6 
#
# 1 0.019696 -0.010194 -0.006013 0.000000 0.000000 0.000000
# 2 -0.010194 0.026736 0.010553 0.000000 0.000000 0.000000
# 3 -0.006013 0.010553 0.033045 0.000000 0.000000 0.000000
# 4 0.000000 0.000000 0.000000 0.073102 0.000000 0.000000
# 5 0.000000 0.000000 0.000000 0.000000 -0.170329 0.000000
# 6 0.000000 0.000000 0.000000 0.000000 0.000000 0.023682
#
#
# Mechanical properties :
#
#
# Convention : Reuss Voigt Hill
#
# Bulk Modulus (GPa) = 14.66922 19.92109 17.29516
# Shear Modulus (GPa) = 125.11524 18.98419 72.04971
#
# Velocity S-wave (km/s) = 8.14674 3.17340 6.18223
# Velocity P-wave (km/s) = 9.81194 4.89845 7.75464
#
# Compressibility (1/GPa) = 0.06816995
#
# Stress axis : x y z
#
# Youngs Moduli (GPa) = 50.77154 37.40218 30.26151
#
# Poissons Ratio (x) = 0.38129 0.18195
# Poissons Ratio (y) = 0.51758 -0.31935
# Poissons Ratio (z) = 0.30527 -0.39471
#
# Static dielectric constant tensor:
#      x y z
#    x 1.671010 0.000000 0.000000 
#    y 0.000000 1.703930 0.000000 
#    z 0.000000 0.000000 1.616710 
# 
# From -- ./inp_files/26970.got.cif
#   From: 2010.05.17/outbox.cif.g08.bks.cpg/sg58_14_cif.got.tgz:26970.got - 2010.06.03 14:20:14.
