data_PCOD9444537
_publ_section_title
;
Structure prediction by ZEFSAII (Michael W. Deem and Ramdas Pophale) SiO2 
 PCOD9444537
Probable space group: P N N M
;
_chemical_formula_sum "Si O2"
_cell_formula_units_Z 64
_cell_length_a 14.290827
_cell_length_b 18.899072
_cell_length_c 11.927805
_cell_angle_alpha 90.000000
_cell_angle_beta 90.000000
_cell_angle_gamma 90.000000
_cell_volume 3221.501752
_symmetry_space_group_name_H-M "P N N M"
_symmetry_group_IT_number 58
_symmetry_cell_setting 'orthorhombic'
loop_
_space_group_symop_operation_xyz
x,y,z
-x,-y,z
1/2+x,1/2-y,1/2-z
1/2-x,1/2+y,1/2-z
-x,-y,-z
x,y,-z
1/2-x,1/2+y,1/2+z
1/2+x,1/2-y,1/2+z
loop_
_atom_site_type_symbol
_atom_site_label
_atom_site_fract_x
_atom_site_fract_y
_atom_site_fract_z
Si Si1 0.450016 0.924199 0.873059
Si Si2 0.051750 0.358587 0.875089
Si Si3 0.245810 0.982196 0.830408
Si Si4 0.396289 0.261844 0.132893
Si Si5 0.755968 0.849687 0.133117
Si Si6 0.455834 0.431846 0.624582
Si Si7 0.229627 0.894174 0.374622
Si Si8 0.950802 0.792172 0.790368
O O1 0.474964 0.890504 0.749230
O O2 0.500000 0.000000 0.873528
O O3 0.339250 0.941829 0.868287
O O4 0.470698 0.892204 0.000000
O O5 0.164020 0.366971 0.876744
O O6 0.032230 0.275168 0.869224
O O7 0.018596 0.385958 0.000000
O O8 0.251510 0.065802 0.852174
O O9 0.153470 0.947315 0.882136
O O10 0.230966 0.963823 0.700142
O O11 0.338142 0.191943 0.167402
O O12 0.334738 0.330200 0.169573
O O13 0.502300 0.266949 0.174821
O O14 0.395150 0.262889 0.000000
O O15 0.843752 0.816973 0.200187
O O16 0.772365 0.836300 0.000000
O O17 0.500000 0.500000 0.685120
O O18 0.498300 0.429425 0.500000
O O19 0.488095 0.359524 0.676800
O O20 0.198606 0.910394 0.500000
#
# Coordination Sequence:
#
# PCOD9444537 Si02
#       8
#     8   8   8   8   8   8   8   8
#     4  10  23  41  63  92 124 161 211 268 321 375
#     4  10  21  38  62  87 121 166 210 255 310 373
#     4  11  21  37  61  92 123 158 201 258 322 374
#     4  10  22  39  61  88 121 167 213 255 310 379
#     4  11  22  39  65  90 120 162 212 260 311 385
#     4  11  21  33  54  88 122 151 190 248 312 369
#     4   9  18  38  61  83 116 164 211 246 299 380
#     4  12  22  36  62  93 124 156 209 262 308 371
#
# _framework density 19.866510000000002
#
# number of rings (size 3 to 8) (size 9 to 14) (size 15 to 20)
#    0.000    1.500    3.750    2.250    1.750    0.750 
#    0.000    0.625    0.000    4.500    0.000    0.000 
#    0.000    0.000    0.000    0.000    0.000    0.000 
#
# Total GULP energy -356375.813771 kJ/mol
# GULP energy per Si atom -5568.372090 kJ/mol
# Density = 1.982129 g / cm^3
# Si number density = 19.866510 Si / 1000 Ang^3
#
#
#
# Elastic Constant Matrix: (Units=GPa)
#
#
# Indices 1 2 3 4 5 6 
#
# 1 66.1351 23.3555 24.2857 0.0000 0.0000 0.0000
# 2 23.3555 85.7343 51.0162 0.0000 0.0000 0.0000
# 3 24.2857 51.0162 107.7474 0.0000 0.0000 0.0000
# 4 0.0000 0.0000 0.0000 15.7538 0.0000 0.0000
# 5 0.0000 0.0000 0.0000 0.0000 15.6818 0.0000
# 6 0.0000 0.0000 0.0000 0.0000 0.0000 23.9108
#
#
#
# Elastic Compliance Matrix: (Units=1/GPa)
#
#
# Indices 1 2 3 4 5 6 
#
# 1 0.017130 -0.003298 -0.002299 0.000000 0.000000 0.000000
# 2 -0.003298 0.016874 -0.007246 0.000000 0.000000 0.000000
# 3 -0.002299 -0.007246 0.013230 0.000000 0.000000 0.000000
# 4 0.000000 0.000000 0.000000 0.063477 0.000000 0.000000
# 5 0.000000 0.000000 0.000000 0.000000 0.063768 0.000000
# 6 0.000000 0.000000 0.000000 0.000000 0.000000 0.041822
#
#
# Mechanical properties :
#
#
# Convention : Reuss Voigt Hill
#
# Bulk Modulus (GPa) = 46.41100 50.77019 48.59059
# Shear Modulus (GPa) = 20.06654 21.79990 20.93322
#
# Velocity S-wave (km/s) = 3.18161 3.31617 3.24959
# Velocity P-wave (km/s) = 6.07527 6.34617 6.21220
#
# Compressibility (1/GPa) = 0.02154662
#
# Stress axis : x y z
#
# Youngs Moduli (GPa) = 58.37826 59.26161 75.58483
#
# Poissons Ratio (x) = 0.19546 0.17379
# Poissons Ratio (y) = 0.19255 0.54771
# Poissons Ratio (z) = 0.13423 0.42942
#
# Static dielectric constant tensor:
#      x y z
#    x 1.739380 0.000000 0.000000 
#    y 0.000000 1.752660 0.000000 
#    z 0.000000 0.000000 1.773650 
# 
# From -- ./inp_files/15924.got.cif
#   From: 2010.05.17/outbox.cif.g08.bks.cpg/sg58_8_cif.got.tgz:15924.got - 2010.06.03 14:20:14.
