data_PCOD9444091
_publ_section_title
;
Structure prediction by ZEFSAII (Michael W. Deem and Ramdas Pophale) SiO2 
 PCOD9444091
Probable space group: P N N M
;
_chemical_formula_sum "Si O2"
_cell_formula_units_Z 48
_cell_length_a 31.507074
_cell_length_b 9.438930
_cell_length_c 9.110767
_cell_angle_alpha 90.000000
_cell_angle_beta 90.000000
_cell_angle_gamma 90.000000
_cell_volume 2709.478932
_symmetry_space_group_name_H-M "P N N M"
_symmetry_group_IT_number 58
_symmetry_cell_setting 'orthorhombic'
loop_
_space_group_symop_operation_xyz
x,y,z
-x,-y,z
1/2+x,1/2-y,1/2-z
1/2-x,1/2+y,1/2-z
-x,-y,-z
x,y,-z
1/2-x,1/2+y,1/2+z
1/2+x,1/2-y,1/2+z
loop_
_atom_site_type_symbol
_atom_site_label
_atom_site_fract_x
_atom_site_fract_y
_atom_site_fract_z
Si Si1 0.134501 0.584328 0.174418
Si Si2 0.289560 0.603427 0.323476
Si Si3 0.959261 0.092465 0.675319
Si Si4 0.208409 0.409587 0.324395
Si Si5 0.628779 0.583103 0.323935
Si Si6 0.961910 0.393419 0.174219
O O1 0.167002 0.489049 0.263302
O O2 0.138660 0.751811 0.211663
O O3 0.085227 0.545791 0.202134
O O4 0.142727 0.569068 0.000000
O O5 0.289768 0.623406 0.500000
O O6 0.249170 0.506069 0.285935
O O7 0.287594 0.754664 0.245862
O O8 0.332275 0.517879 0.283604
O O9 0.955291 0.090753 0.500000
O O10 0.915148 0.042110 0.746861
O O11 0.966189 0.251017 0.733591
O O12 0.000000 0.000000 0.718001
O O13 0.206598 0.397529 0.500000
O O14 0.623006 0.577503 0.500000
O O15 0.000000 0.500000 0.205907
O O16 0.963075 0.358165 0.000000
#
# Coordination Sequence:
#
# PCOD9444091 Si02
#       6
#     8   8   8   8   8   8
#     4   9  18  35  57  80 108 139 175 222 267 309
#     4  10  22  39  57  79 108 141 177 219 264 310
#     4  10  21  35  52  79 113 143 173 217 272 320
#     4  11  23  37  56  82 109 140 177 215 263 321
#     4   9  19  37  59  79 102 139 184 222 259 310
#     4   9  19  36  57  79 104 141 186 223 259 311
#
# _framework density 17.715584
#
# number of rings (size 3 to 8) (size 9 to 14) (size 15 to 20)
#    0.000    2.333    0.000    3.000    0.000    9.000 
#    0.000    5.000    0.000    0.000    0.000    0.000 
#    0.000    0.000    0.000    0.000    0.000    0.000 
#
# Total GULP energy -267938.065122 kJ/mol
# GULP energy per Si atom -5582.043023 kJ/mol
# Density = 1.767526 g / cm^3
# Si number density = 17.715584 Si / 1000 Ang^3
#
#
#
# Elastic Constant Matrix: (Units=GPa)
#
#
# Indices 1 2 3 4 5 6 
#
# 1 172.3813 109.3950 67.2670 0.0000 0.0000 0.0000
# 2 109.3950 118.7579 55.6868 0.0000 0.0000 0.0000
# 3 67.2670 55.6868 37.7080 0.0000 0.0000 0.0000
# 4 0.0000 0.0000 0.0000 31.0883 0.0000 0.0000
# 5 0.0000 0.0000 0.0000 0.0000 35.0404 0.0000
# 6 0.0000 0.0000 0.0000 0.0000 0.0000 36.2218
#
#
#
# Elastic Compliance Matrix: (Units=1/GPa)
#
#
# Indices 1 2 3 4 5 6 
#
# 1 0.020155 -0.005550 -0.027759 0.000000 0.000000 0.000000
# 2 -0.005550 0.028910 -0.032794 0.000000 0.000000 0.000000
# 3 -0.027759 -0.032794 0.124468 0.000000 0.000000 0.000000
# 4 0.000000 0.000000 0.000000 0.032166 0.000000 0.000000
# 5 0.000000 0.000000 0.000000 0.000000 0.028539 0.000000
# 6 0.000000 0.000000 0.000000 0.000000 0.000000 0.027608
#
#
# Mechanical properties :
#
#
# Convention : Reuss Voigt Hill
#
# Bulk Modulus (GPa) = 24.19651 88.17164 56.18407
# Shear Modulus (GPa) = 12.26009 26.90331 19.58170
#
# Velocity S-wave (km/s) = 2.63354 3.90118 3.32827
# Velocity P-wave (km/s) = 4.78909 8.37681 6.82299
#
# Compressibility (1/GPa) = 0.04132828
#
# Stress axis : x y z
#
# Youngs Moduli (GPa) = 49.61538 34.58993 8.03418
#
# Poissons Ratio (x) = 0.19196 0.22302
# Poissons Ratio (y) = 0.27535 0.26347
# Poissons Ratio (z) = 1.37726 1.13435
#
# Static dielectric constant tensor:
#      x y z
#    x 1.599090 0.000000 0.000000 
#    y 0.000000 1.573500 0.000000 
#    z 0.000000 0.000000 1.589280 
# 
# From -- ./inp_files/2907.got.cif
#   From: 2010.05.17/outbox.cif.g08.bks.cpg/sg58_2_cif.got.tgz:2907.got - 2010.06.03 14:20:14.
