data_PCOD9444338
_publ_section_title
;
Structure prediction by ZEFSAII (Michael W. Deem and Ramdas Pophale) SiO2 
 PCOD9444338
Probable space group: P N N M
;
_chemical_formula_sum "Si O2"
_cell_formula_units_Z 64
_cell_length_a 14.341292
_cell_length_b 22.256667
_cell_length_c 8.864616
_cell_angle_alpha 90.000000
_cell_angle_beta 90.000000
_cell_angle_gamma 90.000000
_cell_volume 2829.491111
_symmetry_space_group_name_H-M "P N N M"
_symmetry_group_IT_number 58
_symmetry_cell_setting 'orthorhombic'
loop_
_space_group_symop_operation_xyz
x,y,z
-x,-y,z
1/2+x,1/2-y,1/2-z
1/2-x,1/2+y,1/2-z
-x,-y,-z
x,y,-z
1/2-x,1/2+y,1/2+z
1/2+x,1/2-y,1/2+z
loop_
_atom_site_type_symbol
_atom_site_label
_atom_site_fract_x
_atom_site_fract_y
_atom_site_fract_z
Si Si1 0.856150 0.968983 0.821372
Si Si2 0.152417 0.526560 0.819061
Si Si3 0.685108 0.283185 0.318923
Si Si4 0.521141 0.217625 0.821492
Si Si5 0.883547 0.602321 0.177434
Si Si6 0.149119 0.658874 0.180187
Si Si7 0.305735 0.332888 0.174066
Si Si8 0.534945 0.596151 0.323443
O O1 0.758275 0.972342 0.738719
O O2 0.931640 0.919854 0.764164
O O3 0.907617 0.033528 0.809520
O O4 0.840346 0.957917 0.000000
O O5 0.102075 0.465612 0.767937
O O6 0.111926 0.591987 0.781844
O O7 0.152979 0.522168 0.000000
O O8 0.680937 0.287037 0.500000
O O9 0.583178 0.269751 0.254156
O O10 0.747492 0.335419 0.248783
O O11 0.747008 0.224641 0.272511
O O12 0.571154 0.155024 0.774011
O O13 0.418696 0.207842 0.754041
O O14 0.518695 0.224950 0.000000
O O15 0.771975 0.614355 0.181650
O O16 0.912182 0.609725 0.000000
O O17 0.151517 0.665832 0.000000
O O18 0.399794 0.353375 0.252785
O O19 0.327934 0.321644 0.000000
O O20 0.524212 0.609366 0.500000
#
# Coordination Sequence:
#
# PCOD9444338 Si02
#       8
#     8   8   8   8   8   8   8   8
#     4   9  18  31  47  74 114 155 193 238 291 352
#     4  10  21  37  58  84 119 160 202 248 304 368
#     4  10  22  43  66  89 119 156 200 253 308 364
#     4  11  23  41  67  96 124 159 204 256 309 367
#     4   9  18  35  58  87 122 158 197 243 300 360
#     4  11  24  43  65  91 123 162 205 254 312 373
#     4   9  17  31  55  82 109 144 191 242 290 347
#     4   9  17  29  47  75 112 151 191 237 290 349
#
# _framework density 22.61891
#
# number of rings (size 3 to 8) (size 9 to 14) (size 15 to 20)
#    0.000    2.250    1.250    3.375    0.000    5.000 
#    2.250    3.750    0.000    0.000    0.000    0.000 
#    0.000    0.000    0.000    0.000    0.000    0.000 
#
# Total GULP energy -357675.932382 kJ/mol
# GULP energy per Si atom -5588.686443 kJ/mol
# Density = 2.256743 g / cm^3
# Si number density = 22.618910 Si / 1000 Ang^3
#
#
#
# Elastic Constant Matrix: (Units=GPa)
#
#
# Indices 1 2 3 4 5 6 
#
# 1 102.3765 15.2144 21.7954 0.0000 0.0000 0.0000
# 2 15.2144 75.2819 17.3552 0.0000 0.0000 0.0000
# 3 21.7954 17.3552 38.3833 0.0000 0.0000 0.0000
# 4 0.0000 0.0000 0.0000 27.1555 0.0000 0.0000
# 5 0.0000 0.0000 0.0000 0.0000 -14.0075 0.0000
# 6 0.0000 0.0000 0.0000 0.0000 0.0000 42.1267
#
#
#
# Elastic Compliance Matrix: (Units=1/GPa)
#
#
# Indices 1 2 3 4 5 6 
#
# 1 0.011164 -0.000887 -0.005938 0.000000 0.000000 0.000000
# 2 -0.000887 0.014900 -0.006233 0.000000 0.000000 0.000000
# 3 -0.005938 -0.006233 0.032243 0.000000 0.000000 0.000000
# 4 0.000000 0.000000 0.000000 0.036825 0.000000 0.000000
# 5 0.000000 0.000000 0.000000 0.000000 -0.071391 0.000000
# 6 0.000000 0.000000 0.000000 0.000000 0.000000 0.023738
#
#
# Mechanical properties :
#
#
# Convention : Reuss Voigt Hill
#
# Bulk Modulus (GPa) = 31.06574 36.08575 33.57574
# Shear Modulus (GPa) = 59.29362 21.83339 40.56350
#
# Velocity S-wave (km/s) = 5.12553 3.11025 4.23938
# Velocity P-wave (km/s) = 6.98515 5.37463 6.23213
#
# Compressibility (1/GPa) = 0.03218980
#
# Stress axis : x y z
#
# Youngs Moduli (GPa) = 89.57430 67.11554 31.01429
#
# Poissons Ratio (x) = 0.05955 0.18417
# Poissons Ratio (y) = 0.07948 0.19332
# Poissons Ratio (z) = 0.53190 0.41834
#
# Static dielectric constant tensor:
#      x y z
#    x 1.864130 0.000000 0.000000 
#    y 0.000000 1.947360 0.000000 
#    z 0.000000 0.000000 1.752300 
# 
# From -- ./inp_files/6896.got.cif
#   From: 2010.05.17/outbox.cif.g08.bks.cpg/sg58_4_cif.got.tgz:6896.got - 2010.06.03 14:20:14.
