data_PCOD9444825
_publ_section_title
;
Structure prediction by ZEFSAII (Michael W. Deem and Ramdas Pophale) SiO2 
 PCOD9444825
Probable space group: P N N M
;
_chemical_formula_sum "Si O2"
_cell_formula_units_Z 64
_cell_length_a 8.731004
_cell_length_b 11.947748
_cell_length_c 31.148728
_cell_angle_alpha 90.000000
_cell_angle_beta 90.000000
_cell_angle_gamma 90.000000
_cell_volume 3249.305589
_symmetry_space_group_name_H-M "P N N M"
_symmetry_group_IT_number 58
_symmetry_cell_setting 'orthorhombic'
loop_
_space_group_symop_operation_xyz
x,y,z
-x,-y,z
1/2+x,1/2-y,1/2-z
1/2-x,1/2+y,1/2-z
-x,-y,-z
x,y,-z
1/2-x,1/2+y,1/2+z
1/2+x,1/2-y,1/2+z
loop_
_atom_site_type_symbol
_atom_site_label
_atom_site_fract_x
_atom_site_fract_y
_atom_site_fract_z
Si Si1 0.673391 0.787062 0.599792
Si Si2 0.864743 0.076259 0.791114
Si Si3 0.753403 0.534256 0.198538
Si Si4 0.842063 0.570304 0.373972
Si Si5 0.170487 0.972755 0.603415
Si Si6 0.625360 0.199444 0.451683
Si Si7 0.041086 0.686162 0.810416
Si Si8 0.175330 0.041166 0.046710
O O1 0.811210 0.698261 0.608282
O O2 0.553842 0.782183 0.560698
O O3 0.559312 0.774307 0.640488
O O4 0.739031 0.911143 0.599703
O O5 0.826986 0.031034 0.744155
O O6 0.729056 0.071685 0.826043
O O7 0.917250 0.203971 0.784316
O O8 0.000000 0.000000 0.809839
O O9 0.661381 0.553952 0.154496
O O10 0.840741 0.415839 0.194546
O O11 0.878169 0.633540 0.199841
O O12 0.747734 0.505599 0.410323
O O13 0.000000 0.500000 0.372036
O O14 0.273495 0.879482 0.579432
O O15 0.000000 0.000000 0.586739
O O16 0.634935 0.153336 0.500000
O O17 0.688968 0.325301 0.451478
O O18 0.240813 0.003795 0.000000
O O19 0.000000 0.000000 0.046780
#
# Coordination Sequence:
#
# PCOD9444825 Si02
#       8
#     8   8   8   8   8   8   8   8
#     4  10  21  43  64  91 125 168 218 255 321 390
#     4  11  25  40  62  98 127 167 217 265 316 384
#     4  10  21  42  64  87 126 170 212 260 325 380
#     4  11  25  41  64  97 133 168 210 271 327 383
#     4  11  24  41  65  95 127 170 213 269 327 383
#     4  11  23  41  69  97 124 169 219 266 319 388
#     4   9  21  40  63  87 121 167 210 263 312 386
#     4  10  21  41  68  95 125 165 211 258 323 399
#
# _framework density 19.696517
#
# number of rings (size 3 to 8) (size 9 to 14) (size 15 to 20)
#    0.000    1.625    2.500    1.125    7.000    1.500 
#    2.250    0.000    0.000    0.000    0.000    0.000 
#    0.000    0.000    0.000    0.000    0.000    0.000 
#
# Total GULP energy -356559.743238 kJ/mol
# GULP energy per Si atom -5571.245988 kJ/mol
# Density = 1.965169 g / cm^3
# Si number density = 19.696517 Si / 1000 Ang^3
#
#
#
# Elastic Constant Matrix: (Units=GPa)
#
#
# Indices 1 2 3 4 5 6 
#
# 1 57.6660 31.5095 20.6556 0.0000 0.0000 0.0000
# 2 31.5095 88.5234 32.2883 0.0000 0.0000 0.0000
# 3 20.6556 32.2883 100.2377 0.0000 0.0000 0.0000
# 4 0.0000 0.0000 0.0000 20.1585 0.0000 0.0000
# 5 0.0000 0.0000 0.0000 0.0000 20.4731 0.0000
# 6 0.0000 0.0000 0.0000 0.0000 0.0000 27.8255
#
#
#
# Elastic Compliance Matrix: (Units=1/GPa)
#
#
# Indices 1 2 3 4 5 6 
#
# 1 0.021977 -0.006992 -0.002276 0.000000 0.000000 0.000000
# 2 -0.006992 0.015025 -0.003399 0.000000 0.000000 0.000000
# 3 -0.002276 -0.003399 0.011540 0.000000 0.000000 0.000000
# 4 0.000000 0.000000 0.000000 0.049607 0.000000 0.000000
# 5 0.000000 0.000000 0.000000 0.000000 0.048845 0.000000
# 6 0.000000 0.000000 0.000000 0.000000 0.000000 0.035938
#
#
# Mechanical properties :
#
#
# Convention : Reuss Voigt Hill
#
# Bulk Modulus (GPa) = 43.09017 46.14821 44.61919
# Shear Modulus (GPa) = 23.14774 24.48966 23.81870
#
# Velocity S-wave (km/s) = 3.43187 3.52994 3.48125
# Velocity P-wave (km/s) = 6.13418 6.33202 6.23388
#
# Compressibility (1/GPa) = 0.02320715
#
# Stress axis : x y z
#
# Youngs Moduli (GPa) = 45.50133 66.55526 86.65336
#
# Poissons Ratio (x) = 0.46538 0.19726
# Poissons Ratio (y) = 0.31816 0.29453
# Poissons Ratio (z) = 0.10358 0.22622
#
# Static dielectric constant tensor:
#      x y z
#    x 1.721320 0.000000 0.000000 
#    y 0.000000 1.734970 0.000000 
#    z 0.000000 0.000000 1.708270 
# 
# From -- ./inp_files/34778.got.cif
#   From: 2010.05.17/outbox.cif.g08.bks.cpg/sg58_18_cif.got.tgz:34778.got - 2010.06.03 14:20:14.
