data_PCOD9444157
_publ_section_title
;
Structure prediction by ZEFSAII (Michael W. Deem and Ramdas Pophale) SiO2 
 PCOD9444157
Probable space group: P N N M
;
_chemical_formula_sum "Si O2"
_cell_formula_units_Z 52
_cell_length_a 18.139777
_cell_length_b 7.860266
_cell_length_c 14.447263
_cell_angle_alpha 90.000000
_cell_angle_beta 90.000000
_cell_angle_gamma 90.000000
_cell_volume 2059.940925
_symmetry_space_group_name_H-M "P N N M"
_symmetry_group_IT_number 58
_symmetry_cell_setting 'orthorhombic'
loop_
_space_group_symop_operation_xyz
x,y,z
-x,-y,z
1/2+x,1/2-y,1/2-z
1/2-x,1/2+y,1/2-z
-x,-y,-z
x,y,-z
1/2-x,1/2+y,1/2+z
1/2+x,1/2-y,1/2+z
loop_
_atom_site_type_symbol
_atom_site_label
_atom_site_fract_x
_atom_site_fract_y
_atom_site_fract_z
Si Si1 0.401261 0.558287 0.872565
Si Si2 0.758837 0.544162 0.141737
Si Si3 0.950405 0.250000 0.500000
Si Si4 0.741163 0.455838 0.641737
Si Si5 0.918298 0.553661 0.149570
Si Si6 0.098739 0.441713 0.372565
Si Si7 0.081702 0.053661 0.149570
O O1 0.314698 0.538731 0.897153
O O2 0.423709 0.750000 0.901132
O O3 0.413181 0.541937 0.761893
O O4 0.438634 0.400435 0.921050
O O5 0.750000 0.500000 0.250000
O O6 0.754500 0.750000 0.128923
O O7 0.840321 0.479472 0.113853
O O8 0.938634 0.400435 0.421050
O O9 0.814698 0.538731 0.602847
O O10 0.659679 0.520528 0.613853
O O11 0.913182 0.541937 0.261893
O O12 0.913392 0.750000 0.124788
O O13 0.000000 0.500000 0.120562
O O14 0.000000 0.000000 0.120562
#
# Coordination Sequence:
#
# PCOD9444157 Si02
#       7
#     8   8   4   8   8   8   8
#     4  10  21  36  53  78 105 137 182 218 256 310
#     4   9  16  30  50  78 103 133 167 215 268 313
#     4  12  22  36  58  70 104 144 184 218 258 294
#     4   9  16  30  50  78 103 133 167 215 268 313
#     4   9  19  31  52  78 110 137 170 212 265 319
#     4  10  21  36  53  78 105 137 182 218 256 310
#     4   9  19  31  52  78 110 137 170 212 265 319
#
# _framework density 25.243441000000001
#
# number of rings (size 3 to 8) (size 9 to 14) (size 15 to 20)
#    0.000    2.462    1.538    3.231    2.154    2.462 
#    0.000    0.769    0.000    0.000    0.000    1.077 
#    0.000    0.000    0.000    0.000    0.000    0.000 
#
# Total GULP energy -289539.362734 kJ/mol
# GULP energy per Si atom -5568.064668 kJ/mol
# Density = 2.518599 g / cm^3
# Si number density = 25.243441 Si / 1000 Ang^3
#
#
#
# Elastic Constant Matrix: (Units=GPa)
#
#
# Indices 1 2 3 4 5 6 
#
# 1 272.9059 76.1873 -7.0954 0.0000 0.0000 0.0000
# 2 76.1873 187.1911 16.9035 0.0000 0.0000 0.0000
# 3 -7.0954 16.9035 71.5327 0.0000 0.0000 0.0000
# 4 0.0000 0.0000 0.0000 38.5215 0.0000 0.0000
# 5 0.0000 0.0000 0.0000 0.0000 -80.2345 0.0000
# 6 0.0000 0.0000 0.0000 0.0000 0.0000 52.1349
#
#
#
# Elastic Compliance Matrix: (Units=1/GPa)
#
#
# Indices 1 2 3 4 5 6 
#
# 1 0.004182 -0.001778 0.000835 0.000000 0.000000 0.000000
# 2 -0.001778 0.006214 -0.001645 0.000000 0.000000 0.000000
# 3 0.000835 -0.001645 0.014451 0.000000 0.000000 0.000000
# 4 0.000000 0.000000 0.000000 0.025960 0.000000 0.000000
# 5 0.000000 0.000000 0.000000 0.000000 -0.012463 0.000000
# 6 0.000000 0.000000 0.000000 0.000000 0.000000 0.019181
#
#
# Mechanical properties :
#
#
# Convention : Reuss Voigt Hill
#
# Bulk Modulus (GPa) = 50.83214 78.18006 64.50610
# Shear Modulus (GPa) = 72.19496 31.79332 51.99414
#
# Velocity S-wave (km/s) = 5.35365 3.55275 4.54333
# Velocity P-wave (km/s) = 7.64172 6.91860 7.28913
#
# Compressibility (1/GPa) = 0.01967259
#
# Stress axis : x y z
#
# Youngs Moduli (GPa) = 239.10766 160.92360 69.19889
#
# Poissons Ratio (x) = 0.28605 -0.05777
# Poissons Ratio (y) = 0.42503 0.11381
# Poissons Ratio (z) = -0.19963 0.26468
#
# Static dielectric constant tensor:
#      x y z
#    x 2.139780 0.000000 0.000000 
#    y 0.000000 1.891020 0.000000 
#    z 0.000000 0.000000 1.966010 
# 
# From -- ./inp_files/30247.got.cif
#   From: 2010.05.17/outbox.cif.g08.bks.cpg/sg58_16_cif.got.tgz:30247.got - 2010.06.03 14:20:14.
