data_PCOD9444614
_publ_section_title
;
Structure prediction by ZEFSAII (Michael W. Deem and Ramdas Pophale) SiO2 
 PCOD9444614
Probable space group: P N N M
;
_chemical_formula_sum "Si O2"
_cell_formula_units_Z 64
_cell_length_a 9.677862
_cell_length_b 19.447833
_cell_length_c 18.086534
_cell_angle_alpha 90.000000
_cell_angle_beta 90.000000
_cell_angle_gamma 90.000000
_cell_volume 3404.128854
_symmetry_space_group_name_H-M "P N N M"
_symmetry_group_IT_number 58
_symmetry_cell_setting 'orthorhombic'
loop_
_space_group_symop_operation_xyz
x,y,z
-x,-y,z
1/2+x,1/2-y,1/2-z
1/2-x,1/2+y,1/2-z
-x,-y,-z
x,y,-z
1/2-x,1/2+y,1/2+z
1/2+x,1/2-y,1/2+z
loop_
_atom_site_type_symbol
_atom_site_label
_atom_site_fract_x
_atom_site_fract_y
_atom_site_fract_z
Si Si1 0.650495 0.294862 0.081462
Si Si2 0.257402 0.401435 0.232266
Si Si3 0.961093 0.365887 0.262878
Si Si4 0.431478 0.175419 0.081464
Si Si5 0.885696 0.848685 0.912359
Si Si6 0.498609 0.424539 0.862367
Si Si7 0.681427 0.447177 0.281257
Si Si8 0.883111 0.229233 0.817172
O O1 0.518396 0.244820 0.084355
O O2 0.589808 0.369705 0.095762
O O3 0.763658 0.269243 0.138862
O O4 0.712754 0.289780 0.000000
O O5 0.341818 0.404175 0.155718
O O6 0.288836 0.471691 0.277329
O O7 0.313071 0.334563 0.275161
O O8 0.093606 0.395689 0.222131
O O9 0.987188 0.369236 0.350943
O O10 0.819099 0.407245 0.254296
O O11 0.943872 0.286276 0.238857
O O12 0.267332 0.185428 0.091946
O O13 0.450907 0.144093 0.000000
O O14 0.866420 0.916502 0.860282
O O15 0.000132 0.801596 0.871979
O O16 0.915244 0.860686 0.000000
O O17 0.500000 0.500000 0.896446
O O18 0.567401 0.430297 0.780558
#
# Coordination Sequence:
#
# PCOD9444614 Si02
#       8
#     8   8   8   8   8   8   8   8
#     4  11  22  39  59  87 119 152 195 247 301 350
#     4  11  23  36  60  89 118 150 201 240 290 345
#     4  11  22  36  62  85 117 157 200 240 297 346
#     4   9  20  35  55  83 117 149 191 242 286 342
#     4  10  22  39  58  84 120 159 194 240 297 354
#     4  10  21  39  61  85 115 150 194 246 288 348
#     4  10  21  41  59  84 118 153 196 245 288 352
#     4  12  23  35  60  90 118 154 198 247 295 355
#
# _framework density 18.800698000000001
#
# number of rings (size 3 to 8) (size 9 to 14) (size 15 to 20)
#    0.000    1.500    3.750    1.500    5.250    0.250 
#    0.000    2.500    0.000    3.000    0.000    1.750 
#    0.000    0.000    0.000    0.000    0.000    0.000 
#
# Total GULP energy -356987.727281 kJ/mol
# GULP energy per Si atom -5577.933239 kJ/mol
# Density = 1.875791 g / cm^3
# Si number density = 18.800698 Si / 1000 Ang^3
#
#
#
# Elastic Constant Matrix: (Units=GPa)
#
#
# Indices 1 2 3 4 5 6 
#
# 1 65.3989 18.3048 0.5579 0.0000 0.0000 0.0000
# 2 18.3048 71.1543 9.7450 0.0000 0.0000 0.0000
# 3 0.5579 9.7450 33.6508 0.0000 0.0000 0.0000
# 4 0.0000 0.0000 0.0000 13.8108 0.0000 0.0000
# 5 0.0000 0.0000 0.0000 0.0000 20.3011 0.0000
# 6 0.0000 0.0000 0.0000 0.0000 0.0000 24.2352
#
#
#
# Elastic Compliance Matrix: (Units=1/GPa)
#
#
# Indices 1 2 3 4 5 6 
#
# 1 0.016509 -0.004383 0.000996 0.000000 0.000000 0.000000
# 2 -0.004383 0.015798 -0.004502 0.000000 0.000000 0.000000
# 3 0.000996 -0.004502 0.031004 0.000000 0.000000 0.000000
# 4 0.000000 0.000000 0.000000 0.072407 0.000000 0.000000
# 5 0.000000 0.000000 0.000000 0.000000 0.049258 0.000000
# 6 0.000000 0.000000 0.000000 0.000000 0.000000 0.041262
#
#
# Mechanical properties :
#
#
# Convention : Reuss Voigt Hill
#
# Bulk Modulus (GPa) = 21.03864 25.26881 23.15373
# Shear Modulus (GPa) = 19.39008 21.10917 20.24962
#
# Velocity S-wave (km/s) = 3.21495 3.35444 3.28543
# Velocity P-wave (km/s) = 4.99958 5.33596 5.17051
#
# Compressibility (1/GPa) = 0.04753158
#
# Stress axis : x y z
#
# Youngs Moduli (GPa) = 60.57230 63.29809 32.25353
#
# Poissons Ratio (x) = 0.27746 -0.03212
# Poissons Ratio (y) = 0.26552 0.14522
# Poissons Ratio (z) = -0.06031 0.28499
#
# Static dielectric constant tensor:
#      x y z
#    x 1.664690 0.000000 0.000000 
#    y 0.000000 1.646250 0.000000 
#    z 0.000000 0.000000 1.661350 
# 
# From -- ./inp_files/25653.got.cif
#   From: 2010.05.17/outbox.cif.g08.bks.cpg/sg58_13_cif.got.tgz:25653.got - 2010.06.03 14:20:14.
