data_PCOD9444996
_publ_section_title
;
Structure prediction by ZEFSAII (Michael W. Deem and Ramdas Pophale) SiO2 
 PCOD9444996
Probable space group: P N N M
;
_chemical_formula_sum "Si O2"
_cell_formula_units_Z 48
_cell_length_a 7.679573
_cell_length_b 19.461742
_cell_length_c 14.215477
_cell_angle_alpha 90.000000
_cell_angle_beta 90.000000
_cell_angle_gamma 90.000000
_cell_volume 2124.614891
_symmetry_space_group_name_H-M "P N N M"
_symmetry_group_IT_number 58
_symmetry_cell_setting 'orthorhombic'
loop_
_space_group_symop_operation_xyz
x,y,z
-x,-y,z
1/2+x,1/2-y,1/2-z
1/2-x,1/2+y,1/2-z
-x,-y,-z
x,y,-z
1/2-x,1/2+y,1/2+z
1/2+x,1/2-y,1/2+z
loop_
_atom_site_type_symbol
_atom_site_label
_atom_site_fract_x
_atom_site_fract_y
_atom_site_fract_z
Si Si1 0.740276 0.301426 0.111203
Si Si2 0.312658 0.360890 0.731827
Si Si3 0.343219 0.612975 0.612732
Si Si4 0.190109 0.468503 0.394755
Si Si5 0.581573 0.780347 0.798251
Si Si6 0.465389 0.420462 0.900292
O O1 0.596400 0.245334 0.149927
O O2 0.899489 0.301984 0.186603
O O3 0.636373 0.373770 0.118457
O O4 0.780857 0.289181 0.000000
O O5 0.486277 0.360269 0.667016
O O6 0.178359 0.399187 0.665066
O O7 0.309497 0.290646 0.789843
O O8 0.336470 0.414155 0.815132
O O9 0.359883 0.615664 0.500000
O O10 0.307292 0.533011 0.639256
O O11 0.186839 0.662676 0.644493
O O12 0.251956 0.450816 0.500000
O O13 0.000000 0.500000 0.400523
O O14 0.500000 0.500000 0.908335
O O15 0.394720 0.393935 0.000000
#
# Coordination Sequence:
#
# PCOD9444996 Si02
#       6
#     8   8   8   8   8   8
#     4  10  22  39  60  88 124 160 203 259 309 371
#     4  11  22  37  61  86 122 155 203 249 301 378
#     4  11  22  39  62  86 119 160 206 256 310 375
#     4  10  23  39  60  91 121 155 195 252 322 374
#     4  11  22  40  57  89 121 164 208 252 308 367
#     4   9  17  33  58  83 107 144 195 245 295 350
#
# _framework density 22.592328999999999
#
# number of rings (size 3 to 8) (size 9 to 14) (size 15 to 20)
#    0.000    1.667    3.333    2.500    2.333    3.333 
#    0.000    0.000    0.000    0.500    0.000    0.000 
#    0.000    0.000    0.000    0.000    0.000    0.000 
#
# Total GULP energy -267428.253885 kJ/mol
# GULP energy per Si atom -5571.421956 kJ/mol
# Density = 2.254091 g / cm^3
# Si number density = 22.592329 Si / 1000 Ang^3
#
#
#
# Elastic Constant Matrix: (Units=GPa)
#
#
# Indices 1 2 3 4 5 6 
#
# 1 59.2210 -7.3317 6.4314 0.0000 0.0000 0.0000
# 2 -7.3317 83.9805 11.6880 0.0000 0.0000 0.0000
# 3 6.4314 11.6880 110.4573 0.0000 0.0000 0.0000
# 4 0.0000 0.0000 0.0000 25.4548 0.0000 0.0000
# 5 0.0000 0.0000 0.0000 0.0000 332.1636 0.0000
# 6 0.0000 0.0000 0.0000 0.0000 0.0000 12.2096
#
#
#
# Elastic Compliance Matrix: (Units=1/GPa)
#
#
# Indices 1 2 3 4 5 6 
#
# 1 0.017220 0.001667 -0.001179 0.000000 0.000000 0.000000
# 2 0.001667 0.012247 -0.001393 0.000000 0.000000 0.000000
# 3 -0.001179 -0.001393 0.009269 0.000000 0.000000 0.000000
# 4 0.000000 0.000000 0.000000 0.039285 0.000000 0.000000
# 5 0.000000 0.000000 0.000000 0.000000 0.003011 0.000000
# 6 0.000000 0.000000 0.000000 0.000000 0.000000 0.081903
#
#
# Mechanical properties :
#
#
# Convention : Reuss Voigt Hill
#
# Bulk Modulus (GPa) = 27.08014 30.58159 28.83086
# Shear Modulus (GPa) = 28.24001 90.15701 59.19851
#
# Velocity S-wave (km/s) = 3.53934 6.32397 5.12443
# Velocity P-wave (km/s) = 5.35864 8.17858 6.91391
#
# Compressibility (1/GPa) = 0.03692743
#
# Stress axis : x y z
#
# Youngs Moduli (GPa) = 58.07070 81.65284 107.88274
#
# Poissons Ratio (x) = -0.13615 0.12720
# Poissons Ratio (y) = -0.09683 0.15028
# Poissons Ratio (z) = 0.06847 0.11374
#
# Static dielectric constant tensor:
#      x y z
#    x 1.975480 0.000000 0.000000 
#    y 0.000000 1.910380 0.000000 
#    z 0.000000 0.000000 1.872660 
# 
# From -- ./inp_files/19858.got.cif
#   From: 2010.05.17/outbox.cif.g08.bks.cpg/sg58_10_cif.got.tgz:19858.got - 2010.06.03 14:20:14.
