data_PCOD9444085
_publ_section_title
;
Structure prediction by ZEFSAII (Michael W. Deem and Ramdas Pophale) SiO2 
 PCOD9444085
Probable space group: P N N M
;
_chemical_formula_sum "Si O2"
_cell_formula_units_Z 48
_cell_length_a 9.754234
_cell_length_b 28.936626
_cell_length_c 7.259457
_cell_angle_alpha 90.000000
_cell_angle_beta 90.000000
_cell_angle_gamma 90.000000
_cell_volume 2049.015285
_symmetry_space_group_name_H-M "P N N M"
_symmetry_group_IT_number 58
_symmetry_cell_setting 'orthorhombic'
loop_
_space_group_symop_operation_xyz
x,y,z
-x,-y,z
1/2+x,1/2-y,1/2-z
1/2-x,1/2+y,1/2-z
-x,-y,-z
x,y,-z
1/2-x,1/2+y,1/2+z
1/2+x,1/2-y,1/2+z
loop_
_atom_site_type_symbol
_atom_site_label
_atom_site_fract_x
_atom_site_fract_y
_atom_site_fract_z
Si Si1 0.015541 0.641359 0.276113
Si Si2 0.182870 0.275351 0.722845
Si Si3 0.404301 0.957521 0.776123
Si Si4 0.480090 0.307184 0.288938
Si Si5 0.815661 0.880945 0.774881
Si Si6 0.349631 0.513473 0.275757
O O1 0.015854 0.641725 0.500000
O O2 0.915660 0.682429 0.219851
O O3 0.955808 0.592096 0.214804
O O4 0.174165 0.643864 0.218368
O O5 0.184388 0.272458 0.500000
O O6 0.339123 0.285114 0.786774
O O7 0.103989 0.229633 0.786713
O O8 0.500000 0.000000 0.720317
O O9 0.254746 0.973701 0.718615
O O10 0.408494 0.955875 0.000000
O O11 0.444319 0.318541 0.500000
O O12 0.549561 0.353521 0.210586
O O13 0.810954 0.934563 0.719064
O O14 0.818165 0.880343 0.000000
O O15 0.500000 0.500000 0.216630
O O16 0.346422 0.514312 0.500000
#
# Coordination Sequence:
#
# PCOD9444085 Si02
#       6
#     8   8   8   8   8   8
#     4   9  16  26  42  62  89 124 159 196 239 286
#     4  10  21  35  52  74  98 129 166 205 249 295
#     4   9  14  22  35  55  84 120 157 187 225 283
#     4  10  21  35  52  73  99 129 165 206 248 295
#     4   9  16  27  41  61  90 125 159 195 241 286
#     4   9  16  22  33  55  86 122 155 189 232 282
#
# _framework density 23.425886999999999
#
# number of rings (size 3 to 8) (size 9 to 14) (size 15 to 20)
#    0.000    2.667    1.667    1.000    2.333    2.000 
#    0.000    0.000    0.000    0.000    0.000    0.000 
#    0.000    2.667    0.000    0.167    0.000    0.000 
#
# Total GULP energy -268175.250062 kJ/mol
# GULP energy per Si atom -5586.984376 kJ/mol
# Density = 2.337257 g / cm^3
# Si number density = 23.425887 Si / 1000 Ang^3
#
#
#
# Elastic Constant Matrix: (Units=GPa)
#
#
# Indices 1 2 3 4 5 6 
#
# 1 129.5134 0.3957 -6.1261 0.0000 0.0000 0.0000
# 2 0.3957 62.9911 -10.6547 0.0000 0.0000 0.0000
# 3 -6.1261 -10.6547 104.8259 0.0000 0.0000 0.0000
# 4 0.0000 0.0000 0.0000 -10.2535 0.0000 0.0000
# 5 0.0000 0.0000 0.0000 0.0000 -7.6106 0.0000
# 6 0.0000 0.0000 0.0000 0.0000 0.0000 45.2749
#
#
#
# Elastic Compliance Matrix: (Units=1/GPa)
#
#
# Indices 1 2 3 4 5 6 
#
# 1 0.007743 0.000028 0.000455 0.000000 0.000000 0.000000
# 2 0.000028 0.016153 0.001643 0.000000 0.000000 0.000000
# 3 0.000455 0.001643 0.009733 0.000000 0.000000 0.000000
# 4 0.000000 0.000000 0.000000 -0.097528 0.000000 0.000000
# 5 0.000000 0.000000 0.000000 0.000000 -0.131396 0.000000
# 6 0.000000 0.000000 0.000000 0.000000 0.000000 0.022087
#
#
# Mechanical properties :
#
#
# Convention : Reuss Voigt Hill
#
# Bulk Modulus (GPa) = 26.39671 29.39558 27.89614
# Shear Modulus (GPa) = -30.33357 26.39652 -1.96852
#
# Velocity S-wave (km/s) = -3.60234 3.36044 -0.91768
# Velocity P-wave (km/s) = 2.45149 5.25665 3.28805
#
# Compressibility (1/GPa) = 0.03788351
#
# Stress axis : x y z
#
# Youngs Moduli (GPa) = 129.15453 61.90771 102.74018
#
# Poissons Ratio (x) = -0.00176 -0.04678
# Poissons Ratio (y) = -0.00367 -0.16885
# Poissons Ratio (z) = -0.05881 -0.10174
#
# Static dielectric constant tensor:
#      x y z
#    x 1.878300 0.000000 0.000000 
#    y 0.000000 1.829930 0.000000 
#    z 0.000000 0.000000 2.095850 
# 
# From -- ./inp_files/2980.got.cif
#   From: 2010.05.17/outbox.cif.g08.bks.cpg/sg58_2_cif.got.tgz:2980.got - 2010.06.03 14:20:14.
