data_PCOD9444165
_publ_section_title
;
Structure prediction by ZEFSAII (Michael W. Deem and Ramdas Pophale) SiO2 
 PCOD9444165
Probable space group: P N N M
;
_chemical_formula_sum "Si O2"
_cell_formula_units_Z 64
_cell_length_a 20.091081
_cell_length_b 8.969017
_cell_length_c 16.784923
_cell_angle_alpha 90.000000
_cell_angle_beta 90.000000
_cell_angle_gamma 90.000000
_cell_volume 3024.596916
_symmetry_space_group_name_H-M "P N N M"
_symmetry_group_IT_number 58
_symmetry_cell_setting 'orthorhombic'
loop_
_space_group_symop_operation_xyz
x,y,z
-x,-y,z
1/2+x,1/2-y,1/2-z
1/2-x,1/2+y,1/2-z
-x,-y,-z
x,y,-z
1/2-x,1/2+y,1/2+z
1/2+x,1/2-y,1/2+z
loop_
_atom_site_type_symbol
_atom_site_label
_atom_site_fract_x
_atom_site_fract_y
_atom_site_fract_z
Si Si1 0.324323 0.993342 0.407012
Si Si2 0.716292 0.996794 0.913873
Si Si3 0.743976 0.764422 0.321517
Si Si4 0.929795 0.424908 0.624699
Si Si5 0.058472 0.617144 0.810048
Si Si6 0.612682 0.591493 0.733872
Si Si7 0.427756 0.422901 0.911803
Si Si8 0.321812 0.687070 0.675320
O O1 0.310311 0.006481 0.500000
O O2 0.336587 0.823328 0.382075
O O3 0.268016 0.068047 0.351228
O O4 0.388180 0.088042 0.379034
O O5 0.742951 0.161189 0.897368
O O6 0.637111 0.995199 0.909088
O O7 0.752311 0.890930 0.850352
O O8 0.737713 0.941060 0.000000
O O9 0.679362 0.692028 0.278393
O O10 0.806220 0.751207 0.262961
O O11 0.920323 0.430142 0.720421
O O12 0.933562 0.255751 0.594418
O O13 0.000000 0.500000 0.605367
O O14 0.053821 0.796941 0.795994
O O15 0.000000 0.500000 0.828118
O O16 0.605879 0.543297 0.826265
O O17 0.624160 0.443512 0.681965
O O18 0.500000 0.500000 0.910070
O O19 0.397674 0.458784 0.000000
#
# Coordination Sequence:
#
# PCOD9444165 Si02
#       8
#     8   8   8   8   8   8   8   8
#     4  11  22  37  60  91 121 146 189 251 303 345
#     4  11  22  37  58  83 114 150 192 240 293 349
#     4  10  21  39  59  83 114 155 196 237 292 358
#     4  10  21  38  59  83 113 155 202 241 286 352
#     4   9  19  38  61  83 111 154 200 241 290 353
#     4   9  20  37  58  80 111 156 201 240 289 358
#     4  10  21  36  54  81 119 157 197 248 299 345
#     4  11  21  37  59  83 115 153 192 237 293 355
#
# _framework density 21.159844
#
# number of rings (size 3 to 8) (size 9 to 14) (size 15 to 20)
#    0.000    1.875    0.000    5.625    0.000    5.250 
#    0.000    6.250    0.000    0.750    0.000    0.000 
#    0.000    0.000    0.000    0.000    0.000    0.000 
#
# Total GULP energy -356846.503054 kJ/mol
# GULP energy per Si atom -5575.726610 kJ/mol
# Density = 2.111168 g / cm^3
# Si number density = 21.159844 Si / 1000 Ang^3
#
#
#
# Elastic Constant Matrix: (Units=GPa)
#
#
# Indices 1 2 3 4 5 6 
#
# 1 47.4186 12.2699 22.4051 0.0000 0.0000 0.0000
# 2 12.2699 71.5779 21.5425 0.0000 0.0000 0.0000
# 3 22.4051 21.5425 89.6694 0.0000 0.0000 0.0000
# 4 0.0000 0.0000 0.0000 25.9301 0.0000 0.0000
# 5 0.0000 0.0000 0.0000 0.0000 46.3006 0.0000
# 6 0.0000 0.0000 0.0000 0.0000 0.0000 25.1182
#
#
#
# Elastic Compliance Matrix: (Units=1/GPa)
#
#
# Indices 1 2 3 4 5 6 
#
# 1 0.024327 -0.002523 -0.005472 0.000000 0.000000 0.000000
# 2 -0.002523 0.015321 -0.003050 0.000000 0.000000 0.000000
# 3 -0.005472 -0.003050 0.013252 0.000000 0.000000 0.000000
# 4 0.000000 0.000000 0.000000 0.038565 0.000000 0.000000
# 5 0.000000 0.000000 0.000000 0.000000 0.021598 0.000000
# 6 0.000000 0.000000 0.000000 0.000000 0.000000 0.039812
#
#
# Mechanical properties :
#
#
# Convention : Reuss Voigt Hill
#
# Bulk Modulus (GPa) = 32.45797 35.67789 34.06793
# Shear Modulus (GPa) = 26.99234 29.63298 28.31266
#
# Velocity S-wave (km/s) = 3.57549 3.74630 3.66189
# Velocity P-wave (km/s) = 5.69370 5.96747 5.83219
#
# Compressibility (1/GPa) = 0.03080907
#
# Stress axis : x y z
#
# Youngs Moduli (GPa) = 41.10604 65.26818 75.45883
#
# Poissons Ratio (x) = 0.16469 0.41294
# Poissons Ratio (y) = 0.10372 0.23018
# Poissons Ratio (z) = 0.22495 0.19909
#
# Static dielectric constant tensor:
#      x y z
#    x 1.806330 0.000000 0.000000 
#    y 0.000000 1.783610 0.000000 
#    z 0.000000 0.000000 1.743290 
# 
# From -- ./inp_files/27543.got.cif
#   From: 2010.05.17/outbox.cif.g08.bks.cpg/sg58_14_cif.got.tgz:27543.got - 2010.06.03 14:20:14.
