data_PCOD9444161
_publ_section_title
;
Structure prediction by ZEFSAII (Michael W. Deem and Ramdas Pophale) SiO2 
 PCOD9444161
Probable space group: P N N M
;
_chemical_formula_sum "Si O2"
_cell_formula_units_Z 52
_cell_length_a 5.017256
_cell_length_b 22.559034
_cell_length_c 23.829994
_cell_angle_alpha 90.000000
_cell_angle_beta 90.000000
_cell_angle_gamma 90.000000
_cell_volume 2697.184733
_symmetry_space_group_name_H-M "P N N M"
_symmetry_group_IT_number 58
_symmetry_cell_setting 'orthorhombic'
loop_
_space_group_symop_operation_xyz
x,y,z
-x,-y,z
1/2+x,1/2-y,1/2-z
1/2-x,1/2+y,1/2-z
-x,-y,-z
x,y,-z
1/2-x,1/2+y,1/2+z
1/2+x,1/2-y,1/2+z
loop_
_atom_site_type_symbol
_atom_site_label
_atom_site_fract_x
_atom_site_fract_y
_atom_site_fract_z
Si Si1 0.864971 0.590342 0.133302
Si Si2 0.500000 0.000000 0.273753
Si Si3 0.377715 0.566078 0.936008
Si Si4 0.370692 0.323417 0.725302
Si Si5 0.351024 0.562497 0.318408
Si Si6 0.752435 0.456145 0.560307
Si Si7 0.375512 0.193118 0.702193
O O1 0.832810 0.542461 0.184086
O O2 0.584124 0.600952 0.103573
O O3 0.006636 0.649103 0.156590
O O4 0.083010 0.565914 0.089405
O O5 0.344995 0.045545 0.232973
O O6 0.500000 0.500000 0.935648
O O7 0.374801 0.587527 0.000000
O O8 0.452234 0.384545 0.697181
O O9 0.415982 0.262897 0.690590
O O10 0.065321 0.320934 0.744337
O O11 0.571892 0.318134 0.778790
O O12 0.500000 0.500000 0.324958
O O13 0.234326 0.577003 0.379995
O O14 0.500000 0.500000 0.559831
O O15 0.750793 0.422905 0.500000
O O16 0.000000 0.500000 0.560488
#
# Coordination Sequence:
#
# PCOD9444161 Si02
#       7
#     8   4   8   8   8   8   8
#     4  12  22  35  57  81 114 147 184 239 280 335
#     4  12  22  30  52  88 116 140 172 228 294 332
#     4  11  23  39  56  80 110 150 192 233 284 337
#     4  10  21  36  54  77 117 148 186 216 274 342
#     4  11  22  33  54  84 118 144 175 232 278 332
#     4   9  18  33  50  72 103 143 177 205 255 318
#     4  10  21  37  54  79 109 155 184 222 270 342
#
# _framework density 19.27936
#
# number of rings (size 3 to 8) (size 9 to 14) (size 15 to 20)
#    0.000    1.385    3.846    2.308    2.154    1.231 
#    0.000    0.000    0.000    1.846    0.000    4.308 
#    0.000    0.000    0.000    0.000    0.000    0.000 
#
# Total GULP energy -290047.582169 kJ/mol
# GULP energy per Si atom -5577.838119 kJ/mol
# Density = 1.923548 g / cm^3
# Si number density = 19.279360 Si / 1000 Ang^3
#
#
#
# Elastic Constant Matrix: (Units=GPa)
#
#
# Indices 1 2 3 4 5 6 
#
# 1 72.7208 -11.1891 12.1964 0.0000 0.0000 0.0000
# 2 -11.1891 84.0159 15.8388 0.0000 0.0000 0.0000
# 3 12.1964 15.8388 117.6464 0.0000 0.0000 0.0000
# 4 0.0000 0.0000 0.0000 6.1750 0.0000 0.0000
# 5 0.0000 0.0000 0.0000 0.0000 19.8681 0.0000
# 6 0.0000 0.0000 0.0000 0.0000 0.0000 21.7007
#
#
#
# Elastic Compliance Matrix: (Units=1/GPa)
#
#
# Indices 1 2 3 4 5 6 
#
# 1 0.014400 0.002256 -0.001797 0.000000 0.000000 0.000000
# 2 0.002256 0.012566 -0.001926 0.000000 0.000000 0.000000
# 3 -0.001797 -0.001926 0.008946 0.000000 0.000000 0.000000
# 4 0.000000 0.000000 0.000000 0.161943 0.000000 0.000000
# 5 0.000000 0.000000 0.000000 0.000000 0.050332 0.000000
# 6 0.000000 0.000000 0.000000 0.000000 0.000000 0.046082
#
#
# Mechanical properties :
#
#
# Convention : Reuss Voigt Hill
#
# Bulk Modulus (GPa) = 30.32179 34.23060 32.27619
# Shear Modulus (GPa) = 16.22362 26.71788 21.47075
#
# Velocity S-wave (km/s) = 2.90401 3.72671 3.34078
# Velocity P-wave (km/s) = 5.19674 6.02590 5.62661
#
# Compressibility (1/GPa) = 0.03297959
#
# Stress axis : x y z
#
# Youngs Moduli (GPa) = 69.44573 79.57949 111.78728
#
# Poissons Ratio (x) = -0.17957 0.20084
# Poissons Ratio (y) = -0.15670 0.21527
# Poissons Ratio (z) = 0.12477 0.15325
#
# Static dielectric constant tensor:
#      x y z
#    x 1.691790 0.000000 0.000000 
#    y 0.000000 1.683650 0.000000 
#    z 0.000000 0.000000 1.745760 
# 
# From -- ./inp_files/28195.got.cif
#   From: 2010.05.17/outbox.cif.g08.bks.cpg/sg58_15_cif.got.tgz:28195.got - 2010.06.03 14:20:14.
