data_PCOD9444843
_publ_section_title
;
Structure prediction by ZEFSAII (Michael W. Deem and Ramdas Pophale) SiO2 
 PCOD9444843
Probable space group: P N N M
;
_chemical_formula_sum "Si O2"
_cell_formula_units_Z 34
_cell_length_a 10.257155
_cell_length_b 18.042635
_cell_length_c 7.700227
_cell_angle_alpha 90.000000
_cell_angle_beta 90.000000
_cell_angle_gamma 90.000000
_cell_volume 1425.051009
_symmetry_space_group_name_H-M "P N N M"
_symmetry_group_IT_number 58
_symmetry_cell_setting 'orthorhombic'
loop_
_space_group_symop_operation_xyz
x,y,z
-x,-y,z
1/2+x,1/2-y,1/2-z
1/2-x,1/2+y,1/2-z
-x,-y,-z
x,y,-z
1/2-x,1/2+y,1/2+z
1/2+x,1/2-y,1/2+z
loop_
_atom_site_type_symbol
_atom_site_label
_atom_site_fract_x
_atom_site_fract_y
_atom_site_fract_z
Si Si1 0.342248 0.143240 0.286624
Si Si2 0.357262 0.315011 0.705837
Si Si3 0.883020 0.577646 0.306138
Si Si4 0.574624 0.427828 0.798546
Si Si5 0.500000 0.000000 0.500000
O O1 0.359871 0.134499 0.500000
O O2 0.330142 0.230399 0.245828
O O3 0.477609 0.118151 0.203906
O O4 0.213266 0.099824 0.226869
O O5 0.384126 0.315060 0.500000
O O6 0.477690 0.357635 0.790652
O O7 0.229336 0.364025 0.734916
O O8 0.862205 0.547816 0.500000
O O9 0.893176 0.519385 0.152730
O O10 0.500000 0.500000 0.721275
O O11 0.599258 0.445884 0.000000
#
# Coordination Sequence:
#
# PCOD9444843 Si02
#       5
#     8   8   8   8   2
#     4  10  21  42  65  96 137 177 220 277 333 396
#     4  10  23  41  64  96 134 173 223 276 331 402
#     4  11  25  43  69 101 132 177 228 274 331 406
#     4  10  23  39  64  94 129 171 220 274 338 395
#     4  12  26  44  68  96 144 172 224 274 344 390
#
# _framework density 23.858794
#
# number of rings (size 3 to 8) (size 9 to 14) (size 15 to 20)
#    0.000    1.647    1.176    1.765    4.941    4.235 
#    0.000    0.000    0.000    0.000    0.000    0.000 
#    0.000    0.000    0.000    0.000    0.000    0.000 
#
# Total GULP energy -189771.542306 kJ/mol
# GULP energy per Si atom -5581.515950 kJ/mol
# Density = 2.380449 g / cm^3
# Si number density = 23.858794 Si / 1000 Ang^3
#
#
#
# Elastic Constant Matrix: (Units=GPa)
#
#
# Indices 1 2 3 4 5 6 
#
# 1 168.9453 41.7972 23.2675 0.0000 0.0000 0.0000
# 2 41.7972 92.4906 33.8469 0.0000 0.0000 0.0000
# 3 23.2675 33.8469 82.5934 0.0000 0.0000 0.0000
# 4 0.0000 0.0000 0.0000 28.1906 0.0000 0.0000
# 5 0.0000 0.0000 0.0000 0.0000 38.4371 0.0000
# 6 0.0000 0.0000 0.0000 0.0000 0.0000 43.6866
#
#
#
# Elastic Compliance Matrix: (Units=1/GPa)
#
#
# Indices 1 2 3 4 5 6 
#
# 1 0.006705 -0.002751 -0.000761 0.000000 0.000000 0.000000
# 2 -0.002751 0.013848 -0.004900 0.000000 0.000000 0.000000
# 3 -0.000761 -0.004900 0.014330 0.000000 0.000000 0.000000
# 4 0.000000 0.000000 0.000000 0.035473 0.000000 0.000000
# 5 0.000000 0.000000 0.000000 0.000000 0.026017 0.000000
# 6 0.000000 0.000000 0.000000 0.000000 0.000000 0.022890
#
#
# Mechanical properties :
#
#
# Convention : Reuss Voigt Hill
#
# Bulk Modulus (GPa) = 55.37762 60.20583 57.79172
# Shear Modulus (GPa) = 35.18476 38.40406 36.79441
#
# Velocity S-wave (km/s) = 3.84436 4.01638 3.93131
# Velocity P-wave (km/s) = 6.55488 6.84087 6.69940
#
# Compressibility (1/GPa) = 0.01805784
#
# Stress axis : x y z
#
# Youngs Moduli (GPa) = 149.15166 72.21060 69.78362
#
# Poissons Ratio (x) = 0.19867 0.05313
# Poissons Ratio (y) = 0.41036 0.34194
# Poissons Ratio (z) = 0.11355 0.35383
#
# Static dielectric constant tensor:
#      x y z
#    x 1.941930 0.000000 0.000000 
#    y 0.000000 -24.715180 0.000000 
#    z 0.000000 0.000000 1.864210 
# 
# From -- ./inp_files/2236.got.cif
#   From: 2010.05.17/outbox.cif.g08.bks.cpg/sg58_2_cif.got.tgz:2236.got - 2010.06.03 14:20:14.
