data_PCOD9444268
_publ_section_title
;
Structure prediction by ZEFSAII (Michael W. Deem and Ramdas Pophale) SiO2 
 PCOD9444268
Probable space group: P N N M
;
_chemical_formula_sum "Si O2"
_cell_formula_units_Z 28
_cell_length_a 5.214203
_cell_length_b 12.704546
_cell_length_c 19.223157
_cell_angle_alpha 90.000000
_cell_angle_beta 90.000000
_cell_angle_gamma 90.000000
_cell_volume 1273.420386
_symmetry_space_group_name_H-M "P N N M"
_symmetry_group_IT_number 58
_symmetry_cell_setting 'orthorhombic'
loop_
_space_group_symop_operation_xyz
x,y,z
-x,-y,z
1/2+x,1/2-y,1/2-z
1/2-x,1/2+y,1/2-z
-x,-y,-z
x,y,-z
1/2-x,1/2+y,1/2+z
1/2+x,1/2-y,1/2+z
loop_
_atom_site_type_symbol
_atom_site_label
_atom_site_fract_x
_atom_site_fract_y
_atom_site_fract_z
Si Si1 0.539095 0.764784 0.079557
Si Si2 0.540499 0.782648 0.668432
Si Si3 0.308488 0.421562 0.251552
Si Si4 0.500000 0.000000 0.123836
O O1 0.809073 0.736976 0.114638
O O2 0.306421 0.719458 0.126273
O O3 0.523355 0.892183 0.082289
O O4 0.521165 0.729315 0.000000
O O5 0.557232 0.686835 0.723830
O O6 0.445421 0.884148 0.711007
O O7 0.500000 0.500000 0.212473
O O8 0.230767 0.480213 0.322534
#
# Coordination Sequence:
#
# PCOD9444268 Si02
#       4
#     8   8   8   4
#     4  11  23  41  61  90 132 175 214 255 319 400
#     4  11  24  39  63  95 129 170 212 265 326 385
#     4  11  22  40  63  98 134 163 214 279 336 385
#     4  10  21  36  62  98 125 164 208 274 340 388
#
# _framework density 21.988026000000001
#
# number of rings (size 3 to 8) (size 9 to 14) (size 15 to 20)
#    0.000    1.143    2.857    4.714    4.000    0.000 
#    0.000    4.286    0.000    5.143    0.000    0.000 
#    0.000    0.000    0.000    0.000    0.000    0.000 
#
# Total GULP energy -156587.258852 kJ/mol
# GULP energy per Si atom -5592.402102 kJ/mol
# Density = 2.193798 g / cm^3
# Si number density = 21.988026 Si / 1000 Ang^3
#
#
#
# Elastic Constant Matrix: (Units=GPa)
#
#
# Indices 1 2 3 4 5 6 
#
# 1 141.3638 36.5269 47.7806 0.0000 0.0000 0.0000
# 2 36.5269 77.6966 29.3165 0.0000 0.0000 0.0000
# 3 47.7806 29.3165 120.8052 0.0000 0.0000 0.0000
# 4 0.0000 0.0000 0.0000 25.3311 0.0000 0.0000
# 5 0.0000 0.0000 0.0000 0.0000 73.1222 0.0000
# 6 0.0000 0.0000 0.0000 0.0000 0.0000 49.3146
#
#
#
# Elastic Compliance Matrix: (Units=1/GPa)
#
#
# Indices 1 2 3 4 5 6 
#
# 1 0.008798 -0.003108 -0.002726 0.000000 0.000000 0.000000
# 2 -0.003108 0.015266 -0.002475 0.000000 0.000000 0.000000
# 3 -0.002726 -0.002475 0.009957 0.000000 0.000000 0.000000
# 4 0.000000 0.000000 0.000000 0.039477 0.000000 0.000000
# 5 0.000000 0.000000 0.000000 0.000000 0.013676 0.000000
# 6 0.000000 0.000000 0.000000 0.000000 0.000000 0.020278
#
#
# Mechanical properties :
#
#
# Convention : Reuss Voigt Hill
#
# Bulk Modulus (GPa) = 57.46241 63.01262 60.23752
# Shear Modulus (GPa) = 38.50006 44.63636 41.56821
#
# Velocity S-wave (km/s) = 4.18898 4.51047 4.35270
# Velocity P-wave (km/s) = 7.04180 7.47300 7.26060
#
# Compressibility (1/GPa) = 0.01740268
#
# Stress axis : x y z
#
# Youngs Moduli (GPa) = 113.65915 65.50652 100.43620
#
# Poissons Ratio (x) = 0.20358 0.27376
# Poissons Ratio (y) = 0.35323 0.24862
# Poissons Ratio (z) = 0.30980 0.16216
#
# Static dielectric constant tensor:
#      x y z
#    x 1.842030 0.000000 0.000000 
#    y 0.000000 1.851360 0.000000 
#    z 0.000000 0.000000 1.769190 
# 
# From -- ./inp_files/24029.got.cif
#   From: 2010.05.17/outbox.cif.g08.bks.cpg/sg58_13_cif.got.tgz:24029.got - 2010.06.03 14:20:14.
