data_PCOD9444322
_publ_section_title
;
Structure prediction by ZEFSAII (Michael W. Deem and Ramdas Pophale) SiO2 
 PCOD9444322
Probable space group: P N N M
;
_chemical_formula_sum "Si O2"
_cell_formula_units_Z 40
_cell_length_a 27.508720
_cell_length_b 7.778184
_cell_length_c 9.155076
_cell_angle_alpha 90.000000
_cell_angle_beta 90.000000
_cell_angle_gamma 90.000000
_cell_volume 1958.892256
_symmetry_space_group_name_H-M "P N N M"
_symmetry_group_IT_number 58
_symmetry_cell_setting 'orthorhombic'
loop_
_space_group_symop_operation_xyz
x,y,z
-x,-y,z
1/2+x,1/2-y,1/2-z
1/2-x,1/2+y,1/2-z
-x,-y,-z
x,y,-z
1/2-x,1/2+y,1/2+z
1/2+x,1/2-y,1/2+z
loop_
_atom_site_type_symbol
_atom_site_label
_atom_site_fract_x
_atom_site_fract_y
_atom_site_fract_z
Si Si1 0.308523 0.253465 0.330203
Si Si2 0.112179 0.281346 0.825089
Si Si3 0.584930 0.589436 0.328489
Si Si4 0.297016 0.898839 0.828294
Si Si5 0.446416 0.079890 0.168774
O O1 0.306538 0.194381 0.500000
O O2 0.358140 0.358883 0.314508
O O3 0.259509 0.359091 0.300938
O O4 0.308263 0.090121 0.225763
O O5 0.166434 0.276359 0.760046
O O6 0.087316 0.451771 0.761696
O O7 0.082346 0.109795 0.783694
O O8 0.114408 0.288429 0.000000
O O9 0.571702 0.604048 0.500000
O O10 0.555974 0.729672 0.236059
O O11 0.306286 0.879813 0.000000
O O12 0.500000 0.000000 0.174915
O O13 0.430300 0.083473 0.000000
#
# Coordination Sequence:
#
# PCOD9444322 Si02
#       5
#     8   8   8   8   8
#     4  10  21  37  57  86 125 166 209 257 308 368
#     4  11  23  41  65  93 128 166 210 261 314 378
#     4  10  22  41  65  92 125 167 211 258 312 374
#     4  11  22  36  58  90 126 167 213 257 310 369
#     4  11  25  44  66  94 127 164 210 266 325 380
#
# _framework density 20.419705
#
# number of rings (size 3 to 8) (size 9 to 14) (size 15 to 20)
#    0.000    1.400    2.000    3.000    0.000    7.200 
#    0.000    4.000    0.000    0.000    0.000    0.000 
#    0.000    0.000    0.000    0.000    0.000    0.000 
#
# Total GULP energy -223640.330317 kJ/mol
# GULP energy per Si atom -5591.008258 kJ/mol
# Density = 2.037323 g / cm^3
# Si number density = 20.419705 Si / 1000 Ang^3
#
#
#
# Elastic Constant Matrix: (Units=GPa)
#
#
# Indices 1 2 3 4 5 6 
#
# 1 29.7307 -21.3951 7.4732 0.0000 0.0000 0.0000
# 2 -21.3951 64.1270 18.9887 0.0000 0.0000 0.0000
# 3 7.4732 18.9887 57.1806 0.0000 0.0000 0.0000
# 4 0.0000 0.0000 0.0000 2.4659 0.0000 0.0000
# 5 0.0000 0.0000 0.0000 0.0000 -3.3135 0.0000
# 6 0.0000 0.0000 0.0000 0.0000 0.0000 25.3558
#
#
#
# Elastic Compliance Matrix: (Units=1/GPa)
#
#
# Indices 1 2 3 4 5 6 
#
# 1 0.052926 0.021856 -0.014175 0.000000 0.000000 0.000000
# 2 0.021856 0.026320 -0.011597 0.000000 0.000000 0.000000
# 3 -0.014175 -0.011597 0.023192 0.000000 0.000000 0.000000
# 4 0.000000 0.000000 0.000000 0.405540 0.000000 0.000000
# 5 0.000000 0.000000 0.000000 0.000000 -0.301793 0.000000
# 6 0.000000 0.000000 0.000000 0.000000 0.000000 0.039439
#
#
# Mechanical properties :
#
#
# Convention : Reuss Voigt Hill
#
# Bulk Modulus (GPa) = 10.57017 17.90800 14.23908
# Shear Modulus (GPa) = 17.54439 14.63306 16.08872
#
# Velocity S-wave (km/s) = 2.93437 2.67987 2.81000
# Velocity P-wave (km/s) = 4.08270 4.28539 4.18527
#
# Compressibility (1/GPa) = 0.09460590
#
# Stress axis : x y z
#
# Youngs Moduli (GPa) = 18.89413 37.99412 43.11800
#
# Poissons Ratio (x) = -0.83039 0.61120
# Poissons Ratio (y) = -0.41294 0.50003
# Poissons Ratio (z) = 0.26783 0.44061
#
# Static dielectric constant tensor:
#      x y z
#    x 1.753440 0.000000 0.000000 
#    y 0.000000 1.711890 0.000000 
#    z 0.000000 0.000000 1.683350 
# 
# From -- ./inp_files/10269.got.cif
#   From: 2010.05.17/outbox.cif.g08.bks.cpg/sg58_6_cif.got.tgz:10269.got - 2010.06.03 14:20:14.
