data_PCOD9444075
_publ_section_title
;
Structure prediction by ZEFSAII (Michael W. Deem and Ramdas Pophale) SiO2 
 PCOD9444075
Probable space group: P N N M
;
_chemical_formula_sum "Si O2"
_cell_formula_units_Z 48
_cell_length_a 13.798171
_cell_length_b 9.519207
_cell_length_c 19.379612
_cell_angle_alpha 90.000000
_cell_angle_beta 90.000000
_cell_angle_gamma 90.000000
_cell_volume 2545.466416
_symmetry_space_group_name_H-M "P N N M"
_symmetry_group_IT_number 58
_symmetry_cell_setting 'orthorhombic'
loop_
_space_group_symop_operation_xyz
x,y,z
-x,-y,z
1/2+x,1/2-y,1/2-z
1/2-x,1/2+y,1/2-z
-x,-y,-z
x,y,-z
1/2-x,1/2+y,1/2+z
1/2+x,1/2-y,1/2+z
loop_
_atom_site_type_symbol
_atom_site_label
_atom_site_fract_x
_atom_site_fract_y
_atom_site_fract_z
Si Si1 0.168543 0.157076 0.920569
Si Si2 0.530886 0.699626 0.778441
Si Si3 0.500000 0.500000 0.341813
Si Si4 0.500000 0.000000 0.182231
Si Si5 0.763875 0.136511 0.316947
Si Si6 0.193686 0.182078 0.314283
Si Si7 0.827406 0.590077 0.419808
O O1 0.203853 0.291121 0.877651
O O2 0.074954 0.087350 0.886452
O O3 0.249882 0.035136 0.916453
O O4 0.152154 0.192052 0.000000
O O5 0.550234 0.612356 0.709219
O O6 0.621507 0.667555 0.827626
O O7 0.422835 0.658766 0.804081
O O8 0.527408 0.867007 0.771687
O O9 0.414167 0.954682 0.130915
O O10 0.729607 0.217579 0.247767
O O11 0.755538 0.969086 0.310565
O O12 0.210379 0.265748 0.385380
O O13 0.855820 0.608518 0.500000
#
# Coordination Sequence:
#
# PCOD9444075 Si02
#       7
#     8   8   4   4   8   8   8
#     4  11  24  41  63  87 123 172 213 256 313 379
#     4  11  21  35  61  91 123 155 202 262 319 367
#     4  12  21  42  60  94 127 160 212 264 315 366
#     4  10  21  34  60  92 123 158 202 252 313 378
#     4  12  21  40  61  89 128 158 212 268 313 376
#     4  11  23  36  60  92 121 162 208 264 322 365
#     4  10  21  39  58  86 124 168 204 249 313 378
#
# _framework density 18.857056
#
# number of rings (size 3 to 8) (size 9 to 14) (size 15 to 20)
#    0.000    1.000    5.000    2.500    2.333    0.667 
#    0.000    0.000    0.000    3.000    0.000    5.833 
#    0.000    0.000    0.000    0.000    0.000    0.000 
#
# Total GULP energy -268045.910694 kJ/mol
# GULP energy per Si atom -5584.289806 kJ/mol
# Density = 1.881414 g / cm^3
# Si number density = 18.857056 Si / 1000 Ang^3
#
#
#
# Elastic Constant Matrix: (Units=GPa)
#
#
# Indices 1 2 3 4 5 6 
#
# 1 60.2412 24.9312 27.0894 0.0000 0.0000 0.0000
# 2 24.9312 156.1583 59.1015 0.0000 0.0000 0.0000
# 3 27.0894 59.1015 106.2470 0.0000 0.0000 0.0000
# 4 0.0000 0.0000 0.0000 24.9246 0.0000 0.0000
# 5 0.0000 0.0000 0.0000 0.0000 40.5731 0.0000
# 6 0.0000 0.0000 0.0000 0.0000 0.0000 24.3117
#
#
#
# Elastic Compliance Matrix: (Units=1/GPa)
#
#
# Indices 1 2 3 4 5 6 
#
# 1 0.019031 -0.001522 -0.004005 0.000000 0.000000 0.000000
# 2 -0.001522 0.008233 -0.004192 0.000000 0.000000 0.000000
# 3 -0.004005 -0.004192 0.012765 0.000000 0.000000 0.000000
# 4 0.000000 0.000000 0.000000 0.040121 0.000000 0.000000
# 5 0.000000 0.000000 0.000000 0.000000 0.024647 0.000000
# 6 0.000000 0.000000 0.000000 0.000000 0.000000 0.041132
#
#
# Mechanical properties :
#
#
# Convention : Reuss Voigt Hill
#
# Bulk Modulus (GPa) = 48.56665 60.54341 54.55503
# Shear Modulus (GPa) = 29.03057 32.06352 30.54704
#
# Velocity S-wave (km/s) = 3.92791 4.12800 4.02920
# Velocity P-wave (km/s) = 6.81046 7.40923 7.11615
#
# Compressibility (1/GPa) = 0.02059026
#
# Stress axis : x y z
#
# Youngs Moduli (GPa) = 52.54542 121.45843 78.33937
#
# Poissons Ratio (x) = 0.18491 0.31378
# Poissons Ratio (y) = 0.08000 0.32838
# Poissons Ratio (z) = 0.21047 0.50912
#
# Static dielectric constant tensor:
#      x y z
#    x 1.710290 0.000000 0.000000 
#    y 0.000000 1.664970 0.000000 
#    z 0.000000 0.000000 1.628990 
# 
# From -- ./inp_files/26842.got.cif
#   From: 2010.05.17/outbox.cif.g08.bks.cpg/sg58_14_cif.got.tgz:26842.got - 2010.06.03 14:20:14.
