data_PCOD9444885
_publ_section_title
;
Structure prediction by ZEFSAII (Michael W. Deem and Ramdas Pophale) SiO2 
 PCOD9444885
Probable space group: P N N M
;
_chemical_formula_sum "Si O2"
_cell_formula_units_Z 64
_cell_length_a 16.222763
_cell_length_b 9.582758
_cell_length_c 23.787983
_cell_angle_alpha 90.000000
_cell_angle_beta 90.000000
_cell_angle_gamma 90.000000
_cell_volume 3698.051575
_symmetry_space_group_name_H-M "P N N M"
_symmetry_group_IT_number 58
_symmetry_cell_setting 'orthorhombic'
loop_
_space_group_symop_operation_xyz
x,y,z
-x,-y,z
1/2+x,1/2-y,1/2-z
1/2-x,1/2+y,1/2-z
-x,-y,-z
x,y,-z
1/2-x,1/2+y,1/2+z
1/2+x,1/2-y,1/2+z
loop_
_atom_site_type_symbol
_atom_site_label
_atom_site_fract_x
_atom_site_fract_y
_atom_site_fract_z
Si Si1 0.132231 0.067262 0.146403
Si Si2 0.382198 0.798932 0.565798
Si Si3 0.063307 0.833242 0.936220
Si Si4 0.239322 0.437922 0.728403
Si Si5 0.191812 0.144847 0.312860
Si Si6 0.030391 0.154323 0.743652
Si Si7 0.419092 0.094182 0.270690
Si Si8 0.830523 0.397359 0.890669
O O1 0.162731 0.186187 0.104348
O O2 0.208478 0.991357 0.175703
O O3 0.078808 0.142048 0.196047
O O4 0.082332 0.952915 0.109573
O O5 0.365186 0.784987 0.500000
O O6 0.478733 0.754076 0.573867
O O7 0.356630 0.952313 0.585793
O O8 0.136152 0.721815 0.930937
O O9 0.061036 0.889258 0.000000
O O10 0.233623 0.271673 0.722703
O O11 0.289457 0.499072 0.781381
O O12 0.149480 0.509739 0.735063
O O13 0.096704 0.183790 0.305103
O O14 0.235951 0.128711 0.372629
O O15 0.955280 0.261510 0.747203
O O16 0.000000 0.000000 0.733710
O O17 0.379052 0.118933 0.331510
O O18 0.500000 0.000000 0.277521
#
# Coordination Sequence:
#
# PCOD9444885 Si02
#       8
#     8   8   8   8   8   8   8   8
#     4  11  21  36  53  73 109 147 182 216 263 318
#     4  11  23  35  50  77 107 142 185 227 257 300
#     4  11  21  35  53  75 106 144 185 227 259 297
#     4  10  22  35  52  76 106 138 179 218 265 314
#     4  10  22  36  51  77 105 140 177 220 263 318
#     4  11  22  33  53  78 109 139 180 215 258 319
#     4  11  20  33  53  75 104 140 174 214 257 313
#     4  11  21  34  53  73 107 144 181 213 268 313
#
# _framework density 17.306412000000002
#
# number of rings (size 3 to 8) (size 9 to 14) (size 15 to 20)
#    0.000    1.250    2.500    5.250   10.500    2.000 
#    0.000    0.000    0.000    0.000    0.000    0.000 
#    0.000   20.000    0.000    0.000    0.000    0.000 
#
# Total GULP energy -357103.517817 kJ/mol
# GULP energy per Si atom -5579.742466 kJ/mol
# Density = 1.726702 g / cm^3
# Si number density = 17.306412 Si / 1000 Ang^3
#
#
#
# Elastic Constant Matrix: (Units=GPa)
#
#
# Indices 1 2 3 4 5 6 
#
# 1 52.9612 -2.0755 32.2774 0.0000 0.0000 0.0000
# 2 -2.0755 66.9250 8.1218 0.0000 0.0000 0.0000
# 3 32.2774 8.1218 60.8531 0.0000 0.0000 0.0000
# 4 0.0000 0.0000 0.0000 -27.2572 0.0000 0.0000
# 5 0.0000 0.0000 0.0000 0.0000 -44.7276 0.0000
# 6 0.0000 0.0000 0.0000 0.0000 0.0000 26.0603
#
#
#
# Elastic Compliance Matrix: (Units=1/GPa)
#
#
# Indices 1 2 3 4 5 6 
#
# 1 0.028391 0.002753 -0.015427 0.000000 0.000000 0.000000
# 2 0.002753 0.015455 -0.003523 0.000000 0.000000 0.000000
# 3 -0.015427 -0.003523 0.025086 0.000000 0.000000 0.000000
# 4 0.000000 0.000000 0.000000 -0.036688 0.000000 0.000000
# 5 0.000000 0.000000 0.000000 0.000000 -0.022358 0.000000
# 6 0.000000 0.000000 0.000000 0.000000 0.000000 0.038373
#
#
# Mechanical properties :
#
#
# Convention : Reuss Voigt Hill
#
# Bulk Modulus (GPa) = 27.36834 28.59854 27.98344
# Shear Modulus (GPa) = 53.86049 0.30949 27.08499
#
# Velocity S-wave (km/s) = 5.58473 0.42334 3.96033
# Velocity P-wave (km/s) = 7.57852 4.09874 6.09236
#
# Compressibility (1/GPa) = 0.03653857
#
# Stress axis : x y z
#
# Youngs Moduli (GPa) = 35.22192 64.70411 39.86338
#
# Poissons Ratio (x) = -0.17810 0.61496
# Poissons Ratio (y) = -0.09695 0.14043
# Poissons Ratio (z) = 0.54335 0.22793
#
# Static dielectric constant tensor:
#      x y z
#    x 1.664710 0.000000 0.000000 
#    y 0.000000 1.629340 0.000000 
#    z 0.000000 0.000000 1.586840 
# 
# From -- ./inp_files/32334.got.cif
#   From: 2010.05.17/outbox.cif.g08.bks.cpg/sg58_17_cif.got.tgz:32334.got - 2010.06.03 14:20:14.
