data_PCOD9444768
_publ_section_title
;
Structure prediction by ZEFSAII (Michael W. Deem and Ramdas Pophale) SiO2 
 PCOD9444768
Probable space group: P N N M
;
_chemical_formula_sum "Si O2"
_cell_formula_units_Z 64
_cell_length_a 29.629296
_cell_length_b 5.229118
_cell_length_c 18.597605
_cell_angle_alpha 90.000000
_cell_angle_beta 90.000000
_cell_angle_gamma 90.000000
_cell_volume 2881.421512
_symmetry_space_group_name_H-M "P N N M"
_symmetry_group_IT_number 58
_symmetry_cell_setting 'orthorhombic'
loop_
_space_group_symop_operation_xyz
x,y,z
-x,-y,z
1/2+x,1/2-y,1/2-z
1/2-x,1/2+y,1/2-z
-x,-y,-z
x,y,-z
1/2-x,1/2+y,1/2+z
1/2+x,1/2-y,1/2+z
loop_
_atom_site_type_symbol
_atom_site_label
_atom_site_fract_x
_atom_site_fract_y
_atom_site_fract_z
Si Si1 0.902231 0.282872 0.916637
Si Si2 0.470845 0.746838 0.181112
Si Si3 0.739384 0.072646 0.839143
Si Si4 0.681574 0.300390 0.714589
Si Si5 0.381980 0.770180 0.084621
Si Si6 0.301025 0.073926 0.581151
Si Si7 0.081037 0.203141 0.174111
Si Si8 0.677010 0.717959 0.083641
O O1 0.847284 0.256988 0.915910
O O2 0.914416 0.536118 0.871436
O O3 0.923739 0.036056 0.879205
O O4 0.915414 0.309112 0.000000
O O5 0.500000 0.500000 0.161482
O O6 0.426231 0.760280 0.132665
O O7 0.456176 0.725409 0.264497
O O8 0.500000 0.000000 0.170562
O O9 0.785714 0.042060 0.794485
O O10 0.720185 0.811985 0.872428
O O11 0.701665 0.161473 0.783625
O O12 0.756121 0.262917 0.901602
O O13 0.628614 0.345367 0.715610
O O14 0.690375 0.133373 0.642865
O O15 0.347888 0.541098 0.105553
O O16 0.357654 0.044051 0.090915
O O17 0.392709 0.730746 0.000000
O O18 0.299206 0.967651 0.500000
O O19 0.689112 0.695558 0.000000
#
# Coordination Sequence:
#
# PCOD9444768 Si02
#       8
#     8   8   8   8   8   8   8   8
#     4  10  21  40  67  95 125 170 217 259 322 388
#     4  12  26  44  72 104 130 167 214 277 344 407
#     4  12  22  38  57  89 129 174 228 270 314 378
#     4  11  24  37  60  87 125 176 223 268 326 383
#     4  10  23  45  67  97 135 176 221 265 329 399
#     4  10  22  37  55  85 123 165 219 278 315 359
#     4  11  23  43  66  94 134 168 213 272 337 397
#     4  10  23  40  64  93 133 184 222 267 322 381
#
# _framework density 22.211258999999998
#
# number of rings (size 3 to 8) (size 9 to 14) (size 15 to 20)
#    0.000    1.250    2.500    3.000    1.750    5.000 
#    0.000    0.000    0.000    7.500    0.000    0.000 
#    0.000    0.000    0.000    0.000    0.000    0.000 
#
# Total GULP energy -358219.964612 kJ/mol
# GULP energy per Si atom -5597.186947 kJ/mol
# Density = 2.216071 g / cm^3
# Si number density = 22.211259 Si / 1000 Ang^3
#
#
#
# Elastic Constant Matrix: (Units=GPa)
#
#
# Indices 1 2 3 4 5 6 
#
# 1 47.5546 23.2948 10.3533 0.0000 0.0000 0.0000
# 2 23.2948 109.6893 30.4884 0.0000 0.0000 0.0000
# 3 10.3533 30.4884 91.3506 0.0000 0.0000 0.0000
# 4 0.0000 0.0000 0.0000 38.4974 0.0000 0.0000
# 5 0.0000 0.0000 0.0000 0.0000 32.0565 0.0000
# 6 0.0000 0.0000 0.0000 0.0000 0.0000 26.9532
#
#
#
# Elastic Compliance Matrix: (Units=1/GPa)
#
#
# Indices 1 2 3 4 5 6 
#
# 1 0.023570 -0.004699 -0.001103 0.000000 0.000000 0.000000
# 2 -0.004699 0.010986 -0.003134 0.000000 0.000000 0.000000
# 3 -0.001103 -0.003134 0.012118 0.000000 0.000000 0.000000
# 4 0.000000 0.000000 0.000000 0.025976 0.000000 0.000000
# 5 0.000000 0.000000 0.000000 0.000000 0.031195 0.000000
# 6 0.000000 0.000000 0.000000 0.000000 0.000000 0.037101
#
#
# Mechanical properties :
#
#
# Convention : Reuss Voigt Hill
#
# Bulk Modulus (GPa) = 34.71998 41.87416 38.29707
# Shear Modulus (GPa) = 29.68791 31.79863 30.74327
#
# Velocity S-wave (km/s) = 3.65994 3.78781 3.72443
# Velocity P-wave (km/s) = 5.79015 6.16633 5.98120
#
# Compressibility (1/GPa) = 0.02880186
#
# Stress axis : x y z
#
# Youngs Moduli (GPa) = 42.42594 91.02748 82.52326
#
# Poissons Ratio (x) = 0.42775 0.09103
# Poissons Ratio (y) = 0.19936 0.25862
# Poissons Ratio (z) = 0.04680 0.28527
#
# Static dielectric constant tensor:
#      x y z
#    x 1.802230 0.000000 0.000000 
#    y 0.000000 1.846240 0.000000 
#    z 0.000000 0.000000 1.816820 
# 
# From -- ./inp_files/27795.got.cif
#   From: 2010.05.17/outbox.cif.g08.bks.cpg/sg58_14_cif.got.tgz:27795.got - 2010.06.03 14:20:14.
