data_PCOD9444324
_publ_section_title
;
Structure prediction by ZEFSAII (Michael W. Deem and Ramdas Pophale) SiO2 
 PCOD9444324
Probable space group: P N N M
;
_chemical_formula_sum "Si O2"
_cell_formula_units_Z 60
_cell_length_a 12.017877
_cell_length_b 10.167198
_cell_length_c 25.013223
_cell_angle_alpha 90.000000
_cell_angle_beta 90.000000
_cell_angle_gamma 90.000000
_cell_volume 3056.319069
_symmetry_space_group_name_H-M "P N N M"
_symmetry_group_IT_number 58
_symmetry_cell_setting 'orthorhombic'
loop_
_space_group_symop_operation_xyz
x,y,z
-x,-y,z
1/2+x,1/2-y,1/2-z
1/2-x,1/2+y,1/2-z
-x,-y,-z
x,y,-z
1/2-x,1/2+y,1/2+z
1/2+x,1/2-y,1/2+z
loop_
_atom_site_type_symbol
_atom_site_label
_atom_site_fract_x
_atom_site_fract_y
_atom_site_fract_z
Si Si1 0.182187 0.046348 0.771540
Si Si2 0.774409 0.071385 0.666086
Si Si3 0.094608 0.663292 0.698357
Si Si4 0.000000 0.500000 0.606599
Si Si5 0.049155 0.305986 0.195408
Si Si6 0.298586 0.846322 0.938176
Si Si7 0.913528 0.116696 0.137439
Si Si8 0.128093 0.044746 0.437898
O O1 0.307840 0.057905 0.791754
O O2 0.117938 0.175064 0.789552
O O3 0.181845 0.036532 0.708004
O O4 0.127468 0.925910 0.803117
O O5 0.842921 0.200727 0.684628
O O6 0.643549 0.092137 0.677564
O O7 0.800249 0.033103 0.605790
O O8 0.027627 0.619496 0.646503
O O9 0.020513 0.662075 0.751653
O O10 0.106318 0.454449 0.573119
O O11 0.972466 0.256724 0.146578
O O12 0.192558 0.872186 0.900537
O O13 0.350378 0.700457 0.929294
O O14 0.264227 0.853061 0.000000
O O15 0.000000 0.000000 0.120786
O O16 0.156131 0.015935 0.500000
O O17 0.000000 0.000000 0.429919
#
# Coordination Sequence:
#
# PCOD9444324 Si02
#       8
#     8   8   8   4   8   8   8   8
#     4  10  21  37  57  91 129 163 204 253 310 383
#     4  11  23  37  63  94 124 170 209 253 321 377
#     4  11  22  36  59  95 128 164 202 255 320 381
#     4  12  23  38  64  94 132 154 213 278 312 376
#     4  10  23  36  59  94 129 164 205 252 314 382
#     4  11  25  44  68  93 124 172 216 268 329 376
#     4  10  21  43  63  88 131 168 213 264 307 381
#     4  10  24  45  66  92 126 166 218 268 321 385
#
# _framework density 19.631457999999999
#
# number of rings (size 3 to 8) (size 9 to 14) (size 15 to 20)
#    0.000    1.467    2.667    1.800    5.600    0.267 
#    0.000    1.333    0.000    1.600    0.000    0.000 
#    0.000    0.000    0.000    0.000    0.000    0.000 
#
# Total GULP energy -335078.841882 kJ/mol
# GULP energy per Si atom -5584.647365 kJ/mol
# Density = 1.958678 g / cm^3
# Si number density = 19.631458 Si / 1000 Ang^3
#
#
#
# Elastic Constant Matrix: (Units=GPa)
#
#
# Indices 1 2 3 4 5 6 
#
# 1 110.2917 25.6558 60.9222 0.0000 0.0000 0.0000
# 2 25.6558 39.0780 33.5368 0.0000 0.0000 0.0000
# 3 60.9222 33.5368 103.7981 0.0000 0.0000 0.0000
# 4 0.0000 0.0000 0.0000 20.9140 0.0000 0.0000
# 5 0.0000 0.0000 0.0000 0.0000 31.0242 0.0000
# 6 0.0000 0.0000 0.0000 0.0000 0.0000 20.5321
#
#
#
# Elastic Compliance Matrix: (Units=1/GPa)
#
#
# Indices 1 2 3 4 5 6 
#
# 1 0.013648 -0.002886 -0.007078 0.000000 0.000000 0.000000
# 2 -0.002886 0.036018 -0.009944 0.000000 0.000000 0.000000
# 3 -0.007078 -0.009944 0.017001 0.000000 0.000000 0.000000
# 4 0.000000 0.000000 0.000000 0.047815 0.000000 0.000000
# 5 0.000000 0.000000 0.000000 0.000000 0.032233 0.000000
# 6 0.000000 0.000000 0.000000 0.000000 0.000000 0.048704
#
#
# Mechanical properties :
#
#
# Convention : Reuss Voigt Hill
#
# Bulk Modulus (GPa) = 37.24072 54.82193 46.03132
# Shear Modulus (GPa) = 20.47635 23.36427 21.92031
#
# Velocity S-wave (km/s) = 3.23311 3.45359 3.34517
# Velocity P-wave (km/s) = 5.74007 6.62489 6.19829
#
# Compressibility (1/GPa) = 0.02685233
#
# Stress axis : x y z
#
# Youngs Moduli (GPa) = 73.27188 27.76382 58.82002
#
# Poissons Ratio (x) = 0.08012 0.41632
# Poissons Ratio (y) = 0.21146 0.58488
# Poissons Ratio (z) = 0.51861 0.27607
#
# Static dielectric constant tensor:
#      x y z
#    x 1.717100 0.000000 0.000000 
#    y 0.000000 1.748630 0.000000 
#    z 0.000000 0.000000 1.645290 
# 
# From -- ./inp_files/29657.got.cif
#   From: 2010.05.17/outbox.cif.g08.bks.cpg/sg58_15_cif.got.tgz:29657.got - 2010.06.03 14:20:14.
