data_PCOD9444565
_publ_section_title
;
Structure prediction by ZEFSAII (Michael W. Deem and Ramdas Pophale) SiO2 
 PCOD9444565
Probable space group: P N N M
;
_chemical_formula_sum "Si O2"
_cell_formula_units_Z 40
_cell_length_a 8.091670
_cell_length_b 10.108578
_cell_length_c 19.209086
_cell_angle_alpha 90.000000
_cell_angle_beta 90.000000
_cell_angle_gamma 90.000000
_cell_volume 1571.212517
_symmetry_space_group_name_H-M "P N N M"
_symmetry_group_IT_number 58
_symmetry_cell_setting 'orthorhombic'
loop_
_space_group_symop_operation_xyz
x,y,z
-x,-y,z
1/2+x,1/2-y,1/2-z
1/2-x,1/2+y,1/2-z
-x,-y,-z
x,y,-z
1/2-x,1/2+y,1/2+z
1/2+x,1/2-y,1/2+z
loop_
_atom_site_type_symbol
_atom_site_label
_atom_site_fract_x
_atom_site_fract_y
_atom_site_fract_z
Si Si1 0.097903 0.199939 0.285365
Si Si2 0.656465 0.173817 0.580802
Si Si3 0.252527 0.940372 0.283817
Si Si4 0.217316 0.769610 0.919537
Si Si5 0.320397 0.050024 0.916138
O O1 0.116888 0.342533 0.250869
O O2 0.148085 0.215427 0.366099
O O3 0.920741 0.135857 0.274414
O O4 0.226530 0.088424 0.257386
O O5 0.692549 0.143633 0.500000
O O6 0.707224 0.061016 0.634211
O O7 0.462371 0.205622 0.586519
O O8 0.752815 0.307127 0.604321
O O9 0.200292 0.926302 0.902136
O O10 0.272267 0.758650 0.000000
O O11 0.500000 0.000000 0.891339
O O12 0.331386 0.060827 0.000000
#
# Coordination Sequence:
#
# PCOD9444565 Si02
#       5
#     8   8   8   8   8
#     4  11  26  46  68  95 129 172 219 268 327 392
#     4  10  21  38  63  95 131 170 214 266 323 384
#     4  11  26  46  68  95 129 172 219 268 327 392
#     4  10  21  38  63  95 131 170 214 266 323 384
#     4   9  17  31  55  89 127 167 210 257 312 373
#
# _framework density 25.458046
#
# number of rings (size 3 to 8) (size 9 to 14) (size 15 to 20)
#    0.000    1.800    0.000    3.000    2.800    8.800 
#    0.000    4.000    0.000    0.000    0.000    0.000 
#    0.000    0.000    0.000    0.000    0.000    0.000 
#
# Total GULP energy -224085.320675 kJ/mol
# GULP energy per Si atom -5602.133017 kJ/mol
# Density = 2.540010 g / cm^3
# Si number density = 25.458046 Si / 1000 Ang^3
#
#
#
# Elastic Constant Matrix: (Units=GPa)
#
#
# Indices 1 2 3 4 5 6 
#
# 1 72.0737 8.9776 7.2628 0.0000 0.0000 0.0000
# 2 8.9776 87.0733 19.1968 0.0000 0.0000 0.0000
# 3 7.2628 19.1968 100.9809 0.0000 0.0000 0.0000
# 4 0.0000 0.0000 0.0000 19.9031 0.0000 0.0000
# 5 0.0000 0.0000 0.0000 0.0000 27.3279 0.0000
# 6 0.0000 0.0000 0.0000 0.0000 0.0000 39.6062
#
#
#
# Elastic Compliance Matrix: (Units=1/GPa)
#
#
# Indices 1 2 3 4 5 6 
#
# 1 0.014112 -0.001285 -0.000771 0.000000 0.000000 0.000000
# 2 -0.001285 0.012104 -0.002209 0.000000 0.000000 0.000000
# 3 -0.000771 -0.002209 0.010378 0.000000 0.000000 0.000000
# 4 0.000000 0.000000 0.000000 0.050243 0.000000 0.000000
# 5 0.000000 0.000000 0.000000 0.000000 0.036593 0.000000
# 6 0.000000 0.000000 0.000000 0.000000 0.000000 0.025249
#
#
# Mechanical properties :
#
#
# Convention : Reuss Voigt Hill
#
# Bulk Modulus (GPa) = 35.63062 36.77805 36.20434
# Shear Modulus (GPa) = 30.01864 32.34683 31.18274
#
# Velocity S-wave (km/s) = 3.43759 3.56841 3.50361
# Velocity P-wave (km/s) = 5.45731 5.60856 5.53345
#
# Compressibility (1/GPa) = 0.02806575
#
# Stress axis : x y z
#
# Youngs Moduli (GPa) = 70.85957 82.61732 96.35627
#
# Poissons Ratio (x) = 0.10617 0.07426
# Poissons Ratio (y) = 0.09106 0.21281
# Poissons Ratio (z) = 0.05461 0.18247
#
# Static dielectric constant tensor:
#      x y z
#    x 1.979230 0.000000 0.000000 
#    y 0.000000 2.005490 0.000000 
#    z 0.000000 0.000000 2.029860 
# 
# From -- ./inp_files/28735.got.cif
#   From: 2010.05.17/outbox.cif.g08.bks.cpg/sg58_15_cif.got.tgz:28735.got - 2010.06.03 14:20:14.
