data_PCOD9444271
_publ_section_title
;
Structure prediction by ZEFSAII (Michael W. Deem and Ramdas Pophale) SiO2 
 PCOD9444271
Probable space group: P N N M
;
_chemical_formula_sum "Si O2"
_cell_formula_units_Z 58
_cell_length_a 8.877095
_cell_length_b 14.855191
_cell_length_c 17.956206
_cell_angle_alpha 90.000000
_cell_angle_beta 90.000000
_cell_angle_gamma 90.000000
_cell_volume 2367.901795
_symmetry_space_group_name_H-M "P N N M"
_symmetry_group_IT_number 58
_symmetry_cell_setting 'orthorhombic'
loop_
_space_group_symop_operation_xyz
x,y,z
-x,-y,z
1/2+x,1/2-y,1/2-z
1/2-x,1/2+y,1/2-z
-x,-y,-z
x,y,-z
1/2-x,1/2+y,1/2+z
1/2+x,1/2-y,1/2+z
loop_
_atom_site_type_symbol
_atom_site_label
_atom_site_fract_x
_atom_site_fract_y
_atom_site_fract_z
Si Si1 0.650830 0.618621 0.587064
Si Si2 0.381339 0.334174 0.838094
Si Si3 0.378132 0.930035 0.654467
Si Si4 0.834097 0.458435 0.642738
Si Si5 0.666358 0.304535 0.581132
Si Si6 0.698471 0.306967 0.914914
Si Si7 0.898944 0.323189 0.773965
Si Si8 0.500000 0.000000 0.500000
O O1 0.632621 0.588256 0.500000
O O2 0.715804 0.539543 0.637578
O O3 0.490544 0.658123 0.614567
O O4 0.772259 0.699686 0.585133
O O5 0.300254 0.430914 0.831939
O O6 0.262131 0.277044 0.887072
O O7 0.536419 0.332535 0.883248
O O8 0.394667 0.274951 0.763334
O O9 0.430169 0.846059 0.706046
O O10 0.414036 0.941765 0.567144
O O11 0.500000 0.000000 0.687270
O O12 0.781109 0.388027 0.580411
O O13 0.830916 0.392534 0.714072
O O14 0.000000 0.500000 0.632920
O O15 0.614117 0.276036 0.500000
O O16 0.816816 0.338481 0.852892
O O17 0.726453 0.340326 0.000000
#
# Coordination Sequence:
#
# PCOD9444271 Si02
#       8
#     8   8   8   8   8   8   8   2
#     4  10  21  40  64  96 134 175 220 272 339 423
#     4  11  23  42  68  98 137 175 229 294 354 416
#     4  10  23  43  70  97 130 181 240 285 352 431
#     4  11  23  39  61  92 132 176 223 278 340 406
#     4  10  21  36  64  97 134 181 223 273 340 417
#     4  11  25  41  69 102 135 174 227 293 347 402
#     4  11  24  43  64  96 134 182 224 283 354 427
#     4   8  24  40  76  98 124 188 244 290 350 428
#
# _framework density 24.494260000000001
#
# number of rings (size 3 to 8) (size 9 to 14) (size 15 to 20)
#    0.414    1.103    0.000    4.966    2.897    5.517 
#    0.000    4.828    0.000    1.655    0.000    0.000 
#    0.000    0.000    0.000    0.000    0.000    0.000 
#
# Total GULP energy -323128.836656 kJ/mol
# GULP energy per Si atom -5571.186839 kJ/mol
# Density = 2.443851 g / cm^3
# Si number density = 24.494260 Si / 1000 Ang^3
#
#
#
# Elastic Constant Matrix: (Units=GPa)
#
#
# Indices 1 2 3 4 5 6 
#
# 1 51.4270 -10.6335 22.6796 0.0000 0.0000 0.0000
# 2 -10.6335 30.6893 3.6859 0.0000 0.0000 0.0000
# 3 22.6796 3.6859 126.3761 0.0000 0.0000 0.0000
# 4 0.0000 0.0000 0.0000 8.9500 0.0000 0.0000
# 5 0.0000 0.0000 0.0000 0.0000 21.6024 0.0000
# 6 0.0000 0.0000 0.0000 0.0000 0.0000 43.5809
#
#
#
# Elastic Compliance Matrix: (Units=1/GPa)
#
#
# Indices 1 2 3 4 5 6 
#
# 1 0.023156 0.008552 -0.004405 0.000000 0.000000 0.000000
# 2 0.008552 0.035858 -0.002581 0.000000 0.000000 0.000000
# 3 -0.004405 -0.002581 0.008779 0.000000 0.000000 0.000000
# 4 0.000000 0.000000 0.000000 0.111732 0.000000 0.000000
# 5 0.000000 0.000000 0.000000 0.000000 0.046291 0.000000
# 6 0.000000 0.000000 0.000000 0.000000 0.000000 0.022946
#
#
# Mechanical properties :
#
#
# Convention : Reuss Voigt Hill
#
# Bulk Modulus (GPa) = 14.09923 26.66183 20.38053
# Shear Modulus (GPa) = 18.56870 27.67735 23.12303
#
# Velocity S-wave (km/s) = 2.75632 3.36512 3.07582
# Velocity P-wave (km/s) = 3.98727 5.09974 4.57743
#
# Compressibility (1/GPa) = 0.07092586
#
# Stress axis : x y z
#
# Youngs Moduli (GPa) = 43.18528 27.88789 113.91218
#
# Poissons Ratio (x) = -0.23851 0.50179
# Poissons Ratio (y) = -0.36933 0.29397
# Poissons Ratio (z) = 0.19023 0.07197
#
# Static dielectric constant tensor:
#      x y z
#    x 2.003400 0.000000 0.000000 
#    y 0.000000 2.263460 0.000000 
#    z 0.000000 0.000000 1.988270 
# 
# From -- ./inp_files/25540.got.cif
#   From: 2010.05.17/outbox.cif.g08.bks.cpg/sg58_13_cif.got.tgz:25540.got - 2010.06.03 14:20:14.
