data_PCOD9444882
_publ_section_title
;
Structure prediction by ZEFSAII (Michael W. Deem and Ramdas Pophale) SiO2 
 PCOD9444882
Probable space group: P N N M
;
_chemical_formula_sum "Si O2"
_cell_formula_units_Z 64
_cell_length_a 14.862901
_cell_length_b 9.054746
_cell_length_c 25.299057
_cell_angle_alpha 90.000000
_cell_angle_beta 90.000000
_cell_angle_gamma 90.000000
_cell_volume 3404.741864
_symmetry_space_group_name_H-M "P N N M"
_symmetry_group_IT_number 58
_symmetry_cell_setting 'orthorhombic'
loop_
_space_group_symop_operation_xyz
x,y,z
-x,-y,z
1/2+x,1/2-y,1/2-z
1/2-x,1/2+y,1/2-z
-x,-y,-z
x,y,-z
1/2-x,1/2+y,1/2+z
1/2+x,1/2-y,1/2+z
loop_
_atom_site_type_symbol
_atom_site_label
_atom_site_fract_x
_atom_site_fract_y
_atom_site_fract_z
Si Si1 0.802542 0.067179 0.562411
Si Si2 0.835051 0.802642 0.631726
Si Si3 0.516651 0.675788 0.668731
Si Si4 0.798405 0.069856 0.163872
Si Si5 0.246239 0.493302 0.220552
Si Si6 0.535754 0.657666 0.861931
Si Si7 0.066303 0.637176 0.732406
Si Si8 0.329806 0.765683 0.365082
O O1 0.810060 0.075709 0.500000
O O2 0.893053 0.125184 0.592029
O O3 0.718813 0.160500 0.585120
O O4 0.795600 0.899259 0.583760
O O5 0.789792 0.648037 0.643198
O O6 0.940042 0.776320 0.621674
O O7 0.808124 0.902979 0.683393
O O8 0.500000 0.500000 0.675896
O O9 0.617706 0.672130 0.646352
O O10 0.517973 0.760955 0.723991
O O11 0.438393 0.754253 0.635249
O O12 0.798504 0.062963 0.227791
O O13 0.803019 0.904099 0.143217
O O14 0.159945 0.580206 0.243500
O O15 0.206233 0.362366 0.184429
O O16 0.500000 0.500000 0.839703
O O17 0.580281 0.762084 0.818747
O O18 0.000000 0.500000 0.721089
#
# Coordination Sequence:
#
# PCOD9444882 Si02
#       8
#     8   8   8   8   8   8   8   8
#     4  10  23  45  68  82 108 156 211 268 319 361
#     4  10  22  36  57  87 119 155 205 256 295 365
#     4  10  22  34  55  84 123 170 197 232 294 365
#     4  11  21  35  56  86 128 161 193 241 299 368
#     4  11  21  33  51  85 126 170 200 229 287 365
#     4  10  23  37  56  85 120 156 205 253 302 367
#     4  12  21  33  53  85 129 171 196 236 283 358
#     4  10  22  39  57  86 117 157 204 249 297 364
#
# _framework density 18.797312999999999
#
# number of rings (size 3 to 8) (size 9 to 14) (size 15 to 20)
#    0.000    1.500    2.500    2.625    8.750    2.250 
#    0.000    0.625    0.000    7.500    0.000    0.000 
#    0.000    0.000    0.000    0.000    0.000    0.000 
#
# Total GULP energy -357351.990254 kJ/mol
# GULP energy per Si atom -5583.624848 kJ/mol
# Density = 1.875453 g / cm^3
# Si number density = 18.797313 Si / 1000 Ang^3
#
#
#
# Elastic Constant Matrix: (Units=GPa)
#
#
# Indices 1 2 3 4 5 6 
#
# 1 79.3455 8.5491 31.8720 0.0000 0.0000 0.0000
# 2 8.5491 45.2023 37.5255 0.0000 0.0000 0.0000
# 3 31.8720 37.5255 104.5875 0.0000 0.0000 0.0000
# 4 0.0000 0.0000 0.0000 4.4222 0.0000 0.0000
# 5 0.0000 0.0000 0.0000 0.0000 17.8078 0.0000
# 6 0.0000 0.0000 0.0000 0.0000 0.0000 27.2767
#
#
#
# Elastic Compliance Matrix: (Units=1/GPa)
#
#
# Indices 1 2 3 4 5 6 
#
# 1 0.014415 0.001311 -0.004863 0.000000 0.000000 0.000000
# 2 0.001311 0.031627 -0.011747 0.000000 0.000000 0.000000
# 3 -0.004863 -0.011747 0.015258 0.000000 0.000000 0.000000
# 4 0.000000 0.000000 0.000000 0.226133 0.000000 0.000000
# 5 0.000000 0.000000 0.000000 0.000000 0.056155 0.000000
# 6 0.000000 0.000000 0.000000 0.000000 0.000000 0.036661
#
#
# Mechanical properties :
#
#
# Convention : Reuss Voigt Hill
#
# Bulk Modulus (GPa) = 32.57156 42.78097 37.67627
# Shear Modulus (GPa) = 11.87416 19.98058 15.92737
#
# Velocity S-wave (km/s) = 2.51608 3.26383 2.91404
# Velocity P-wave (km/s) = 5.07999 6.08374 5.60438
#
# Compressibility (1/GPa) = 0.03070163
#
# Stress axis : x y z
#
# Youngs Moduli (GPa) = 69.37030 31.61869 65.53841
#
# Poissons Ratio (x) = -0.04145 0.31873
# Poissons Ratio (y) = -0.09094 0.76989
# Poissons Ratio (z) = 0.33737 0.37143
#
# Static dielectric constant tensor:
#      x y z
#    x 1.732930 0.000000 0.000000 
#    y 0.000000 1.683310 0.000000 
#    z 0.000000 0.000000 1.605590 
# 
# From -- ./inp_files/32223.got.cif
#   From: 2010.05.17/outbox.cif.g08.bks.cpg/sg58_17_cif.got.tgz:32223.got - 2010.06.03 14:20:14.
