data_PCOD9444189
_publ_section_title
;
Structure prediction by ZEFSAII (Michael W. Deem and Ramdas Pophale) SiO2 
 PCOD9444189
Probable space group: P N N M
;
_chemical_formula_sum "Si O2"
_cell_formula_units_Z 48
_cell_length_a 20.151448
_cell_length_b 15.300127
_cell_length_c 9.095498
_cell_angle_alpha 90.000000
_cell_angle_beta 90.000000
_cell_angle_gamma 90.000000
_cell_volume 2804.321339
_symmetry_space_group_name_H-M "P N N M"
_symmetry_group_IT_number 58
_symmetry_cell_setting 'orthorhombic'
loop_
_space_group_symop_operation_xyz
x,y,z
-x,-y,z
1/2+x,1/2-y,1/2-z
1/2-x,1/2+y,1/2-z
-x,-y,-z
x,y,-z
1/2-x,1/2+y,1/2+z
1/2+x,1/2-y,1/2+z
loop_
_atom_site_type_symbol
_atom_site_label
_atom_site_fract_x
_atom_site_fract_y
_atom_site_fract_z
Si Si1 0.440577 0.432925 0.324645
Si Si2 0.168276 0.200348 0.675261
Si Si3 0.988268 0.777671 0.673998
Si Si4 0.815760 0.618411 0.175980
Si Si5 0.692294 0.495388 0.823019
Si Si6 0.955662 0.582997 0.676429
O O1 0.500000 0.500000 0.285815
O O2 0.433569 0.431880 0.500000
O O3 0.463459 0.339012 0.265153
O O4 0.373042 0.465202 0.251061
O O5 0.176762 0.213770 0.500000
O O6 0.088735 0.196711 0.702566
O O7 0.195504 0.284436 0.759946
O O8 0.198405 0.106884 0.717850
O O9 0.000411 0.790072 0.500000
O O10 0.992104 0.674825 0.708981
O O11 0.756220 0.553007 0.215499
O O12 0.885090 0.585460 0.243500
O O13 0.820749 0.622659 0.000000
O O14 0.683828 0.497949 0.000000
O O15 0.944144 0.581809 0.500000
O O16 0.000000 0.500000 0.716408
#
# Coordination Sequence:
#
# PCOD9444189 Si02
#       6
#     8   8   8   8   8   8
#     4  11  22  33  51  83 114 139 176 226 274 316
#     4   9  18  35  58  77 102 145 184 215 263 326
#     4   9  17  32  56  79 103 142 181 217 263 320
#     4  10  21  36  56  83 111 140 180 228 273 319
#     4  10  21  38  57  77 108 148 184 219 268 330
#     4   9  19  38  61  82 107 144 186 221 264 326
#
# _framework density 17.116440000000001
#
# number of rings (size 3 to 8) (size 9 to 14) (size 15 to 20)
#    0.000    2.333    1.667    2.000    0.000    5.667 
#    3.000    0.000    0.000    0.000    0.000    0.000 
#    0.000    0.000    0.000    0.000    0.000    0.000 
#
# Total GULP energy -267819.239248 kJ/mol
# GULP energy per Si atom -5579.567484 kJ/mol
# Density = 1.707748 g / cm^3
# Si number density = 17.116440 Si / 1000 Ang^3
#
#
#
# Elastic Constant Matrix: (Units=GPa)
#
#
# Indices 1 2 3 4 5 6 
#
# 1 94.4375 96.5814 47.8821 0.0000 0.0000 0.0000
# 2 96.5814 179.8478 59.2320 0.0000 0.0000 0.0000
# 3 47.8821 59.2320 32.0267 0.0000 0.0000 0.0000
# 4 0.0000 0.0000 0.0000 27.1075 0.0000 0.0000
# 5 0.0000 0.0000 0.0000 0.0000 23.7658 0.0000
# 6 0.0000 0.0000 0.0000 0.0000 0.0000 32.3999
#
#
#
# Elastic Compliance Matrix: (Units=1/GPa)
#
#
# Indices 1 2 3 4 5 6 
#
# 1 0.045591 -0.005205 -0.058535 0.000000 0.000000 0.000000
# 2 -0.005205 0.014819 -0.019625 0.000000 0.000000 0.000000
# 3 -0.058535 -0.019625 0.155034 0.000000 0.000000 0.000000
# 4 0.000000 0.000000 0.000000 0.036890 0.000000 0.000000
# 5 0.000000 0.000000 0.000000 0.000000 0.042077 0.000000
# 6 0.000000 0.000000 0.000000 0.000000 0.000000 0.030864
#
#
# Mechanical properties :
#
#
# Convention : Reuss Voigt Hill
#
# Bulk Modulus (GPa) = 20.52839 79.30033 49.91436
# Shear Modulus (GPa) = 9.83782 23.49574 16.66678
#
# Velocity S-wave (km/s) = 2.40001 3.70902 3.12385
# Velocity P-wave (km/s) = 4.43841 8.04816 6.49894
#
# Compressibility (1/GPa) = 0.04871303
#
# Stress axis : x y z
#
# Youngs Moduli (GPa) = 21.93431 67.48213 6.45021
#
# Poissons Ratio (x) = 0.35123 0.37756
# Poissons Ratio (y) = 0.11416 0.12659
# Poissons Ratio (z) = 1.28393 1.32435
#
# Static dielectric constant tensor:
#      x y z
#    x 1.544120 0.000000 0.000000 
#    y 0.000000 1.586230 0.000000 
#    z 0.000000 0.000000 1.570250 
# 
# From -- ./inp_files/5846.got.cif
#   From: 2010.05.17/outbox.cif.g08.bks.cpg/sg58_3_cif.got.tgz:5846.got - 2010.06.03 14:20:14.
