data_PCOD9444402
_publ_section_title
;
Structure prediction by ZEFSAII (Michael W. Deem and Ramdas Pophale) SiO2 
 PCOD9444402
Probable space group: P N N M
;
_chemical_formula_sum "Si O2"
_cell_formula_units_Z 40
_cell_length_a 8.167901
_cell_length_b 11.156294
_cell_length_c 16.736573
_cell_angle_alpha 90.000000
_cell_angle_beta 90.000000
_cell_angle_gamma 90.000000
_cell_volume 1525.095192
_symmetry_space_group_name_H-M "P N N M"
_symmetry_group_IT_number 58
_symmetry_cell_setting 'orthorhombic'
loop_
_space_group_symop_operation_xyz
x,y,z
-x,-y,z
1/2+x,1/2-y,1/2-z
1/2-x,1/2+y,1/2-z
-x,-y,-z
x,y,-z
1/2-x,1/2+y,1/2+z
1/2+x,1/2-y,1/2+z
loop_
_atom_site_type_symbol
_atom_site_label
_atom_site_fract_x
_atom_site_fract_y
_atom_site_fract_z
Si Si1 0.468502 0.645391 0.500000
Si Si2 0.173626 0.449499 0.335315
Si Si3 0.830262 0.140846 0.698607
Si Si4 0.542431 0.796256 0.344650
Si Si5 0.366754 0.679159 0.095596
Si Si6 0.823808 0.438753 0.500000
O O1 0.500000 0.500000 0.500000
O O2 0.538290 0.701576 0.418890
O O3 0.274337 0.684746 0.500000
O O4 0.303015 0.461561 0.264940
O O5 0.229407 0.521522 0.412022
O O6 0.000000 0.500000 0.307268
O O7 0.140247 0.314941 0.368112
O O8 0.645468 0.165163 0.668046
O O9 0.966560 0.127093 0.631802
O O10 0.896115 0.244618 0.759469
O O11 0.194389 0.621147 0.124632
O O12 0.373355 0.684876 0.000000
O O13 0.000000 0.500000 0.500000
#
# Coordination Sequence:
#
# PCOD9444402 Si02
#       6
#     4   8   8   8   8   4
#     4  12  24  38  58  96 139 164 205 262 339 392
#     4  10  21  37  60  93 133 166 208 265 316 393
#     4  11  23  38  61  87 126 175 212 261 326 380
#     4  11  23  38  59  90 132 169 211 261 309 397
#     4  11  22  40  61  91 129 162 219 268 319 394
#     4  10  22  36  62  96 138 173 198 249 334 402
#
# _framework density 26.227872000000001
#
# number of rings (size 3 to 8) (size 9 to 14) (size 15 to 20)
#    0.000    1.200    6.000    2.400    7.000    0.000 
#    0.000    0.000    0.000    0.600    0.000    1.400 
#    0.000    0.000    0.000    0.000    0.000    0.000 
#
# Total GULP energy -223088.940535 kJ/mol
# GULP energy per Si atom -5577.223513 kJ/mol
# Density = 2.616818 g / cm^3
# Si number density = 26.227872 Si / 1000 Ang^3
#
#
#
# Elastic Constant Matrix: (Units=GPa)
#
#
# Indices 1 2 3 4 5 6 
#
# 1 265.8981 21.2652 94.1026 0.0000 0.0000 0.0000
# 2 21.2652 40.3615 28.8002 0.0000 0.0000 0.0000
# 3 94.1026 28.8002 199.6148 0.0000 0.0000 0.0000
# 4 0.0000 0.0000 0.0000 32.1033 0.0000 0.0000
# 5 0.0000 0.0000 0.0000 0.0000 51.0246 0.0000
# 6 0.0000 0.0000 0.0000 0.0000 0.0000 29.6597
#
#
#
# Elastic Compliance Matrix: (Units=1/GPa)
#
#
# Indices 1 2 3 4 5 6 
#
# 1 0.004547 -0.000966 -0.002004 0.000000 0.000000 0.000000
# 2 -0.000966 0.027825 -0.003559 0.000000 0.000000 0.000000
# 3 -0.002004 -0.003559 0.006468 0.000000 0.000000 0.000000
# 4 0.000000 0.000000 0.000000 0.031149 0.000000 0.000000
# 5 0.000000 0.000000 0.000000 0.000000 0.019598 0.000000
# 6 0.000000 0.000000 0.000000 0.000000 0.000000 0.033716
#
#
# Mechanical properties :
#
#
# Convention : Reuss Voigt Hill
#
# Bulk Modulus (GPa) = 38.78757 88.24562 63.51659
# Shear Modulus (GPa) = 34.49315 46.67127 40.58221
#
# Velocity S-wave (km/s) = 3.63041 4.22293 3.93783
# Velocity P-wave (km/s) = 5.69157 7.58263 6.70411
#
# Compressibility (1/GPa) = 0.02578145
#
# Stress axis : x y z
#
# Youngs Moduli (GPa) = 219.90363 35.93941 154.60449
#
# Poissons Ratio (x) = 0.03470 0.30990
# Poissons Ratio (y) = 0.21234 0.55028
# Poissons Ratio (z) = 0.44078 0.12792
#
# Static dielectric constant tensor:
#      x y z
#    x 2.604050 0.000000 0.000000 
#    y 0.000000 2.337210 0.000000 
#    z 0.000000 0.000000 1.965430 
# 
# From -- ./inp_files/19516.got.cif
#   From: 2010.05.17/outbox.cif.g08.bks.cpg/sg58_10_cif.got.tgz:19516.got - 2010.06.03 14:20:14.
