data_PCOD9444639
_publ_section_title
;
Structure prediction by ZEFSAII (Michael W. Deem and Ramdas Pophale) SiO2 
 PCOD9444639
Probable space group: P N N M
;
_chemical_formula_sum "Si O2"
_cell_formula_units_Z 58
_cell_length_a 10.031611
_cell_length_b 35.198529
_cell_length_c 8.029794
_cell_angle_alpha 90.000000
_cell_angle_beta 90.000000
_cell_angle_gamma 90.000000
_cell_volume 2835.303806
_symmetry_space_group_name_H-M "P N N M"
_symmetry_group_IT_number 58
_symmetry_cell_setting 'orthorhombic'
loop_
_space_group_symop_operation_xyz
x,y,z
-x,-y,z
1/2+x,1/2-y,1/2-z
1/2-x,1/2+y,1/2-z
-x,-y,-z
x,y,-z
1/2-x,1/2+y,1/2+z
1/2+x,1/2-y,1/2+z
loop_
_atom_site_type_symbol
_atom_site_label
_atom_site_fract_x
_atom_site_fract_y
_atom_site_fract_z
Si Si1 0.971431 0.132337 0.690943
Si Si2 0.961140 0.216516 0.299029
Si Si3 0.820274 0.635074 0.311486
Si Si4 0.344949 0.784074 0.301443
Si Si5 0.500000 0.500000 0.000000
Si Si6 0.522508 0.448958 0.683066
Si Si7 0.066614 0.440851 0.194464
Si Si8 0.214733 0.516450 0.803131
O O1 0.017194 0.128756 0.500000
O O2 0.006742 0.174384 0.756358
O O3 0.810220 0.131405 0.697069
O O4 0.020834 0.096111 0.791032
O O5 0.959010 0.215298 0.500000
O O6 0.807936 0.222619 0.242949
O O7 0.058395 0.249876 0.245133
O O8 0.770330 0.635904 0.500000
O O9 0.888262 0.675218 0.271694
O O10 0.911235 0.598327 0.287310
O O11 0.342338 0.787724 0.500000
O O12 0.538452 0.531223 0.152451
O O13 0.464427 0.457637 0.500000
O O14 0.672890 0.464604 0.693714
O O15 0.166305 0.474623 0.247708
O O16 0.918510 0.458162 0.202575
O O17 0.094445 0.434097 0.000000
O O18 0.266579 0.516210 0.000000
#
# Coordination Sequence:
#
# PCOD9444639 Si02
#       8
#     8   8   8   8   2   8   8   8
#     4  10  21  41  62  86 123 162 197 250 311 366
#     4   9  20  39  64  90 121 158 200 250 314 375
#     4  11  22  35  57  88 121 152 201 252 295 359
#     4  10  21  39  62  90 121 158 200 250 312 380
#     4  12  26  44  60  84 128 160 198 260 302 358
#     4  12  25  40  62  91 121 160 209 253 307 368
#     4   9  19  36  61  82 111 159 200 240 305 363
#     4   9  19  39  59  82 117 157 199 250 304 359
#
# _framework density 20.456363
#
# number of rings (size 3 to 8) (size 9 to 14) (size 15 to 20)
#    0.000    1.931    1.379    3.931    1.931    4.414 
#    2.483    1.379    0.000    0.000    0.000    0.000 
#    0.000    0.000    0.000    0.000    0.000    0.000 
#
# Total GULP energy -323511.513481 kJ/mol
# GULP energy per Si atom -5577.784715 kJ/mol
# Density = 2.040980 g / cm^3
# Si number density = 20.456363 Si / 1000 Ang^3
#
#
#
# Elastic Constant Matrix: (Units=GPa)
#
#
# Indices 1 2 3 4 5 6 
#
# 1 46.5281 53.9503 28.6366 0.0000 0.0000 0.0000
# 2 53.9503 193.3269 51.8736 0.0000 0.0000 0.0000
# 3 28.6366 51.8736 88.1979 0.0000 0.0000 0.0000
# 4 0.0000 0.0000 0.0000 28.6678 0.0000 0.0000
# 5 0.0000 0.0000 0.0000 0.0000 21.1432 0.0000
# 6 0.0000 0.0000 0.0000 0.0000 0.0000 30.7321
#
#
#
# Elastic Compliance Matrix: (Units=1/GPa)
#
#
# Indices 1 2 3 4 5 6 
#
# 1 0.034755 -0.007921 -0.006626 0.000000 0.000000 0.000000
# 2 -0.007921 0.007947 -0.002102 0.000000 0.000000 0.000000
# 3 -0.006626 -0.002102 0.014726 0.000000 0.000000 0.000000
# 4 0.000000 0.000000 0.000000 0.034882 0.000000 0.000000
# 5 0.000000 0.000000 0.000000 0.000000 0.047296 0.000000
# 6 0.000000 0.000000 0.000000 0.000000 0.000000 0.032539
#
#
# Mechanical properties :
#
#
# Convention : Reuss Voigt Hill
#
# Bulk Modulus (GPa) = 41.44224 66.33041 53.88633
# Shear Modulus (GPa) = 23.42064 29.01479 26.21772
#
# Velocity S-wave (km/s) = 3.38732 3.77022 3.58389
# Velocity P-wave (km/s) = 5.96669 7.17276 6.59734
#
# Compressibility (1/GPa) = 0.02412997
#
# Stress axis : x y z
#
# Youngs Moduli (GPa) = 28.77301 125.83190 67.90780
#
# Poissons Ratio (x) = 0.99671 0.44993
# Poissons Ratio (y) = 0.22791 0.14276
# Poissons Ratio (z) = 0.19064 0.26453
#
# Static dielectric constant tensor:
#      x y z
#    x 1.679120 0.000000 0.000000 
#    y 0.000000 1.733370 0.000000 
#    z 0.000000 0.000000 1.754640 
# 
# From -- ./inp_files/4610.got.cif
#   From: 2010.05.17/outbox.cif.g08.bks.cpg/sg58_3_cif.got.tgz:4610.got - 2010.06.03 14:20:14.
