data_PCOD9444841
_publ_section_title
;
Structure prediction by ZEFSAII (Michael W. Deem and Ramdas Pophale) SiO2 
 PCOD9444841
Probable space group: P N N M
;
_chemical_formula_sum "Si O2"
_cell_formula_units_Z 38
_cell_length_a 7.436984
_cell_length_b 10.035738
_cell_length_c 25.744687
_cell_angle_alpha 90.000000
_cell_angle_beta 90.000000
_cell_angle_gamma 90.000000
_cell_volume 1921.470751
_symmetry_space_group_name_H-M "P N N M"
_symmetry_group_IT_number 58
_symmetry_cell_setting 'orthorhombic'
loop_
_space_group_symop_operation_xyz
x,y,z
-x,-y,z
1/2+x,1/2-y,1/2-z
1/2-x,1/2+y,1/2-z
-x,-y,-z
x,y,-z
1/2-x,1/2+y,1/2+z
1/2+x,1/2-y,1/2+z
loop_
_atom_site_type_symbol
_atom_site_label
_atom_site_fract_x
_atom_site_fract_y
_atom_site_fract_z
Si Si1 0.000000 0.000000 0.000000
Si Si2 0.867589 0.191987 0.353383
Si Si3 0.000000 0.000000 0.814083
Si Si4 0.477575 0.700408 0.597204
Si Si5 0.152076 0.611507 0.260221
Si Si6 0.264709 0.111947 0.642050
O O1 0.000994 0.883643 0.045627
O O2 0.732701 0.277714 0.389000
O O3 0.871716 0.259093 0.296400
O O4 0.074539 0.182491 0.370057
O O5 0.782958 0.044526 0.354384
O O6 0.944301 0.115417 0.854309
O O7 0.161107 0.048102 0.778476
O O8 0.587981 0.838074 0.601054
O O9 0.162498 0.644356 0.199711
O O10 0.000000 0.500000 0.269265
#
# Coordination Sequence:
#
# PCOD9444841 Si02
#       6
#     2   8   4   8   8   8
#     4  10  24  48  76  96 112 166 230 292 336 382
#     4  10  23  38  57  91 132 170 214 257 318 392
#     4   9  20  35  56  86 126 165 210 257 304 394
#     4  10  21  42  65  89 124 162 216 278 330 373
#     4  11  22  33  56  87 128 179 215 246 305 376
#     4  11  23  36  58  89 133 173 211 261 313 392
#
# _framework density 19.776516999999998
#
# number of rings (size 3 to 8) (size 9 to 14) (size 15 to 20)
#    0.000    1.684    0.000    4.421   11.789    0.000 
#    0.000    4.211    0.000    2.526    0.000    0.000 
#    0.000    0.000    0.000    0.000    0.000    0.000 
#
# Total GULP energy -211744.752946 kJ/mol
# GULP energy per Si atom -5572.230341 kJ/mol
# Density = 1.973151 g / cm^3
# Si number density = 19.776517 Si / 1000 Ang^3
#
#
#
# Elastic Constant Matrix: (Units=GPa)
#
#
# Indices 1 2 3 4 5 6 
#
# 1 83.5727 35.3166 34.0549 0.0000 0.0000 0.0000
# 2 35.3166 90.7211 47.4144 0.0000 0.0000 0.0000
# 3 34.0549 47.4144 115.7101 0.0000 0.0000 0.0000
# 4 0.0000 0.0000 0.0000 20.0319 0.0000 0.0000
# 5 0.0000 0.0000 0.0000 0.0000 -0.5854 0.0000
# 6 0.0000 0.0000 0.0000 0.0000 0.0000 20.6303
#
#
#
# Elastic Compliance Matrix: (Units=1/GPa)
#
#
# Indices 1 2 3 4 5 6 
#
# 1 0.014892 -0.004462 -0.002554 0.000000 0.000000 0.000000
# 2 -0.004462 0.015364 -0.004982 0.000000 0.000000 0.000000
# 3 -0.002554 -0.004982 0.011436 0.000000 0.000000 0.000000
# 4 0.000000 0.000000 0.000000 0.049920 0.000000 0.000000
# 5 0.000000 0.000000 0.000000 0.000000 -1.708346 0.000000
# 6 0.000000 0.000000 0.000000 0.000000 0.000000 0.048473
#
#
# Mechanical properties :
#
#
# Convention : Reuss Voigt Hill
#
# Bulk Modulus (GPa) = 56.51749 58.17508 57.34628
# Shear Modulus (GPa) = -3.25020 19.56322 8.15651
#
# Velocity S-wave (km/s) = -1.28337 3.14859 2.03305
# Velocity P-wave (km/s) = 5.14238 6.53439 5.87973
#
# Compressibility (1/GPa) = 0.01769364
#
# Stress axis : x y z
#
# Youngs Moduli (GPa) = 67.14903 65.08776 87.44544
#
# Poissons Ratio (x) = 0.29044 0.22338
# Poissons Ratio (y) = 0.29964 0.43568
# Poissons Ratio (z) = 0.17153 0.32429
#
# Static dielectric constant tensor:
#      x y z
#    x 1.729230 0.000000 0.000000 
#    y 0.000000 1.812300 0.000000 
#    z 0.000000 0.000000 1.625380 
# 
# From -- ./inp_files/31326.got.cif
#   From: 2010.05.17/outbox.cif.g08.bks.cpg/sg58_16_cif.got.tgz:31326.got - 2010.06.03 14:20:14.
