data_PCOD9444055
_publ_section_title
;
Structure prediction by ZEFSAII (Michael W. Deem and Ramdas Pophale) SiO2 
 PCOD9444055
Probable space group: P N N M
;
_chemical_formula_sum "Si O2"
_cell_formula_units_Z 40
_cell_length_a 11.135407
_cell_length_b 7.597236
_cell_length_c 22.279249
_cell_angle_alpha 90.000000
_cell_angle_beta 90.000000
_cell_angle_gamma 90.000000
_cell_volume 1884.786923
_symmetry_space_group_name_H-M "P N N M"
_symmetry_group_IT_number 58
_symmetry_cell_setting 'orthorhombic'
loop_
_space_group_symop_operation_xyz
x,y,z
-x,-y,z
1/2+x,1/2-y,1/2-z
1/2-x,1/2+y,1/2-z
-x,-y,-z
x,y,-z
1/2-x,1/2+y,1/2+z
1/2+x,1/2-y,1/2+z
loop_
_atom_site_type_symbol
_atom_site_label
_atom_site_fract_x
_atom_site_fract_y
_atom_site_fract_z
Si Si1 0.127007 0.560310 0.738012
Si Si2 0.625181 0.533454 0.271129
Si Si3 0.163690 0.325474 0.430266
Si Si4 0.771649 0.966972 0.654119
Si Si5 0.381859 0.237964 0.930405
O O1 0.246000 0.511248 0.700964
O O2 0.126318 0.766292 0.750048
O O3 0.157064 0.480959 0.804482
O O4 0.000000 0.500000 0.713744
O O5 0.500000 0.500000 0.303306
O O6 0.633433 0.424668 0.208142
O O7 0.192705 0.288363 0.500000
O O8 0.243016 0.204305 0.386817
O O9 0.162042 0.536530 0.424000
O O10 0.025422 0.264000 0.419938
O O11 0.818401 0.125573 0.613636
O O12 0.362827 0.290071 0.000000
#
# Coordination Sequence:
#
# PCOD9444055 Si02
#       5
#     8   8   8   8   8
#     4  10  23  40  54  80 117 150 191 241 288 335
#     4  10  21  38  60  81 108 151 195 236 287 333
#     4   9  17  31  52  83 117 144 179 235 289 336
#     4  10  21  33  54  82 110 146 184 227 280 342
#     4   9  17  31  53  83 116 144 179 234 290 336
#
# _framework density 21.222559
#
# number of rings (size 3 to 8) (size 9 to 14) (size 15 to 20)
#    1.200    1.200    0.000    4.800    0.000    3.200 
#    3.600    0.000    0.000    2.400    0.000    2.800 
#    0.000    0.000    0.000    0.000    0.000    0.000 
#
# Total GULP energy -223084.823094 kJ/mol
# GULP energy per Si atom -5577.120577 kJ/mol
# Density = 2.117426 g / cm^3
# Si number density = 21.222559 Si / 1000 Ang^3
#
#
#
# Elastic Constant Matrix: (Units=GPa)
#
#
# Indices 1 2 3 4 5 6 
#
# 1 120.6769 16.7997 4.8549 0.0000 0.0000 0.0000
# 2 16.7997 54.1465 1.7736 0.0000 0.0000 0.0000
# 3 4.8549 1.7736 107.7235 0.0000 0.0000 0.0000
# 4 0.0000 0.0000 0.0000 39.2389 0.0000 0.0000
# 5 0.0000 0.0000 0.0000 0.0000 4.2898 0.0000
# 6 0.0000 0.0000 0.0000 0.0000 0.0000 26.6599
#
#
#
# Elastic Compliance Matrix: (Units=1/GPa)
#
#
# Indices 1 2 3 4 5 6 
#
# 1 0.008674 -0.002680 -0.000347 0.000000 0.000000 0.000000
# 2 -0.002680 0.019306 -0.000197 0.000000 0.000000 0.000000
# 3 -0.000347 -0.000197 0.009302 0.000000 0.000000 0.000000
# 4 0.000000 0.000000 0.000000 0.025485 0.000000 0.000000
# 5 0.000000 0.000000 0.000000 0.000000 0.233113 0.000000
# 6 0.000000 0.000000 0.000000 0.000000 0.000000 0.037509
#
#
# Mechanical properties :
#
#
# Convention : Reuss Voigt Hill
#
# Bulk Modulus (GPa) = 32.43117 36.60038 34.51577
# Shear Modulus (GPa) = 14.28105 31.31230 22.79668
#
# Velocity S-wave (km/s) = 2.59688 3.84529 3.28101
# Velocity P-wave (km/s) = 4.93015 6.08264 5.53646
#
# Compressibility (1/GPa) = 0.03083453
#
# Stress axis : x y z
#
# Youngs Moduli (GPa) = 115.29246 51.79659 107.50490
#
# Poissons Ratio (x) = 0.13880 0.03728
# Poissons Ratio (y) = 0.30895 0.02119
# Poissons Ratio (z) = 0.03998 0.01021
#
# Static dielectric constant tensor:
#      x y z
#    x 1.839130 0.000000 0.000000 
#    y 0.000000 1.858300 0.000000 
#    z 0.000000 0.000000 1.780600 
# 
# From -- ./inp_files/29404.got.cif
#   From: 2010.05.17/outbox.cif.g08.bks.cpg/sg58_15_cif.got.tgz:29404.got - 2010.06.03 14:20:14.
