data_PCOD9444492
_publ_section_title
;
Structure prediction by ZEFSAII (Michael W. Deem and Ramdas Pophale) SiO2 
 PCOD9444492
Probable space group: P N N M
;
_chemical_formula_sum "Si O2"
_cell_formula_units_Z 48
_cell_length_a 12.244052
_cell_length_b 22.990778
_cell_length_c 7.870574
_cell_angle_alpha 90.000000
_cell_angle_beta 90.000000
_cell_angle_gamma 90.000000
_cell_volume 2215.568795
_symmetry_space_group_name_H-M "P N N M"
_symmetry_group_IT_number 58
_symmetry_cell_setting 'orthorhombic'
loop_
_space_group_symop_operation_xyz
x,y,z
-x,-y,z
1/2+x,1/2-y,1/2-z
1/2-x,1/2+y,1/2-z
-x,-y,-z
x,y,-z
1/2-x,1/2+y,1/2+z
1/2+x,1/2-y,1/2+z
loop_
_atom_site_type_symbol
_atom_site_label
_atom_site_fract_x
_atom_site_fract_y
_atom_site_fract_z
Si Si1 0.188245 0.358751 0.696147
Si Si2 0.229234 0.625326 0.802241
Si Si3 0.987250 0.434721 0.200094
Si Si4 0.379564 0.732744 0.701828
Si Si5 0.923805 0.161044 0.804774
Si Si6 0.077963 0.048982 0.194961
O O1 0.195322 0.378106 0.500000
O O2 0.151529 0.291944 0.708053
O O3 0.309555 0.357121 0.774955
O O4 0.099508 0.399753 0.781975
O O5 0.113262 0.603956 0.729138
O O6 0.289822 0.681363 0.722677
O O7 0.312255 0.570673 0.783626
O O8 0.215933 0.640286 0.000000
O O9 0.000000 0.500000 0.271728
O O10 0.961051 0.441484 0.000000
O O11 0.389892 0.743707 0.500000
O O12 0.496866 0.710004 0.769216
O O13 0.001349 0.105362 0.812705
O O14 0.898449 0.179102 0.000000
O O15 0.105388 0.031236 0.000000
O O16 0.000000 0.000000 0.272818
#
# Coordination Sequence:
#
# PCOD9444492 Si02
#       6
#     8   8   8   8   8   8
#     4  11  23  38  61  91 119 151 197 248 296 353
#     4  10  21  38  60  86 118 154 197 249 296 348
#     4  10  24  44  61  83 122 168 205 244 303 362
#     4  10  21  40  63  87 118 156 194 238 305 365
#     4   8  18  36  55  81 115 147 183 237 293 344
#     4   9  18  34  59  85 113 152 192 234 293 352
#
# _framework density 21.664864000000001
#
# number of rings (size 3 to 8) (size 9 to 14) (size 15 to 20)
#    0.000    2.333    0.000    2.500    4.667    2.000 
#    0.000    7.500    0.000    0.000    0.000    0.000 
#    0.000    0.000    0.000    0.000    0.000    0.000 
#
# Total GULP energy -267740.932489 kJ/mol
# GULP energy per Si atom -5577.936094 kJ/mol
# Density = 2.161555 g / cm^3
# Si number density = 21.664864 Si / 1000 Ang^3
#
#
#
# Elastic Constant Matrix: (Units=GPa)
#
#
# Indices 1 2 3 4 5 6 
#
# 1 144.8755 28.1467 -5.5517 0.0000 0.0000 0.0000
# 2 28.1467 55.7749 -3.6482 0.0000 0.0000 0.0000
# 3 -5.5517 -3.6482 28.1690 0.0000 0.0000 0.0000
# 4 0.0000 0.0000 0.0000 23.2897 0.0000 0.0000
# 5 0.0000 0.0000 0.0000 0.0000 -5.5186 0.0000
# 6 0.0000 0.0000 0.0000 0.0000 0.0000 14.2958
#
#
#
# Elastic Compliance Matrix: (Units=1/GPa)
#
#
# Indices 1 2 3 4 5 6 
#
# 1 0.007682 -0.003810 0.001021 0.000000 0.000000 0.000000
# 2 -0.003810 0.019972 0.001836 0.000000 0.000000 0.000000
# 3 0.001021 0.001836 0.035939 0.000000 0.000000 0.000000
# 4 0.000000 0.000000 0.000000 0.042937 0.000000 0.000000
# 5 0.000000 0.000000 0.000000 0.000000 -0.181204 0.000000
# 6 0.000000 0.000000 0.000000 0.000000 0.000000 0.069951
#
#
# Mechanical properties :
#
#
# Convention : Reuss Voigt Hill
#
# Bulk Modulus (GPa) = 16.21128 29.63479 22.92303
# Shear Modulus (GPa) = 281.76038 20.40487 151.08262
#
# Velocity S-wave (km/s) = 11.41650 3.07227 8.35988
# Velocity P-wave (km/s) = 13.46406 5.12773 10.18760
#
# Compressibility (1/GPa) = 0.06168543
#
# Stress axis : x y z
#
# Youngs Moduli (GPa) = 130.17835 50.07032 27.82500
#
# Poissons Ratio (x) = 0.19076 -0.02840
# Poissons Ratio (y) = 0.49596 -0.05108
# Poissons Ratio (z) = -0.13285 -0.09191
#
# Static dielectric constant tensor:
#      x y z
#    x 1.816420 0.000000 0.000000 
#    y 0.000000 1.776620 0.000000 
#    z 0.000000 0.000000 1.796520 
# 
# From -- ./inp_files/4218.got.cif
#   From: 2010.05.17/outbox.cif.g08.bks.cpg/sg58_3_cif.got.tgz:4218.got - 2010.06.03 14:20:14.
