data_PCOD9444725
_publ_section_title
;
Structure prediction by ZEFSAII (Michael W. Deem and Ramdas Pophale) SiO2 
 PCOD9444725
Probable space group: P N N M
;
_chemical_formula_sum "Si O2"
_cell_formula_units_Z 64
_cell_length_a 8.952063
_cell_length_b 26.435943
_cell_length_c 12.824773
_cell_angle_alpha 90.000000
_cell_angle_beta 90.000000
_cell_angle_gamma 90.000000
_cell_volume 3035.062393
_symmetry_space_group_name_H-M "P N N M"
_symmetry_group_IT_number 58
_symmetry_cell_setting 'orthorhombic'
loop_
_space_group_symop_operation_xyz
x,y,z
-x,-y,z
1/2+x,1/2-y,1/2-z
1/2-x,1/2+y,1/2-z
-x,-y,-z
x,y,-z
1/2-x,1/2+y,1/2+z
1/2+x,1/2-y,1/2+z
loop_
_atom_site_type_symbol
_atom_site_label
_atom_site_fract_x
_atom_site_fract_y
_atom_site_fract_z
Si Si1 0.713936 0.211115 0.877810
Si Si2 0.541085 0.107687 0.117194
Si Si3 0.365497 0.381722 0.119425
Si Si4 0.298329 0.646306 0.617080
Si Si5 0.039390 0.054919 0.788701
Si Si6 0.276890 0.035259 0.611702
Si Si7 0.081636 0.428053 0.836479
Si Si8 0.003845 0.211411 0.733489
O O1 0.663507 0.152346 0.874672
O O2 0.865465 0.220472 0.812492
O O3 0.577460 0.241725 0.825601
O O4 0.731855 0.224655 0.000000
O O5 0.374696 0.130994 0.131782
O O6 0.569157 0.069746 0.211580
O O7 0.547814 0.086353 0.000000
O O8 0.416525 0.420664 0.210784
O O9 0.186445 0.382006 0.130233
O O10 0.441947 0.329278 0.150209
O O11 0.401642 0.395778 0.000000
O O12 0.314097 0.666493 0.500000
O O13 0.402124 0.596532 0.631100
O O14 0.363061 0.685026 0.700971
O O15 0.172511 0.045114 0.707901
O O16 0.000000 0.000000 0.833435
O O17 0.200325 0.040238 0.500000
O O18 0.415811 0.073239 0.619212
O O19 0.343712 0.979064 0.620704
#
# Coordination Sequence:
#
# PCOD9444725 Si02
#       8
#     8   8   8   8   8   8   8   8
#     4  11  23  42  67  95 125 157 199 248 307 371
#     4  10  21  40  64  87 117 158 197 249 307 358
#     4  11  22  37  59  88 123 160 198 244 298 356
#     4  10  22  42  64  85 117 160 204 250 304 356
#     4  11  22  36  57  85 120 160 204 250 296 356
#     4  11  22  36  58  83 120 164 206 252 299 351
#     4  11  20  37  57  86 117 157 202 246 293 357
#     4  11  23  41  67  91 125 157 200 250 304 368
#
# _framework density 21.086881000000002
#
# number of rings (size 3 to 8) (size 9 to 14) (size 15 to 20)
#    0.000    1.250    3.750    3.375    0.000    0.750 
#    0.000    3.750    0.000    0.000    0.000    0.000 
#    0.000    0.000    0.000    0.000    0.000    0.000 
#
# Total GULP energy -357454.086361 kJ/mol
# GULP energy per Si atom -5585.220099 kJ/mol
# Density = 2.103889 g / cm^3
# Si number density = 21.086881 Si / 1000 Ang^3
#
#
#
# Elastic Constant Matrix: (Units=GPa)
#
#
# Indices 1 2 3 4 5 6 
#
# 1 70.2549 -8.3372 19.9314 0.0000 0.0000 0.0000
# 2 -8.3372 27.2045 13.6046 0.0000 0.0000 0.0000
# 3 19.9314 13.6046 116.7085 0.0000 0.0000 0.0000
# 4 0.0000 0.0000 0.0000 18.9588 0.0000 0.0000
# 5 0.0000 0.0000 0.0000 0.0000 -16.7558 0.0000
# 6 0.0000 0.0000 0.0000 0.0000 0.0000 22.7484
#
#
#
# Elastic Compliance Matrix: (Units=1/GPa)
#
#
# Indices 1 2 3 4 5 6 
#
# 1 0.016022 0.006667 -0.003513 0.000000 0.000000 0.000000
# 2 0.006667 0.041808 -0.006012 0.000000 0.000000 0.000000
# 3 -0.003513 -0.006012 0.009869 0.000000 0.000000 0.000000
# 4 0.000000 0.000000 0.000000 0.052746 0.000000 0.000000
# 5 0.000000 0.000000 0.000000 0.000000 -0.059681 0.000000
# 6 0.000000 0.000000 0.000000 0.000000 0.000000 0.043959
#
#
# Mechanical properties :
#
#
# Convention : Reuss Voigt Hill
#
# Bulk Modulus (GPa) = 16.13356 29.39618 22.76487
# Shear Modulus (GPa) = 38.13844 17.58824 27.86334
#
# Velocity S-wave (km/s) = 4.25742 2.89118 3.63899
# Velocity P-wave (km/s) = 5.64226 5.01159 5.33625
#
# Compressibility (1/GPa) = 0.06198261
#
# Stress axis : x y z
#
# Youngs Moduli (GPa) = 62.41490 23.91859 101.32531
#
# Poissons Ratio (x) = -0.15947 0.35599
# Poissons Ratio (y) = -0.41613 0.60919
# Poissons Ratio (z) = 0.21929 0.14380
#
# Static dielectric constant tensor:
#      x y z
#    x 1.794020 0.000000 0.000000 
#    y 0.000000 1.769360 0.000000 
#    z 0.000000 0.000000 1.734060 
# 
# From -- ./inp_files/13434.got.cif
#   From: 2010.05.17/outbox.cif.g08.bks.cpg/sg58_7_cif.got.tgz:13434.got - 2010.06.03 14:20:14.
