data_PCOD9444773
_publ_section_title
;
Structure prediction by ZEFSAII (Michael W. Deem and Ramdas Pophale) SiO2 
 PCOD9444773
Probable space group: P N N M
;
_chemical_formula_sum "Si O2"
_cell_formula_units_Z 48
_cell_length_a 11.451649
_cell_length_b 21.332900
_cell_length_c 7.615857
_cell_angle_alpha 90.000000
_cell_angle_beta 90.000000
_cell_angle_gamma 90.000000
_cell_volume 1860.530126
_symmetry_space_group_name_H-M "P N N M"
_symmetry_group_IT_number 58
_symmetry_cell_setting 'orthorhombic'
loop_
_space_group_symop_operation_xyz
x,y,z
-x,-y,z
1/2+x,1/2-y,1/2-z
1/2-x,1/2+y,1/2-z
-x,-y,-z
x,y,-z
1/2-x,1/2+y,1/2+z
1/2+x,1/2-y,1/2+z
loop_
_atom_site_type_symbol
_atom_site_label
_atom_site_fract_x
_atom_site_fract_y
_atom_site_fract_z
Si Si1 0.556337 0.938372 0.704223
Si Si2 0.693884 0.636018 0.700599
Si Si3 0.201808 0.243222 0.758869
Si Si4 0.691564 0.495884 0.799067
Si Si5 0.924955 0.875212 0.712129
Si Si6 0.970045 0.298039 0.207354
O O1 0.515260 0.935769 0.500000
O O2 0.530466 0.869637 0.773220
O O3 0.500000 0.000000 0.787508
O O4 0.693016 0.953132 0.701403
O O5 0.768050 0.684786 0.814414
O O6 0.720436 0.562366 0.714425
O O7 0.558198 0.640674 0.748393
O O8 0.930023 0.739627 0.689976
O O9 0.285664 0.343353 0.500000
O O10 0.161293 0.172720 0.809495
O O11 0.336485 0.226123 0.710521
O O12 0.595736 0.447249 0.730496
O O13 0.659818 0.512275 0.000000
O O14 0.900933 0.872020 0.500000
O O15 0.002967 0.292764 0.000000
#
# Coordination Sequence:
#
# PCOD9444773 Si02
#       6
#     8   8   8   8   8   8
#     4   9  17  33  62  94 124 160 215 284 336 386
#     4  12  26  43  65  97 141 180 217 276 348 414
#     4  12  24  43  69  99 138 182 224 285 347 405
#     4  10  21  40  67  98 128 170 229 285 335 395
#     4  11  23  42  69  96 129 176 233 287 333 396
#     4  11  23  43  68 100 138 178 230 286 341 410
#
# _framework density 25.799098000000001
#
# number of rings (size 3 to 8) (size 9 to 14) (size 15 to 20)
#    0.000    1.167    3.333    3.500    0.000    5.333 
#    0.000    0.000    0.000    6.500    0.000    0.000 
#    0.000    0.000    0.000    0.000    0.000    0.000 
#
# Total GULP energy -267234.135578 kJ/mol
# GULP energy per Si atom -5567.377825 kJ/mol
# Density = 2.574038 g / cm^3
# Si number density = 25.799098 Si / 1000 Ang^3
#
#
#
# Elastic Constant Matrix: (Units=GPa)
#
#
# Indices 1 2 3 4 5 6 
#
# 1 140.0367 49.6102 20.1899 0.0000 0.0000 0.0000
# 2 49.6102 216.0778 26.6349 0.0000 0.0000 0.0000
# 3 20.1899 26.6349 104.6638 0.0000 0.0000 0.0000
# 4 0.0000 0.0000 0.0000 93.5739 0.0000 0.0000
# 5 0.0000 0.0000 0.0000 0.0000 6.3367 0.0000
# 6 0.0000 0.0000 0.0000 0.0000 0.0000 73.0079
#
#
#
# Elastic Compliance Matrix: (Units=1/GPa)
#
#
# Indices 1 2 3 4 5 6 
#
# 1 0.007893 -0.001677 -0.001096 0.000000 0.000000 0.000000
# 2 -0.001677 0.005134 -0.000983 0.000000 0.000000 0.000000
# 3 -0.001096 -0.000983 0.010016 0.000000 0.000000 0.000000
# 4 0.000000 0.000000 0.000000 0.010687 0.000000 0.000000
# 5 0.000000 0.000000 0.000000 0.000000 0.157810 0.000000
# 6 0.000000 0.000000 0.000000 0.000000 0.000000 0.013697
#
#
# Mechanical properties :
#
#
# Convention : Reuss Voigt Hill
#
# Bulk Modulus (GPa) = 64.38599 72.62757 68.50678
# Shear Modulus (GPa) = 22.94352 58.87325 40.90839
#
# Velocity S-wave (km/s) = 2.98537 4.78220 3.98634
# Velocity P-wave (km/s) = 6.07405 7.66191 6.91372
#
# Compressibility (1/GPa) = 0.01553133
#
# Stress axis : x y z
#
# Youngs Moduli (GPa) = 126.69251 194.77239 99.84078
#
# Poissons Ratio (x) = 0.32666 0.10941
# Poissons Ratio (y) = 0.21248 0.09815
# Poissons Ratio (z) = 0.13883 0.19147
#
# Static dielectric constant tensor:
#      x y z
#    x 1.989900 0.000000 0.000000 
#    y 0.000000 2.055960 0.000000 
#    z 0.000000 0.000000 2.002180 
# 
# From -- ./inp_files/14512.got.cif
#   From: 2010.05.17/outbox.cif.g08.bks.cpg/sg58_8_cif.got.tgz:14512.got - 2010.06.03 14:20:14.
