data_PCOD9444471
_publ_section_title
;
Structure prediction by ZEFSAII (Michael W. Deem and Ramdas Pophale) SiO2 
 PCOD9444471
Probable space group: P N N M
;
_chemical_formula_sum "Si O2"
_cell_formula_units_Z 64
_cell_length_a 14.909876
_cell_length_b 25.010723
_cell_length_c 9.125955
_cell_angle_alpha 90.000000
_cell_angle_beta 90.000000
_cell_angle_gamma 90.000000
_cell_volume 3403.130481
_symmetry_space_group_name_H-M "P N N M"
_symmetry_group_IT_number 58
_symmetry_cell_setting 'orthorhombic'
loop_
_space_group_symop_operation_xyz
x,y,z
-x,-y,z
1/2+x,1/2-y,1/2-z
1/2-x,1/2+y,1/2-z
-x,-y,-z
x,y,-z
1/2-x,1/2+y,1/2+z
1/2+x,1/2-y,1/2+z
loop_
_atom_site_type_symbol
_atom_site_label
_atom_site_fract_x
_atom_site_fract_y
_atom_site_fract_z
Si Si1 0.487095 0.830284 0.823680
Si Si2 0.603479 0.514483 0.327270
Si Si3 0.248066 0.556773 0.826306
Si Si4 0.337906 0.762499 0.325776
Si Si5 0.451262 0.370145 0.327298
Si Si6 0.373331 0.651469 0.826529
Si Si7 0.124510 0.765260 0.674521
Si Si8 0.557037 0.947750 0.823466
O O1 0.396709 0.809276 0.746923
O O2 0.567864 0.788288 0.788245
O O3 0.512861 0.890783 0.781217
O O4 0.475250 0.828722 0.000000
O O5 0.500000 0.500000 0.292554
O O6 0.616286 0.501899 0.500000
O O7 0.675844 0.482864 0.233980
O O8 0.611481 0.578336 0.306791
O O9 0.284935 0.616704 0.798257
O O10 0.154833 0.548408 0.746045
O O11 0.238549 0.550101 0.000000
O O12 0.352361 0.762477 0.500000
O O13 0.371993 0.707754 0.254108
O O14 0.231043 0.762755 0.298866
O O15 0.470593 0.365743 0.500000
O O16 0.542737 0.380078 0.239482
O O17 0.411819 0.315484 0.264792
O O18 0.383840 0.658877 0.000000
O O19 0.111039 0.774431 0.500000
O O20 0.500000 0.000000 0.781314
O O21 0.564801 0.947434 0.000000
#
# Coordination Sequence:
#
# PCOD9444471 Si02
#       8
#     8   8   8   8   8   8   8   8
#     4  10  21  40  64  89 121 162 204 253 307 360
#     4  10  21  38  59  86 122 161 203 248 297 359
#     4  11  24  39  62  93 123 162 207 256 311 365
#     4  11  23  38  61  91 121 161 206 248 300 363
#     4  11  22  36  59  88 118 158 202 247 298 358
#     4  11  22  37  58  87 123 159 198 248 306 361
#     4  10  22  39  58  86 125 162 197 246 306 361
#     4  10  23  44  68  91 120 162 209 257 307 363
#
# _framework density 18.806214000000001
#
# number of rings (size 3 to 8) (size 9 to 14) (size 15 to 20)
#    0.000    1.500    2.500    2.250    0.000    6.500 
#    0.000    3.750    0.000    0.000    0.000    0.000 
#    0.000    0.000    0.000    0.000    0.000    0.000 
#
# Total GULP energy -357487.915843 kJ/mol
# GULP energy per Si atom -5585.748685 kJ/mol
# Density = 1.876341 g / cm^3
# Si number density = 18.806214 Si / 1000 Ang^3
#
#
#
# Elastic Constant Matrix: (Units=GPa)
#
#
# Indices 1 2 3 4 5 6 
#
# 1 97.8921 55.0008 45.5383 0.0000 0.0000 0.0000
# 2 55.0008 133.5720 45.7156 0.0000 0.0000 0.0000
# 3 45.5383 45.7156 32.5314 0.0000 0.0000 0.0000
# 4 0.0000 0.0000 0.0000 11.9078 0.0000 0.0000
# 5 0.0000 0.0000 0.0000 0.0000 33.1283 0.0000
# 6 0.0000 0.0000 0.0000 0.0000 0.0000 23.6860
#
#
#
# Elastic Compliance Matrix: (Units=1/GPa)
#
#
# Indices 1 2 3 4 5 6 
#
# 1 0.030322 0.003933 -0.047972 0.000000 0.000000 0.000000
# 2 0.003933 0.014934 -0.026493 0.000000 0.000000 0.000000
# 3 -0.047972 -0.026493 0.135122 0.000000 0.000000 0.000000
# 4 0.000000 0.000000 0.000000 0.083978 0.000000 0.000000
# 5 0.000000 0.000000 0.000000 0.000000 0.030186 0.000000
# 6 0.000000 0.000000 0.000000 0.000000 0.000000 0.042219
#
#
# Mechanical properties :
#
#
# Convention : Reuss Voigt Hill
#
# Bulk Modulus (GPa) = 25.43594 61.83388 43.63491
# Shear Modulus (GPa) = 10.18477 21.59382 15.88929
#
# Velocity S-wave (km/s) = 2.32968 3.39223 2.90986
# Velocity P-wave (km/s) = 4.55973 6.94938 5.87729
#
# Compressibility (1/GPa) = 0.03931445
#
# Stress axis : x y z
#
# Youngs Moduli (GPa) = 32.97978 66.96027 7.40072
#
# Poissons Ratio (x) = -0.26337 0.35503
# Poissons Ratio (y) = -0.12972 0.19606
# Poissons Ratio (z) = 1.58212 1.77395
#
# Static dielectric constant tensor:
#      x y z
#    x 1.655240 0.000000 0.000000 
#    y 0.000000 1.662880 0.000000 
#    z 0.000000 0.000000 1.619310 
# 
# From -- ./inp_files/6934.got.cif
#   From: 2010.05.17/outbox.cif.g08.bks.cpg/sg58_4_cif.got.tgz:6934.got - 2010.06.03 14:20:14.
