data_PCOD9444400
_publ_section_title
;
Structure prediction by ZEFSAII (Michael W. Deem and Ramdas Pophale) SiO2 
 PCOD9444400
Probable space group: P N N M
;
_chemical_formula_sum "Si O2"
_cell_formula_units_Z 48
_cell_length_a 12.401308
_cell_length_b 7.736391
_cell_length_c 20.293451
_cell_angle_alpha 90.000000
_cell_angle_beta 90.000000
_cell_angle_gamma 90.000000
_cell_volume 1946.981442
_symmetry_space_group_name_H-M "P N N M"
_symmetry_group_IT_number 58
_symmetry_cell_setting 'orthorhombic'
loop_
_space_group_symop_operation_xyz
x,y,z
-x,-y,z
1/2+x,1/2-y,1/2-z
1/2-x,1/2+y,1/2-z
-x,-y,-z
x,y,-z
1/2-x,1/2+y,1/2+z
1/2+x,1/2-y,1/2+z
loop_
_atom_site_type_symbol
_atom_site_label
_atom_site_fract_x
_atom_site_fract_y
_atom_site_fract_z
Si Si1 0.822058 0.077800 0.428964
Si Si2 0.669874 0.111390 0.846031
Si Si3 0.551989 0.755633 0.178894
Si Si4 0.669874 0.888608 0.346031
Si Si5 0.177941 0.077802 0.928964
Si Si6 0.551990 0.244366 0.678894
O O1 0.875339 0.052784 0.500000
O O2 0.736780 0.933088 0.410704
O O3 0.749998 0.249998 0.433393
O O4 0.891425 0.107454 0.362868
O O5 0.632247 0.923309 0.815727
O O6 0.736780 0.066909 0.910705
O O7 0.554420 0.192128 0.861470
O O8 0.632247 0.076689 0.684273
O O9 0.500000 0.716037 0.250000
O O10 0.554419 0.807871 0.361470
O O11 0.749999 0.749998 0.309492
O O12 0.108576 0.107453 0.862867
O O13 0.124660 0.052785 0.000000
#
# Coordination Sequence:
#
# PCOD9444400 Si02
#       6
#     8   8   8   8   8   8
#     4   9  20  40  64  91 126 168 213 262 317 377
#     4  10  21  37  60  91 124 163 205 260 319 374
#     4  10  22  40  61  90 125 166 214 261 315 378
#     4  10  21  37  60  91 124 163 205 260 319 374
#     4   9  20  40  64  91 126 168 213 262 317 377
#     4  10  22  40  61  90 125 166 214 261 315 378
#
# _framework density 24.653549000000002
#
# number of rings (size 3 to 8) (size 9 to 14) (size 15 to 20)
#    0.000    2.333    0.000    2.000    0.000   10.000 
#    0.000   11.667    0.000    0.000    0.000    0.000 
#    0.000    0.000    0.000    0.000    0.000    0.000 
#
# Total GULP energy -267525.978233 kJ/mol
# GULP energy per Si atom -5573.457880 kJ/mol
# Density = 2.459744 g / cm^3
# Si number density = 24.653549 Si / 1000 Ang^3
#
#
#
# Elastic Constant Matrix: (Units=GPa)
#
#
# Indices 1 2 3 4 5 6 
#
# 1 123.2860 48.2540 47.1964 0.0000 0.0000 0.0000
# 2 48.2540 109.9768 40.9624 0.0000 0.0000 0.0000
# 3 47.1964 40.9624 149.5823 0.0000 0.0000 0.0000
# 4 0.0000 0.0000 0.0000 -41.8716 0.0000 0.0000
# 5 0.0000 0.0000 0.0000 0.0000-2495.8010 0.0000
# 6 0.0000 0.0000 0.0000 0.0000 0.0000 32.7973
#
#
#
# Elastic Compliance Matrix: (Units=1/GPa)
#
#
# Indices 1 2 3 4 5 6 
#
# 1 0.010443 -0.003736 -0.002272 0.000000 0.000000 0.000000
# 2 -0.003736 0.011462 -0.001960 0.000000 0.000000 0.000000
# 3 -0.002272 -0.001960 0.007939 0.000000 0.000000 0.000000
# 4 0.000000 0.000000 0.000000 -0.023883 0.000000 0.000000
# 5 0.000000 0.000000 0.000000 0.000000 -0.000401 0.000000
# 6 0.000000 0.000000 0.000000 0.000000 0.000000 0.030490
#
#
# Mechanical properties :
#
#
# Convention : Reuss Voigt Hill
#
# Bulk Modulus (GPa) = 71.89977 72.85231 72.37604
# Shear Modulus (GPa) = 88.30280 -484.54626 -198.12173
#
# Velocity S-wave (km/s) = 5.99126 -14.03456 -8.97423
# Velocity P-wave (km/s) = 8.77996 15.26468 8.82958
#
# Compressibility (1/GPa) = 0.01390825
#
# Stress axis : x y z
#
# Youngs Moduli (GPa) = 95.75596 87.24433 125.96189
#
# Poissons Ratio (x) = 0.32593 0.28619
# Poissons Ratio (y) = 0.35773 0.24690
# Poissons Ratio (z) = 0.21756 0.17101
#
# Static dielectric constant tensor:
#      x y z
#    x 1.931480 0.000000 0.000000 
#    y 0.000000 2.161740 0.000000 
#    z 0.000000 0.000000 1.984870 
# 
# From -- ./inp_files/22839.got.cif
#   From: 2010.05.17/outbox.cif.g08.bks.cpg/sg58_12_cif.got.tgz:22839.got - 2010.06.03 14:20:14.
