data_PCOD9444102
_publ_section_title
;
Structure prediction by ZEFSAII (Michael W. Deem and Ramdas Pophale) SiO2 
 PCOD9444102
Probable space group: P N N M
;
_chemical_formula_sum "Si O2"
_cell_formula_units_Z 56
_cell_length_a 15.157606
_cell_length_b 22.621514
_cell_length_c 7.780220
_cell_angle_alpha 90.000000
_cell_angle_beta 90.000000
_cell_angle_gamma 90.000000
_cell_volume 2667.744047
_symmetry_space_group_name_H-M "P N N M"
_symmetry_group_IT_number 58
_symmetry_cell_setting 'orthorhombic'
loop_
_space_group_symop_operation_xyz
x,y,z
-x,-y,z
1/2+x,1/2-y,1/2-z
1/2-x,1/2+y,1/2-z
-x,-y,-z
x,y,-z
1/2-x,1/2+y,1/2+z
1/2+x,1/2-y,1/2+z
loop_
_atom_site_type_symbol
_atom_site_label
_atom_site_fract_x
_atom_site_fract_y
_atom_site_fract_z
Si Si1 0.126050 0.531892 0.697733
Si Si2 0.508944 0.864451 0.789817
Si Si3 0.643318 0.645928 0.293539
Si Si4 0.520901 0.432255 0.707936
Si Si5 0.332145 0.217432 0.205321
Si Si6 0.216116 0.112213 0.698816
Si Si7 0.672700 0.096437 0.788938
O O1 0.101346 0.520556 0.500000
O O2 0.049049 0.572885 0.770562
O O3 0.214024 0.571816 0.700003
O O4 0.147471 0.468692 0.773949
O O5 0.579173 0.815990 0.731838
O O6 0.407238 0.860153 0.739390
O O7 0.511320 0.864354 0.000000
O O8 0.641117 0.640164 0.500000
O O9 0.555467 0.612775 0.230268
O O10 0.656835 0.714690 0.254021
O O11 0.731238 0.614012 0.227751
O O12 0.500000 0.500000 0.765434
O O13 0.519290 0.433835 0.500000
O O14 0.616637 0.406591 0.757779
O O15 0.247514 0.179979 0.270060
O O16 0.329179 0.213175 0.000000
O O17 0.231233 0.099291 0.500000
O O18 0.676146 0.095785 0.000000
#
# Coordination Sequence:
#
# PCOD9444102 Si02
#       7
#     8   8   8   8   8   8   8
#     4   9  16  30  54  82 110 139 172 213 266 330
#     4   8  15  28  51  80 104 131 172 217 256 309
#     4  10  21  35  54  81 112 144 181 229 277 327
#     4  10  21  39  61  85 116 154 193 233 286 350
#     4  10  21  38  57  78 108 146 187 228 276 334
#     4  11  22  36  57  82 110 146 189 237 281 325
#     4   9  16  29  52  81 108 135 170 212 264 327
#
# _framework density 20.991519
#
# number of rings (size 3 to 8) (size 9 to 14) (size 15 to 20)
#    0.000    2.429    0.000    3.857    0.000    6.000 
#    0.000    3.571    0.000   11.143    0.000    0.000 
#    0.000    0.000    0.000    0.000    0.000    0.000 
#
# Total GULP energy -312401.696867 kJ/mol
# GULP energy per Si atom -5578.601730 kJ/mol
# Density = 2.094374 g / cm^3
# Si number density = 20.991519 Si / 1000 Ang^3
#
#
#
# Elastic Constant Matrix: (Units=GPa)
#
#
# Indices 1 2 3 4 5 6 
#
# 1 167.1120 55.9659 4.4882 0.0000 0.0000 0.0000
# 2 55.9659 112.7549 1.4359 0.0000 0.0000 0.0000
# 3 4.4882 1.4359 41.6842 0.0000 0.0000 0.0000
# 4 0.0000 0.0000 0.0000 19.5748 0.0000 0.0000
# 5 0.0000 0.0000 0.0000 0.0000 -2.5088 0.0000
# 6 0.0000 0.0000 0.0000 0.0000 0.0000 16.7547
#
#
#
# Elastic Compliance Matrix: (Units=1/GPa)
#
#
# Indices 1 2 3 4 5 6 
#
# 1 0.007195 -0.003563 -0.000652 0.000000 0.000000 0.000000
# 2 -0.003563 0.010637 0.000017 0.000000 0.000000 0.000000
# 3 -0.000652 0.000017 0.024060 0.000000 0.000000 0.000000
# 4 0.000000 0.000000 0.000000 0.051086 0.000000 0.000000
# 5 0.000000 0.000000 0.000000 0.000000 -0.398601 0.000000
# 6 0.000000 0.000000 0.000000 0.000000 0.000000 0.059685
#
#
# Mechanical properties :
#
#
# Convention : Reuss Voigt Hill
#
# Bulk Modulus (GPa) = 29.85419 49.48123 39.66771
# Shear Modulus (GPa) = -22.08686 24.07489 0.99402
#
# Velocity S-wave (km/s) = -3.24725 3.39025 0.68888
# Velocity P-wave (km/s) = 0.43974 6.24085 4.42389
#
# Compressibility (1/GPa) = 0.03349614
#
# Stress axis : x y z
#
# Youngs Moduli (GPa) = 138.99118 94.01180 41.56360
#
# Poissons Ratio (x) = 0.33494 0.02710
# Poissons Ratio (y) = 0.49520 -0.00072
# Poissons Ratio (z) = 0.09061 -0.00162
#
# Static dielectric constant tensor:
#      x y z
#    x 1.748650 0.000000 0.000000 
#    y 0.000000 1.758390 0.000000 
#    z 0.000000 0.000000 1.789110 
# 
# From -- ./inp_files/6397.got.cif
#   From: 2010.05.17/outbox.cif.g08.bks.cpg/sg58_4_cif.got.tgz:6397.got - 2010.06.03 14:20:14.
