data_PCOD9444685
_publ_section_title
;
Structure prediction by ZEFSAII (Michael W. Deem and Ramdas Pophale) SiO2 
 PCOD9444685
Probable space group: P N N M
;
_chemical_formula_sum "Si O2"
_cell_formula_units_Z 40
_cell_length_a 19.232201
_cell_length_b 8.041200
_cell_length_c 11.612699
_cell_angle_alpha 90.000000
_cell_angle_beta 90.000000
_cell_angle_gamma 90.000000
_cell_volume 1795.903606
_symmetry_space_group_name_H-M "P N N M"
_symmetry_group_IT_number 58
_symmetry_cell_setting 'orthorhombic'
loop_
_space_group_symop_operation_xyz
x,y,z
-x,-y,z
1/2+x,1/2-y,1/2-z
1/2-x,1/2+y,1/2-z
-x,-y,-z
x,y,-z
1/2-x,1/2+y,1/2+z
1/2+x,1/2-y,1/2+z
loop_
_atom_site_type_symbol
_atom_site_label
_atom_site_fract_x
_atom_site_fract_y
_atom_site_fract_z
Si Si1 0.782727 0.800260 0.374217
Si Si2 0.916725 0.000000 0.875133
Si Si3 0.080327 0.688456 0.716174
Si Si4 0.919673 0.688456 0.716174
Si Si5 0.717273 0.699740 0.874217
O O1 0.749390 0.759144 0.500000
O O2 0.859048 0.717204 0.374618
O O3 0.750000 0.750000 0.250000
O O4 0.788828 1.000000 0.370909
O O5 0.902136 0.169628 0.808666
O O6 0.902136 0.830373 0.808665
O O7 0.884335 1.000000 0.000000
O O8 0.000000 0.000000 0.884965
O O9 0.084935 0.500000 0.761755
O O10 0.140952 0.717204 0.625382
O O11 0.000000 0.713208 0.677306
O O12 0.750610 0.740855 0.000000
#
# Coordination Sequence:
#
# PCOD9444685 Si02
#       5
#     8   8   8   8   8
#     4  11  25  45  69  98 135 180 228 278 339 406
#     4   9  18  34  57  89 131 175 218 269 328 389
#     4  10  21  39  65  97 133 173 221 277 337 399
#     4  10  21  39  65  97 133 173 221 277 337 399
#     4  11  25  45  69  98 135 180 228 278 339 406
#
# _framework density 22.272911000000001
#
# number of rings (size 3 to 8) (size 9 to 14) (size 15 to 20)
#    0.000    1.800    2.000    1.200    0.000    6.400 
#    0.000    8.000    0.000    0.000    0.000    0.000 
#    0.000    0.000    0.000    0.000    0.000    0.000 
#
# Total GULP energy -222867.406101 kJ/mol
# GULP energy per Si atom -5571.685153 kJ/mol
# Density = 2.222222 g / cm^3
# Si number density = 22.272911 Si / 1000 Ang^3
#
#
#
# Elastic Constant Matrix: (Units=GPa)
#
#
# Indices 1 2 3 4 5 6 
#
# 1 101.5605 36.2629 58.0810 0.0000 0.0000 0.0000
# 2 36.2629 150.4363 67.8742 0.0000 0.0000 0.0000
# 3 58.0810 67.8742 179.5233 0.0000 0.0000 0.0000
# 4 0.0000 0.0000 0.0000 -0.5386 0.0000 0.0000
# 5 0.0000 0.0000 0.0000 0.0000 17.1985 0.0000
# 6 0.0000 0.0000 0.0000 0.0000 0.0000 34.2053
#
#
#
# Elastic Compliance Matrix: (Units=1/GPa)
#
#
# Indices 1 2 3 4 5 6 
#
# 1 0.012326 -0.001413 -0.003454 0.000000 0.000000 0.000000
# 2 -0.001413 0.008176 -0.002634 0.000000 0.000000 0.000000
# 3 -0.003454 -0.002634 0.007684 0.000000 0.000000 0.000000
# 4 0.000000 0.000000 0.000000 -1.856661 0.000000 0.000000
# 5 0.000000 0.000000 0.000000 0.000000 0.058145 0.000000
# 6 0.000000 0.000000 0.000000 0.000000 0.000000 0.029235
#
#
# Mechanical properties :
#
#
# Convention : Reuss Voigt Hill
#
# Bulk Modulus (GPa) = 75.84721 83.99515 79.92118
# Shear Modulus (GPa) = -2.90411 28.12649 12.61119
#
# Velocity S-wave (km/s) = -1.14311 3.55746 2.38210
# Velocity P-wave (km/s) = 5.69080 7.39376 6.59746
#
# Compressibility (1/GPa) = 0.01318440
#
# Stress axis : x y z
#
# Youngs Moduli (GPa) = 81.12989 122.30254 130.14772
#
# Poissons Ratio (x) = 0.17281 0.44947
# Poissons Ratio (y) = 0.11464 0.34284
# Poissons Ratio (z) = 0.28019 0.32217
#
# Static dielectric constant tensor:
#      x y z
#    x 1.862480 0.000000 0.000000 
#    y 0.000000 1.813260 0.000000 
#    z 0.000000 0.000000 1.868000 
# 
# From -- ./inp_files/16890.got.cif
#   From: 2010.05.17/outbox.cif.g08.bks.cpg/sg58_9_cif.got.tgz:16890.got - 2010.06.03 14:20:14.
