data_PCOD9444269
_publ_section_title
;
Structure prediction by ZEFSAII (Michael W. Deem and Ramdas Pophale) SiO2 
 PCOD9444269
Probable space group: P N N M
;
_chemical_formula_sum "Si O2"
_cell_formula_units_Z 24
_cell_length_a 11.996160
_cell_length_b 6.889495
_cell_length_c 14.612149
_cell_angle_alpha 90.000000
_cell_angle_beta 90.000000
_cell_angle_gamma 90.000000
_cell_volume 1207.657356
_symmetry_space_group_name_H-M "P N N M"
_symmetry_group_IT_number 58
_symmetry_cell_setting 'orthorhombic'
loop_
_space_group_symop_operation_xyz
x,y,z
-x,-y,z
1/2+x,1/2-y,1/2-z
1/2-x,1/2+y,1/2-z
-x,-y,-z
x,y,-z
1/2-x,1/2+y,1/2+z
1/2+x,1/2-y,1/2+z
loop_
_atom_site_type_symbol
_atom_site_label
_atom_site_fract_x
_atom_site_fract_y
_atom_site_fract_z
Si Si1 0.088728 0.326863 0.899526
Si Si2 0.163225 0.984032 0.392293
Si Si3 0.476039 0.771012 0.204014
O O1 0.209223 0.422563 0.880594
O O2 0.051841 0.215098 0.808753
O O3 0.000000 0.500000 0.906611
O O4 0.093192 0.228376 0.000000
O O5 0.137753 0.971185 0.500000
O O6 0.083005 0.839558 0.336388
O O7 0.128750 0.196342 0.355791
O O8 0.500000 0.000000 0.199101
#
# Coordination Sequence:
#
# PCOD9444269 Si02
#       3
#     8   8   8
#     4   9  20  38  59  86 121 157 190 240 296 346
#     4  10  22  40  60  88 125 152 191 249 296 340
#     4  10  21  36  64  88 115 156 201 237 287 354
#
# _framework density 19.873187000000001
#
# number of rings (size 3 to 8) (size 9 to 14) (size 15 to 20)
#    0.000    2.333    0.000    2.000    9.333    2.667 
#    0.000    3.333    0.000    0.000    0.000    0.000 
#    0.000    0.000    0.000    0.000    0.000    0.000 
#
# Total GULP energy -133771.017616 kJ/mol
# GULP energy per Si atom -5573.792401 kJ/mol
# Density = 1.982795 g / cm^3
# Si number density = 19.873187 Si / 1000 Ang^3
#
#
#
# Elastic Constant Matrix: (Units=GPa)
#
#
# Indices 1 2 3 4 5 6 
#
# 1 127.6806 26.4051 82.6639 0.0000 0.0000 0.0000
# 2 26.4051 84.8176 49.4402 0.0000 0.0000 0.0000
# 3 82.6639 49.4402 193.8415 0.0000 0.0000 0.0000
# 4 0.0000 0.0000 0.0000 31.6021 0.0000 0.0000
# 5 0.0000 0.0000 0.0000 0.0000 18.3277 0.0000
# 6 0.0000 0.0000 0.0000 0.0000 0.0000 11.3397
#
#
#
# Elastic Compliance Matrix: (Units=1/GPa)
#
#
# Indices 1 2 3 4 5 6 
#
# 1 0.010865 -0.000801 -0.004429 0.000000 0.000000 0.000000
# 2 -0.000801 0.013908 -0.003206 0.000000 0.000000 0.000000
# 3 -0.004429 -0.003206 0.007865 0.000000 0.000000 0.000000
# 4 0.000000 0.000000 0.000000 0.031643 0.000000 0.000000
# 5 0.000000 0.000000 0.000000 0.000000 0.054562 0.000000
# 6 0.000000 0.000000 0.000000 0.000000 0.000000 0.088185
#
#
# Mechanical properties :
#
#
# Convention : Reuss Voigt Hill
#
# Bulk Modulus (GPa) = 63.42364 80.37310 71.89837
# Shear Modulus (GPa) = 21.81910 28.77595 25.29753
#
# Velocity S-wave (km/s) = 3.31708 3.80936 3.57171
# Velocity P-wave (km/s) = 6.83038 7.73816 7.29840
#
# Compressibility (1/GPa) = 0.01576699
#
# Stress axis : x y z
#
# Youngs Moduli (GPa) = 92.03641 71.90127 127.13936
#
# Poissons Ratio (x) = 0.05757 0.56314
# Poissons Ratio (y) = 0.07369 0.40759
# Poissons Ratio (z) = 0.40765 0.23050
#
# Static dielectric constant tensor:
#      x y z
#    x 1.689090 0.000000 0.000000 
#    y 0.000000 1.703900 0.000000 
#    z 0.000000 0.000000 1.759440 
# 
# From -- ./inp_files/21675.got.cif
#   From: 2010.05.17/outbox.cif.g08.bks.cpg/sg58_11_cif.got.tgz:21675.got - 2010.06.03 14:20:14.
