data_PCOD9444720
_publ_section_title
;
Structure prediction by ZEFSAII (Michael W. Deem and Ramdas Pophale) SiO2 
 PCOD9444720
Probable space group: P N N M
;
_chemical_formula_sum "Si O2"
_cell_formula_units_Z 58
_cell_length_a 7.999870
_cell_length_b 29.232386
_cell_length_c 12.338772
_cell_angle_alpha 90.000000
_cell_angle_beta 90.000000
_cell_angle_gamma 90.000000
_cell_volume 2885.487077
_symmetry_space_group_name_H-M "P N N M"
_symmetry_group_IT_number 58
_symmetry_cell_setting 'orthorhombic'
loop_
_space_group_symop_operation_xyz
x,y,z
-x,-y,z
1/2+x,1/2-y,1/2-z
1/2-x,1/2+y,1/2-z
-x,-y,-z
x,y,-z
1/2-x,1/2+y,1/2+z
1/2+x,1/2-y,1/2+z
loop_
_atom_site_type_symbol
_atom_site_label
_atom_site_fract_x
_atom_site_fract_y
_atom_site_fract_z
Si Si1 0.323567 0.127634 0.376227
Si Si2 0.007461 0.375014 0.333143
Si Si3 0.500000 0.500000 0.000000
Si Si4 0.568864 0.303180 0.762800
Si Si5 0.168470 0.529123 0.623918
Si Si6 0.366552 0.225228 0.121009
Si Si7 0.104461 0.880562 0.127348
Si Si8 0.582746 0.447529 0.794264
O O1 0.366994 0.134424 0.500000
O O2 0.480595 0.129246 0.295990
O O3 0.183156 0.163462 0.336119
O O4 0.232399 0.079590 0.354708
O O5 0.195702 0.385427 0.366848
O O6 0.886603 0.417044 0.368829
O O7 0.949980 0.325389 0.375364
O O8 0.475301 0.462951 0.898746
O O9 0.477919 0.265407 0.832332
O O10 0.699873 0.277359 0.688812
O O11 0.450692 0.332968 0.683871
O O12 0.223219 0.519622 0.500000
O O13 0.310763 0.519046 0.713593
O O14 0.000000 0.500000 0.644538
O O15 0.323113 0.236314 0.000000
O O16 0.016835 0.917165 0.206853
O O17 0.052686 0.883389 0.000000
#
# Coordination Sequence:
#
# PCOD9444720 Si02
#       8
#     8   8   2   8   8   8   8   8
#     4   9  18  40  59  82 116 158 200 249 294 360
#     4  10  22  37  60  90 122 158 208 253 317 359
#     4  12  24  44  60  92 128 160 206 258 292 372
#     4  10  22  36  60  90 121 158 208 244 307 365
#     4  10  21  40  63  90 120 156 206 260 308 367
#     4  11  21  38  60  87 123 163 202 253 308 365
#     4  11  22  41  64  93 125 158 202 255 309 364
#     4  10  23  39  63  87 121 162 200 243 309 356
#
# _framework density 20.100593
#
# number of rings (size 3 to 8) (size 9 to 14) (size 15 to 20)
#    0.000    1.793    0.690    4.138    1.931    0.000 
#    1.241   10.000    0.000    0.000    0.000    0.000 
#    0.000    0.000    0.000    0.000    0.000    0.000 
#
# Total GULP energy -322911.697982 kJ/mol
# GULP energy per Si atom -5567.443069 kJ/mol
# Density = 2.005484 g / cm^3
# Si number density = 20.100593 Si / 1000 Ang^3
#
#
#
# Elastic Constant Matrix: (Units=GPa)
#
#
# Indices 1 2 3 4 5 6 
#
# 1 51.9547 0.1727 25.7565 0.0000 0.0000 0.0000
# 2 0.1727 56.6987 21.4456 0.0000 0.0000 0.0000
# 3 25.7565 21.4456 172.7961 0.0000 0.0000 0.0000
# 4 0.0000 0.0000 0.0000 9.2726 0.0000 0.0000
# 5 0.0000 0.0000 0.0000 0.0000 -126.9598 0.0000
# 6 0.0000 0.0000 0.0000 0.0000 0.0000 34.5598
#
#
#
# Elastic Compliance Matrix: (Units=1/GPa)
#
#
# Indices 1 2 3 4 5 6 
#
# 1 0.020857 0.001167 -0.003254 0.000000 0.000000 0.000000
# 2 0.001167 0.018571 -0.002479 0.000000 0.000000 0.000000
# 3 -0.003254 -0.002479 0.006580 0.000000 0.000000 0.000000
# 4 0.000000 0.000000 0.000000 0.107845 0.000000 0.000000
# 5 0.000000 0.000000 0.000000 0.000000 -0.007877 0.000000
# 6 0.000000 0.000000 0.000000 0.000000 0.000000 0.028935
#
#
# Mechanical properties :
#
#
# Convention : Reuss Voigt Hill
#
# Bulk Modulus (GPa) = 27.11729 41.79989 34.45859
# Shear Modulus (GPa) = 25.46675 -1.02049 12.22313
#
# Velocity S-wave (km/s) = 3.56331 -0.71330 2.46864
# Velocity P-wave (km/s) = 5.51812 4.49022 5.03049
#
# Compressibility (1/GPa) = 0.03687685
#
# Stress axis : x y z
#
# Youngs Moduli (GPa) = 47.94634 53.84709 151.98041
#
# Poissons Ratio (x) = -0.06285 0.49450
# Poissons Ratio (y) = -0.05596 0.37673
# Poissons Ratio (z) = 0.15600 0.13348
#
# Static dielectric constant tensor:
#      x y z
#    x 1.694930 0.000000 0.000000 
#    y 0.000000 1.825430 0.000000 
#    z 0.000000 0.000000 1.656300 
# 
# From -- ./inp_files/13370.got.cif
#   From: 2010.05.17/outbox.cif.g08.bks.cpg/sg58_7_cif.got.tgz:13370.got - 2010.06.03 14:20:14.
