data_PCOD9444721
_publ_section_title
;
Structure prediction by ZEFSAII (Michael W. Deem and Ramdas Pophale) SiO2 
 PCOD9444721
Probable space group: P N N M
;
_chemical_formula_sum "Si O2"
_cell_formula_units_Z 48
_cell_length_a 14.172669
_cell_length_b 9.349703
_cell_length_c 18.583279
_cell_angle_alpha 90.000000
_cell_angle_beta 90.000000
_cell_angle_gamma 90.000000
_cell_volume 2462.474869
_symmetry_space_group_name_H-M "P N N M"
_symmetry_group_IT_number 58
_symmetry_cell_setting 'orthorhombic'
loop_
_space_group_symop_operation_xyz
x,y,z
-x,-y,z
1/2+x,1/2-y,1/2-z
1/2-x,1/2+y,1/2-z
-x,-y,-z
x,y,-z
1/2-x,1/2+y,1/2+z
1/2+x,1/2-y,1/2+z
loop_
_atom_site_type_symbol
_atom_site_label
_atom_site_fract_x
_atom_site_fract_y
_atom_site_fract_z
Si Si1 0.264751 0.760760 0.079274
Si Si2 0.079550 0.885660 0.672719
Si Si3 0.433540 0.705064 0.413557
Si Si4 0.514576 0.169482 0.079282
Si Si5 0.387292 0.401771 0.658359
Si Si6 0.731483 0.073572 0.416999
O O1 0.376975 0.779460 0.083571
O O2 0.216584 0.847360 0.142389
O O3 0.227746 0.598553 0.083270
O O4 0.236391 0.818236 0.000000
O O5 0.090565 0.904507 0.757671
O O6 0.180352 0.897360 0.634507
O O7 0.039240 0.735598 0.646245
O O8 0.000000 0.000000 0.647372
O O9 0.439043 0.691782 0.500000
O O10 0.538963 0.705952 0.380859
O O11 0.396203 0.557858 0.377859
O O12 0.362933 0.837176 0.397084
O O13 0.500000 0.000000 0.079855
O O14 0.479486 0.220783 0.000000
O O15 0.752809 0.115674 0.500000
#
# Coordination Sequence:
#
# PCOD9444721 Si02
#       6
#     8   8   8   8   8   8
#     4  10  21  40  63  91 124 161 211 264 309 365
#     4  12  23  41  62  90 131 164 203 256 321 395
#     4  10  21  41  64  88 118 163 220 256 299 371
#     4  10  23  42  65  94 126 166 215 263 315 377
#     4  11  23  39  61  91 126 167 202 258 322 373
#     4  10  23  39  63  92 119 164 212 259 313 372
#
# _framework density 19.492584999999998
#
# number of rings (size 3 to 8) (size 9 to 14) (size 15 to 20)
#    0.000    1.500    3.333    2.500    2.333    4.000 
#    3.000    2.500    0.000    0.000    0.000    0.000 
#    0.000    0.000    0.000    0.000    0.000    0.000 
#
# Total GULP energy -267655.103806 kJ/mol
# GULP energy per Si atom -5576.147996 kJ/mol
# Density = 1.944822 g / cm^3
# Si number density = 19.492585 Si / 1000 Ang^3
#
#
#
# Elastic Constant Matrix: (Units=GPa)
#
#
# Indices 1 2 3 4 5 6 
#
# 1 38.8334 10.7279 13.6902 0.0000 0.0000 0.0000
# 2 10.7279 54.5629 11.3845 0.0000 0.0000 0.0000
# 3 13.6902 11.3845 63.0858 0.0000 0.0000 0.0000
# 4 0.0000 0.0000 0.0000 -92.8299 0.0000 0.0000
# 5 0.0000 0.0000 0.0000 0.0000 25.7809 0.0000
# 6 0.0000 0.0000 0.0000 0.0000 0.0000 32.2659
#
#
#
# Elastic Compliance Matrix: (Units=1/GPa)
#
#
# Indices 1 2 3 4 5 6 
#
# 1 0.028932 -0.004550 -0.005457 0.000000 0.000000 0.000000
# 2 -0.004550 0.019760 -0.002579 0.000000 0.000000 0.000000
# 3 -0.005457 -0.002579 0.017501 0.000000 0.000000 0.000000
# 4 0.000000 0.000000 0.000000 -0.010772 0.000000 0.000000
# 5 0.000000 0.000000 0.000000 0.000000 0.038788 0.000000
# 6 0.000000 0.000000 0.000000 0.000000 0.000000 0.030992
#
#
# Mechanical properties :
#
#
# Convention : Reuss Voigt Hill
#
# Bulk Modulus (GPa) = 24.37750 25.34305 24.86027
# Shear Modulus (GPa) = 30.47910 1.08868 15.78389
#
# Velocity S-wave (km/s) = 3.95856 0.74814 2.84868
# Velocity P-wave (km/s) = 5.78159 3.71159 4.85812
#
# Compressibility (1/GPa) = 0.04102144
#
# Stress axis : x y z
#
# Youngs Moduli (GPa) = 34.56394 50.60722 57.13934
#
# Poissons Ratio (x) = 0.23025 0.31184
# Poissons Ratio (y) = 0.15726 0.14734
# Poissons Ratio (z) = 0.18863 0.13049
#
# Static dielectric constant tensor:
#      x y z
#    x 1.704530 0.000000 0.000000 
#    y 0.000000 1.702330 0.000000 
#    z 0.000000 0.000000 1.671970 
# 
# From -- ./inp_files/25316.got.cif
#   From: 2010.05.17/outbox.cif.g08.bks.cpg/sg58_13_cif.got.tgz:25316.got - 2010.06.03 14:20:14.
