data_PCOD9444480
_publ_section_title
;
Structure prediction by ZEFSAII (Michael W. Deem and Ramdas Pophale) SiO2 
 PCOD9444480
Probable space group: P N N M
;
_chemical_formula_sum "Si O2"
_cell_formula_units_Z 58
_cell_length_a 12.055479
_cell_length_b 29.477370
_cell_length_c 7.707695
_cell_angle_alpha 90.000000
_cell_angle_beta 90.000000
_cell_angle_gamma 90.000000
_cell_volume 2739.035900
_symmetry_space_group_name_H-M "P N N M"
_symmetry_group_IT_number 58
_symmetry_cell_setting 'orthorhombic'
loop_
_space_group_symop_operation_xyz
x,y,z
-x,-y,z
1/2+x,1/2-y,1/2-z
1/2-x,1/2+y,1/2-z
-x,-y,-z
x,y,-z
1/2-x,1/2+y,1/2+z
1/2+x,1/2-y,1/2+z
loop_
_atom_site_type_symbol
_atom_site_label
_atom_site_fract_x
_atom_site_fract_y
_atom_site_fract_z
Si Si1 0.000000 0.500000 0.000000
Si Si2 0.445041 0.373450 0.294115
Si Si3 0.683157 0.714154 0.798186
Si Si4 0.146654 0.527786 0.296057
Si Si5 0.800998 0.889131 0.291463
Si Si6 0.742615 0.067756 0.795345
Si Si7 0.609464 0.155793 0.710883
Si Si8 0.369561 0.184728 0.296685
O O1 0.049198 0.533742 0.156215
O O2 0.427260 0.370221 0.500000
O O3 0.410294 0.324553 0.220355
O O4 0.571030 0.386352 0.260373
O O5 0.356702 0.410581 0.224686
O O6 0.796137 0.691319 0.727956
O O7 0.649591 0.761835 0.718755
O O8 0.701294 0.723344 0.000000
O O9 0.113621 0.524076 0.500000
O O10 0.235906 0.567630 0.281000
O O11 0.202993 0.480753 0.228621
O O12 0.798223 0.891573 0.500000
O O13 0.733196 0.844761 0.228943
O O14 0.650724 0.106350 0.766889
O O15 0.758339 0.060572 0.000000
O O16 0.611398 0.156566 0.500000
O O17 0.488212 0.169209 0.776680
O O18 0.375995 0.173962 0.500000
#
# Coordination Sequence:
#
# PCOD9444480 Si02
#       8
#     2   8   8   8   8   8   8   8
#     4  12  26  44  68  96 136 180 214 272 326 398
#     4  10  21  41  66  89 127 169 214 269 329 389
#     4  10  21  38  59  90 118 155 210 261 319 389
#     4  11  25  44  68  99 134 175 226 273 334 395
#     4  11  24  42  61  96 134 171 218 270 332 396
#     4   9  21  40  64  94 122 163 215 268 321 387
#     4   9  20  37  60  86 117 155 203 255 314 386
#     4  10  23  39  59  84 123 164 204 260 323 388
#
# _framework density 21.175332999999998
#
# number of rings (size 3 to 8) (size 9 to 14) (size 15 to 20)
#    0.000    1.931    0.690    1.448    4.828    3.310 
#    0.000    2.759    0.000    0.000    0.000    0.000 
#    0.000    0.000    0.000    0.000    0.000    0.000 
#
# Total GULP energy -323476.759721 kJ/mol
# GULP energy per Si atom -5577.185512 kJ/mol
# Density = 2.112714 g / cm^3
# Si number density = 21.175333 Si / 1000 Ang^3
#
#
#
# Elastic Constant Matrix: (Units=GPa)
#
#
# Indices 1 2 3 4 5 6 
#
# 1 103.3512 35.5240 2.6560 0.0000 0.0000 0.0000
# 2 35.5240 86.5987 -19.7309 0.0000 0.0000 0.0000
# 3 2.6560 -19.7309 52.0246 0.0000 0.0000 0.0000
# 4 0.0000 0.0000 0.0000 17.9355 0.0000 0.0000
# 5 0.0000 0.0000 0.0000 0.0000 11.5006 0.0000
# 6 0.0000 0.0000 0.0000 0.0000 0.0000 18.8833
#
#
#
# Elastic Compliance Matrix: (Units=1/GPa)
#
#
# Indices 1 2 3 4 5 6 
#
# 1 0.011581 -0.005348 -0.002619 0.000000 0.000000 0.000000
# 2 -0.005348 0.015109 0.006003 0.000000 0.000000 0.000000
# 3 -0.002619 0.006003 0.021632 0.000000 0.000000 0.000000
# 4 0.000000 0.000000 0.000000 0.055755 0.000000 0.000000
# 5 0.000000 0.000000 0.000000 0.000000 0.086952 0.000000
# 6 0.000000 0.000000 0.000000 0.000000 0.000000 0.052957
#
#
# Mechanical properties :
#
#
# Convention : Reuss Voigt Hill
#
# Bulk Modulus (GPa) = 22.52508 30.98585 26.75546
# Shear Modulus (GPa) = 19.03226 24.56558 21.79892
#
# Velocity S-wave (km/s) = 3.00124 3.40972 3.21198
# Velocity P-wave (km/s) = 4.76135 5.49239 5.13988
#
# Compressibility (1/GPa) = 0.04439496
#
# Stress axis : x y z
#
# Youngs Moduli (GPa) = 86.34736 66.18593 46.22737
#
# Poissons Ratio (x) = 0.35393 0.12109
# Poissons Ratio (y) = 0.46175 -0.27751
# Poissons Ratio (z) = 0.22618 -0.39733
#
# Static dielectric constant tensor:
#      x y z
#    x 1.793230 0.000000 0.000000 
#    y 0.000000 1.745470 0.000000 
#    z 0.000000 0.000000 1.825580 
# 
# From -- ./inp_files/4459.got.cif
#   From: 2010.05.17/outbox.cif.g08.bks.cpg/sg58_3_cif.got.tgz:4459.got - 2010.06.03 14:20:14.
