data_PCOD9444746
_publ_section_title
;
Structure prediction by ZEFSAII (Michael W. Deem and Ramdas Pophale) SiO2 
 PCOD9444746
Probable space group: P N N M
;
_chemical_formula_sum "Si O2"
_cell_formula_units_Z 32
_cell_length_a 5.098650
_cell_length_b 18.450975
_cell_length_c 13.971925
_cell_angle_alpha 90.000000
_cell_angle_beta 90.000000
_cell_angle_gamma 90.000000
_cell_volume 1314.409734
_symmetry_space_group_name_H-M "P N N M"
_symmetry_group_IT_number 58
_symmetry_cell_setting 'orthorhombic'
loop_
_space_group_symop_operation_xyz
x,y,z
-x,-y,z
1/2+x,1/2-y,1/2-z
1/2-x,1/2+y,1/2-z
-x,-y,-z
x,y,-z
1/2-x,1/2+y,1/2+z
1/2+x,1/2-y,1/2+z
loop_
_atom_site_type_symbol
_atom_site_label
_atom_site_fract_x
_atom_site_fract_y
_atom_site_fract_z
Si Si1 0.591582 0.278970 0.602300
Si Si2 0.015936 0.582340 0.795621
Si Si3 0.709987 0.444185 0.607601
Si Si4 0.518716 0.684262 0.811657
O O1 0.485540 0.250796 0.500000
O O2 0.586948 0.365334 0.596621
O O3 0.472640 0.273331 0.709036
O O4 0.884546 0.245354 0.613819
O O5 0.000000 0.500000 0.835680
O O6 0.057725 0.571279 0.681357
O O7 0.753794 0.626025 0.814922
O O8 0.500000 0.500000 0.651135
O O9 0.767660 0.468928 0.500000
O O10 0.260539 0.634286 0.825633
#
# Coordination Sequence:
#
# PCOD9444746 Si02
#       4
#     8   8   8   8
#     4  10  21  40  65  94 133 174 213 266 323 381
#     4  11  22  39  62  87 123 168 213 270 329 377
#     4   9  18  33  56  90 128 164 204 250 312 393
#     4  11  23  40  63  95 128 165 221 267 317 394
#
# _framework density 24.345527000000001
#
# number of rings (size 3 to 8) (size 9 to 14) (size 15 to 20)
#    0.000    1.750    0.000    6.750    0.000    1.500 
#    0.000   12.500    0.000    4.500    0.000    0.000 
#    0.000    1.000    0.000    0.000    0.000    0.000 
#
# Total GULP energy -178362.412971 kJ/mol
# GULP energy per Si atom -5573.825405 kJ/mol
# Density = 2.429012 g / cm^3
# Si number density = 24.345527 Si / 1000 Ang^3
#
#
#
# Elastic Constant Matrix: (Units=GPa)
#
#
# Indices 1 2 3 4 5 6 
#
# 1 143.3224 64.7550 15.4239 0.0000 0.0000 0.0000
# 2 64.7550 158.5536 11.3063 0.0000 0.0000 0.0000
# 3 15.4239 11.3063 67.1887 0.0000 0.0000 0.0000
# 4 0.0000 0.0000 0.0000 21.3232 0.0000 0.0000
# 5 0.0000 0.0000 0.0000 0.0000 29.4225 0.0000
# 6 0.0000 0.0000 0.0000 0.0000 0.0000 41.9044
#
#
#
# Elastic Compliance Matrix: (Units=1/GPa)
#
#
# Indices 1 2 3 4 5 6 
#
# 1 0.008687 -0.003447 -0.001414 0.000000 0.000000 0.000000
# 2 -0.003447 0.007751 -0.000513 0.000000 0.000000 0.000000
# 3 -0.001414 -0.000513 0.015294 0.000000 0.000000 0.000000
# 4 0.000000 0.000000 0.000000 0.046897 0.000000 0.000000
# 5 0.000000 0.000000 0.000000 0.000000 0.033988 0.000000
# 6 0.000000 0.000000 0.000000 0.000000 0.000000 0.023864
#
#
# Mechanical properties :
#
#
# Convention : Reuss Voigt Hill
#
# Bulk Modulus (GPa) = 47.65467 61.33724 54.49596
# Shear Modulus (GPa) = 32.42030 37.03533 34.72781
#
# Velocity S-wave (km/s) = 3.65317 3.90454 3.78094
# Velocity P-wave (km/s) = 6.11645 6.75103 6.44156
#
# Compressibility (1/GPa) = 0.02098430
#
# Stress axis : x y z
#
# Youngs Moduli (GPa) = 115.11661 129.00935 65.38336
#
# Poissons Ratio (x) = 0.44469 0.09246
# Poissons Ratio (y) = 0.39680 0.03355
# Poissons Ratio (z) = 0.16279 0.06619
#
# Static dielectric constant tensor:
#      x y z
#    x 2.056790 0.000000 0.000000 
#    y 0.000000 2.019070 0.000000 
#    z 0.000000 0.000000 2.007020 
# 
# From -- ./inp_files/12609.got.cif
#   From: 2010.05.17/outbox.cif.g08.bks.cpg/sg58_7_cif.got.tgz:12609.got - 2010.06.03 14:20:14.
