data_PCOD9444523
_publ_section_title
;
Structure prediction by ZEFSAII (Michael W. Deem and Ramdas Pophale) SiO2 
 PCOD9444523
Probable space group: P N N M
;
_chemical_formula_sum "Si O2"
_cell_formula_units_Z 48
_cell_length_a 18.915910
_cell_length_b 15.137971
_cell_length_c 7.849426
_cell_angle_alpha 90.000000
_cell_angle_beta 90.000000
_cell_angle_gamma 90.000000
_cell_volume 2247.671338
_symmetry_space_group_name_H-M "P N N M"
_symmetry_group_IT_number 58
_symmetry_cell_setting 'orthorhombic'
loop_
_space_group_symop_operation_xyz
x,y,z
-x,-y,z
1/2+x,1/2-y,1/2-z
1/2-x,1/2+y,1/2-z
-x,-y,-z
x,y,-z
1/2-x,1/2+y,1/2+z
1/2+x,1/2-y,1/2+z
loop_
_atom_site_type_symbol
_atom_site_label
_atom_site_fract_x
_atom_site_fract_y
_atom_site_fract_z
Si Si1 0.433143 0.052317 0.300286
Si Si2 0.660299 0.350852 0.202242
Si Si3 0.755214 0.192564 0.293914
Si Si4 0.994984 0.900569 0.802210
Si Si5 0.906832 0.257016 0.698234
Si Si6 0.223605 0.506505 0.208562
O O1 0.430046 0.028307 0.500000
O O2 0.440754 0.157665 0.285394
O O3 0.500000 0.000000 0.225355
O O4 0.355619 0.027954 0.230161
O O5 0.691038 0.254023 0.236808
O O6 0.585438 0.368625 0.287399
O O7 0.719594 0.420503 0.263851
O O8 0.650871 0.362912 0.000000
O O9 0.757466 0.192216 0.500000
O O10 0.828822 0.234998 0.231665
O O11 0.746454 0.091514 0.238723
O O12 0.045675 0.829885 0.714643
O O13 0.016572 0.903970 0.000000
O O14 0.000000 0.000000 0.731241
O O15 0.899676 0.279891 0.500000
O O16 0.223188 0.509369 0.000000
#
# Coordination Sequence:
#
# PCOD9444523 Si02
#       6
#     8   8   8   8   8   8
#     4  10  21  38  61  88 121 166 212 254 302 364
#     4  11  22  39  63  92 124 158 200 252 308 367
#     4  10  21  38  61  89 121 162 204 248 301 362
#     4  11  25  43  64  90 122 161 207 256 308 371
#     4  11  23  40  63  92 128 164 203 257 312 365
#     4   9  19  37  60  86 120 160 203 246 299 363
#
# _framework density 21.355435
#
# number of rings (size 3 to 8) (size 9 to 14) (size 15 to 20)
#    0.000    1.667    1.667    2.500    2.333    3.667 
#    0.000    2.500    0.000    0.000    0.000    0.000 
#    0.000    0.000    0.000    0.000    0.000    0.000 
#
# Total GULP energy -268347.002380 kJ/mol
# GULP energy per Si atom -5590.562550 kJ/mol
# Density = 2.130683 g / cm^3
# Si number density = 21.355435 Si / 1000 Ang^3
#
#
#
# Elastic Constant Matrix: (Units=GPa)
#
#
# Indices 1 2 3 4 5 6 
#
# 1 73.9232 1.5113 -8.2702 0.0000 0.0000 0.0000
# 2 1.5113 81.6168 -13.0977 0.0000 0.0000 0.0000
# 3 -8.2702 -13.0977 26.3724 0.0000 0.0000 0.0000
# 4 0.0000 0.0000 0.0000 -10.3346 0.0000 0.0000
# 5 0.0000 0.0000 0.0000 0.0000 -61.5826 0.0000
# 6 0.0000 0.0000 0.0000 0.0000 0.0000 40.1374
#
#
#
# Elastic Compliance Matrix: (Units=1/GPa)
#
#
# Indices 1 2 3 4 5 6 
#
# 1 0.014037 0.000485 0.004643 0.000000 0.000000 0.000000
# 2 0.000485 0.013330 0.006773 0.000000 0.000000 0.000000
# 3 0.004643 0.006773 0.042738 0.000000 0.000000 0.000000
# 4 0.000000 0.000000 0.000000 -0.096762 0.000000 0.000000
# 5 0.000000 0.000000 0.000000 0.000000 -0.016238 0.000000
# 6 0.000000 0.000000 0.000000 0.000000 0.000000 0.024914
#
#
# Mechanical properties :
#
#
# Convention : Reuss Voigt Hill
#
# Bulk Modulus (GPa) = 10.64892 15.79992 13.22442
# Shear Modulus (GPa) = -477.10082 7.09530 -235.00276
#
# Velocity S-wave (km/s) = -14.96311 1.82474 -10.50154
# Velocity P-wave (km/s) = 17.13268 3.44299 11.86749
#
# Compressibility (1/GPa) = 0.09390621
#
# Stress axis : x y z
#
# Youngs Moduli (GPa) = 71.24004 75.01745 23.39844
#
# Poissons Ratio (x) = -0.03639 -0.10864
# Poissons Ratio (y) = -0.03456 -0.15847
# Poissons Ratio (z) = -0.33076 -0.50806
#
# Static dielectric constant tensor:
#      x y z
#    x 1.747760 0.000000 0.000000 
#    y 0.000000 1.735940 0.000000 
#    z 0.000000 0.000000 1.777290 
# 
# From -- ./inp_files/5873.got.cif
#   From: 2010.05.17/outbox.cif.g08.bks.cpg/sg58_3_cif.got.tgz:5873.got - 2010.06.03 14:20:14.
