data_PCOD9444911
_publ_section_title
;
Structure prediction by ZEFSAII (Michael W. Deem and Ramdas Pophale) SiO2 
 PCOD9444911
Probable space group: P N N M
;
_chemical_formula_sum "Si O2"
_cell_formula_units_Z 52
_cell_length_a 16.184547
_cell_length_b 8.397453
_cell_length_c 14.230588
_cell_angle_alpha 90.000000
_cell_angle_beta 90.000000
_cell_angle_gamma 90.000000
_cell_volume 1934.064597
_symmetry_space_group_name_H-M "P N N M"
_symmetry_group_IT_number 58
_symmetry_cell_setting 'orthorhombic'
loop_
_space_group_symop_operation_xyz
x,y,z
-x,-y,z
1/2+x,1/2-y,1/2-z
1/2-x,1/2+y,1/2-z
-x,-y,-z
x,y,-z
1/2-x,1/2+y,1/2+z
1/2+x,1/2-y,1/2+z
loop_
_atom_site_type_symbol
_atom_site_label
_atom_site_fract_x
_atom_site_fract_y
_atom_site_fract_z
Si Si1 0.084496 0.120475 0.110769
Si Si2 0.297829 0.837348 0.144122
Si Si3 0.385872 0.164494 0.859728
Si Si4 0.116149 0.757565 0.142126
Si Si5 0.270133 0.825783 0.637501
Si Si6 0.957364 0.827653 0.678281
Si Si7 0.885263 0.475586 0.000000
O O1 0.182528 0.157799 0.123027
O O2 0.051521 0.202856 0.208085
O O3 0.076740 0.931084 0.125169
O O4 0.067231 0.160917 0.000000
O O5 0.210127 0.782185 0.103041
O O6 0.274293 0.869753 0.253229
O O7 0.364716 0.694847 0.141210
O O8 0.348530 0.994056 0.113066
O O9 0.379164 0.194836 0.747271
O O10 0.322704 0.298990 0.895607
O O11 0.481518 0.204486 0.873795
O O12 0.068616 0.630461 0.080516
O O13 0.327947 0.941981 0.580712
O O14 0.000000 0.000000 0.667991
#
# Coordination Sequence:
#
# PCOD9444911 Si02
#       7
#     8   8   8   8   8   8   4
#     4  11  21  40  58  89 126 169 205 259 322 384
#     4  10  22  39  61  88 120 169 213 258 307 376
#     4  11  21  40  60  87 124 171 209 255 315 376
#     4  11  22  36  63  90 122 162 217 264 310 372
#     4  10  22  36  63  89 122 156 217 267 309 360
#     4  11  24  37  58  91 128 164 211 254 313 381
#     4  12  22  36  60 101 121 154 205 281 322 352
#
# _framework density 26.886382999999999
#
# number of rings (size 3 to 8) (size 9 to 14) (size 15 to 20)
#    0.000    1.231    6.154    0.462    2.154    0.308 
#    1.385    0.000    0.000    5.538    0.000    3.231 
#    0.000    0.000    0.000    0.000    0.000    0.000 
#
# Total GULP energy -289684.131892 kJ/mol
# GULP energy per Si atom -5570.848690 kJ/mol
# Density = 2.682519 g / cm^3
# Si number density = 26.886383 Si / 1000 Ang^3
#
#
#
# Elastic Constant Matrix: (Units=GPa)
#
#
# Indices 1 2 3 4 5 6 
#
# 1 122.6646 18.9080 -23.5895 0.0000 0.0000 0.0000
# 2 18.9080 82.6763 5.7210 0.0000 0.0000 0.0000
# 3 -23.5895 5.7210 88.2042 0.0000 0.0000 0.0000
# 4 0.0000 0.0000 0.0000 86.2605 0.0000 0.0000
# 5 0.0000 0.0000 0.0000 0.0000 1057.9564 0.0000
# 6 0.0000 0.0000 0.0000 0.0000 0.0000 53.2683
#
#
#
# Elastic Compliance Matrix: (Units=1/GPa)
#
#
# Indices 1 2 3 4 5 6 
#
# 1 0.008986 -0.002231 0.002548 0.000000 0.000000 0.000000
# 2 -0.002231 0.012704 -0.001421 0.000000 0.000000 0.000000
# 3 0.002548 -0.001421 0.012111 0.000000 0.000000 0.000000
# 4 0.000000 0.000000 0.000000 0.011593 0.000000 0.000000
# 5 0.000000 0.000000 0.000000 0.000000 0.000945 0.000000
# 6 0.000000 0.000000 0.000000 0.000000 0.000000 0.018773
#
#
# Mechanical properties :
#
#
# Convention : Reuss Voigt Hill
#
# Bulk Modulus (GPa) = 31.65277 32.84712 32.24995
# Shear Modulus (GPa) = 64.22483 258.99741 161.61112
#
# Velocity S-wave (km/s) = 4.89279 9.82545 7.76140
# Velocity P-wave (km/s) = 6.61192 11.87278 9.60938
#
# Compressibility (1/GPa) = 0.03159282
#
# Stress axis : x y z
#
# Youngs Moduli (GPa) = 111.28062 78.71530 82.56997
#
# Poissons Ratio (x) = 0.17565 -0.21039
# Poissons Ratio (y) = 0.24832 0.11731
# Poissons Ratio (z) = -0.28355 0.11184
#
# Static dielectric constant tensor:
#      x y z
#    x 2.214090 0.000000 0.000000 
#    y 0.000000 2.246070 0.000000 
#    z 0.000000 0.000000 2.018840 
# 
# From -- ./inp_files/27264.got.cif
#   From: 2010.05.17/outbox.cif.g08.bks.cpg/sg58_14_cif.got.tgz:27264.got - 2010.06.03 14:20:14.
