data_PCOD9444337
_publ_section_title
;
Structure prediction by ZEFSAII (Michael W. Deem and Ramdas Pophale) SiO2 
 PCOD9444337
Probable space group: P N N M
;
_chemical_formula_sum "Si O2"
_cell_formula_units_Z 48
_cell_length_a 18.978359
_cell_length_b 15.436859
_cell_length_c 7.594819
_cell_angle_alpha 90.000000
_cell_angle_beta 90.000000
_cell_angle_gamma 90.000000
_cell_volume 2225.025657
_symmetry_space_group_name_H-M "P N N M"
_symmetry_group_IT_number 58
_symmetry_cell_setting 'orthorhombic'
loop_
_space_group_symop_operation_xyz
x,y,z
-x,-y,z
1/2+x,1/2-y,1/2-z
1/2-x,1/2+y,1/2-z
-x,-y,-z
x,y,-z
1/2-x,1/2+y,1/2+z
1/2+x,1/2-y,1/2+z
loop_
_atom_site_type_symbol
_atom_site_label
_atom_site_fract_x
_atom_site_fract_y
_atom_site_fract_z
Si Si1 0.802422 0.528038 0.297863
Si Si2 0.192248 0.112389 0.706784
Si Si3 0.580174 0.739868 0.715711
Si Si4 0.759755 0.207309 0.215434
Si Si5 0.943143 0.433982 0.203467
Si Si6 0.971169 0.907057 0.212947
O O1 0.824591 0.540351 0.500000
O O2 0.734307 0.466286 0.293285
O O3 0.780099 0.621120 0.223365
O O4 0.866951 0.479105 0.207514
O O5 0.209049 0.107186 0.500000
O O6 0.221401 0.204653 0.771368
O O7 0.109126 0.105951 0.731956
O O8 0.581022 0.741239 0.500000
O O9 0.658670 0.711666 0.769978
O O10 0.563502 0.837247 0.778606
O O11 0.522005 0.670528 0.772146
O O12 0.759166 0.204402 0.000000
O O13 0.000000 0.500000 0.283686
O O14 0.964827 0.420983 0.000000
O O15 0.972707 0.907415 0.000000
O O16 0.000000 0.000000 0.273629
#
# Coordination Sequence:
#
# PCOD9444337 Si02
#       6
#     8   8   8   8   8   8
#     4  11  22  38  61  87 115 151 197 243 289 348
#     4  11  22  39  61  86 119 153 191 241 294 347
#     4   9  17  35  59  81 112 153 190 228 281 343
#     4   9  19  36  59  83 112 152 191 235 294 346
#     4  10  21  37  58  84 116 155 196 238 290 347
#     4  10  21  37  60  87 116 152 195 239 286 347
#
# _framework density 21.572783000000001
#
# number of rings (size 3 to 8) (size 9 to 14) (size 15 to 20)
#    0.000    2.000    1.667    2.000    2.333    3.333 
#    0.000    3.333    0.000    0.000    0.000    0.000 
#    0.000    0.000    0.000    0.000    0.000    0.000 
#
# Total GULP energy -268286.345214 kJ/mol
# GULP energy per Si atom -5589.298859 kJ/mol
# Density = 2.152368 g / cm^3
# Si number density = 21.572783 Si / 1000 Ang^3
#
#
#
# Elastic Constant Matrix: (Units=GPa)
#
#
# Indices 1 2 3 4 5 6 
#
# 1 116.6965 30.5587 -11.3294 0.0000 0.0000 0.0000
# 2 30.5587 115.8516 1.8143 0.0000 0.0000 0.0000
# 3 -11.3294 1.8143 47.9845 0.0000 0.0000 0.0000
# 4 0.0000 0.0000 0.0000 5.6738 0.0000 0.0000
# 5 0.0000 0.0000 0.0000 0.0000 34.0104 0.0000
# 6 0.0000 0.0000 0.0000 0.0000 0.0000 44.2460
#
#
#
# Elastic Compliance Matrix: (Units=1/GPa)
#
#
# Indices 1 2 3 4 5 6 
#
# 1 0.009458 -0.002531 0.002329 0.000000 0.000000 0.000000
# 2 -0.002531 0.009314 -0.000950 0.000000 0.000000 0.000000
# 3 0.002329 -0.000950 0.021426 0.000000 0.000000 0.000000
# 4 0.000000 0.000000 0.000000 0.176249 0.000000 0.000000
# 5 0.000000 0.000000 0.000000 0.000000 0.029403 0.000000
# 6 0.000000 0.000000 0.000000 0.000000 0.000000 0.022601
#
#
# Mechanical properties :
#
#
# Convention : Reuss Voigt Hill
#
# Bulk Modulus (GPa) = 26.38962 35.84667 31.11814
# Shear Modulus (GPa) = 17.64373 34.08531 25.86452
#
# Velocity S-wave (km/s) = 2.86294 3.97925 3.46633
# Velocity P-wave (km/s) = 4.81539 6.14535 5.52056
#
# Compressibility (1/GPa) = 0.03789369
#
# Stress axis : x y z
#
# Youngs Moduli (GPa) = 105.72846 107.36182 46.67270
#
# Poissons Ratio (x) = 0.27177 -0.10869
# Poissons Ratio (y) = 0.26763 0.04433
# Poissons Ratio (z) = -0.24622 0.10198
#
# Static dielectric constant tensor:
#      x y z
#    x 1.716900 0.000000 0.000000 
#    y 0.000000 1.764310 0.000000 
#    z 0.000000 0.000000 1.825330 
# 
# From -- ./inp_files/5875.got.cif
#   From: 2010.05.17/outbox.cif.g08.bks.cpg/sg58_3_cif.got.tgz:5875.got - 2010.06.03 14:20:14.
