data_PCOD9444242
_publ_section_title
;
Structure prediction by ZEFSAII (Michael W. Deem and Ramdas Pophale) SiO2 
 PCOD9444242
Probable space group: P N N M
;
_chemical_formula_sum "Si O2"
_cell_formula_units_Z 64
_cell_length_a 12.323271
_cell_length_b 14.639637
_cell_length_c 19.280781
_cell_angle_alpha 90.000000
_cell_angle_beta 90.000000
_cell_angle_gamma 90.000000
_cell_volume 3478.411267
_symmetry_space_group_name_H-M "P N N M"
_symmetry_group_IT_number 58
_symmetry_cell_setting 'orthorhombic'
loop_
_space_group_symop_operation_xyz
x,y,z
-x,-y,z
1/2+x,1/2-y,1/2-z
1/2-x,1/2+y,1/2-z
-x,-y,-z
x,y,-z
1/2-x,1/2+y,1/2+z
1/2+x,1/2-y,1/2+z
loop_
_atom_site_type_symbol
_atom_site_label
_atom_site_fract_x
_atom_site_fract_y
_atom_site_fract_z
Si Si1 0.553552 0.734091 0.317192
Si Si2 0.496770 0.608262 0.184957
Si Si3 0.950250 0.905944 0.081444
Si Si4 0.871657 0.496688 0.282875
Si Si5 0.168322 0.814318 0.417847
Si Si6 0.838938 0.669803 0.802454
Si Si7 0.808888 0.401117 0.580336
Si Si8 0.759477 0.833016 0.711547
O O1 0.545015 0.670468 0.248043
O O2 0.508424 0.674703 0.379362
O O3 0.467424 0.816121 0.309836
O O4 0.672611 0.772987 0.329927
O O5 0.500000 0.500000 0.200346
O O6 0.568144 0.634079 0.118167
O O7 0.370717 0.635806 0.176262
O O8 0.821232 0.902719 0.090474
O O9 0.972593 0.900319 0.000000
O O10 0.000000 0.000000 0.108910
O O11 0.821484 0.591123 0.254495
O O12 0.857266 0.470422 0.363571
O O13 0.806911 0.417632 0.242433
O O14 0.000000 0.500000 0.268582
O O15 0.178904 0.831153 0.500000
O O16 0.274243 0.845089 0.373785
O O17 0.154386 0.704216 0.408752
O O18 0.796360 0.766075 0.773325
O O19 0.831546 0.425267 0.500000
#
# Coordination Sequence:
#
# PCOD9444242 Si02
#       8
#     8   8   8   8   8   8   8   8
#     4  11  20  37  61  90 128 166 208 263 317 379
#     4  11  23  40  62  93 124 164 219 264 323 374
#     4  10  21  36  59  92 127 167 212 260 321 389
#     4  12  23  39  63  92 129 162 210 266 314 376
#     4  11  22  42  67  90 123 168 215 258 321 386
#     4  11  22  38  64  91 124 166 212 257 322 373
#     4  10  21  39  60  89 130 171 209 253 319 396
#     4  11  23  38  59  95 129 161 214 264 317 379
#
# _framework density 18.399204000000001
#
# number of rings (size 3 to 8) (size 9 to 14) (size 15 to 20)
#    0.000    1.125    5.000    1.875    3.500    0.500 
#    0.000    0.625    0.000    1.125    0.000    0.000 
#    0.000    0.000    0.000    0.000    0.000    0.000 
#
# Total GULP energy -357223.816429 kJ/mol
# GULP energy per Si atom -5581.622132 kJ/mol
# Density = 1.835733 g / cm^3
# Si number density = 18.399204 Si / 1000 Ang^3
#
#
#
# Elastic Constant Matrix: (Units=GPa)
#
#
# Indices 1 2 3 4 5 6 
#
# 1 93.8084 35.8742 32.3244 0.0000 0.0000 0.0000
# 2 35.8742 96.0604 45.4347 0.0000 0.0000 0.0000
# 3 32.3244 45.4347 85.1935 0.0000 0.0000 0.0000
# 4 0.0000 0.0000 0.0000 28.3460 0.0000 0.0000
# 5 0.0000 0.0000 0.0000 0.0000 -2.6801 0.0000
# 6 0.0000 0.0000 0.0000 0.0000 0.0000 31.0485
#
#
#
# Elastic Compliance Matrix: (Units=1/GPa)
#
#
# Indices 1 2 3 4 5 6 
#
# 1 0.013036 -0.003382 -0.003143 0.000000 0.000000 0.000000
# 2 -0.003382 0.014799 -0.006609 0.000000 0.000000 0.000000
# 3 -0.003143 -0.006609 0.016455 0.000000 0.000000 0.000000
# 4 0.000000 0.000000 0.000000 0.035278 0.000000 0.000000
# 5 0.000000 0.000000 0.000000 0.000000 -0.373114 0.000000
# 6 0.000000 0.000000 0.000000 0.000000 0.000000 0.032208
#
#
# Mechanical properties :
#
#
# Convention : Reuss Voigt Hill
#
# Bulk Modulus (GPa) = 55.48560 55.81432 55.64996
# Shear Modulus (GPa) = -21.82817 22.10481 0.13832
#
# Velocity S-wave (km/s) = -3.44810 3.46988 0.27448
# Velocity P-wave (km/s) = 3.79071 6.81575 5.51470
#
# Compressibility (1/GPa) = 0.01802270
#
# Stress axis : x y z
#
# Youngs Moduli (GPa) = 76.70918 67.57084 60.77100
#
# Poissons Ratio (x) = 0.22853 0.19098
# Poissons Ratio (y) = 0.25944 0.40166
# Poissons Ratio (z) = 0.24106 0.44660
#
# Static dielectric constant tensor:
#      x y z
#    x 1.664120 0.000000 0.000000 
#    y 0.000000 1.760310 0.000000 
#    z 0.000000 0.000000 1.633970 
# 
# From -- ./inp_files/26349.got.cif
#   From: 2010.05.17/outbox.cif.g08.bks.cpg/sg58_14_cif.got.tgz:26349.got - 2010.06.03 14:20:14.
