data_PCOD9444549
_publ_section_title
;
Structure prediction by ZEFSAII (Michael W. Deem and Ramdas Pophale) SiO2 
 PCOD9444549
Probable space group: P N N M
;
_chemical_formula_sum "Si O2"
_cell_formula_units_Z 64
_cell_length_a 11.607473
_cell_length_b 17.993752
_cell_length_c 14.936956
_cell_angle_alpha 90.000000
_cell_angle_beta 90.000000
_cell_angle_gamma 90.000000
_cell_volume 3119.762362
_symmetry_space_group_name_H-M "P N N M"
_symmetry_group_IT_number 58
_symmetry_cell_setting 'orthorhombic'
loop_
_space_group_symop_operation_xyz
x,y,z
-x,-y,z
1/2+x,1/2-y,1/2-z
1/2-x,1/2+y,1/2-z
-x,-y,-z
x,y,-z
1/2-x,1/2+y,1/2+z
1/2+x,1/2-y,1/2+z
loop_
_atom_site_type_symbol
_atom_site_label
_atom_site_fract_x
_atom_site_fract_y
_atom_site_fract_z
Si Si1 0.537968 0.875397 0.903002
Si Si2 0.709009 0.306055 0.400705
Si Si3 0.814671 0.722227 0.600944
Si Si4 0.733177 0.886347 0.605670
Si Si5 0.363476 0.483807 0.209906
Si Si6 0.737184 0.160493 0.283975
Si Si7 0.492654 0.082329 0.293610
Si Si8 0.873584 0.964198 0.899393
O O1 0.665849 0.843569 0.904895
O O2 0.444766 0.808865 0.894332
O O3 0.530627 0.921454 0.812567
O O4 0.514303 0.911261 0.000000
O O5 0.677644 0.278124 0.500000
O O6 0.723925 0.238625 0.333619
O O7 0.625450 0.375590 0.379222
O O8 0.771292 0.707391 0.500000
O O9 0.805044 0.810225 0.616902
O O10 0.748183 0.679262 0.679034
O O11 0.714018 0.897422 0.500000
O O12 0.612463 0.876872 0.657676
O O13 0.798530 0.956752 0.647908
O O14 0.500000 0.500000 0.207327
O O15 0.332994 0.398871 0.186168
O O16 0.318125 0.498133 0.312034
O O17 0.615256 0.120942 0.301628
O O18 0.500000 0.000000 0.332329
O O19 0.821660 0.972972 0.000000
O O20 0.000000 0.000000 0.904180
#
# Coordination Sequence:
#
# PCOD9444549 Si02
#       8
#     8   8   8   8   8   8   8   8
#     4   9  19  36  63  94 124 156 197 260 325 383
#     4  10  21  38  62  91 124 162 208 262 320 377
#     4   9  20  39  62  90 120 160 208 257 319 380
#     4  11  24  44  64  84 123 169 214 261 311 375
#     4  11  24  40  62  94 125 164 214 260 322 385
#     4  11  23  39  62  92 126 162 209 267 313 378
#     4  11  22  40  61  87 122 163 212 252 311 383
#     4   9  19  39  64  92 129 168 208 263 324 390
#
# _framework density 20.514384
#
# number of rings (size 3 to 8) (size 9 to 14) (size 15 to 20)
#    0.000    1.875    1.250    2.250    1.750    2.250 
#    6.750    0.000    0.000    0.000    0.000    0.000 
#    0.000    0.000    0.000    0.000    0.000    0.000 
#
# Total GULP energy -357015.118951 kJ/mol
# GULP energy per Si atom -5578.361234 kJ/mol
# Density = 2.046769 g / cm^3
# Si number density = 20.514384 Si / 1000 Ang^3
#
#
#
# Elastic Constant Matrix: (Units=GPa)
#
#
# Indices 1 2 3 4 5 6 
#
# 1 65.1731 37.1596 28.4368 0.0000 0.0000 0.0000
# 2 37.1596 120.2558 49.3299 0.0000 0.0000 0.0000
# 3 28.4368 49.3299 87.4436 0.0000 0.0000 0.0000
# 4 0.0000 0.0000 0.0000 8.7131 0.0000 0.0000
# 5 0.0000 0.0000 0.0000 0.0000 15.2274 0.0000
# 6 0.0000 0.0000 0.0000 0.0000 0.0000 17.5656
#
#
#
# Elastic Compliance Matrix: (Units=1/GPa)
#
#
# Indices 1 2 3 4 5 6 
#
# 1 0.019569 -0.004471 -0.003842 0.000000 0.000000 0.000000
# 2 -0.004471 0.011841 -0.005226 0.000000 0.000000 0.000000
# 3 -0.003842 -0.005226 0.015633 0.000000 0.000000 0.000000
# 4 0.000000 0.000000 0.000000 0.114769 0.000000 0.000000
# 5 0.000000 0.000000 0.000000 0.000000 0.065671 0.000000
# 6 0.000000 0.000000 0.000000 0.000000 0.000000 0.056930
#
#
# Mechanical properties :
#
#
# Convention : Reuss Voigt Hill
#
# Bulk Modulus (GPa) = 50.08446 55.85836 52.97141
# Shear Modulus (GPa) = 15.71605 18.83097 17.27351
#
# Velocity S-wave (km/s) = 2.77085 3.03304 2.90491
# Velocity P-wave (km/s) = 5.89102 6.28918 6.09335
#
# Compressibility (1/GPa) = 0.01996627
#
# Stress axis : x y z
#
# Youngs Moduli (GPa) = 51.10051 84.45324 63.96596
#
# Poissons Ratio (x) = 0.37760 0.24574
# Poissons Ratio (y) = 0.22848 0.33427
# Poissons Ratio (z) = 0.19631 0.44134
#
# Static dielectric constant tensor:
#      x y z
#    x 1.719270 0.000000 0.000000 
#    y 0.000000 1.733830 0.000000 
#    z 0.000000 0.000000 1.777960 
# 
# From -- ./inp_files/21515.got.cif
#   From: 2010.05.17/outbox.cif.g08.bks.cpg/sg58_11_cif.got.tgz:21515.got - 2010.06.03 14:20:14.
