data_PCOD9444740
_publ_section_title
;
Structure prediction by ZEFSAII (Michael W. Deem and Ramdas Pophale) SiO2 
 PCOD9444740
Probable space group: P N N M
;
_chemical_formula_sum "Si O2"
_cell_formula_units_Z 58
_cell_length_a 17.711578
_cell_length_b 19.558079
_cell_length_c 9.121221
_cell_angle_alpha 90.000000
_cell_angle_beta 90.000000
_cell_angle_gamma 90.000000
_cell_volume 3159.631468
_symmetry_space_group_name_H-M "P N N M"
_symmetry_group_IT_number 58
_symmetry_cell_setting 'orthorhombic'
loop_
_space_group_symop_operation_xyz
x,y,z
-x,-y,z
1/2+x,1/2-y,1/2-z
1/2-x,1/2+y,1/2-z
-x,-y,-z
x,y,-z
1/2-x,1/2+y,1/2+z
1/2+x,1/2-y,1/2+z
loop_
_atom_site_type_symbol
_atom_site_label
_atom_site_fract_x
_atom_site_fract_y
_atom_site_fract_z
Si Si1 0.147839 0.389766 0.325925
Si Si2 0.724121 0.699009 0.825319
Si Si3 0.990866 0.363796 0.827439
Si Si4 0.934914 0.209832 0.172843
Si Si5 0.500000 0.500000 0.000000
Si Si6 0.635655 0.948919 0.174007
Si Si7 0.221714 0.145630 0.825385
Si Si8 0.064974 0.128823 0.338284
O O1 0.149703 0.377446 0.500000
O O2 0.217124 0.352354 0.248310
O O3 0.150077 0.471296 0.300973
O O4 0.069758 0.363502 0.257316
O O5 0.641351 0.690694 0.757215
O O6 0.752539 0.776471 0.797639
O O7 0.721210 0.688597 0.000000
O O8 0.950627 0.290558 0.808110
O O9 0.935910 0.421289 0.762380
O O10 0.004133 0.374569 0.000000
O O11 0.005376 0.169321 0.239815
O O12 0.927318 0.196093 0.000000
O O13 0.466563 0.553432 0.874699
O O14 0.709281 0.904528 0.213414
O O15 0.621157 0.938753 0.000000
O O16 0.146333 0.128616 0.737088
O O17 0.207610 0.138918 0.000000
O O18 0.070695 0.163007 0.500000
#
# Coordination Sequence:
#
# PCOD9444740 Si02
#       8
#     8   8   8   8   2   8   8   8
#     4  11  24  40  61  91 128 168 207 252 311 378
#     4  11  23  40  63  93 127 161 208 267 316 373
#     4  11  23  39  62  92 128 162 209 260 310 369
#     4  11  23  40  64  93 124 163 210 261 317 374
#     4   8  24  44  58  92 124 156 218 268 316 376
#     4  10  22  41  62  89 127 170 210 250 312 378
#     4  10  21  40  65  91 123 164 213 258 317 379
#     4  10  22  41  64  88 125 162 209 263 313 372
#
# _framework density 18.356572
#
# number of rings (size 3 to 8) (size 9 to 14) (size 15 to 20)
#    0.414    1.103    1.379    3.310    0.000   10.483 
#    0.000    2.759    0.000    0.000    0.000    0.000 
#    0.000    0.000    0.000    0.000    0.000    0.000 
#
# Total GULP energy -323523.831051 kJ/mol
# GULP energy per Si atom -5577.997087 kJ/mol
# Density = 1.831479 g / cm^3
# Si number density = 18.356572 Si / 1000 Ang^3
#
#
#
# Elastic Constant Matrix: (Units=GPa)
#
#
# Indices 1 2 3 4 5 6 
#
# 1 97.5813 20.6914 48.0549 0.0000 0.0000 0.0000
# 2 20.6914 25.3183 29.4648 0.0000 0.0000 0.0000
# 3 48.0549 29.4648 67.9829 0.0000 0.0000 0.0000
# 4 0.0000 0.0000 0.0000 31.8856 0.0000 0.0000
# 5 0.0000 0.0000 0.0000 0.0000 38.3800 0.0000
# 6 0.0000 0.0000 0.0000 0.0000 0.0000 20.1050
#
#
#
# Elastic Compliance Matrix: (Units=1/GPa)
#
#
# Indices 1 2 3 4 5 6 
#
# 1 0.015720 0.000171 -0.011186 0.000000 0.000000 0.000000
# 2 0.000171 0.079697 -0.034663 0.000000 0.000000 0.000000
# 3 -0.011186 -0.034663 0.037640 0.000000 0.000000 0.000000
# 4 0.000000 0.000000 0.000000 0.031362 0.000000 0.000000
# 5 0.000000 0.000000 0.000000 0.000000 0.026055 0.000000
# 6 0.000000 0.000000 0.000000 0.000000 0.000000 0.049739
#
#
# Mechanical properties :
#
#
# Convention : Reuss Voigt Hill
#
# Bulk Modulus (GPa) = 23.98006 43.03388 33.50697
# Shear Modulus (GPa) = 14.47302 24.25222 19.36262
#
# Velocity S-wave (km/s) = 2.81096 3.63874 3.25130
# Velocity P-wave (km/s) = 4.86078 6.41468 5.69101
#
# Compressibility (1/GPa) = 0.04170131
#
# Stress axis : x y z
#
# Youngs Moduli (GPa) = 63.61134 12.54753 26.56742
#
# Poissons Ratio (x) = -0.00214 0.29719
# Poissons Ratio (y) = -0.01086 0.92089
# Poissons Ratio (z) = 0.71158 0.43493
#
# Static dielectric constant tensor:
#      x y z
#    x 1.591590 0.000000 0.000000 
#    y 0.000000 1.618530 0.000000 
#    z 0.000000 0.000000 1.616790 
# 
# From -- ./inp_files/8025.got.cif
#   From: 2010.05.17/outbox.cif.g08.bks.cpg/sg58_5_cif.got.tgz:8025.got - 2010.06.03 14:20:14.
