data_PCOD9444414
_publ_section_title
;
Structure prediction by ZEFSAII (Michael W. Deem and Ramdas Pophale) SiO2 
 PCOD9444414
Probable space group: P N N M
;
_chemical_formula_sum "Si O2"
_cell_formula_units_Z 32
_cell_length_a 16.637194
_cell_length_b 9.858750
_cell_length_c 7.545614
_cell_angle_alpha 90.000000
_cell_angle_beta 90.000000
_cell_angle_gamma 90.000000
_cell_volume 1237.646219
_symmetry_space_group_name_H-M "P N N M"
_symmetry_group_IT_number 58
_symmetry_cell_setting 'orthorhombic'
loop_
_space_group_symop_operation_xyz
x,y,z
-x,-y,z
1/2+x,1/2-y,1/2-z
1/2-x,1/2+y,1/2-z
-x,-y,-z
x,y,-z
1/2-x,1/2+y,1/2+z
1/2+x,1/2-y,1/2+z
loop_
_atom_site_type_symbol
_atom_site_label
_atom_site_fract_x
_atom_site_fract_y
_atom_site_fract_z
Si Si1 0.343841 0.843016 0.793259
Si Si2 0.761187 0.920093 0.786289
Si Si3 0.015063 0.647399 0.201885
Si Si4 0.420061 0.418935 0.283230
O O1 0.313861 0.989188 0.726632
O O2 0.273031 0.733279 0.773944
O O3 0.424143 0.793079 0.698510
O O4 0.362621 0.852480 0.000000
O O5 0.840709 0.002069 0.726759
O O6 0.759771 0.920448 0.000000
O O7 0.000000 0.500000 0.286530
O O8 0.070842 0.763715 0.281399
O O9 0.041444 0.624425 0.000000
O O10 0.500000 0.500000 0.229539
O O11 0.419513 0.413842 0.500000
#
# Coordination Sequence:
#
# PCOD9444414 Si02
#       4
#     8   8   8   8
#     4  11  24  39  59  88 122 155 191 245 299 346
#     4  10  22  40  60  83 117 156 196 239 290 356
#     4  10  21  37  62  87 113 155 202 243 286 347
#     4   9  16  33  60  83 104 143 197 242 275 329
#
# _framework density 25.855530999999999
#
# number of rings (size 3 to 8) (size 9 to 14) (size 15 to 20)
#    0.000    2.000    2.500    0.750    3.500    2.500 
#    0.000    2.500    0.000    0.000    0.000    0.000 
#    0.000    0.000    0.000    0.000    0.000    0.000 
#
# Total GULP energy -179074.638214 kJ/mol
# GULP energy per Si atom -5596.082444 kJ/mol
# Density = 2.579668 g / cm^3
# Si number density = 25.855531 Si / 1000 Ang^3
#
#
#
# Elastic Constant Matrix: (Units=GPa)
#
#
# Indices 1 2 3 4 5 6 
#
# 1 64.1149 -6.1570 14.9663 0.0000 0.0000 0.0000
# 2 -6.1570 140.2904 7.0962 0.0000 0.0000 0.0000
# 3 14.9663 7.0962 86.8074 0.0000 0.0000 0.0000
# 4 0.0000 0.0000 0.0000 7.6830 0.0000 0.0000
# 5 0.0000 0.0000 0.0000 0.0000 4.7766 0.0000
# 6 0.0000 0.0000 0.0000 0.0000 0.0000 52.5853
#
#
#
# Elastic Compliance Matrix: (Units=1/GPa)
#
#
# Indices 1 2 3 4 5 6 
#
# 1 0.016355 0.000864 -0.002890 0.000000 0.000000 0.000000
# 2 0.000864 0.007203 -0.000738 0.000000 0.000000 0.000000
# 3 -0.002890 -0.000738 0.012078 0.000000 0.000000 0.000000
# 4 0.000000 0.000000 0.000000 0.130157 0.000000 0.000000
# 5 0.000000 0.000000 0.000000 0.000000 0.209352 0.000000
# 6 0.000000 0.000000 0.000000 0.000000 0.000000 0.019017
#
#
# Mechanical properties :
#
#
# Convention : Reuss Voigt Hill
#
# Bulk Modulus (GPa) = 33.21369 35.89151 34.55260
# Shear Modulus (GPa) = 12.20326 31.36281 21.78303
#
# Velocity S-wave (km/s) = 2.17486 3.48660 2.90572
# Velocity P-wave (km/s) = 4.37955 5.48818 4.96491
#
# Compressibility (1/GPa) = 0.03010807
#
# Stress axis : x y z
#
# Youngs Moduli (GPa) = 61.14473 138.82512 82.79257
#
# Poissons Ratio (x) = -0.11994 0.23929
# Poissons Ratio (y) = -0.05283 0.06108
# Poissons Ratio (z) = 0.17673 0.10242
#
# Static dielectric constant tensor:
#      x y z
#    x 2.061750 0.000000 0.000000 
#    y 0.000000 2.063300 0.000000 
#    z 0.000000 0.000000 1.934970 
# 
# From -- ./inp_files/2144.got.cif
#   From: 2010.05.17/outbox.cif.g08.bks.cpg/sg58_2_cif.got.tgz:2144.got - 2010.06.03 14:20:14.
