data_PCOD9444824
_publ_section_title
;
Structure prediction by ZEFSAII (Michael W. Deem and Ramdas Pophale) SiO2 
 PCOD9444824
Probable space group: P N N M
;
_chemical_formula_sum "Si O2"
_cell_formula_units_Z 48
_cell_length_a 9.823535
_cell_length_b 8.419089
_cell_length_c 28.064664
_cell_angle_alpha 90.000000
_cell_angle_beta 90.000000
_cell_angle_gamma 90.000000
_cell_volume 2321.094083
_symmetry_space_group_name_H-M "P N N M"
_symmetry_group_IT_number 58
_symmetry_cell_setting 'orthorhombic'
loop_
_space_group_symop_operation_xyz
x,y,z
-x,-y,z
1/2+x,1/2-y,1/2-z
1/2-x,1/2+y,1/2-z
-x,-y,-z
x,y,-z
1/2-x,1/2+y,1/2+z
1/2+x,1/2-y,1/2+z
loop_
_atom_site_type_symbol
_atom_site_label
_atom_site_fract_x
_atom_site_fract_y
_atom_site_fract_z
Si Si1 0.636351 0.913068 0.399258
Si Si2 0.853811 0.708040 0.289100
Si Si3 0.117584 0.688684 0.646446
Si Si4 0.630544 0.609186 0.947896
Si Si5 0.148686 0.923228 0.856683
Si Si6 0.233652 0.462527 0.202269
O O1 0.639962 0.721843 0.394800
O O2 0.500000 0.000000 0.415442
O O3 0.752231 0.988719 0.431588
O O4 0.662709 0.974128 0.345435
O O5 0.704493 0.656793 0.308430
O O6 0.868294 0.602419 0.242211
O O7 0.968646 0.668311 0.328759
O O8 0.834858 0.896167 0.280969
O O9 0.102428 0.770119 0.595071
O O10 0.231898 0.553851 0.636512
O O11 0.183920 0.809994 0.684127
O O12 0.500000 0.500000 0.951455
O O13 0.659694 0.681312 0.000000
O O14 0.000000 0.000000 0.852803
#
# Coordination Sequence:
#
# PCOD9444824 Si02
#       6
#     8   8   8   8   8   8
#     4  10  22  41  62  87 123 163 206 258 317 383
#     4  11  23  38  60  88 123 167 214 256 309 380
#     4  11  22  41  65  93 128 165 212 264 317 379
#     4  10  21  41  68  94 122 161 209 263 323 382
#     4  11  23  38  59  87 125 166 204 256 316 371
#     4  10  22  37  58  87 124 163 209 263 316 374
#
# _framework density 20.679905000000002
#
# number of rings (size 3 to 8) (size 9 to 14) (size 15 to 20)
#    0.000    1.500    0.000    7.000    0.000    7.000 
#    0.000    4.167    0.000    6.000    0.000    0.000 
#    0.000    0.000    0.000    0.000    0.000    0.000 
#
# Total GULP energy -267612.079123 kJ/mol
# GULP energy per Si atom -5575.251648 kJ/mol
# Density = 2.063284 g / cm^3
# Si number density = 20.679905 Si / 1000 Ang^3
#
#
#
# Elastic Constant Matrix: (Units=GPa)
#
#
# Indices 1 2 3 4 5 6 
#
# 1 155.9125 64.8197 54.9879 0.0000 0.0000 0.0000
# 2 64.8197 109.6900 44.2215 0.0000 0.0000 0.0000
# 3 54.9879 44.2215 113.2229 0.0000 0.0000 0.0000
# 4 0.0000 0.0000 0.0000 -2.0836 0.0000 0.0000
# 5 0.0000 0.0000 0.0000 0.0000 -104.4404 0.0000
# 6 0.0000 0.0000 0.0000 0.0000 0.0000 27.3864
#
#
#
# Elastic Compliance Matrix: (Units=1/GPa)
#
#
# Indices 1 2 3 4 5 6 
#
# 1 0.009184 -0.004307 -0.002778 0.000000 0.000000 0.000000
# 2 -0.004307 0.012840 -0.002923 0.000000 0.000000 0.000000
# 3 -0.002778 -0.002923 0.011323 0.000000 0.000000 0.000000
# 4 0.000000 0.000000 0.000000 -0.479947 0.000000 0.000000
# 5 0.000000 0.000000 0.000000 0.000000 -0.009575 0.000000
# 6 0.000000 0.000000 0.000000 0.000000 0.000000 0.036514
#
#
# Mechanical properties :
#
#
# Convention : Reuss Voigt Hill
#
# Bulk Modulus (GPa) = 75.01588 78.54262 76.77925
# Shear Modulus (GPa) = -12.65186 -1.50777 -7.07981
#
# Velocity S-wave (km/s) = -2.47613 -0.85480 -1.85228
# Velocity P-wave (km/s) = 5.30835 6.09002 5.71257
#
# Compressibility (1/GPa) = 0.01333051
#
# Stress axis : x y z
#
# Youngs Moduli (GPa) = 108.87971 77.87875 88.31504
#
# Poissons Ratio (x) = 0.33545 0.24536
# Poissons Ratio (y) = 0.46899 0.25816
# Poissons Ratio (z) = 0.30249 0.22765
#
# Static dielectric constant tensor:
#      x y z
#    x 1.694070 0.000000 0.000000 
#    y 0.000000 1.826190 0.000000 
#    z 0.000000 0.000000 1.755530 
# 
# From -- ./inp_files/34551.got.cif
#   From: 2010.05.17/outbox.cif.g08.bks.cpg/sg58_18_cif.got.tgz:34551.got - 2010.06.03 14:20:14.
