data_PCOD9444020
_publ_section_title
;
Structure prediction by ZEFSAII (Michael W. Deem and Ramdas Pophale) SiO2 
 PCOD9444020
Probable space group: P N N M
;
_chemical_formula_sum "Si O2"
_cell_formula_units_Z 48
_cell_length_a 27.803014
_cell_length_b 5.352352
_cell_length_c 14.740978
_cell_angle_alpha 90.000000
_cell_angle_beta 90.000000
_cell_angle_gamma 90.000000
_cell_volume 2193.627307
_symmetry_space_group_name_H-M "P N N M"
_symmetry_group_IT_number 58
_symmetry_cell_setting 'orthorhombic'
loop_
_space_group_symop_operation_xyz
x,y,z
-x,-y,z
1/2+x,1/2-y,1/2-z
1/2-x,1/2+y,1/2-z
-x,-y,-z
x,y,-z
1/2-x,1/2+y,1/2+z
1/2+x,1/2-y,1/2+z
loop_
_atom_site_type_symbol
_atom_site_label
_atom_site_fract_x
_atom_site_fract_y
_atom_site_fract_z
Si Si1 0.743728 0.112141 0.308282
Si Si2 0.966859 0.751194 0.500000
Si Si3 0.644170 0.166891 0.268682
Si Si4 0.549661 0.848111 0.302218
Si Si5 0.412777 0.489387 0.156279
Si Si6 0.330492 0.155284 0.903250
Si Si7 0.031444 0.755642 0.000000
O O1 0.750485 0.335654 0.233681
O O2 0.688185 0.151440 0.338028
O O3 0.785088 0.167681 0.381134
O O4 0.934700 0.794188 0.408280
O O5 0.000000 0.500000 0.500000
O O6 0.000000 0.000000 0.500000
O O7 0.625748 0.431507 0.233910
O O8 0.595430 0.026635 0.292672
O O9 0.664658 0.036627 0.178303
O O10 0.548974 0.660768 0.216674
O O11 0.556694 0.733034 0.402274
O O12 0.500000 0.000000 0.301131
O O13 0.380573 0.306162 0.096313
O O14 0.323605 0.029486 0.000000
O O15 0.000000 0.500000 0.000000
O O16 0.000000 0.000000 0.000000
#
# Coordination Sequence:
#
# PCOD9444020 Si02
#       7
#     8   4   8   8   8   8   4
#     4  10  20  41  64  93 125 169 220 276 337 395
#     4  12  32  44  62  99 146 189 242 292 329 400
#     4  10  23  39  67  94 137 176 229 280 343 414
#     4  10  25  44  70 100 134 184 232 287 353 418
#     4  11  24  42  67  97 138 188 234 286 342 418
#     4  10  21  40  66  96 132 181 228 279 342 415
#     4  10  24  46  70  97 126 171 226 284 342 408
#
# _framework density 21.881564999999998
#
# number of rings (size 3 to 8) (size 9 to 14) (size 15 to 20)
#    0.000    1.667    2.500    0.000   12.833    0.000 
#    1.500    0.000    0.000    0.000    0.000    0.000 
#    0.000    0.000    0.000    0.000    0.000    0.000 
#
# Total GULP energy -267749.942997 kJ/mol
# GULP energy per Si atom -5578.123812 kJ/mol
# Density = 2.183176 g / cm^3
# Si number density = 21.881565 Si / 1000 Ang^3
#
#
#
# Elastic Constant Matrix: (Units=GPa)
#
#
# Indices 1 2 3 4 5 6 
#
# 1 127.2923 16.1097 34.9391 0.0000 0.0000 0.0000
# 2 16.1097 66.3604 8.3515 0.0000 0.0000 0.0000
# 3 34.9391 8.3515 109.0635 0.0000 0.0000 0.0000
# 4 0.0000 0.0000 0.0000 7.5236 0.0000 0.0000
# 5 0.0000 0.0000 0.0000 0.0000 6.9145 0.0000
# 6 0.0000 0.0000 0.0000 0.0000 0.0000 37.4505
#
#
#
# Elastic Compliance Matrix: (Units=1/GPa)
#
#
# Indices 1 2 3 4 5 6 
#
# 1 0.008822 -0.001803 -0.002688 0.000000 0.000000 0.000000
# 2 -0.001803 0.015584 -0.000616 0.000000 0.000000 0.000000
# 3 -0.002688 -0.000616 0.010077 0.000000 0.000000 0.000000
# 4 0.000000 0.000000 0.000000 0.132915 0.000000 0.000000
# 5 0.000000 0.000000 0.000000 0.000000 0.144623 0.000000
# 6 0.000000 0.000000 0.000000 0.000000 0.000000 0.026702
#
#
# Mechanical properties :
#
#
# Convention : Reuss Voigt Hill
#
# Bulk Modulus (GPa) = 41.20386 46.83518 44.01952
# Shear Modulus (GPa) = 14.00452 26.59880 20.30166
#
# Velocity S-wave (km/s) = 2.53260 3.49030 3.04928
# Velocity P-wave (km/s) = 5.23673 6.13949 5.70599
#
# Compressibility (1/GPa) = 0.02426957
#
# Stress axis : x y z
#
# Youngs Moduli (GPa) = 113.35325 64.16634 99.23342
#
# Poissons Ratio (x) = 0.11571 0.26675
# Poissons Ratio (y) = 0.20441 0.06109
# Poissons Ratio (z) = 0.30470 0.03951
#
# Static dielectric constant tensor:
#      x y z
#    x 1.911250 0.000000 0.000000 
#    y 0.000000 1.907090 0.000000 
#    z 0.000000 0.000000 1.833170 
# 
# From -- ./inp_files/23661.got.cif
#   From: 2010.05.17/outbox.cif.g08.bks.cpg/sg58_12_cif.got.tgz:23661.got - 2010.06.03 14:20:14.
