data_PCOD9444942
_publ_section_title
;
Structure prediction by ZEFSAII (Michael W. Deem and Ramdas Pophale) SiO2 
 PCOD9444942
Probable space group: P N N M
;
_chemical_formula_sum "Si O2"
_cell_formula_units_Z 58
_cell_length_a 5.543171
_cell_length_b 26.918681
_cell_length_c 17.415077
_cell_angle_alpha 90.000000
_cell_angle_beta 90.000000
_cell_angle_gamma 90.000000
_cell_volume 2598.588135
_symmetry_space_group_name_H-M "P N N M"
_symmetry_group_IT_number 58
_symmetry_cell_setting 'orthorhombic'
loop_
_space_group_symop_operation_xyz
x,y,z
-x,-y,z
1/2+x,1/2-y,1/2-z
1/2-x,1/2+y,1/2-z
-x,-y,-z
x,y,-z
1/2-x,1/2+y,1/2+z
1/2+x,1/2-y,1/2+z
loop_
_atom_site_type_symbol
_atom_site_label
_atom_site_fract_x
_atom_site_fract_y
_atom_site_fract_z
Si Si1 0.093972 0.871448 0.283138
Si Si2 0.981139 0.612092 0.408046
Si Si3 0.982782 0.944059 0.092900
Si Si4 0.660261 0.046504 0.635117
Si Si5 0.500000 0.500000 0.000000
Si Si6 0.255532 0.190131 0.186498
Si Si7 0.213945 0.628111 0.917657
Si Si8 0.970741 0.711465 0.160853
O O1 0.232021 0.923743 0.291496
O O2 0.269099 0.827274 0.310087
O O3 0.944207 0.850182 0.211856
O O4 0.896793 0.878316 0.349295
O O5 0.981196 0.621907 0.500000
O O6 0.216928 0.578129 0.390685
O O7 0.034907 0.661830 0.359303
O O8 0.727087 0.586426 0.387648
O O9 0.991102 0.946266 0.000000
O O10 0.000000 0.000000 0.123743
O O11 0.490373 0.087147 0.593940
O O12 0.838781 0.026892 0.569142
O O13 0.500000 0.000000 0.660596
O O14 0.136070 0.235318 0.140942
O O15 0.351564 0.214548 0.265730
O O16 0.103639 0.682809 0.907352
O O17 0.331028 0.620846 0.000000
#
# Coordination Sequence:
#
# PCOD9444942 Si02
#       8
#     8   8   8   8   2   8   8   8
#     4  10  23  40  64  90 126 175 222 272 325 405
#     4  10  22  37  66 104 132 165 213 282 341 394
#     4   9  18  37  64  95 129 167 207 253 326 413
#     4  11  23  37  62  96 128 172 224 273 335 398
#     4  12  22  36  68  94 132 180 220 272 344 390
#     4  11  22  41  69  90 129 172 229 275 340 410
#     4  10  22  40  61  97 130 165 223 278 329 393
#     4  10  22  40  66  90 118 176 224 265 333 407
#
# _framework density 22.319814999999998
#
# number of rings (size 3 to 8) (size 9 to 14) (size 15 to 20)
#    0.000    1.793    2.069    1.448    4.828    2.759 
#    0.000    0.000   10.621    0.000    0.000    0.000 
#    0.000    0.000    0.000    0.000    0.000    0.000 
#
# Total GULP energy -323402.294218 kJ/mol
# GULP energy per Si atom -5575.901624 kJ/mol
# Density = 2.226901 g / cm^3
# Si number density = 22.319815 Si / 1000 Ang^3
#
#
#
# Elastic Constant Matrix: (Units=GPa)
#
#
# Indices 1 2 3 4 5 6 
#
# 1 95.9107 56.3396 17.7848 0.0000 0.0000 0.0000
# 2 56.3396 128.8590 33.5821 0.0000 0.0000 0.0000
# 3 17.7848 33.5821 30.2762 0.0000 0.0000 0.0000
# 4 0.0000 0.0000 0.0000 21.2828 0.0000 0.0000
# 5 0.0000 0.0000 0.0000 0.0000 -355.8559 0.0000
# 6 0.0000 0.0000 0.0000 0.0000 0.0000 42.4783
#
#
#
# Elastic Compliance Matrix: (Units=1/GPa)
#
#
# Indices 1 2 3 4 5 6 
#
# 1 0.014118 -0.005642 -0.002035 0.000000 0.000000 0.000000
# 2 -0.005642 0.013171 -0.011295 0.000000 0.000000 0.000000
# 3 -0.002035 -0.011295 0.046752 0.000000 0.000000 0.000000
# 4 0.000000 0.000000 0.000000 0.046986 0.000000 0.000000
# 5 0.000000 0.000000 0.000000 0.000000 -0.002810 0.000000
# 6 0.000000 0.000000 0.000000 0.000000 0.000000 0.023541
#
#
# Mechanical properties :
#
#
# Convention : Reuss Voigt Hill
#
# Bulk Modulus (GPa) = 27.70241 52.27322 39.98781
# Shear Modulus (GPa) = 26.07763 -48.59635 -11.25936
#
# Velocity S-wave (km/s) = 3.42184 -4.67119 -2.24845
# Velocity P-wave (km/s) = 5.29627 2.37116 3.34874
#
# Compressibility (1/GPa) = 0.03609794
#
# Stress axis : x y z
#
# Youngs Moduli (GPa) = 70.83085 75.92495 21.38928
#
# Poissons Ratio (x) = 0.42840 0.04352
# Poissons Ratio (y) = 0.39966 0.24158
# Poissons Ratio (z) = 0.14412 0.85754
#
# Static dielectric constant tensor:
#      x y z
#    x 1.877270 0.000000 0.000000 
#    y 0.000000 1.866330 0.000000 
#    z 0.000000 0.000000 1.836360 
# 
# From -- ./inp_files/24437.got.cif
#   From: 2010.05.17/outbox.cif.g08.bks.cpg/sg58_13_cif.got.tgz:24437.got - 2010.06.03 14:20:14.
