data_PCOD9444470
_publ_section_title
;
Structure prediction by ZEFSAII (Michael W. Deem and Ramdas Pophale) SiO2 
 PCOD9444470
Probable space group: P N N M
;
_chemical_formula_sum "Si O2"
_cell_formula_units_Z 64
_cell_length_a 31.331420
_cell_length_b 12.308551
_cell_length_c 7.931758
_cell_angle_alpha 90.000000
_cell_angle_beta 90.000000
_cell_angle_gamma 90.000000
_cell_volume 3058.837904
_symmetry_space_group_name_H-M "P N N M"
_symmetry_group_IT_number 58
_symmetry_cell_setting 'orthorhombic'
loop_
_space_group_symop_operation_xyz
x,y,z
-x,-y,z
1/2+x,1/2-y,1/2-z
1/2-x,1/2+y,1/2-z
-x,-y,-z
x,y,-z
1/2-x,1/2+y,1/2+z
1/2+x,1/2-y,1/2+z
loop_
_atom_site_type_symbol
_atom_site_label
_atom_site_fract_x
_atom_site_fract_y
_atom_site_fract_z
Si Si1 0.925177 0.784405 0.197193
Si Si2 0.452985 0.484824 0.806021
Si Si3 0.693495 0.506250 0.297846
Si Si4 0.670253 0.268265 0.295324
Si Si5 0.375139 0.079339 0.295597
Si Si6 0.790307 0.549107 0.795755
Si Si7 0.957986 0.562311 0.701067
Si Si8 0.877714 0.172521 0.200648
O O1 0.878477 0.740626 0.243979
O O2 0.956280 0.684092 0.226967
O O3 0.933625 0.894676 0.295578
O O4 0.924648 0.814215 0.000000
O O5 0.500000 0.500000 0.726938
O O6 0.420485 0.398003 0.728555
O O7 0.458711 0.451031 0.000000
O O8 0.687311 0.504607 0.500000
O O9 0.679769 0.388322 0.231193
O O10 0.743288 0.518875 0.262247
O O11 0.662353 0.601485 0.232019
O O12 0.673926 0.270794 0.500000
O O13 0.699929 0.171403 0.235415
O O14 0.374865 0.078839 0.500000
O O15 0.379713 0.203939 0.234105
O O16 0.329792 0.027255 0.240751
O O17 0.415442 0.005912 0.243798
O O18 0.790553 0.547720 0.000000
O O19 0.960508 0.572145 0.500000
O O20 0.000000 0.500000 0.763257
O O21 0.871724 0.182763 0.000000
#
# Coordination Sequence:
#
# PCOD9444470 Si02
#       8
#     8   8   8   8   8   8   8   8
#     4  11  21  41  69  90 117 158 207 256 299 354
#     4  11  25  42  61  90 128 162 197 249 312 365
#     4  10  21  38  59  86 119 155 198 250 304 357
#     4   9  18  37  61  82 113 152 195 250 301 348
#     4  10  22  41  63  88 120 160 208 254 298 359
#     4  10  21  38  59  86 119 155 198 250 304 357
#     4  11  25  42  61  90 128 162 197 249 312 365
#     4  10  22  41  63  88 120 160 208 254 298 359
#
# _framework density 20.922976999999999
#
# number of rings (size 3 to 8) (size 9 to 14) (size 15 to 20)
#    0.000    1.750    2.500    1.125    3.500    3.500 
#    0.000    0.000    0.000    0.000    0.000    0.000 
#    0.000    0.000    0.000    0.000    0.000    0.000 
#
# Total GULP energy -357379.871521 kJ/mol
# GULP energy per Si atom -5584.060493 kJ/mol
# Density = 2.087536 g / cm^3
# Si number density = 20.922977 Si / 1000 Ang^3
#
#
#
# Elastic Constant Matrix: (Units=GPa)
#
#
# Indices 1 2 3 4 5 6 
#
# 1 87.1501 17.6198 -4.1743 0.0000 0.0000 0.0000
# 2 17.6198 112.9522 -1.1119 0.0000 0.0000 0.0000
# 3 -4.1743 -1.1119 17.6172 0.0000 0.0000 0.0000
# 4 0.0000 0.0000 0.0000 7.1376 0.0000 0.0000
# 5 0.0000 0.0000 0.0000 0.0000 27.6781 0.0000
# 6 0.0000 0.0000 0.0000 0.0000 0.0000 36.3028
#
#
#
# Elastic Compliance Matrix: (Units=1/GPa)
#
#
# Indices 1 2 3 4 5 6 
#
# 1 0.011977 -0.001842 0.002722 0.000000 0.000000 0.000000
# 2 -0.001842 0.009142 0.000141 0.000000 0.000000 0.000000
# 3 0.002722 0.000141 0.057416 0.000000 0.000000 0.000000
# 4 0.000000 0.000000 0.000000 0.140103 0.000000 0.000000
# 5 0.000000 0.000000 0.000000 0.000000 0.036130 0.000000
# 6 0.000000 0.000000 0.000000 0.000000 0.000000 0.027546
#
#
# Mechanical properties :
#
#
# Convention : Reuss Voigt Hill
#
# Bulk Modulus (GPa) = 12.41048 26.93186 19.67117
# Shear Modulus (GPa) = 16.27967 27.91609 22.09788
#
# Velocity S-wave (km/s) = 2.79243 3.65668 3.25338
# Velocity P-wave (km/s) = 4.04243 5.54330 4.85126
#
# Compressibility (1/GPa) = 0.08057706
#
# Stress axis : x y z
#
# Youngs Moduli (GPa) = 83.49238 109.38569 17.41662
#
# Poissons Ratio (x) = 0.20144 -0.04740
# Poissons Ratio (y) = 0.15376 -0.00245
# Poissons Ratio (z) = -0.22724 -0.01539
#
# Static dielectric constant tensor:
#      x y z
#    x 1.762560 0.000000 0.000000 
#    y 0.000000 1.746050 0.000000 
#    z 0.000000 0.000000 1.755850 
# 
# From -- ./inp_files/10976.got.cif
#   From: 2010.05.17/outbox.cif.g08.bks.cpg/sg58_6_cif.got.tgz:10976.got - 2010.06.03 14:20:14.
