data_PCOD9444683
_publ_section_title
;
Structure prediction by ZEFSAII (Michael W. Deem and Ramdas Pophale) SiO2 
 PCOD9444683
Probable space group: P N N M
;
_chemical_formula_sum "Si O2"
_cell_formula_units_Z 58
_cell_length_a 8.303604
_cell_length_b 21.852042
_cell_length_c 15.675001
_cell_angle_alpha 90.000000
_cell_angle_beta 90.000000
_cell_angle_gamma 90.000000
_cell_volume 2844.239957
_symmetry_space_group_name_H-M "P N N M"
_symmetry_group_IT_number 58
_symmetry_cell_setting 'orthorhombic'
loop_
_space_group_symop_operation_xyz
x,y,z
-x,-y,z
1/2+x,1/2-y,1/2-z
1/2-x,1/2+y,1/2-z
-x,-y,-z
x,y,-z
1/2-x,1/2+y,1/2+z
1/2+x,1/2-y,1/2+z
loop_
_atom_site_type_symbol
_atom_site_label
_atom_site_fract_x
_atom_site_fract_y
_atom_site_fract_z
Si Si1 0.587341 0.230159 0.403347
Si Si2 0.033281 0.734594 0.595986
Si Si3 0.194748 0.504290 0.596804
Si Si4 0.369104 0.121025 0.812766
Si Si5 0.064000 0.411170 0.152069
Si Si6 0.372403 0.445664 0.246273
Si Si7 0.000000 0.500000 0.000000
Si Si8 0.443849 0.682781 0.747480
O O1 0.523365 0.236001 0.500000
O O2 0.775759 0.249592 0.406731
O O3 0.579670 0.160266 0.371849
O O4 0.508771 0.274014 0.332300
O O5 0.969863 0.740638 0.500000
O O6 0.019460 0.665359 0.631113
O O7 0.960403 0.779936 0.665388
O O8 0.246646 0.492972 0.500000
O O9 0.224811 0.573999 0.626618
O O10 0.283069 0.461865 0.665077
O O11 0.000000 0.500000 0.599887
O O12 0.463178 0.085159 0.739425
O O13 0.240272 0.163355 0.765743
O O14 0.238046 0.440168 0.172884
O O15 0.987080 0.447408 0.074881
O O16 0.500000 0.500000 0.229835
O O17 0.455473 0.379599 0.250976
#
# Coordination Sequence:
#
# PCOD9444683 Si02
#       8
#     8   8   8   8   8   8   2   8
#     4  10  21  41  66  94 130 176 218 268 332 406
#     4  10  21  39  65  96 128 168 222 276 330 391
#     4  11  23  41  65  95 127 171 220 270 328 403
#     4  11  22  42  68  91 132 177 219 274 337 406
#     4  12  23  44  69  90 133 177 221 273 336 402
#     4  12  25  44  67  97 134 177 221 278 345 405
#     4  12  28  40  70 104 126 176 232 272 328 408
#     4  11  23  40  68  99 132 174 225 277 345 395
#
# _framework density 20.392091000000001
#
# number of rings (size 3 to 8) (size 9 to 14) (size 15 to 20)
#    0.000    0.966    6.207    1.241    0.000    1.379 
#    1.241    0.345    0.000    0.000    0.000    0.000 
#    0.000    0.000    0.000    0.000    0.000    0.000 
#
# Total GULP energy -323609.238807 kJ/mol
# GULP energy per Si atom -5579.469635 kJ/mol
# Density = 2.034568 g / cm^3
# Si number density = 20.392091 Si / 1000 Ang^3
#
#
#
# Elastic Constant Matrix: (Units=GPa)
#
#
# Indices 1 2 3 4 5 6 
#
# 1 24.5680 5.7006 17.7306 0.0000 0.0000 0.0000
# 2 5.7006 99.5510 57.1346 0.0000 0.0000 0.0000
# 3 17.7306 57.1346 151.6536 0.0000 0.0000 0.0000
# 4 0.0000 0.0000 0.0000 25.8831 0.0000 0.0000
# 5 0.0000 0.0000 0.0000 0.0000 12.7623 0.0000
# 6 0.0000 0.0000 0.0000 0.0000 0.0000 23.8649
#
#
#
# Elastic Compliance Matrix: (Units=1/GPa)
#
#
# Indices 1 2 3 4 5 6 
#
# 1 0.044478 0.000558 -0.005411 0.000000 0.000000 0.000000
# 2 0.000558 0.012823 -0.004896 0.000000 0.000000 0.000000
# 3 -0.005411 -0.004896 0.009071 0.000000 0.000000 0.000000
# 4 0.000000 0.000000 0.000000 0.038635 0.000000 0.000000
# 5 0.000000 0.000000 0.000000 0.000000 0.078356 0.000000
# 6 0.000000 0.000000 0.000000 0.000000 0.000000 0.041903
#
#
# Mechanical properties :
#
#
# Convention : Reuss Voigt Hill
#
# Bulk Modulus (GPa) = 21.33302 48.54492 34.93897
# Shear Modulus (GPa) = 19.20204 25.51586 22.35895
#
# Velocity S-wave (km/s) = 3.07195 3.54116 3.31486
# Velocity P-wave (km/s) = 4.80277 6.37002 5.64109
#
# Compressibility (1/GPa) = 0.04687568
#
# Stress axis : x y z
#
# Youngs Moduli (GPa) = 22.48278 77.98330 110.23884
#
# Poissons Ratio (x) = -0.04353 0.59645
# Poissons Ratio (y) = -0.01255 0.53977
# Poissons Ratio (z) = 0.12164 0.38183
#
# Static dielectric constant tensor:
#      x y z
#    x 1.761720 0.000000 0.000000 
#    y 0.000000 1.738350 0.000000 
#    z 0.000000 0.000000 1.698530 
# 
# From -- ./inp_files/20246.got.cif
#   From: 2010.05.17/outbox.cif.g08.bks.cpg/sg58_11_cif.got.tgz:20246.got - 2010.06.03 14:20:14.
