data_PCOD9444433
_publ_section_title
;
Structure prediction by ZEFSAII (Michael W. Deem and Ramdas Pophale) SiO2 
 PCOD9444433
Probable space group: P N N M
;
_chemical_formula_sum "Si O2"
_cell_formula_units_Z 48
_cell_length_a 8.848244
_cell_length_b 7.224361
_cell_length_c 30.952059
_cell_angle_alpha 90.000000
_cell_angle_beta 90.000000
_cell_angle_gamma 90.000000
_cell_volume 1978.545647
_symmetry_space_group_name_H-M "P N N M"
_symmetry_group_IT_number 58
_symmetry_cell_setting 'orthorhombic'
loop_
_space_group_symop_operation_xyz
x,y,z
-x,-y,z
1/2+x,1/2-y,1/2-z
1/2-x,1/2+y,1/2-z
-x,-y,-z
x,y,-z
1/2-x,1/2+y,1/2+z
1/2+x,1/2-y,1/2+z
loop_
_atom_site_type_symbol
_atom_site_label
_atom_site_fract_x
_atom_site_fract_y
_atom_site_fract_z
Si Si1 0.647968 0.856917 0.500000
Si Si2 0.627440 0.772087 0.591678
Si Si3 0.822007 0.453640 0.500000
Si Si4 0.784738 0.845539 0.910578
Si Si5 0.145896 0.868628 0.744485
Si Si6 0.258387 0.137375 0.678666
Si Si7 0.944040 0.299304 0.338366
O O1 0.697255 0.877679 0.550274
O O2 0.696361 0.625754 0.500000
O O3 0.500000 0.000000 0.500000
O O4 0.451856 0.733458 0.583041
O O5 0.699145 0.567402 0.598382
O O6 0.641391 0.873954 0.636866
O O7 0.794344 0.337278 0.543136
O O8 0.000000 0.500000 0.500000
O O9 0.690087 0.755951 0.871643
O O10 0.201648 0.811529 0.791097
O O11 0.102942 0.702709 0.711989
O O12 0.263039 0.974003 0.713373
O O13 0.000000 0.000000 0.749438
O O14 0.088807 0.165875 0.661037
O O15 0.000000 0.500000 0.351490
#
# Coordination Sequence:
#
# PCOD9444433 Si02
#       7
#     4   8   4   8   8   8   8
#     4  10  23  43  63  99 146 179 230 295 360 421
#     4  10  22  39  68  93 132 182 231 279 350 423
#     4  10  21  39  69 105 134 188 244 297 365 439
#     4  10  21  37  65  98 132 170 234 292 342 415
#     4  10  25  42  63  96 135 173 228 283 353 427
#     4  11  23  41  65  95 133 181 228 288 357 426
#     4  11  21  39  64  92 130 169 215 291 349 408
#
# _framework density 24.260244
#
# number of rings (size 3 to 8) (size 9 to 14) (size 15 to 20)
#    0.000    1.667    1.667    2.000    4.667    4.667 
#    0.000    4.167    0.000    1.000    0.000    0.000 
#    0.000    0.000    0.000    0.000    0.000    0.000 
#
# Total GULP energy -267762.559412 kJ/mol
# GULP energy per Si atom -5578.386654 kJ/mol
# Density = 2.420503 g / cm^3
# Si number density = 24.260244 Si / 1000 Ang^3
#
#
#
# Elastic Constant Matrix: (Units=GPa)
#
#
# Indices 1 2 3 4 5 6 
#
# 1 93.7328 20.6198 65.0661 0.0000 0.0000 0.0000
# 2 20.6198 61.6243 26.4022 0.0000 0.0000 0.0000
# 3 65.0661 26.4022 199.0471 0.0000 0.0000 0.0000
# 4 0.0000 0.0000 0.0000 20.9604 0.0000 0.0000
# 5 0.0000 0.0000 0.0000 0.0000 -91.6096 0.0000
# 6 0.0000 0.0000 0.0000 0.0000 0.0000 35.2482
#
#
#
# Elastic Compliance Matrix: (Units=1/GPa)
#
#
# Indices 1 2 3 4 5 6 
#
# 1 0.014288 -0.002947 -0.004280 0.000000 0.000000 0.000000
# 2 -0.002947 0.017813 -0.001399 0.000000 0.000000 0.000000
# 3 -0.004280 -0.001399 0.006608 0.000000 0.000000 0.000000
# 4 0.000000 0.000000 0.000000 0.047709 0.000000 0.000000
# 5 0.000000 0.000000 0.000000 0.000000 -0.010916 0.000000
# 6 0.000000 0.000000 0.000000 0.000000 0.000000 0.028370
#
#
# Mechanical properties :
#
#
# Convention : Reuss Voigt Hill
#
# Bulk Modulus (GPa) = 46.60488 64.28671 55.44579
# Shear Modulus (GPa) = 38.97811 9.07421 24.02616
#
# Velocity S-wave (km/s) = 4.01267 1.93610 3.15040
# Velocity P-wave (km/s) = 6.38129 5.61732 6.01145
#
# Compressibility (1/GPa) = 0.02145698
#
# Stress axis : x y z
#
# Youngs Moduli (GPa) = 69.99037 56.13862 151.32054
#
# Poissons Ratio (x) = 0.16545 0.64758
# Poissons Ratio (y) = 0.20628 0.21175
# Poissons Ratio (z) = 0.29953 0.07856
#
# Static dielectric constant tensor:
#      x y z
#    x 2.012390 0.000000 0.000000 
#    y 0.000000 2.062980 0.000000 
#    z 0.000000 0.000000 1.898730 
# 
# From -- ./inp_files/34640.got.cif
#   From: 2010.05.17/outbox.cif.g08.bks.cpg/sg58_18_cif.got.tgz:34640.got - 2010.06.03 14:20:14.
