data_PCOD9444832
_publ_section_title
;
Structure prediction by ZEFSAII (Michael W. Deem and Ramdas Pophale) SiO2 
 PCOD9444832
Probable space group: P N N M
;
_chemical_formula_sum "Si O2"
_cell_formula_units_Z 40
_cell_length_a 8.966846
_cell_length_b 11.872443
_cell_length_c 16.893478
_cell_angle_alpha 90.000000
_cell_angle_beta 90.000000
_cell_angle_gamma 90.000000
_cell_volume 1798.452098
_symmetry_space_group_name_H-M "P N N M"
_symmetry_group_IT_number 58
_symmetry_cell_setting 'orthorhombic'
loop_
_space_group_symop_operation_xyz
x,y,z
-x,-y,z
1/2+x,1/2-y,1/2-z
1/2-x,1/2+y,1/2-z
-x,-y,-z
x,y,-z
1/2-x,1/2+y,1/2+z
1/2+x,1/2-y,1/2+z
loop_
_atom_site_type_symbol
_atom_site_label
_atom_site_fract_x
_atom_site_fract_y
_atom_site_fract_z
Si Si1 0.721331 0.812509 0.666608
Si Si2 0.142133 0.561539 0.683349
Si Si3 0.866326 0.090927 0.907730
Si Si4 0.036046 0.752038 0.591801
Si Si5 0.674157 0.530211 0.907091
O O1 0.698025 0.840518 0.758257
O O2 0.614772 0.717942 0.627321
O O3 0.888369 0.771278 0.643918
O O4 0.718810 0.939659 0.631824
O O5 0.256749 0.467902 0.655274
O O6 0.089014 0.626190 0.604803
O O7 0.000000 0.500000 0.720260
O O8 0.814992 0.102305 0.000000
O O9 0.000000 0.000000 0.909671
O O10 0.997250 0.774705 0.500000
O O11 0.169619 0.838363 0.613251
O O12 0.500000 0.500000 0.889414
O O13 0.696842 0.519043 0.000000
#
# Coordination Sequence:
#
# PCOD9444832 Si02
#       5
#     8   8   8   8   8
#     4  11  23  39  69  96 140 172 227 290 352 400
#     4  12  27  41  67 103 139 181 232 290 349 422
#     4  11  26  46  70  98 139 191 238 288 355 423
#     4  10  21  41  71 100 133 182 237 284 343 430
#     4   8  16  33  61  93 123 166 222 269 328 407
#
# _framework density 22.241347000000001
#
# number of rings (size 3 to 8) (size 9 to 14) (size 15 to 20)
#    0.000    1.600    2.000    3.600    5.600    1.600 
#    0.000    0.000    0.000    4.200    0.000    0.000 
#    0.000    0.000    0.000    0.000    0.000    0.000 
#
# Total GULP energy -222892.250264 kJ/mol
# GULP energy per Si atom -5572.306257 kJ/mol
# Density = 2.219072 g / cm^3
# Si number density = 22.241347 Si / 1000 Ang^3
#
#
#
# Elastic Constant Matrix: (Units=GPa)
#
#
# Indices 1 2 3 4 5 6 
#
# 1 36.1439 27.5829 30.3062 0.0000 0.0000 0.0000
# 2 27.5829 129.0436 44.3291 0.0000 0.0000 0.0000
# 3 30.3062 44.3291 103.3629 0.0000 0.0000 0.0000
# 4 0.0000 0.0000 0.0000 73.8699 0.0000 0.0000
# 5 0.0000 0.0000 0.0000 0.0000 17.0160 0.0000
# 6 0.0000 0.0000 0.0000 0.0000 0.0000 35.1995
#
#
#
# Elastic Compliance Matrix: (Units=1/GPa)
#
#
# Indices 1 2 3 4 5 6 
#
# 1 0.039487 -0.005234 -0.009333 0.000000 0.000000 0.000000
# 2 -0.005234 0.009782 -0.002661 0.000000 0.000000 0.000000
# 3 -0.009333 -0.002661 0.013552 0.000000 0.000000 0.000000
# 4 0.000000 0.000000 0.000000 0.013537 0.000000 0.000000
# 5 0.000000 0.000000 0.000000 0.000000 0.058768 0.000000
# 6 0.000000 0.000000 0.000000 0.000000 0.000000 0.028409
#
#
# Mechanical properties :
#
#
# Convention : Reuss Voigt Hill
#
# Bulk Modulus (GPa) = 35.25358 52.55410 43.90384
# Shear Modulus (GPa) = 24.10253 36.30590 30.20421
#
# Velocity S-wave (km/s) = 3.29550 4.04463 3.68913
# Velocity P-wave (km/s) = 5.51047 6.74480 6.15864
#
# Compressibility (1/GPa) = 0.02836592
#
# Stress axis : x y z
#
# Youngs Moduli (GPa) = 25.32468 102.22769 73.78926
#
# Poissons Ratio (x) = 0.53509 0.68867
# Poissons Ratio (y) = 0.13256 0.19632
# Poissons Ratio (z) = 0.23635 0.27198
#
# Static dielectric constant tensor:
#      x y z
#    x 1.844390 0.000000 0.000000 
#    y 0.000000 1.906890 0.000000 
#    z 0.000000 0.000000 1.879390 
# 
# From -- ./inp_files/24937.got.cif
#   From: 2010.05.17/outbox.cif.g08.bks.cpg/sg58_13_cif.got.tgz:24937.got - 2010.06.03 14:20:14.
