data_PCOD9444299
_publ_section_title
;
Structure prediction by ZEFSAII (Michael W. Deem and Ramdas Pophale) SiO2 
 PCOD9444299
Probable space group: P N N M
;
_chemical_formula_sum "Si O2"
_cell_formula_units_Z 40
_cell_length_a 29.094835
_cell_length_b 7.111793
_cell_length_c 7.415342
_cell_angle_alpha 90.000000
_cell_angle_beta 90.000000
_cell_angle_gamma 90.000000
_cell_volume 1534.356197
_symmetry_space_group_name_H-M "P N N M"
_symmetry_group_IT_number 58
_symmetry_cell_setting 'orthorhombic'
loop_
_space_group_symop_operation_xyz
x,y,z
-x,-y,z
1/2+x,1/2-y,1/2-z
1/2-x,1/2+y,1/2-z
-x,-y,-z
x,y,-z
1/2-x,1/2+y,1/2+z
1/2+x,1/2-y,1/2+z
loop_
_atom_site_type_symbol
_atom_site_label
_atom_site_fract_x
_atom_site_fract_y
_atom_site_fract_z
Si Si1 0.711758 0.775245 0.279943
Si Si2 0.966744 0.652802 0.298244
Si Si3 0.883848 0.405891 0.789478
Si Si4 0.312448 0.643638 0.796061
Si Si5 0.092446 0.028410 0.280272
O O1 0.712769 0.769440 0.500000
O O2 0.670102 0.916795 0.233241
O O3 0.695007 0.580555 0.200882
O O4 0.763909 0.795387 0.213266
O O5 0.985957 0.688593 0.500000
O O6 0.918953 0.539360 0.310542
O O7 0.952398 0.855048 0.221175
O O8 0.000000 0.500000 0.207487
O O9 0.901526 0.189114 0.771075
O O10 0.885720 0.451318 0.000000
O O11 0.362884 0.645890 0.711801
O O12 0.314445 0.716329 0.000000
O O13 0.093307 0.034483 0.500000
#
# Coordination Sequence:
#
# PCOD9444299 Si02
#       5
#     8   8   8   8   8
#     4   9  19  33  49  76 109 140 176 218 266 319
#     4  10  22  39  60  85 109 141 189 238 282 327
#     4  10  21  37  56  81 115 148 180 225 280 334
#     4   9  18  32  50  75 104 138 179 215 259 319
#     4   9  19  37  58  79 108 146 185 226 272 326
#
# _framework density 26.069565000000001
#
# number of rings (size 3 to 8) (size 9 to 14) (size 15 to 20)
#    0.000    2.600    0.000    0.600    2.800    3.600 
#    0.000    4.000    0.000    0.000    0.000    0.000 
#    0.000    0.000    0.000    0.000    0.000    0.000 
#
# Total GULP energy -223268.419151 kJ/mol
# GULP energy per Si atom -5581.710479 kJ/mol
# Density = 2.601023 g / cm^3
# Si number density = 26.069565 Si / 1000 Ang^3
#
#
#
# Elastic Constant Matrix: (Units=GPa)
#
#
# Indices 1 2 3 4 5 6 
#
# 1 71.1563 24.7470 1.7204 0.0000 0.0000 0.0000
# 2 24.7470 60.1574 9.1440 0.0000 0.0000 0.0000
# 3 1.7204 9.1440 109.6044 0.0000 0.0000 0.0000
# 4 0.0000 0.0000 0.0000 10.3238 0.0000 0.0000
# 5 0.0000 0.0000 0.0000 0.0000 3.1492 0.0000
# 6 0.0000 0.0000 0.0000 0.0000 0.0000 54.7973
#
#
#
# Elastic Compliance Matrix: (Units=1/GPa)
#
#
# Indices 1 2 3 4 5 6 
#
# 1 0.016410 -0.006798 0.000310 0.000000 0.000000 0.000000
# 2 -0.006798 0.019652 -0.001533 0.000000 0.000000 0.000000
# 3 0.000310 -0.001533 0.009247 0.000000 0.000000 0.000000
# 4 0.000000 0.000000 0.000000 0.096864 0.000000 0.000000
# 5 0.000000 0.000000 0.000000 0.000000 0.317537 0.000000
# 6 0.000000 0.000000 0.000000 0.000000 0.000000 0.018249
#
#
# Mechanical properties :
#
#
# Convention : Reuss Voigt Hill
#
# Bulk Modulus (GPa) = 34.16780 34.68231 34.42506
# Shear Modulus (GPa) = 9.92542 27.34118 18.63330
#
# Velocity S-wave (km/s) = 1.95334 3.24200 2.67639
# Velocity P-wave (km/s) = 4.26875 5.22941 4.77331
#
# Compressibility (1/GPa) = 0.02926732
#
# Stress axis : x y z
#
# Youngs Moduli (GPa) = 60.93762 50.88426 108.14614
#
# Poissons Ratio (x) = 0.34590 -0.03348
# Poissons Ratio (y) = 0.41424 0.16577
# Poissons Ratio (z) = -0.01886 0.07800
#
# Static dielectric constant tensor:
#      x y z
#    x 2.207140 0.000000 0.000000 
#    y 0.000000 2.057000 0.000000 
#    z 0.000000 0.000000 1.974160 
# 
# From -- ./inp_files/2624.got.cif
#   From: 2010.05.17/outbox.cif.g08.bks.cpg/sg58_2_cif.got.tgz:2624.got - 2010.06.03 14:20:14.
