data_PCOD9444355
_publ_section_title
;
Structure prediction by ZEFSAII (Michael W. Deem and Ramdas Pophale) SiO2 
 PCOD9444355
Probable space group: P N N M
;
_chemical_formula_sum "Si O2"
_cell_formula_units_Z 48
_cell_length_a 4.936524
_cell_length_b 18.762416
_cell_length_c 23.859750
_cell_angle_alpha 90.000000
_cell_angle_beta 90.000000
_cell_angle_gamma 90.000000
_cell_volume 2209.916694
_symmetry_space_group_name_H-M "P N N M"
_symmetry_group_IT_number 58
_symmetry_cell_setting 'orthorhombic'
loop_
_space_group_symop_operation_xyz
x,y,z
-x,-y,z
1/2+x,1/2-y,1/2-z
1/2-x,1/2+y,1/2-z
-x,-y,-z
x,y,-z
1/2-x,1/2+y,1/2+z
1/2+x,1/2-y,1/2+z
loop_
_atom_site_type_symbol
_atom_site_label
_atom_site_fract_x
_atom_site_fract_y
_atom_site_fract_z
Si Si1 0.545912 0.726709 0.783538
Si Si2 0.458127 0.421349 0.145064
Si Si3 0.738864 0.195151 0.115911
Si Si4 0.737992 0.257030 0.439770
Si Si5 0.742950 0.549137 0.436564
Si Si6 0.475289 0.100926 0.565253
O O1 0.830914 0.763763 0.767508
O O2 0.579669 0.646847 0.812003
O O3 0.385664 0.774608 0.828254
O O4 0.500000 0.500000 0.172705
O O5 0.205203 0.436382 0.103195
O O6 0.706360 0.400330 0.103437
O O7 0.556771 0.238396 0.070567
O O8 0.687730 0.113402 0.103796
O O9 0.056992 0.204697 0.106401
O O10 0.684413 0.290399 0.500000
O O11 0.615884 0.178433 0.439019
O O12 0.500000 0.500000 0.416305
O O13 0.676551 0.575037 0.500000
O O14 0.000000 0.500000 0.441072
O O15 0.429101 0.078240 0.500000
#
# Coordination Sequence:
#
# PCOD9444355 Si02
#       6
#     8   8   8   8   8   8
#     4  12  26  47  69  93 123 166 230 293 333 374
#     4  12  25  45  69  98 137 178 218 267 337 401
#     4  12  22  40  65  91 125 173 217 270 330 385
#     4  11  20  34  61  97 132 165 211 253 308 393
#     4  10  21  37  58  91 132 168 203 251 319 394
#     4  11  22  39  64 102 145 177 211 255 311 403
#
# _framework density 21.720275000000001
#
# number of rings (size 3 to 8) (size 9 to 14) (size 15 to 20)
#    0.000    0.667    3.333    5.500    0.000    6.000 
#    0.000    2.500    0.000    0.000    0.000    0.000 
#    0.000    0.000    0.000    0.000    0.000    0.000 
#
# Total GULP energy -267679.518713 kJ/mol
# GULP energy per Si atom -5576.656640 kJ/mol
# Density = 2.167084 g / cm^3
# Si number density = 21.720275 Si / 1000 Ang^3
#
#
#
# Elastic Constant Matrix: (Units=GPa)
#
#
# Indices 1 2 3 4 5 6 
#
# 1 115.8274 10.9720 15.1188 0.0000 0.0000 0.0000
# 2 10.9720 125.1878 34.6369 0.0000 0.0000 0.0000
# 3 15.1188 34.6369 92.0303 0.0000 0.0000 0.0000
# 4 0.0000 0.0000 0.0000 -22.3294 0.0000 0.0000
# 5 0.0000 0.0000 0.0000 0.0000 59.6729 0.0000
# 6 0.0000 0.0000 0.0000 0.0000 0.0000 32.2189
#
#
#
# Elastic Compliance Matrix: (Units=1/GPa)
#
#
# Indices 1 2 3 4 5 6 
#
# 1 0.008842 -0.000416 -0.001296 0.000000 0.000000 0.000000
# 2 -0.000416 0.008936 -0.003295 0.000000 0.000000 0.000000
# 3 -0.001296 -0.003295 0.012319 0.000000 0.000000 0.000000
# 4 0.000000 0.000000 0.000000 -0.044784 0.000000 0.000000
# 5 0.000000 0.000000 0.000000 0.000000 0.016758 0.000000
# 6 0.000000 0.000000 0.000000 0.000000 0.000000 0.031038
#
#
# Mechanical properties :
#
#
# Convention : Reuss Voigt Hill
#
# Bulk Modulus (GPa) = 49.79348 50.50009 50.14679
# Shear Modulus (GPa) = 100.36674 32.06701 66.21688
#
# Velocity S-wave (km/s) = 6.80508 3.84652 5.52742
# Velocity P-wave (km/s) = 9.20435 6.55959 7.99213
#
# Compressibility (1/GPa) = 0.02008295
#
# Stress axis : x y z
#
# Youngs Moduli (GPa) = 113.09490 111.90560 81.17593
#
# Poissons Ratio (x) = 0.04660 0.10519
# Poissons Ratio (y) = 0.04710 0.26746
# Poissons Ratio (z) = 0.14656 0.36871
#
# Static dielectric constant tensor:
#      x y z
#    x 1.792330 0.000000 0.000000 
#    y 0.000000 1.846830 0.000000 
#    z 0.000000 0.000000 1.897080 
# 
# From -- ./inp_files/30965.got.cif
#   From: 2010.05.17/outbox.cif.g08.bks.cpg/sg58_16_cif.got.tgz:30965.got - 2010.06.03 14:20:14.
