data_PCOD9444097
_publ_section_title
;
Structure prediction by ZEFSAII (Michael W. Deem and Ramdas Pophale) SiO2 
 PCOD9444097
Probable space group: P N N M
;
_chemical_formula_sum "Si O2"
_cell_formula_units_Z 48
_cell_length_a 5.022066
_cell_length_b 13.214251
_cell_length_c 27.187082
_cell_angle_alpha 90.000000
_cell_angle_beta 90.000000
_cell_angle_gamma 90.000000
_cell_volume 1804.211991
_symmetry_space_group_name_H-M "P N N M"
_symmetry_group_IT_number 58
_symmetry_cell_setting 'orthorhombic'
loop_
_space_group_symop_operation_xyz
x,y,z
-x,-y,z
1/2+x,1/2-y,1/2-z
1/2-x,1/2+y,1/2-z
-x,-y,-z
x,y,-z
1/2-x,1/2+y,1/2+z
1/2+x,1/2-y,1/2+z
loop_
_atom_site_type_symbol
_atom_site_label
_atom_site_fract_x
_atom_site_fract_y
_atom_site_fract_z
Si Si1 0.362508 0.396247 0.597299
Si Si2 0.659582 0.777220 0.909609
Si Si3 0.516474 0.748213 0.199316
Si Si4 0.228472 0.567273 0.158901
Si Si5 0.815072 0.901392 0.551978
Si Si6 0.332953 0.402591 0.285702
O O1 0.500000 0.500000 0.580658
O O2 0.549306 0.309979 0.574381
O O3 0.403953 0.392670 0.656623
O O4 0.053387 0.370813 0.588978
O O5 0.674042 0.742367 0.852281
O O6 0.518278 0.690759 0.940191
O O7 0.270083 0.675962 0.182926
O O8 0.608683 0.686715 0.246728
O O9 0.480037 0.869120 0.209070
O O10 0.500000 0.500000 0.159179
O O11 0.152140 0.590384 0.102356
O O12 0.000000 0.500000 0.183165
O O13 0.668551 0.893235 0.500000
O O14 0.000000 0.000000 0.550669
O O15 0.500000 0.500000 0.268753
#
# Coordination Sequence:
#
# PCOD9444097 Si02
#       6
#     8   8   8   8   8   8
#     4  10  21  39  62  86 114 152 197 244 293 345
#     4  10  21  38  61  87 117 153 192 238 295 352
#     4  10  21  35  57  82 117 156 196 245 295 346
#     4  10  22  39  61  89 120 158 199 241 297 355
#     4   9  20  38  62  92 124 157 195 239 290 355
#     4  10  21  35  53  82 114 152 199 245 290 342
#
# _framework density 26.604410999999999
#
# number of rings (size 3 to 8) (size 9 to 14) (size 15 to 20)
#    0.000    2.167    0.000    2.000    0.000   15.667 
#    0.000    7.500    0.000    3.000    0.000    0.000 
#    0.000    0.000    0.000    0.000    0.000    0.000 
#
# Total GULP energy -267955.289145 kJ/mol
# GULP energy per Si atom -5582.401857 kJ/mol
# Density = 2.654386 g / cm^3
# Si number density = 26.604411 Si / 1000 Ang^3
#
#
#
# Elastic Constant Matrix: (Units=GPa)
#
#
# Indices 1 2 3 4 5 6 
#
# 1 90.5616 11.8975 -6.2630 0.0000 0.0000 0.0000
# 2 11.8975 94.2052 5.9661 0.0000 0.0000 0.0000
# 3 -6.2630 5.9661 79.2882 0.0000 0.0000 0.0000
# 4 0.0000 0.0000 0.0000-1095.9847 0.0000 0.0000
# 5 0.0000 0.0000 0.0000 0.0000 9.3712 0.0000
# 6 0.0000 0.0000 0.0000 0.0000 0.0000 38.5986
#
#
#
# Elastic Compliance Matrix: (Units=1/GPa)
#
#
# Indices 1 2 3 4 5 6 
#
# 1 0.011308 -0.001492 0.001005 0.000000 0.000000 0.000000
# 2 -0.001492 0.010863 -0.000935 0.000000 0.000000 0.000000
# 3 0.001005 -0.000935 0.012762 0.000000 0.000000 0.000000
# 4 0.000000 0.000000 0.000000 -0.000912 0.000000 0.000000
# 5 0.000000 0.000000 0.000000 0.000000 0.106710 0.000000
# 6 0.000000 0.000000 0.000000 0.000000 0.000000 0.025908
#
#
# Mechanical properties :
#
#
# Convention : Reuss Voigt Hill
#
# Bulk Modulus (GPa) = 31.16292 31.91737 31.54014
# Shear Modulus (GPa) = 27.75045 -192.77268 -82.51112
#
# Velocity S-wave (km/s) = 3.23317 -8.52152 -5.57507
# Velocity P-wave (km/s) = 5.06722 9.20861 5.43699
#
# Compressibility (1/GPa) = 0.03208942
#
# Stress axis : x y z
#
# Youngs Moduli (GPa) = 88.43509 92.05771 78.35755
#
# Poissons Ratio (x) = 0.13733 -0.07878
# Poissons Ratio (y) = 0.13193 0.07328
# Poissons Ratio (z) = -0.08892 0.08609
#
# Static dielectric constant tensor:
#      x y z
#    x 2.305920 0.000000 0.000000 
#    y 0.000000 2.200730 0.000000 
#    z 0.000000 0.000000 2.063140 
# 
# From -- ./inp_files/34162.got.cif
#   From: 2010.05.17/outbox.cif.g08.bks.cpg/sg58_18_cif.got.tgz:34162.got - 2010.06.03 14:20:14.
