data_PCOD9444966
_publ_section_title
;
Structure prediction by ZEFSAII (Michael W. Deem and Ramdas Pophale) SiO2 
 PCOD9444966
Probable space group: P N N M
;
_chemical_formula_sum "Si O2"
_cell_formula_units_Z 28
_cell_length_a 5.006304
_cell_length_b 13.754843
_cell_length_c 17.206637
_cell_angle_alpha 90.000000
_cell_angle_beta 90.000000
_cell_angle_gamma 90.000000
_cell_volume 1184.864949
_symmetry_space_group_name_H-M "P N N M"
_symmetry_group_IT_number 58
_symmetry_cell_setting 'orthorhombic'
loop_
_space_group_symop_operation_xyz
x,y,z
-x,-y,z
1/2+x,1/2-y,1/2-z
1/2-x,1/2+y,1/2-z
-x,-y,-z
x,y,-z
1/2-x,1/2+y,1/2+z
1/2+x,1/2-y,1/2+z
loop_
_atom_site_type_symbol
_atom_site_label
_atom_site_fract_x
_atom_site_fract_y
_atom_site_fract_z
Si Si1 0.745265 0.144531 0.500000
Si Si2 0.000000 0.500000 0.875350
Si Si3 0.141142 0.121673 0.260847
Si Si4 0.249156 0.779367 0.000000
Si Si5 0.636270 0.159963 0.169279
O O1 0.662296 0.078030 0.572955
O O2 0.547938 0.236371 0.500000
O O3 0.044119 0.186804 0.500000
O O4 0.220391 0.555220 0.824841
O O5 0.343287 0.122747 0.188302
O O6 0.140416 0.228285 0.300702
O O7 0.850844 0.105954 0.223999
O O8 0.297154 0.838211 0.078906
#
# Coordination Sequence:
#
# PCOD9444966 Si02
#       5
#     4   4   8   4   8
#     4  11  26  36  64 102 134 168 192 264 348 398
#     4  11  24  42  62  99 140 166 206 261 340 394
#     4  10  22  38  61  87 126 170 211 256 310 387
#     4  12  22  43  64  93 132 167 214 269 312 385
#     4  10  22  39  60  88 121 173 217 255 305 375
#
# _framework density 23.631383
#
# number of rings (size 3 to 8) (size 9 to 14) (size 15 to 20)
#    0.000    1.429    2.857    1.714    8.000    5.714 
#    0.000    0.000    0.000    5.143    0.000    0.000 
#    0.000    0.000    0.000    0.000    0.000    0.000 
#
# Total GULP energy -156931.983657 kJ/mol
# GULP energy per Si atom -5604.713702 kJ/mol
# Density = 2.357760 g / cm^3
# Si number density = 23.631383 Si / 1000 Ang^3
#
#
#
# Elastic Constant Matrix: (Units=GPa)
#
#
# Indices 1 2 3 4 5 6 
#
# 1 84.9363 17.4449 -4.1787 0.0000 0.0000 0.0000
# 2 17.4449 49.8803 23.9537 0.0000 0.0000 0.0000
# 3 -4.1787 23.9537 122.4537 0.0000 0.0000 0.0000
# 4 0.0000 0.0000 0.0000 19.0985 0.0000 0.0000
# 5 0.0000 0.0000 0.0000 0.0000 22.1726 0.0000
# 6 0.0000 0.0000 0.0000 0.0000 0.0000 37.3677
#
#
#
# Elastic Compliance Matrix: (Units=1/GPa)
#
#
# Indices 1 2 3 4 5 6 
#
# 1 0.012918 -0.005220 0.001462 0.000000 0.000000 0.000000
# 2 -0.005220 0.024236 -0.004919 0.000000 0.000000 0.000000
# 3 0.001462 -0.004919 0.009178 0.000000 0.000000 0.000000
# 4 0.000000 0.000000 0.000000 0.052360 0.000000 0.000000
# 5 0.000000 0.000000 0.000000 0.000000 0.045101 0.000000
# 6 0.000000 0.000000 0.000000 0.000000 0.000000 0.026761
#
#
# Mechanical properties :
#
#
# Convention : Reuss Voigt Hill
#
# Bulk Modulus (GPa) = 34.50892 36.85667 35.68279
# Shear Modulus (GPa) = 25.30793 30.39779 27.85286
#
# Velocity S-wave (km/s) = 3.27608 3.59044 3.43685
# Velocity P-wave (km/s) = 5.38005 5.72876 5.55714
#
# Compressibility (1/GPa) = 0.02897802
#
# Stress axis : x y z
#
# Youngs Moduli (GPa) = 77.41428 41.26137 108.95064
#
# Poissons Ratio (x) = 0.21537 -0.15927
# Poissons Ratio (y) = 0.40408 0.53593
# Poissons Ratio (z) = -0.11317 0.20296
#
# Static dielectric constant tensor:
#      x y z
#    x 1.844290 0.000000 0.000000 
#    y 0.000000 1.928840 0.000000 
#    z 0.000000 0.000000 1.857650 
# 
# From -- ./inp_files/18262.got.cif
#   From: 2010.05.17/outbox.cif.g08.bks.cpg/sg58_10_cif.got.tgz:18262.got - 2010.06.03 14:20:14.
