data_PCOD9444074
_publ_section_title
;
Structure prediction by ZEFSAII (Michael W. Deem and Ramdas Pophale) SiO2 
 PCOD9444074
Probable space group: P N N M
;
_chemical_formula_sum "Si O2"
_cell_formula_units_Z 48
_cell_length_a 8.999149
_cell_length_b 16.072749
_cell_length_c 18.209578
_cell_angle_alpha 90.000000
_cell_angle_beta 90.000000
_cell_angle_gamma 90.000000
_cell_volume 2633.852720
_symmetry_space_group_name_H-M "P N N M"
_symmetry_group_IT_number 58
_symmetry_cell_setting 'orthorhombic'
loop_
_space_group_symop_operation_xyz
x,y,z
-x,-y,z
1/2+x,1/2-y,1/2-z
1/2-x,1/2+y,1/2-z
-x,-y,-z
x,y,-z
1/2-x,1/2+y,1/2+z
1/2+x,1/2-y,1/2+z
loop_
_atom_site_type_symbol
_atom_site_label
_atom_site_fract_x
_atom_site_fract_y
_atom_site_fract_z
Si Si1 0.508099 0.767131 0.325117
Si Si2 0.774738 0.054550 0.083399
Si Si3 0.712448 0.150670 0.217206
Si Si4 0.391249 0.600061 0.359798
Si Si5 0.339460 0.511750 0.797019
Si Si6 0.387543 0.078211 0.584318
O O1 0.428566 0.808971 0.255691
O O2 0.657464 0.717917 0.300017
O O3 0.392783 0.698733 0.356554
O O4 0.540692 0.836681 0.385837
O O5 0.675119 0.103645 0.141188
O O6 0.943635 0.079184 0.108391
O O7 0.775762 0.954904 0.094179
O O8 0.749321 0.077470 0.000000
O O9 0.774787 0.076690 0.269486
O O10 0.369207 0.565936 0.276825
O O11 0.500000 0.500000 0.832044
O O12 0.234875 0.555852 0.854997
O O13 0.335887 0.087912 0.500000
O O14 0.500000 0.000000 0.585503
#
# Coordination Sequence:
#
# PCOD9444074 Si02
#       6
#     8   8   8   8   8   8
#     4  11  20  36  57  86 115 147 193 248 279 337
#     4   9  16  30  53  84 115 140 178 231 289 343
#     4  10  21  34  58  86 114 151 190 245 283 340
#     4   9  16  29  53  84 110 138 184 229 282 330
#     4  11  18  39  61  84 116 150 198 240 284 357
#     4  11  25  40  57  83 117 159 197 235 295 349
#
# _framework density 18.224253999999998
#
# number of rings (size 3 to 8) (size 9 to 14) (size 15 to 20)
#    0.000    1.833    6.667    2.000    0.000    3.667 
#    0.000    0.000    0.000    1.000    0.000   16.333 
#    0.000    0.000    0.000    0.000    0.000    0.000 
#
# Total GULP energy -267437.383729 kJ/mol
# GULP energy per Si atom -5571.612161 kJ/mol
# Density = 1.818277 g / cm^3
# Si number density = 18.224254 Si / 1000 Ang^3
#
#
#
# Elastic Constant Matrix: (Units=GPa)
#
#
# Indices 1 2 3 4 5 6 
#
# 1 21.0078 17.6626 27.0818 0.0000 0.0000 0.0000
# 2 17.6626 118.4112 49.5226 0.0000 0.0000 0.0000
# 3 27.0818 49.5226 120.6849 0.0000 0.0000 0.0000
# 4 0.0000 0.0000 0.0000 2.1029 0.0000 0.0000
# 5 0.0000 0.0000 0.0000 0.0000 22.1722 0.0000
# 6 0.0000 0.0000 0.0000 0.0000 0.0000 15.6535
#
#
#
# Elastic Compliance Matrix: (Units=1/GPa)
#
#
# Indices 1 2 3 4 5 6 
#
# 1 0.068997 -0.004607 -0.013593 0.000000 0.000000 0.000000
# 2 -0.004607 0.010502 -0.003276 0.000000 0.000000 0.000000
# 3 -0.013593 -0.003276 0.012680 0.000000 0.000000 0.000000
# 4 0.000000 0.000000 0.000000 0.475539 0.000000 0.000000
# 5 0.000000 0.000000 0.000000 0.000000 0.045102 0.000000
# 6 0.000000 0.000000 0.000000 0.000000 0.000000 0.063883
#
#
# Mechanical properties :
#
#
# Convention : Reuss Voigt Hill
#
# Bulk Modulus (GPa) = 20.31311 49.84865 35.08088
# Shear Modulus (GPa) = 6.79288 19.04151 12.91720
#
# Velocity S-wave (km/s) = 1.93274 3.23591 2.66520
# Velocity P-wave (km/s) = 4.01883 6.43225 5.36306
#
# Compressibility (1/GPa) = 0.04922930
#
# Stress axis : x y z
#
# Youngs Moduli (GPa) = 14.49331 95.21659 78.86177
#
# Poissons Ratio (x) = 0.43867 1.07193
# Poissons Ratio (y) = 0.06677 0.25833
# Poissons Ratio (z) = 0.19700 0.31191
#
# Static dielectric constant tensor:
#      x y z
#    x 1.646790 0.000000 0.000000 
#    y 0.000000 1.681270 0.000000 
#    z 0.000000 0.000000 1.611370 
# 
# From -- ./inp_files/25279.got.cif
#   From: 2010.05.17/outbox.cif.g08.bks.cpg/sg58_13_cif.got.tgz:25279.got - 2010.06.03 14:20:14.
