data_PCOD9444747
_publ_section_title
;
Structure prediction by ZEFSAII (Michael W. Deem and Ramdas Pophale) SiO2 
 PCOD9444747
Probable space group: P N N M
;
_chemical_formula_sum "Si O2"
_cell_formula_units_Z 44
_cell_length_a 7.342431
_cell_length_b 11.971341
_cell_length_c 21.257723
_cell_angle_alpha 90.000000
_cell_angle_beta 90.000000
_cell_angle_gamma 90.000000
_cell_volume 1868.527179
_symmetry_space_group_name_H-M "P N N M"
_symmetry_group_IT_number 58
_symmetry_cell_setting 'orthorhombic'
loop_
_space_group_symop_operation_xyz
x,y,z
-x,-y,z
1/2+x,1/2-y,1/2-z
1/2-x,1/2+y,1/2-z
-x,-y,-z
x,y,-z
1/2-x,1/2+y,1/2+z
1/2+x,1/2-y,1/2+z
loop_
_atom_site_type_symbol
_atom_site_label
_atom_site_fract_x
_atom_site_fract_y
_atom_site_fract_z
Si Si1 0.280247 0.503617 0.569847
Si Si2 0.398001 0.233519 0.709468
Si Si3 0.716624 0.793207 0.846584
Si Si4 0.500000 0.000000 0.331003
Si Si5 0.212406 0.015466 0.430204
Si Si6 0.641039 0.238786 0.099619
O O1 0.500000 0.500000 0.574582
O O2 0.238013 0.552351 0.500000
O O3 0.209539 0.578086 0.628252
O O4 0.198498 0.379077 0.570884
O O5 0.366290 0.258171 0.782054
O O6 0.569799 0.277761 0.669510
O O7 0.420720 0.099960 0.708686
O O8 0.221721 0.268325 0.670218
O O9 0.576751 0.743177 0.898488
O O10 0.660432 0.038346 0.377799
O O11 0.256996 0.974984 0.500000
O O12 0.236930 0.150519 0.427534
O O13 0.000000 0.000000 0.417510
#
# Coordination Sequence:
#
# PCOD9444747 Si02
#       6
#     8   8   8   4   8   8
#     4  11  25  45  70 105 143 185 237 292 359 434
#     4  11  24  41  63  98 130 172 230 274 340 402
#     4  12  24  43  68  97 136 179 225 282 343 418
#     4  10  23  40  60  90 125 168 210 274 332 380
#     4  10  21  40  65  95 130 172 220 268 326 401
#     4  11  23  42  68  99 137 177 226 282 343 416
#
# _framework density 23.547958000000001
#
# number of rings (size 3 to 8) (size 9 to 14) (size 15 to 20)
#    0.000    1.091    3.636    2.455    2.545    2.182 
#    0.000    1.818    0.000    0.000    0.000    0.000 
#    0.000    0.000    0.000    0.000    0.000    0.000 
#
# Total GULP energy -245276.251971 kJ/mol
# GULP energy per Si atom -5574.460272 kJ/mol
# Density = 2.349436 g / cm^3
# Si number density = 23.547958 Si / 1000 Ang^3
#
#
#
# Elastic Constant Matrix: (Units=GPa)
#
#
# Indices 1 2 3 4 5 6 
#
# 1 84.6334 -13.0570 -2.8001 0.0000 0.0000 0.0000
# 2 -13.0570 55.2826 2.0020 0.0000 0.0000 0.0000
# 3 -2.8001 2.0020 64.5016 0.0000 0.0000 0.0000
# 4 0.0000 0.0000 0.0000 2.4244 0.0000 0.0000
# 5 0.0000 0.0000 0.0000 0.0000 14.5723 0.0000
# 6 0.0000 0.0000 0.0000 0.0000 0.0000 30.5428
#
#
#
# Elastic Compliance Matrix: (Units=1/GPa)
#
#
# Indices 1 2 3 4 5 6 
#
# 1 0.012275 0.002883 0.000443 0.000000 0.000000 0.000000
# 2 0.002883 0.018786 -0.000458 0.000000 0.000000 0.000000
# 3 0.000443 -0.000458 0.015537 0.000000 0.000000 0.000000
# 4 0.000000 0.000000 0.000000 0.412479 0.000000 0.000000
# 5 0.000000 0.000000 0.000000 0.000000 0.068623 0.000000
# 6 0.000000 0.000000 0.000000 0.000000 0.000000 0.032741
#
#
# Mechanical properties :
#
#
# Convention : Reuss Voigt Hill
#
# Bulk Modulus (GPa) = 19.10739 19.63415 19.37077
# Shear Modulus (GPa) = 8.73898 24.05941 16.39919
#
# Velocity S-wave (km/s) = 1.92852 3.19990 2.64183
# Velocity P-wave (km/s) = 3.61812 4.69133 4.18923
#
# Compressibility (1/GPa) = 0.05233578
#
# Stress axis : x y z
#
# Youngs Moduli (GPa) = 81.46545 53.22992 64.36267
#
# Poissons Ratio (x) = -0.15347 -0.02854
# Poissons Ratio (y) = -0.23488 0.02947
# Poissons Ratio (z) = -0.03612 0.02438
#
# Static dielectric constant tensor:
#      x y z
#    x 1.914590 0.000000 0.000000 
#    y 0.000000 1.894210 0.000000 
#    z 0.000000 0.000000 1.985430 
# 
# From -- ./inp_files/31405.got.cif
#   From: 2010.05.17/outbox.cif.g08.bks.cpg/sg58_16_cif.got.tgz:31405.got - 2010.06.03 14:20:14.
