data_PCOD9444199
_publ_section_title
;
Structure prediction by ZEFSAII (Michael W. Deem and Ramdas Pophale) SiO2 
 PCOD9444199
Probable space group: P N N M
;
_chemical_formula_sum "Si O2"
_cell_formula_units_Z 58
_cell_length_a 30.277308
_cell_length_b 12.295920
_cell_length_c 7.424273
_cell_angle_alpha 90.000000
_cell_angle_beta 90.000000
_cell_angle_gamma 90.000000
_cell_volume 2763.962973
_symmetry_space_group_name_H-M "P N N M"
_symmetry_group_IT_number 58
_symmetry_cell_setting 'orthorhombic'
loop_
_space_group_symop_operation_xyz
x,y,z
-x,-y,z
1/2+x,1/2-y,1/2-z
1/2-x,1/2+y,1/2-z
-x,-y,-z
x,y,-z
1/2-x,1/2+y,1/2+z
1/2+x,1/2-y,1/2+z
loop_
_atom_site_type_symbol
_atom_site_label
_atom_site_fract_x
_atom_site_fract_y
_atom_site_fract_z
Si Si1 0.500000 0.500000 0.000000
Si Si2 0.425540 0.261679 0.718173
Si Si3 0.881348 0.786115 0.784088
Si Si4 0.521524 0.312958 0.717347
Si Si5 0.657601 0.867557 0.289455
Si Si6 0.310830 0.895810 0.793692
Si Si7 0.869522 0.033512 0.781367
Si Si8 0.715640 0.672721 0.280491
O O1 0.480505 0.581136 0.159251
O O2 0.425176 0.262352 0.500000
O O3 0.476586 0.249201 0.766453
O O4 0.389755 0.173471 0.782901
O O5 0.406886 0.380031 0.778813
O O6 0.931997 0.754514 0.746118
O O7 0.845367 0.702304 0.714989
O O8 0.874564 0.910161 0.719313
O O9 0.876114 0.787412 0.000000
O O10 0.520818 0.337828 0.500000
O O11 0.655432 0.840336 0.500000
O O12 0.696572 0.789304 0.217929
O O13 0.668200 0.993667 0.278952
O O14 0.263888 0.859580 0.712476
O O15 0.301698 0.922847 0.000000
O O16 0.822275 0.085558 0.733241
O O17 0.872033 0.031952 0.000000
O O18 0.718269 0.675925 0.500000
#
# Coordination Sequence:
#
# PCOD9444199 Si02
#       8
#     2   8   8   8   8   8   8   8
#     4  12  22  32  60  94 122 168 190 248 300 360
#     4   8  15  33  60  84 109 145 189 244 285 342
#     4  10  21  36  57  82 114 156 194 238 285 355
#     4  10  21  37  57  88 125 159 203 243 299 360
#     4   9  18  37  62  81 104 146 200 238 287 354
#     4  11  23  36  53  79 117 151 186 241 298 344
#     4   8  14  28  53  82 107 139 184 227 284 342
#     4   8  17  33  54  80 109 144 183 235 292 350
#
# _framework density 20.984359999999999
#
# number of rings (size 3 to 8) (size 9 to 14) (size 15 to 20)
#    0.000    2.759    0.000    3.103    2.897    2.207 
#    1.241    1.379    0.000    4.138    0.000    0.000 
#    0.000    0.000    0.000    0.000    0.000    0.000 
#
# Total GULP energy -322966.460197 kJ/mol
# GULP energy per Si atom -5568.387245 kJ/mol
# Density = 2.093660 g / cm^3
# Si number density = 20.984360 Si / 1000 Ang^3
#
#
#
# Elastic Constant Matrix: (Units=GPa)
#
#
# Indices 1 2 3 4 5 6 
#
# 1 155.0789 47.8535 -1.8621 0.0000 0.0000 0.0000
# 2 47.8535 67.4061 -15.7372 0.0000 0.0000 0.0000
# 3 -1.8621 -15.7372 66.9271 0.0000 0.0000 0.0000
# 4 0.0000 0.0000 0.0000 9.5775 0.0000 0.0000
# 5 0.0000 0.0000 0.0000 0.0000 8.3085 0.0000
# 6 0.0000 0.0000 0.0000 0.0000 0.0000 16.1637
#
#
#
# Elastic Compliance Matrix: (Units=1/GPa)
#
#
# Indices 1 2 3 4 5 6 
#
# 1 0.008352 -0.006216 -0.001229 0.000000 0.000000 0.000000
# 2 -0.006216 0.020324 0.004606 0.000000 0.000000 0.000000
# 3 -0.001229 0.004606 0.015990 0.000000 0.000000 0.000000
# 4 0.000000 0.000000 0.000000 0.104411 0.000000 0.000000
# 5 0.000000 0.000000 0.000000 0.000000 0.120359 0.000000
# 6 0.000000 0.000000 0.000000 0.000000 0.000000 0.061867
#
#
# Mechanical properties :
#
#
# Convention : Reuss Voigt Hill
#
# Bulk Modulus (GPa) = 25.64949 38.88006 32.26477
# Shear Modulus (GPa) = 14.28663 24.08714 19.18689
#
# Velocity S-wave (km/s) = 2.61209 3.39169 3.02709
# Velocity P-wave (km/s) = 4.62028 5.82292 5.25611
#
# Compressibility (1/GPa) = 0.03898713
#
# Stress axis : x y z
#
# Youngs Moduli (GPa) = 119.73602 49.20345 62.53724
#
# Poissons Ratio (x) = 0.30585 0.07688
# Poissons Ratio (y) = 0.74429 -0.28805
# Poissons Ratio (z) = 0.14719 -0.22663
#
# Static dielectric constant tensor:
#      x y z
#    x 1.788100 0.000000 0.000000 
#    y 0.000000 1.711560 0.000000 
#    z 0.000000 0.000000 1.817870 
# 
# From -- ./inp_files/10919.got.cif
#   From: 2010.05.17/outbox.cif.g08.bks.cpg/sg58_6_cif.got.tgz:10919.got - 2010.06.03 14:20:14.
