data_PCOD9444958
_publ_section_title
;
Structure prediction by ZEFSAII (Michael W. Deem and Ramdas Pophale) SiO2 
 PCOD9444958
Probable space group: P N N M
;
_chemical_formula_sum "Si O2"
_cell_formula_units_Z 48
_cell_length_a 9.045720
_cell_length_b 22.314719
_cell_length_c 12.674291
_cell_angle_alpha 90.000000
_cell_angle_beta 90.000000
_cell_angle_gamma 90.000000
_cell_volume 2558.339858
_symmetry_space_group_name_H-M "P N N M"
_symmetry_group_IT_number 58
_symmetry_cell_setting 'orthorhombic'
loop_
_space_group_symop_operation_xyz
x,y,z
-x,-y,z
1/2+x,1/2-y,1/2-z
1/2-x,1/2+y,1/2-z
-x,-y,-z
x,y,-z
1/2-x,1/2+y,1/2+z
1/2+x,1/2-y,1/2+z
loop_
_atom_site_type_symbol
_atom_site_label
_atom_site_fract_x
_atom_site_fract_y
_atom_site_fract_z
Si Si1 0.639857 0.627976 0.619093
Si Si2 0.153485 0.254809 0.379600
Si Si3 0.173648 0.016812 0.625255
Si Si4 0.154485 0.136355 0.245332
Si Si5 0.377770 0.951048 0.210336
Si Si6 0.065168 0.646876 0.621411
O O1 0.582290 0.628791 0.500000
O O2 0.735129 0.688991 0.634205
O O3 0.510306 0.627074 0.703373
O O4 0.745693 0.570207 0.633661
O O5 0.170265 0.233597 0.500000
O O6 0.172739 0.199988 0.302068
O O7 0.992065 0.285323 0.368552
O O8 0.199739 0.015795 0.500000
O O9 0.193135 0.082430 0.675774
O O10 0.291002 0.974271 0.686460
O O11 0.000000 0.000000 0.642758
O O12 0.265308 0.136649 0.146604
O O13 0.476786 0.891121 0.209392
O O14 0.500000 0.000000 0.176291
O O15 0.028026 0.628656 0.500000
#
# Coordination Sequence:
#
# PCOD9444958 Si02
#       6
#     8   8   8   8   8   8
#     4  10  22  38  59  88 121 152 194 246 290 346
#     4   9  20  38  59  84 115 155 196 242 296 344
#     4  11  24  42  60  85 119 151 194 244 288 343
#     4  12  20  38  61  88 114 159 198 240 293 349
#     4  11  21  41  60  85 116 156 192 233 298 346
#     4  10  22  38  59  88 121 154 192 243 296 347
#
# _framework density 18.762167000000002
#
# number of rings (size 3 to 8) (size 9 to 14) (size 15 to 20)
#    0.000    1.500    3.333    3.500    0.000    1.667 
#    0.000    0.833    0.000    4.000    0.000    0.000 
#    0.000    0.000    0.000    0.000    0.000    0.000 
#
# Total GULP energy -267404.228178 kJ/mol
# GULP energy per Si atom -5570.921420 kJ/mol
# Density = 1.871946 g / cm^3
# Si number density = 18.762167 Si / 1000 Ang^3
#
#
#
# Elastic Constant Matrix: (Units=GPa)
#
#
# Indices 1 2 3 4 5 6 
#
# 1 83.1560 23.6848 38.3806 0.0000 0.0000 0.0000
# 2 23.6848 66.9691 64.7300 0.0000 0.0000 0.0000
# 3 38.3806 64.7300 92.5188 0.0000 0.0000 0.0000
# 4 0.0000 0.0000 0.0000 24.6418 0.0000 0.0000
# 5 0.0000 0.0000 0.0000 0.0000 28.6623 0.0000
# 6 0.0000 0.0000 0.0000 0.0000 0.0000 18.9573
#
#
#
# Elastic Compliance Matrix: (Units=1/GPa)
#
#
# Indices 1 2 3 4 5 6 
#
# 1 0.014976 0.002188 -0.007744 0.000000 0.000000 0.000000
# 2 0.002188 0.046443 -0.033401 0.000000 0.000000 0.000000
# 3 -0.007744 -0.033401 0.037390 0.000000 0.000000 0.000000
# 4 0.000000 0.000000 0.000000 0.040582 0.000000 0.000000
# 5 0.000000 0.000000 0.000000 0.000000 0.034889 0.000000
# 6 0.000000 0.000000 0.000000 0.000000 0.000000 0.052750
#
#
# Mechanical properties :
#
#
# Convention : Reuss Voigt Hill
#
# Bulk Modulus (GPa) = 47.85661 55.13717 51.49689
# Shear Modulus (GPa) = 16.03039 22.17552 19.10296
#
# Velocity S-wave (km/s) = 2.92618 3.44165 3.19433
# Velocity P-wave (km/s) = 6.08104 6.72640 6.41185
#
# Compressibility (1/GPa) = 0.02089575
#
# Stress axis : x y z
#
# Youngs Moduli (GPa) = 66.77129 21.53200 26.74532
#
# Poissons Ratio (x) = -0.04712 0.20711
# Poissons Ratio (y) = -0.14611 0.89332
# Poissons Ratio (z) = 0.51707 0.71919
#
# Static dielectric constant tensor:
#      x y z
#    x 1.684470 0.000000 0.000000 
#    y 0.000000 1.648620 0.000000 
#    z 0.000000 0.000000 1.605960 
# 
# From -- ./inp_files/13036.got.cif
#   From: 2010.05.17/outbox.cif.g08.bks.cpg/sg58_7_cif.got.tgz:13036.got - 2010.06.03 14:20:14.
