data_PCOD9444775
_publ_section_title
;
Structure prediction by ZEFSAII (Michael W. Deem and Ramdas Pophale) SiO2 
 PCOD9444775
Probable space group: P N N M
;
_chemical_formula_sum "Si O2"
_cell_formula_units_Z 28
_cell_length_a 4.738689
_cell_length_b 10.520162
_cell_length_c 19.284329
_cell_angle_alpha 90.000000
_cell_angle_beta 90.000000
_cell_angle_gamma 90.000000
_cell_volume 961.358049
_symmetry_space_group_name_H-M "P N N M"
_symmetry_group_IT_number 58
_symmetry_cell_setting 'orthorhombic'
loop_
_space_group_symop_operation_xyz
x,y,z
-x,-y,z
1/2+x,1/2-y,1/2-z
1/2-x,1/2+y,1/2-z
-x,-y,-z
x,y,-z
1/2-x,1/2+y,1/2+z
1/2+x,1/2-y,1/2+z
loop_
_atom_site_type_symbol
_atom_site_label
_atom_site_fract_x
_atom_site_fract_y
_atom_site_fract_z
Si Si1 0.314478 0.372564 0.422108
Si Si2 0.798284 0.623590 0.078086
Si Si3 0.593304 0.168145 0.777486
Si Si4 0.000000 0.000000 0.307887
O O1 0.500000 0.500000 0.416709
O O2 0.188518 0.369014 0.500000
O O3 0.519623 0.250564 0.414960
O O4 0.099654 0.363926 0.358537
O O5 0.551647 0.610501 0.133913
O O6 0.000000 0.500000 0.088645
O O7 0.686937 0.618527 0.000000
O O8 0.302608 0.213019 0.742614
O O9 0.754857 0.049286 0.742590
#
# Coordination Sequence:
#
# PCOD9444775 Si02
#       4
#     8   8   8   4
#     4  10  21  43  69 101 141 188 235 290 357 431
#     4  10  21  40  67  99 136 179 232 294 361 430
#     4  12  26  45  70 104 143 186 239 297 361 426
#     4  12  23  38  69  98 140 182 244 292 363 428
#
# _framework density 29.125468999999999
#
# number of rings (size 3 to 8) (size 9 to 14) (size 15 to 20)
#    0.000    1.143    4.286    2.143    0.000    0.000 
#    0.000    2.857    0.000    3.429    0.000    0.000 
#    0.000    0.000    0.000    0.000    0.000    0.000 
#
# Total GULP energy -157053.852552 kJ/mol
# GULP energy per Si atom -5609.066163 kJ/mol
# Density = 2.905918 g / cm^3
# Si number density = 29.125469 Si / 1000 Ang^3
#
#
#
# Elastic Constant Matrix: (Units=GPa)
#
#
# Indices 1 2 3 4 5 6 
#
# 1 141.0101 48.8732 63.4037 0.0000 0.0000 0.0000
# 2 48.8732 245.2356 10.3637 0.0000 0.0000 0.0000
# 3 63.4037 10.3637 296.9632 0.0000 0.0000 0.0000
# 4 0.0000 0.0000 0.0000 42.3383 0.0000 0.0000
# 5 0.0000 0.0000 0.0000 0.0000 28.5928 0.0000
# 6 0.0000 0.0000 0.0000 0.0000 0.0000 73.5640
#
#
#
# Elastic Compliance Matrix: (Units=1/GPa)
#
#
# Indices 1 2 3 4 5 6 
#
# 1 0.008433 -0.001607 -0.001744 0.000000 0.000000 0.000000
# 2 -0.001607 0.004390 0.000190 0.000000 0.000000 0.000000
# 3 -0.001744 0.000190 0.003733 0.000000 0.000000 0.000000
# 4 0.000000 0.000000 0.000000 0.023619 0.000000 0.000000
# 5 0.000000 0.000000 0.000000 0.000000 0.034974 0.000000
# 6 0.000000 0.000000 0.000000 0.000000 0.000000 0.013594
#
#
# Mechanical properties :
#
#
# Convention : Reuss Voigt Hill
#
# Bulk Modulus (GPa) = 97.72040 103.16556 100.44298
# Shear Modulus (GPa) = 50.77336 66.27025 58.52180
#
# Velocity S-wave (km/s) = 4.17977 4.77522 4.48738
# Velocity P-wave (km/s) = 7.54442 8.11798 7.83645
#
# Compressibility (1/GPa) = 0.01023328
#
# Stress axis : x y z
#
# Youngs Moduli (GPa) = 118.58188 227.79423 267.86383
#
# Poissons Ratio (x) = 0.36604 0.46727
# Poissons Ratio (y) = 0.19055 -0.05086
# Poissons Ratio (z) = 0.20686 -0.04325
#
# Static dielectric constant tensor:
#      x y z
#    x 2.287740 0.000000 0.000000 
#    y 0.000000 2.478490 0.000000 
#    z 0.000000 0.000000 2.207480 
# 
# From -- ./inp_files/27856.got.cif
#   From: 2010.05.17/outbox.cif.g08.bks.cpg/sg58_14_cif.got.tgz:27856.got - 2010.06.03 14:20:14.
