data_PCOD9444790
_publ_section_title
;
Structure prediction by ZEFSAII (Michael W. Deem and Ramdas Pophale) SiO2 
 PCOD9444790
Probable space group: P N N M
;
_chemical_formula_sum "Si O2"
_cell_formula_units_Z 52
_cell_length_a 23.916902
_cell_length_b 12.387340
_cell_length_c 7.500901
_cell_angle_alpha 90.000000
_cell_angle_beta 90.000000
_cell_angle_gamma 90.000000
_cell_volume 2222.267913
_symmetry_space_group_name_H-M "P N N M"
_symmetry_group_IT_number 58
_symmetry_cell_setting 'orthorhombic'
loop_
_space_group_symop_operation_xyz
x,y,z
-x,-y,z
1/2+x,1/2-y,1/2-z
1/2-x,1/2+y,1/2-z
-x,-y,-z
x,y,-z
1/2-x,1/2+y,1/2+z
1/2+x,1/2-y,1/2+z
loop_
_atom_site_type_symbol
_atom_site_label
_atom_site_fract_x
_atom_site_fract_y
_atom_site_fract_z
Si Si1 0.027776 0.168002 0.205992
Si Si2 0.099294 0.368659 0.286982
Si Si3 0.644875 0.912866 0.704553
Si Si4 0.097169 0.816242 0.217188
Si Si5 0.211450 0.239614 0.299325
Si Si6 0.362976 0.542333 0.717683
Si Si7 0.716024 0.847191 0.000000
O O1 0.051501 0.289505 0.215613
O O2 0.077458 0.093113 0.277342
O O3 0.965889 0.162604 0.282705
O O4 0.022433 0.134925 0.000000
O O5 0.094384 0.368878 0.500000
O O6 0.100965 0.489856 0.217147
O O7 0.159244 0.314501 0.241750
O O8 0.662659 0.900889 0.500000
O O9 0.618377 0.800567 0.774830
O O10 0.694106 0.931471 0.843432
O O11 0.135686 0.917213 0.266107
O O12 0.095312 0.812545 0.000000
O O13 0.228748 0.267776 0.500000
O O14 0.184175 0.119364 0.294593
O O15 0.259942 0.233803 0.156781
O O16 0.358323 0.551888 0.500000
#
# Coordination Sequence:
#
# PCOD9444790 Si02
#       7
#     8   8   8   8   8   8   4
#     4   9  17  32  63  95 123 169 213 250 313 380
#     4  10  21  41  63  91 126 162 213 267 305 375
#     4  11  24  43  63  88 129 169 209 264 317 372
#     4   9  19  36  58  92 133 168 206 255 314 380
#     4  10  22  41  66  93 120 157 210 265 321 378
#     4   9  16  34  62  93 130 164 203 259 316 382
#     4  12  24  46  62  91 118 163 215 259 327 381
#
# _framework density 23.399518
#
# number of rings (size 3 to 8) (size 9 to 14) (size 15 to 20)
#    0.000    2.154    1.538    1.385    2.154    2.462 
#    5.538    3.077    0.000    3.692    0.000    0.000 
#    0.000    0.000    0.000    0.000    0.000    0.000 
#
# Total GULP energy -289594.594229 kJ/mol
# GULP energy per Si atom -5569.126812 kJ/mol
# Density = 2.334626 g / cm^3
# Si number density = 23.399518 Si / 1000 Ang^3
#
#
#
# Elastic Constant Matrix: (Units=GPa)
#
#
# Indices 1 2 3 4 5 6 
#
# 1 36.7288 7.6449 8.7557 0.0000 0.0000 0.0000
# 2 7.6449 127.4182 -4.8939 0.0000 0.0000 0.0000
# 3 8.7557 -4.8939 108.4551 0.0000 0.0000 0.0000
# 4 0.0000 0.0000 0.0000 18.8717 0.0000 0.0000
# 5 0.0000 0.0000 0.0000 0.0000 -27.9690 0.0000
# 6 0.0000 0.0000 0.0000 0.0000 0.0000 13.8873
#
#
#
# Elastic Compliance Matrix: (Units=1/GPa)
#
#
# Indices 1 2 3 4 5 6 
#
# 1 0.028158 -0.001780 -0.002354 0.000000 0.000000 0.000000
# 2 -0.001780 0.007974 0.000504 0.000000 0.000000 0.000000
# 3 -0.002354 0.000504 0.009433 0.000000 0.000000 0.000000
# 4 0.000000 0.000000 0.000000 0.052989 0.000000 0.000000
# 5 0.000000 0.000000 0.000000 0.000000 -0.035754 0.000000
# 6 0.000000 0.000000 0.000000 0.000000 0.000000 0.072008
#
#
# Mechanical properties :
#
#
# Convention : Reuss Voigt Hill
#
# Bulk Modulus (GPa) = 26.10571 32.84616 29.47593
# Shear Modulus (GPa) = 32.29184 18.36435 25.32809
#
# Velocity S-wave (km/s) = 3.71889 2.80450 3.29358
# Velocity P-wave (km/s) = 5.44252 4.95525 5.20459
#
# Compressibility (1/GPa) = 0.03830580
#
# Stress axis : x y z
#
# Youngs Moduli (GPa) = 35.51380 125.40284 106.00935
#
# Poissons Ratio (x) = 0.22320 0.24950
# Poissons Ratio (y) = 0.06321 -0.05338
# Poissons Ratio (z) = 0.08358 -0.06314
#
# Static dielectric constant tensor:
#      x y z
#    x 1.968790 0.000000 0.000000 
#    y 0.000000 1.895630 0.000000 
#    z 0.000000 0.000000 1.902870 
# 
# From -- ./inp_files/10373.got.cif
#   From: 2010.05.17/outbox.cif.g08.bks.cpg/sg58_6_cif.got.tgz:10373.got - 2010.06.03 14:20:14.
