data_PCOD9444136
_publ_section_title
;
Structure prediction by ZEFSAII (Michael W. Deem and Ramdas Pophale) SiO2 
 PCOD9444136
Probable space group: P N N M
;
_chemical_formula_sum "Si O2"
_cell_formula_units_Z 48
_cell_length_a 12.359845
_cell_length_b 6.022479
_cell_length_c 29.356688
_cell_angle_alpha 90.000000
_cell_angle_beta 90.000000
_cell_angle_gamma 90.000000
_cell_volume 2185.221053
_symmetry_space_group_name_H-M "P N N M"
_symmetry_group_IT_number 58
_symmetry_cell_setting 'orthorhombic'
loop_
_space_group_symop_operation_xyz
x,y,z
-x,-y,z
1/2+x,1/2-y,1/2-z
1/2-x,1/2+y,1/2-z
-x,-y,-z
x,y,-z
1/2-x,1/2+y,1/2+z
1/2+x,1/2-y,1/2+z
loop_
_atom_site_type_symbol
_atom_site_label
_atom_site_fract_x
_atom_site_fract_y
_atom_site_fract_z
Si Si1 0.947158 0.254188 0.733150
Si Si2 0.175936 0.674838 0.358886
Si Si3 0.379197 0.397634 0.325217
Si Si4 0.803285 0.441223 0.099787
Si Si5 0.078371 0.190438 0.050722
Si Si6 0.806171 0.561694 0.550061
O O1 0.904450 0.302755 0.682801
O O2 0.865175 0.208106 0.775058
O O3 0.000000 0.500000 0.745930
O O4 0.000000 0.000000 0.730012
O O5 0.286744 0.574143 0.337615
O O6 0.210126 0.913933 0.377102
O O7 0.140174 0.527954 0.402967
O O8 0.500000 0.500000 0.326843
O O9 0.358737 0.213535 0.363149
O O10 0.895662 0.596536 0.079687
O O11 0.742945 0.302843 0.060605
O O12 0.197659 0.085617 0.047369
O O13 0.037241 0.242011 0.000000
O O14 0.000000 0.000000 0.069612
O O15 0.859925 0.551357 0.500000
#
# Coordination Sequence:
#
# PCOD9444136 Si02
#       6
#     8   8   8   8   8   8
#     4  11  28  48  72 100 137 180 232 287 347 405
#     4  10  24  41  69  97 130 177 224 280 339 412
#     4  10  25  40  61  96 135 174 221 275 338 404
#     4  10  21  35  59  87 124 171 222 265 338 394
#     4   9  18  32  49  79 120 170 217 264 319 388
#     4   9  19  36  58  90 126 162 216 275 340 406
#
# _framework density 21.965743
#
# number of rings (size 3 to 8) (size 9 to 14) (size 15 to 20)
#    0.000    2.167    0.000    0.500   11.667    8.667 
#    0.000    2.500    0.000    5.500    0.000    0.000 
#    0.000    0.000    0.000    0.000    0.000    0.000 
#
# Total GULP energy -267505.371585 kJ/mol
# GULP energy per Si atom -5573.028575 kJ/mol
# Density = 2.191575 g / cm^3
# Si number density = 21.965743 Si / 1000 Ang^3
#
#
#
# Elastic Constant Matrix: (Units=GPa)
#
#
# Indices 1 2 3 4 5 6 
#
# 1 16.2300 13.8426 13.7271 0.0000 0.0000 0.0000
# 2 13.8426 101.7132 25.4395 0.0000 0.0000 0.0000
# 3 13.7271 25.4395 156.3203 0.0000 0.0000 0.0000
# 4 0.0000 0.0000 0.0000 316.2723 0.0000 0.0000
# 5 0.0000 0.0000 0.0000 0.0000 22.2853 0.0000
# 6 0.0000 0.0000 0.0000 0.0000 0.0000 14.2629
#
#
#
# Elastic Compliance Matrix: (Units=1/GPa)
#
#
# Indices 1 2 3 4 5 6 
#
# 1 0.073295 -0.008720 -0.005017 0.000000 0.000000 0.000000
# 2 -0.008720 0.011286 -0.001071 0.000000 0.000000 0.000000
# 3 -0.005017 -0.001071 0.007012 0.000000 0.000000 0.000000
# 4 0.000000 0.000000 0.000000 0.003162 0.000000 0.000000
# 5 0.000000 0.000000 0.000000 0.000000 0.044873 0.000000
# 6 0.000000 0.000000 0.000000 0.000000 0.000000 0.070112
#
#
# Mechanical properties :
#
#
# Convention : Reuss Voigt Hill
#
# Bulk Modulus (GPa) = 16.13508 42.25354 29.19431
# Shear Modulus (GPa) = 19.22960 85.31439 52.27199
#
# Velocity S-wave (km/s) = 2.96199 6.23892 4.88351
# Velocity P-wave (km/s) = 4.36570 8.43662 6.71699
#
# Compressibility (1/GPa) = 0.06197677
#
# Stress axis : x y z
#
# Youngs Moduli (GPa) = 13.64343 88.60387 142.61282
#
# Poissons Ratio (x) = 0.77264 0.71552
# Poissons Ratio (y) = 0.11897 0.15273
# Poissons Ratio (z) = 0.06845 0.09489
#
# Static dielectric constant tensor:
#      x y z
#    x 1.830410 0.000000 0.000000 
#    y 0.000000 1.709650 0.000000 
#    z 0.000000 0.000000 1.844410 
# 
# From -- ./inp_files/32809.got.cif
#   From: 2010.05.17/outbox.cif.g08.bks.cpg/sg58_17_cif.got.tgz:32809.got - 2010.06.03 14:20:14.
