data_PCOD9444759
_publ_section_title
;
Structure prediction by ZEFSAII (Michael W. Deem and Ramdas Pophale) SiO2 
 PCOD9444759
Probable space group: P N N M
;
_chemical_formula_sum "Si O2"
_cell_formula_units_Z 42
_cell_length_a 9.802250
_cell_length_b 7.606826
_cell_length_c 25.780776
_cell_angle_alpha 90.000000
_cell_angle_beta 90.000000
_cell_angle_gamma 90.000000
_cell_volume 1922.318044
_symmetry_space_group_name_H-M "P N N M"
_symmetry_group_IT_number 58
_symmetry_cell_setting 'orthorhombic'
loop_
_space_group_symop_operation_xyz
x,y,z
-x,-y,z
1/2+x,1/2-y,1/2-z
1/2-x,1/2+y,1/2-z
-x,-y,-z
x,y,-z
1/2-x,1/2+y,1/2+z
1/2+x,1/2-y,1/2+z
loop_
_atom_site_type_symbol
_atom_site_label
_atom_site_fract_x
_atom_site_fract_y
_atom_site_fract_z
Si Si1 0.848157 0.286782 0.390614
Si Si2 0.231147 0.304080 0.000000
Si Si3 0.654790 0.711131 0.299009
Si Si4 0.000000 0.000000 0.000000
Si Si5 0.348157 0.786782 0.890614
Si Si6 0.768852 0.304080 0.000000
Si Si7 0.845210 0.788870 0.799009
O O1 0.819452 0.219710 0.448060
O O2 0.843143 0.500000 0.392111
O O3 0.732572 0.225349 0.350550
O O4 1.000000 0.236006 0.372757
O O5 0.827539 0.500000 0.000000
O O6 0.118204 0.153405 0.000000
O O7 0.732572 0.774651 0.350550
O O8 0.750000 0.750000 0.250000
O O9 0.646213 0.500000 0.303291
O O10 0.500000 0.778669 0.293777
O O11 0.118205 0.846595 0.000000
O O12 0.319452 0.719710 0.948060
#
# Coordination Sequence:
#
# PCOD9444759 Si02
#       7
#     8   4   8   2   8   4   8
#     4  10  21  40  66  94 131 177 220 275 343 401
#     4  12  26  42  70 101 132 181 225 272 335 399
#     4  10  22  39  63  92 127 172 221 272 332 393
#     4  12  26  48  66  94 152 168 224 280 332 396
#     4  10  21  40  66  94 131 177 220 275 343 401
#     4  12  26  42  70 101 132 181 225 272 335 399
#     4  10  22  39  63  92 127 172 221 272 332 393
#
# _framework density 21.848621999999999
#
# number of rings (size 3 to 8) (size 9 to 14) (size 15 to 20)
#    0.000    1.524    1.905    2.000    2.667    6.857 
#    0.000    0.000    0.000    0.000    0.000    0.000 
#    0.000    0.000    0.000    0.000    0.000    0.000 
#
# Total GULP energy -234330.169386 kJ/mol
# GULP energy per Si atom -5579.289747 kJ/mol
# Density = 2.179889 g / cm^3
# Si number density = 21.848622 Si / 1000 Ang^3
#
#
#
# Elastic Constant Matrix: (Units=GPa)
#
#
# Indices 1 2 3 4 5 6 
#
# 1 209.3713 33.3441 88.9482 0.0000 0.0000 0.0000
# 2 33.3441 100.5706 -4.6011 0.0000 0.0000 0.0000
# 3 88.9482 -4.6011 161.1543 0.0000 0.0000 0.0000
# 4 0.0000 0.0000 0.0000 22.6245 0.0000 0.0000
# 5 0.0000 0.0000 0.0000 0.0000 -101.8782 0.0000
# 6 0.0000 0.0000 0.0000 0.0000 0.0000 -5.6343
#
#
#
# Elastic Compliance Matrix: (Units=1/GPa)
#
#
# Indices 1 2 3 4 5 6 
#
# 1 0.006782 -0.002423 -0.003812 0.000000 0.000000 0.000000
# 2 -0.002423 0.010822 0.001646 0.000000 0.000000 0.000000
# 3 -0.003812 0.001646 0.008356 0.000000 0.000000 0.000000
# 4 0.000000 0.000000 0.000000 0.044200 0.000000 0.000000
# 5 0.000000 0.000000 0.000000 0.000000 -0.009816 0.000000
# 6 0.000000 0.000000 0.000000 0.000000 0.000000 -0.177483
#
#
# Mechanical properties :
#
#
# Convention : Reuss Voigt Hill
#
# Bulk Modulus (GPa) = 59.58701 78.49763 69.04232
# Shear Modulus (GPa) = -48.84374 6.58272 -21.13051
#
# Velocity S-wave (km/s) = -4.73329 1.73765 -3.11325
# Velocity P-wave (km/s) = 1.59380 6.32707 4.32964
#
# Compressibility (1/GPa) = 0.01678218
#
# Stress axis : x y z
#
# Youngs Moduli (GPa) = 147.45674 92.40542 119.66877
#
# Poissons Ratio (x) = 0.22389 0.45621
# Poissons Ratio (y) = 0.35727 -0.19701
# Poissons Ratio (z) = 0.56214 -0.15212
#
# Static dielectric constant tensor:
#      x y z
#    x 1.780400 0.000000 0.000000 
#    y 0.000000 1.818260 0.000000 
#    z 0.000000 0.000000 1.758820 
# 
# From -- ./inp_files/31411.got.cif
#   From: 2010.05.17/outbox.cif.g08.bks.cpg/sg58_16_cif.got.tgz:31411.got - 2010.06.03 14:20:14.
