data_PCOD9444899
_publ_section_title
;
Structure prediction by ZEFSAII (Michael W. Deem and Ramdas Pophale) SiO2 
 PCOD9444899
Probable space group: P N N M
;
_chemical_formula_sum "Si O2"
_cell_formula_units_Z 64
_cell_length_a 9.584760
_cell_length_b 16.236995
_cell_length_c 20.175191
_cell_angle_alpha 90.000000
_cell_angle_beta 90.000000
_cell_angle_gamma 90.000000
_cell_volume 3139.818576
_symmetry_space_group_name_H-M "P N N M"
_symmetry_group_IT_number 58
_symmetry_cell_setting 'orthorhombic'
loop_
_space_group_symop_operation_xyz
x,y,z
-x,-y,z
1/2+x,1/2-y,1/2-z
1/2-x,1/2+y,1/2-z
-x,-y,-z
x,y,-z
1/2-x,1/2+y,1/2+z
1/2+x,1/2-y,1/2+z
loop_
_atom_site_type_symbol
_atom_site_label
_atom_site_fract_x
_atom_site_fract_y
_atom_site_fract_z
Si Si1 0.734581 0.812717 0.925062
Si Si2 0.813769 0.539365 0.071466
Si Si3 0.998046 0.131596 0.282127
Si Si4 0.687426 0.058411 0.715162
Si Si5 0.540139 0.655712 0.074118
Si Si6 0.446676 0.195502 0.285099
Si Si7 0.250229 0.585070 0.702626
Si Si8 0.508807 0.802496 0.571699
O O1 0.612125 0.745107 0.913864
O O2 0.742841 0.885399 0.872363
O O3 0.877211 0.759627 0.921257
O O4 0.719786 0.843067 0.000000
O O5 0.822906 0.505389 0.146311
O O6 0.669087 0.590958 0.070874
O O7 0.937536 0.607168 0.070048
O O8 0.818106 0.494018 0.000000
O O9 0.997128 0.221581 0.249605
O O10 0.097235 0.078589 0.235081
O O11 0.839065 0.100215 0.283029
O O12 0.043999 0.133204 0.359601
O O13 0.572591 0.129572 0.714542
O O14 0.673165 0.998446 0.777335
O O15 0.475518 0.654553 0.000000
O O16 0.321922 0.158506 0.243239
O O17 0.405052 0.208712 0.361661
O O18 0.575975 0.787730 0.500000
#
# Coordination Sequence:
#
# PCOD9444899 Si02
#       8
#     8   8   8   8   8   8   8   8
#     4   9  16  30  54  80 103 140 192 228 257 318
#     4   7  12  26  50  72  95 134 182 218 247 310
#     4  11  20  35  57  81 109 143 189 230 270 325
#     4  10  22  36  52  79 117 147 179 225 282 329
#     4   8  14  28  51  78 103 133 182 229 259 310
#     4  11  20  35  57  81 109 143 189 230 270 325
#     4  12  22  34  54  85 115 143 177 231 282 323
#     4   8  14  28  51  78 103 133 182 229 259 310
#
# _framework density 20.383343
#
# number of rings (size 3 to 8) (size 9 to 14) (size 15 to 20)
#    0.000    2.500    2.500    3.750    0.000    0.000 
#    0.000    1.875    0.000   10.500    0.000    0.000 
#    0.000    0.000    0.000    0.000    0.000    0.000 
#
# Total GULP energy -357009.408750 kJ/mol
# GULP energy per Si atom -5578.272012 kJ/mol
# Density = 2.033695 g / cm^3
# Si number density = 20.383343 Si / 1000 Ang^3
#
#
#
# Elastic Constant Matrix: (Units=GPa)
#
#
# Indices 1 2 3 4 5 6 
#
# 1 42.8307 9.0591 11.0845 0.0000 0.0000 0.0000
# 2 9.0591 56.4351 28.9959 0.0000 0.0000 0.0000
# 3 11.0845 28.9959 146.9325 0.0000 0.0000 0.0000
# 4 0.0000 0.0000 0.0000 579.7646 0.0000 0.0000
# 5 0.0000 0.0000 0.0000 0.0000 16.0668 0.0000
# 6 0.0000 0.0000 0.0000 0.0000 0.0000 22.5924
#
#
#
# Elastic Compliance Matrix: (Units=1/GPa)
#
#
# Indices 1 2 3 4 5 6 
#
# 1 0.024353 -0.003300 -0.001186 0.000000 0.000000 0.000000
# 2 -0.003300 0.020166 -0.003731 0.000000 0.000000 0.000000
# 3 -0.001186 -0.003731 0.007632 0.000000 0.000000 0.000000
# 4 0.000000 0.000000 0.000000 0.001725 0.000000 0.000000
# 5 0.000000 0.000000 0.000000 0.000000 0.062240 0.000000
# 6 0.000000 0.000000 0.000000 0.000000 0.000000 0.044263
#
#
# Mechanical properties :
#
#
# Convention : Reuss Voigt Hill
#
# Bulk Modulus (GPa) = 27.99766 38.27525 33.13646
# Shear Modulus (GPa) = 26.49480 136.82201 81.65840
#
# Velocity S-wave (km/s) = 3.60922 8.20184 6.33627
# Velocity P-wave (km/s) = 5.57979 10.41691 8.35602
#
# Compressibility (1/GPa) = 0.03571727
#
# Stress axis : x y z
#
# Youngs Moduli (GPa) = 41.06334 49.58856 131.03547
#
# Poissons Ratio (x) = 0.16363 0.15540
# Poissons Ratio (y) = 0.13550 0.48885
# Poissons Ratio (z) = 0.04870 0.18500
#
# Static dielectric constant tensor:
#      x y z
#    x 1.794870 0.000000 0.000000 
#    y 0.000000 1.727740 0.000000 
#    z 0.000000 0.000000 1.772860 
# 
# From -- ./inp_files/29130.got.cif
#   From: 2010.05.17/outbox.cif.g08.bks.cpg/sg58_15_cif.got.tgz:29130.got - 2010.06.03 14:20:14.
