data_PCOD9444198
_publ_section_title
;
Structure prediction by ZEFSAII (Michael W. Deem and Ramdas Pophale) SiO2 
 PCOD9444198
Probable space group: P N N M
;
_chemical_formula_sum "Si O2"
_cell_formula_units_Z 58
_cell_length_a 27.611190
_cell_length_b 7.138192
_cell_length_c 15.353691
_cell_angle_alpha 90.000000
_cell_angle_beta 90.000000
_cell_angle_gamma 90.000000
_cell_volume 3026.119999
_symmetry_space_group_name_H-M "P N N M"
_symmetry_group_IT_number 58
_symmetry_cell_setting 'orthorhombic'
loop_
_space_group_symop_operation_xyz
x,y,z
-x,-y,z
1/2+x,1/2-y,1/2-z
1/2-x,1/2+y,1/2-z
-x,-y,-z
x,y,-z
1/2-x,1/2+y,1/2+z
1/2+x,1/2-y,1/2+z
loop_
_atom_site_type_symbol
_atom_site_label
_atom_site_fract_x
_atom_site_fract_y
_atom_site_fract_z
Si Si1 0.222149 0.747431 0.400841
Si Si2 0.139758 0.814333 0.266525
Si Si3 0.697531 0.192626 0.901481
Si Si4 0.049912 0.071662 0.319407
Si Si5 0.167939 0.318924 0.097577
Si Si6 0.500000 0.500000 0.000000
Si Si7 0.805746 0.249440 0.097849
Si Si8 0.384794 0.869725 0.233254
O O1 0.220092 0.823063 0.500000
O O2 0.183291 0.837910 0.336364
O O3 0.207841 0.529961 0.404008
O O4 0.278230 0.756439 0.373351
O O5 0.163630 0.852605 0.172009
O O6 0.122273 0.594863 0.268812
O O7 0.094228 0.941375 0.289772
O O8 0.749614 0.275048 0.875272
O O9 0.654800 0.214863 0.833517
O O10 0.685148 0.252393 0.000000
O O11 0.039422 0.049099 0.422039
O O12 0.064236 0.284424 0.296370
O O13 0.000000 0.000000 0.276479
O O14 0.172727 0.543688 0.091797
O O15 0.128539 0.290866 0.171682
O O16 0.157810 0.247904 0.000000
O O17 0.805349 0.166246 0.000000
#
# Coordination Sequence:
#
# PCOD9444198 Si02
#       8
#     8   8   8   8   8   2   8   8
#     4   9  18  29  46  77 113 149 189 224 267 331
#     4  10  21  36  57  81 111 149 189 228 280 336
#     4   9  18  29  46  77 113 149 189 224 267 331
#     4  10  24  42  61  84 108 139 184 240 286 335
#     4   9  18  32  50  79 114 152 189 225 269 323
#     4   8  24  48  58  92 114 122 200 240 278 352
#     4   9  18  32  50  79 114 152 189 225 269 323
#     4  10  21  36  57  81 111 149 189 228 280 336
#
# _framework density 19.166457999999999
#
# number of rings (size 3 to 8) (size 9 to 14) (size 15 to 20)
#    0.414    2.207    0.000    0.828    5.793    0.552 
#    0.000    0.690    0.000    1.655    0.000    3.862 
#    0.000    0.000    0.000    0.000    0.000    0.000 
#
# Total GULP energy -322908.760122 kJ/mol
# GULP energy per Si atom -5567.392416 kJ/mol
# Density = 1.912283 g / cm^3
# Si number density = 19.166458 Si / 1000 Ang^3
#
#
#
# Elastic Constant Matrix: (Units=GPa)
#
#
# Indices 1 2 3 4 5 6 
#
# 1 58.8560 5.1840 36.7331 0.0000 0.0000 0.0000
# 2 5.1840 49.3666 8.5957 0.0000 0.0000 0.0000
# 3 36.7331 8.5957 69.7625 0.0000 0.0000 0.0000
# 4 0.0000 0.0000 0.0000 1.1342 0.0000 0.0000
# 5 0.0000 0.0000 0.0000 0.0000 175.9703 0.0000
# 6 0.0000 0.0000 0.0000 0.0000 0.0000 19.4522
#
#
#
# Elastic Compliance Matrix: (Units=1/GPa)
#
#
# Indices 1 2 3 4 5 6 
#
# 1 0.025313 -0.000345 -0.013286 0.000000 0.000000 0.000000
# 2 -0.000345 0.020705 -0.002370 0.000000 0.000000 0.000000
# 3 -0.013286 -0.002370 0.021622 0.000000 0.000000 0.000000
# 4 0.000000 0.000000 0.000000 0.881699 0.000000 0.000000
# 5 0.000000 0.000000 0.000000 0.000000 0.005683 0.000000
# 6 0.000000 0.000000 0.000000 0.000000 0.000000 0.051408
#
#
# Mechanical properties :
#
#
# Convention : Reuss Voigt Hill
#
# Bulk Modulus (GPa) = 28.05865 31.00118 29.52992
# Shear Modulus (GPa) = 4.76050 47.80950 26.28500
#
# Velocity S-wave (km/s) = 1.57771 4.99985 3.70727
# Velocity P-wave (km/s) = 4.24148 7.03855 5.81082
#
# Compressibility (1/GPa) = 0.03563963
#
# Stress axis : x y z
#
# Youngs Moduli (GPa) = 39.50546 48.29651 46.24927
#
# Poissons Ratio (x) = 0.01665 0.61446
# Poissons Ratio (y) = 0.01362 0.10960
# Poissons Ratio (z) = 0.52487 0.11445
#
# Static dielectric constant tensor:
#      x y z
#    x 1.635920 0.000000 0.000000 
#    y 0.000000 1.738050 0.000000 
#    z 0.000000 0.000000 1.692690 
# 
# From -- ./inp_files/23702.got.cif
#   From: 2010.05.17/outbox.cif.g08.bks.cpg/sg58_12_cif.got.tgz:23702.got - 2010.06.03 14:20:14.
