data_PCOD9444620
_publ_section_title
;
Structure prediction by ZEFSAII (Michael W. Deem and Ramdas Pophale) SiO2 
 PCOD9444620
Probable space group: P N N M
;
_chemical_formula_sum "Si O2"
_cell_formula_units_Z 64
_cell_length_a 12.048603
_cell_length_b 21.076345
_cell_length_c 13.407024
_cell_angle_alpha 90.000000
_cell_angle_beta 90.000000
_cell_angle_gamma 90.000000
_cell_volume 3404.586560
_symmetry_space_group_name_H-M "P N N M"
_symmetry_group_IT_number 58
_symmetry_cell_setting 'orthorhombic'
loop_
_space_group_symop_operation_xyz
x,y,z
-x,-y,z
1/2+x,1/2-y,1/2-z
1/2-x,1/2+y,1/2-z
-x,-y,-z
x,y,-z
1/2-x,1/2+y,1/2+z
1/2+x,1/2-y,1/2+z
loop_
_atom_site_type_symbol
_atom_site_label
_atom_site_fract_x
_atom_site_fract_y
_atom_site_fract_z
Si Si1 0.024533 0.352287 0.214115
Si Si2 0.772403 0.558675 0.219063
Si Si3 0.137987 0.233453 0.884615
Si Si4 0.623095 0.381214 0.750453
Si Si5 0.071651 0.879571 0.386409
Si Si6 0.595204 0.770786 0.886021
Si Si7 0.133658 0.004377 0.885646
Si Si8 0.817094 0.421645 0.118984
O O1 0.118824 0.401898 0.246793
O O2 0.086190 0.300614 0.145062
O O3 0.965349 0.314878 0.305213
O O4 0.932519 0.390768 0.152474
O O5 0.693734 0.598242 0.144556
O O6 0.697299 0.545084 0.316037
O O7 0.802681 0.491861 0.166399
O O8 0.092170 0.182766 0.805987
O O9 0.271364 0.230113 0.872523
O O10 0.112144 0.218557 0.000000
O O11 0.518104 0.408092 0.810685
O O12 0.661843 0.428068 0.663150
O O13 0.720873 0.378359 0.831340
O O14 0.048581 0.898543 0.500000
O O15 0.061274 0.803299 0.378994
O O16 0.572052 0.791829 0.000000
O O17 0.168020 0.999461 0.000000
O O18 0.000000 0.000000 0.881912
O O19 0.806968 0.424555 0.000000
#
# Coordination Sequence:
#
# PCOD9444620 Si02
#       8
#     8   8   8   8   8   8   8   8
#     4  12  23  41  65  93 130 161 206 260 313 377
#     4  11  24  40  63  91 127 169 208 256 308 374
#     4  11  22  38  63  88 118 162 206 249 308 377
#     4  11  21  39  62  90 124 159 205 261 311 368
#     4  11  21  37  63  92 122 162 210 256 308 374
#     4  10  22  40  62  89 122 165 205 250 309 371
#     4  10  21  39  61  86 120 160 205 255 306 360
#     4  11  25  41  61  93 130 169 208 258 316 369
#
# _framework density 18.798169999999999
#
# number of rings (size 3 to 8) (size 9 to 14) (size 15 to 20)
#    0.000    1.125    5.000    1.875    0.000    2.500 
#    0.000    1.875    0.000    2.250    0.000    0.000 
#    0.000    0.000    0.000    0.000    0.000    0.000 
#
# Total GULP energy -357323.771075 kJ/mol
# GULP energy per Si atom -5583.183923 kJ/mol
# Density = 1.875538 g / cm^3
# Si number density = 18.798170 Si / 1000 Ang^3
#
#
#
# Elastic Constant Matrix: (Units=GPa)
#
#
# Indices 1 2 3 4 5 6 
#
# 1 95.5363 26.6760 57.4371 0.0000 0.0000 0.0000
# 2 26.6760 66.9292 53.3539 0.0000 0.0000 0.0000
# 3 57.4371 53.3539 165.3430 0.0000 0.0000 0.0000
# 4 0.0000 0.0000 0.0000 17.1380 0.0000 0.0000
# 5 0.0000 0.0000 0.0000 0.0000 23.4099 0.0000
# 6 0.0000 0.0000 0.0000 0.0000 0.0000 22.9727
#
#
#
# Elastic Compliance Matrix: (Units=1/GPa)
#
#
# Indices 1 2 3 4 5 6 
#
# 1 0.013468 -0.002206 -0.003967 0.000000 0.000000 0.000000
# 2 -0.002206 0.020477 -0.005841 0.000000 0.000000 0.000000
# 3 -0.003967 -0.005841 0.009311 0.000000 0.000000 0.000000
# 4 0.000000 0.000000 0.000000 0.058350 0.000000 0.000000
# 5 0.000000 0.000000 0.000000 0.000000 0.042717 0.000000
# 6 0.000000 0.000000 0.000000 0.000000 0.000000 0.043530
#
#
# Mechanical properties :
#
#
# Convention : Reuss Voigt Hill
#
# Bulk Modulus (GPa) = 52.00745 66.97138 59.48942
# Shear Modulus (GPa) = 22.90535 25.39355 24.14945
#
# Velocity S-wave (km/s) = 3.49447 3.67938 3.58812
# Velocity P-wave (km/s) = 6.63386 7.33174 6.99151
#
# Compressibility (1/GPa) = 0.01922801
#
# Stress axis : x y z
#
# Youngs Moduli (GPa) = 74.25023 48.83557 107.40060
#
# Poissons Ratio (x) = 0.10772 0.42603
# Poissons Ratio (y) = 0.16378 0.62737
# Poissons Ratio (z) = 0.29453 0.28527
#
# Static dielectric constant tensor:
#      x y z
#    x 1.656630 0.000000 0.000000 
#    y 0.000000 1.665070 0.000000 
#    z 0.000000 0.000000 1.623170 
# 
# From -- ./inp_files/14854.got.cif
#   From: 2010.05.17/outbox.cif.g08.bks.cpg/sg58_8_cif.got.tgz:14854.got - 2010.06.03 14:20:14.
