data_PCOD9444641
_publ_section_title
;
Structure prediction by ZEFSAII (Michael W. Deem and Ramdas Pophale) SiO2 
 PCOD9444641
Probable space group: P N N M
;
_chemical_formula_sum "Si O2"
_cell_formula_units_Z 34
_cell_length_a 5.130758
_cell_length_b 13.451115
_cell_length_c 23.346059
_cell_angle_alpha 90.000000
_cell_angle_beta 90.000000
_cell_angle_gamma 90.000000
_cell_volume 1611.214625
_symmetry_space_group_name_H-M "P N N M"
_symmetry_group_IT_number 58
_symmetry_cell_setting 'orthorhombic'
loop_
_space_group_symop_operation_xyz
x,y,z
-x,-y,z
1/2+x,1/2-y,1/2-z
1/2-x,1/2+y,1/2-z
-x,-y,-z
x,y,-z
1/2-x,1/2+y,1/2+z
1/2+x,1/2-y,1/2+z
loop_
_atom_site_type_symbol
_atom_site_label
_atom_site_fract_x
_atom_site_fract_y
_atom_site_fract_z
Si Si1 0.749247 0.070911 0.833460
Si Si2 0.726220 0.721670 0.437327
Si Si3 0.000000 0.500000 0.000000
Si Si4 0.250414 0.428992 0.793211
Si Si5 0.776289 0.152177 0.583435
O O1 0.735048 0.148777 0.884533
O O2 0.755499 0.119398 0.769941
O O3 0.500000 0.000000 0.835466
O O4 0.000000 0.000000 0.839341
O O5 0.765959 0.674533 0.500000
O O6 0.436243 0.765722 0.434588
O O7 0.934557 0.811532 0.432388
O O8 0.182123 0.445606 0.949986
O O9 0.500000 0.500000 0.797026
O O10 0.255872 0.359633 0.848296
O O11 0.000000 0.500000 0.796506
#
# Coordination Sequence:
#
# PCOD9444641 Si02
#       5
#     8   8   2   8   8
#     4  10  23  43  67  89 121 163 208 260 319 369
#     4  12  25  42  60  96 127 158 212 263 304 370
#     4  12  24  42  64  94 128 178 198 238 320 378
#     4  10  21  39  62  91 121 163 210 250 301 374
#     4  12  25  39  65  91 130 166 205 254 306 374
#
# _framework density 21.102091000000001
#
# number of rings (size 3 to 8) (size 9 to 14) (size 15 to 20)
#    0.000    0.941    3.529    2.824    0.000    3.765 
#    0.000    0.000    0.000    0.000    0.000    0.000 
#    0.000    0.000    0.000    0.000    0.000    0.000 
#
# Total GULP energy -189610.337617 kJ/mol
# GULP energy per Si atom -5576.774636 kJ/mol
# Density = 2.105406 g / cm^3
# Si number density = 21.102091 Si / 1000 Ang^3
#
#
#
# Elastic Constant Matrix: (Units=GPa)
#
#
# Indices 1 2 3 4 5 6 
#
# 1 92.2898 2.0148 7.2525 0.0000 0.0000 0.0000
# 2 2.0148 29.6978 49.1546 0.0000 0.0000 0.0000
# 3 7.2525 49.1546 232.2336 0.0000 0.0000 0.0000
# 4 0.0000 0.0000 0.0000 40.5454 0.0000 0.0000
# 5 0.0000 0.0000 0.0000 0.0000 36.9838 0.0000
# 6 0.0000 0.0000 0.0000 0.0000 0.0000 20.9070
#
#
#
# Elastic Compliance Matrix: (Units=1/GPa)
#
#
# Indices 1 2 3 4 5 6 
#
# 1 0.010863 -0.000270 -0.000282 0.000000 0.000000 0.000000
# 2 -0.000270 0.051837 -0.010963 0.000000 0.000000 0.000000
# 3 -0.000282 -0.010963 0.006635 0.000000 0.000000 0.000000
# 4 0.000000 0.000000 0.000000 0.024664 0.000000 0.000000
# 5 0.000000 0.000000 0.000000 0.000000 0.027039 0.000000
# 6 0.000000 0.000000 0.000000 0.000000 0.000000 0.047831
#
#
# Mechanical properties :
#
#
# Convention : Reuss Voigt Hill
#
# Bulk Modulus (GPa) = 21.59607 52.34054 36.96831
# Shear Modulus (GPa) = 24.11550 39.40721 31.76135
#
# Velocity S-wave (km/s) = 3.38420 4.32609 3.88381
# Velocity P-wave (km/s) = 5.05240 7.05768 6.13749
#
# Compressibility (1/GPa) = 0.04630471
#
# Stress axis : x y z
#
# Youngs Moduli (GPa) = 92.05141 19.29118 150.70815
#
# Poissons Ratio (x) = 0.00521 0.04251
# Poissons Ratio (y) = 0.02487 1.65228
# Poissons Ratio (z) = 0.02597 0.21150
#
# Static dielectric constant tensor:
#      x y z
#    x 1.724930 0.000000 0.000000 
#    y 0.000000 1.738690 0.000000 
#    z 0.000000 0.000000 1.785500 
# 
# From -- ./inp_files/27997.got.cif
#   From: 2010.05.17/outbox.cif.g08.bks.cpg/sg58_14_cif.got.tgz:27997.got - 2010.06.03 14:20:14.
