data_PCOD9444401
_publ_section_title
;
Structure prediction by ZEFSAII (Michael W. Deem and Ramdas Pophale) SiO2 
 PCOD9444401
Probable space group: P N N M
;
_chemical_formula_sum "Si O2"
_cell_formula_units_Z 60
_cell_length_a 19.677063
_cell_length_b 5.064570
_cell_length_c 27.819573
_cell_angle_alpha 90.000000
_cell_angle_beta 90.000000
_cell_angle_gamma 90.000000
_cell_volume 2772.383554
_symmetry_space_group_name_H-M "P N N M"
_symmetry_group_IT_number 58
_symmetry_cell_setting 'orthorhombic'
loop_
_space_group_symop_operation_xyz
x,y,z
-x,-y,z
1/2+x,1/2-y,1/2-z
1/2-x,1/2+y,1/2-z
-x,-y,-z
x,y,-z
1/2-x,1/2+y,1/2+z
1/2+x,1/2-y,1/2+z
loop_
_atom_site_type_symbol
_atom_site_label
_atom_site_fract_x
_atom_site_fract_y
_atom_site_fract_z
Si Si1 0.570295 0.842343 0.053649
Si Si2 0.941096 0.817276 0.943572
Si Si3 0.163232 0.505940 0.630189
Si Si4 0.430331 0.889105 0.792423
Si Si5 0.253467 0.008131 0.634922
Si Si6 0.500000 0.500000 0.869256
Si Si7 0.205467 0.329319 0.764251
Si Si8 0.642233 0.824517 0.556254
O O1 0.554297 0.621300 0.093257
O O2 0.500000 0.000000 0.050424
O O3 0.625057 0.026627 0.079619
O O4 0.588721 0.751886 0.000000
O O5 0.877861 0.018207 0.940360
O O6 0.918351 0.526674 0.927871
O O7 0.959825 0.783348 0.000000
O O8 0.000000 0.000000 0.921023
O O9 0.111555 0.588988 0.673086
O O10 0.215762 0.739031 0.622751
O O11 0.199412 0.237583 0.646589
O O12 0.460166 0.693718 0.833247
O O13 0.370833 0.793498 0.756744
O O14 0.500000 0.000000 0.769144
O O15 0.298135 0.939226 0.681520
O O16 0.295993 0.111411 0.590365
O O17 0.250823 0.558356 0.738094
O O18 0.654933 0.882550 0.500000
#
# Coordination Sequence:
#
# PCOD9444401 Si02
#       8
#     8   8   8   8   8   4   8   8
#     4  11  24  39  61  99 141 183 234 292 347 411
#     4   9  17  33  60  91 119 162 216 260 319 398
#     4  12  23  43  67  94 129 185 226 280 337 421
#     4  12  25  42  72 102 134 179 241 302 352 429
#     4  12  25  43  68  94 136 175 233 277 350 414
#     4  12  21  42  68  94 140 188 239 294 366 416
#     4  12  26  46  72 102 133 181 234 293 359 425
#     4  10  21  37  60  92 132 172 213 270 332 405
#
# _framework density 21.642028
#
# number of rings (size 3 to 8) (size 9 to 14) (size 15 to 20)
#    0.000    0.800    5.333    2.200    1.867    2.667 
#    0.000    1.333    1.467    0.000    0.000    0.000 
#    0.000    0.000    0.000    0.000    0.000    0.000 
#
# Total GULP energy -334837.907328 kJ/mol
# GULP energy per Si atom -5580.631789 kJ/mol
# Density = 2.159277 g / cm^3
# Si number density = 21.642028 Si / 1000 Ang^3
#
#
#
# Elastic Constant Matrix: (Units=GPa)
#
#
# Indices 1 2 3 4 5 6 
#
# 1 93.7815 5.6385 40.8342 0.0000 0.0000 0.0000
# 2 5.6385 83.2201 7.2981 0.0000 0.0000 0.0000
# 3 40.8342 7.2981 87.8875 0.0000 0.0000 0.0000
# 4 0.0000 0.0000 0.0000 18.4871 0.0000 0.0000
# 5 0.0000 0.0000 0.0000 0.0000 24.8606 0.0000
# 6 0.0000 0.0000 0.0000 0.0000 0.0000 28.7781
#
#
#
# Elastic Compliance Matrix: (Units=1/GPa)
#
#
# Indices 1 2 3 4 5 6 
#
# 1 0.013378 -0.000364 -0.006186 0.000000 0.000000 0.000000
# 2 -0.000364 0.012114 -0.000837 0.000000 0.000000 0.000000
# 3 -0.006186 -0.000837 0.014322 0.000000 0.000000 0.000000
# 4 0.000000 0.000000 0.000000 0.054092 0.000000 0.000000
# 5 0.000000 0.000000 0.000000 0.000000 0.040224 0.000000
# 6 0.000000 0.000000 0.000000 0.000000 0.000000 0.034749
#
#
# Mechanical properties :
#
#
# Convention : Reuss Voigt Hill
#
# Bulk Modulus (GPa) = 39.93382 41.38120 40.65751
# Shear Modulus (GPa) = 26.04179 28.49970 27.27075
#
# Velocity S-wave (km/s) = 3.47262 3.63280 3.55362
# Velocity P-wave (km/s) = 5.87970 6.06289 5.97200
#
# Compressibility (1/GPa) = 0.02504143
#
# Stress axis : x y z
#
# Youngs Moduli (GPa) = 74.74798 82.54657 69.82455
#
# Poissons Ratio (x) = 0.03005 0.43191
# Poissons Ratio (y) = 0.02721 0.05843
# Poissons Ratio (z) = 0.46236 0.06908
#
# Static dielectric constant tensor:
#      x y z
#    x 1.900890 0.000000 0.000000 
#    y 0.000000 1.848960 0.000000 
#    z 0.000000 0.000000 1.787130 
# 
# From -- ./inp_files/33819.got.cif
#   From: 2010.05.17/outbox.cif.g08.bks.cpg/sg58_17_cif.got.tgz:33819.got - 2010.06.03 14:20:14.
