data_PCOD9444092
_publ_section_title
;
Structure prediction by ZEFSAII (Michael W. Deem and Ramdas Pophale) SiO2 
 PCOD9444092
Probable space group: P N N M
;
_chemical_formula_sum "Si O2"
_cell_formula_units_Z 64
_cell_length_a 26.623986
_cell_length_b 15.362696
_cell_length_c 7.889543
_cell_angle_alpha 90.000000
_cell_angle_beta 90.000000
_cell_angle_gamma 90.000000
_cell_volume 3226.950923
_symmetry_space_group_name_H-M "P N N M"
_symmetry_group_IT_number 58
_symmetry_cell_setting 'orthorhombic'
loop_
_space_group_symop_operation_xyz
x,y,z
-x,-y,z
1/2+x,1/2-y,1/2-z
1/2-x,1/2+y,1/2-z
-x,-y,-z
x,y,-z
1/2-x,1/2+y,1/2+z
1/2+x,1/2-y,1/2+z
loop_
_atom_site_type_symbol
_atom_site_label
_atom_site_fract_x
_atom_site_fract_y
_atom_site_fract_z
Si Si1 0.714323 0.000000 0.205082
Si Si2 0.000001 0.100272 0.202589
Si Si3 0.891234 0.832466 0.703974
Si Si4 0.330555 0.499999 0.203820
Si Si5 0.863248 0.357166 0.702513
Si Si6 0.863248 0.642834 0.297487
Si Si7 0.608764 0.667535 0.203975
Si Si8 0.442833 1.000000 0.296425
O O1 0.771926 0.000001 0.255773
O O2 0.683675 0.085251 0.266800
O O3 0.683675 0.914749 0.266801
O O4 0.711592 0.000000 0.000000
O O5 0.949402 0.148685 0.257990
O O6 0.050599 0.148685 0.257998
O O7 0.000002 0.096565 0.000000
O O8 0.000000 0.000000 0.267791
O O9 0.886269 0.830359 0.500000
O O10 0.871727 0.739688 0.770910
O O11 0.858539 0.913689 0.768916
O O12 0.358539 0.413687 0.268915
O O13 0.335988 0.499999 0.000000
O O14 0.856821 0.350107 0.500000
O O15 0.871727 0.260313 0.770909
O O16 0.912154 0.415933 0.735694
O O17 0.856822 0.649893 0.500000
O O18 0.912155 0.584069 0.264303
O O19 0.613728 0.669642 0.000000
O O20 0.442712 0.000001 0.500000
O O21 0.500000 0.000000 0.235768
#
# Coordination Sequence:
#
# PCOD9444092 Si02
#       8
#     8   8   8   8   8   8   8   8
#     4   9  19  37  57  79 111 145 185 234 281 328
#     4  11  23  37  55  82 117 150 183 229 284 332
#     4  10  21  38  59  83 112 149 191 230 272 329
#     4  10  21  36  57  84 112 144 189 233 275 329
#     4   9  20  38  58  80 108 147 190 228 272 332
#     4   9  20  38  58  80 108 147 190 228 272 332
#     4  10  21  38  59  83 112 149 191 230 272 329
#     4  10  21  35  52  79 114 145 178 230 285 329
#
# _framework density 19.832962999999999
#
# number of rings (size 3 to 8) (size 9 to 14) (size 15 to 20)
#    0.000    2.250    1.250    1.500    1.750    6.500 
#    0.000    0.000    0.000    0.000    0.000    0.000 
#    0.000    0.000    0.000    0.000    0.000    0.000 
#
# Total GULP energy -357276.223390 kJ/mol
# GULP energy per Si atom -5582.440990 kJ/mol
# Density = 1.978782 g / cm^3
# Si number density = 19.832963 Si / 1000 Ang^3
#
#
#
# Elastic Constant Matrix: (Units=GPa)
#
#
# Indices 1 2 3 4 5 6 
#
# 1 183.9667 109.6232 -6.5504 0.0000 0.0000 0.0000
# 2 109.6232 222.4449 11.6817 0.0000 0.0000 0.0000
# 3 -6.5504 11.6817 17.6116 0.0000 0.0000 0.0000
# 4 0.0000 0.0000 0.0000 -14.8765 0.0000 0.0000
# 5 0.0000 0.0000 0.0000 0.0000 55.6308 0.0000
# 6 0.0000 0.0000 0.0000 0.0000 0.0000 4.9532
#
#
#
# Elastic Compliance Matrix: (Units=1/GPa)
#
#
# Indices 1 2 3 4 5 6 
#
# 1 0.008262 -0.004386 0.005982 0.000000 0.000000 0.000000
# 2 -0.004386 0.006986 -0.006265 0.000000 0.000000 0.000000
# 3 0.005982 -0.006265 0.063161 0.000000 0.000000 0.000000
# 4 0.000000 0.000000 0.000000 -0.067220 0.000000 0.000000
# 5 0.000000 0.000000 0.000000 0.000000 0.017976 0.000000
# 6 0.000000 0.000000 0.000000 0.000000 0.000000 0.201890
#
#
# Mechanical properties :
#
#
# Convention : Reuss Voigt Hill
#
# Bulk Modulus (GPa) = 14.47767 72.61469 43.54618
# Shear Modulus (GPa) = 18.98136 29.75942 24.37039
#
# Velocity S-wave (km/s) = 3.09700 3.87784 3.50920
# Velocity P-wave (km/s) = 4.48377 7.53278 6.19867
#
# Compressibility (1/GPa) = 0.06907190
#
# Stress axis : x y z
#
# Youngs Moduli (GPa) = 121.03239 143.14538 15.83252
#
# Poissons Ratio (x) = 0.62782 -0.09471
# Poissons Ratio (y) = 0.53083 0.09919
# Poissons Ratio (z) = -0.72404 0.89680
#
# Static dielectric constant tensor:
#      x y z
#    x 1.652000 0.000000 0.000000 
#    y 0.000000 1.712930 0.000000 
#    z 0.000000 0.000000 1.709840 
# 
# From -- ./inp_files/10117.got.cif
#   From: 2010.05.17/outbox.cif.g08.bks.cpg/sg58_6_cif.got.tgz:10117.got - 2010.06.03 14:20:14.
