data_PCOD9444386
_publ_section_title
;
Structure prediction by ZEFSAII (Michael W. Deem and Ramdas Pophale) SiO2 
 PCOD9444386
Probable space group: P N N M
;
_chemical_formula_sum "Si O2"
_cell_formula_units_Z 64
_cell_length_a 31.195126
_cell_length_b 12.167234
_cell_length_c 7.817803
_cell_angle_alpha 90.000000
_cell_angle_beta 90.000000
_cell_angle_gamma 90.000000
_cell_volume 2967.312780
_symmetry_space_group_name_H-M "P N N M"
_symmetry_group_IT_number 58
_symmetry_cell_setting 'orthorhombic'
loop_
_space_group_symop_operation_xyz
x,y,z
-x,-y,z
1/2+x,1/2-y,1/2-z
1/2-x,1/2+y,1/2-z
-x,-y,-z
x,y,-z
1/2-x,1/2+y,1/2+z
1/2+x,1/2-y,1/2+z
loop_
_atom_site_type_symbol
_atom_site_label
_atom_site_fract_x
_atom_site_fract_y
_atom_site_fract_z
Si Si1 0.919029 0.771951 0.294225
Si Si2 0.450708 0.492484 0.207058
Si Si3 0.689190 0.488320 0.302583
Si Si4 0.674392 0.244675 0.197597
Si Si5 0.371017 0.078183 0.290282
Si Si6 0.782938 0.538332 0.804093
Si Si7 0.955898 0.551523 0.794659
Si Si8 0.877427 0.170211 0.796276
O O1 0.916033 0.778020 0.500000
O O2 0.928433 0.894591 0.232769
O O3 0.873312 0.729464 0.229386
O O4 0.953323 0.680289 0.247515
O O5 0.500000 0.500000 0.263416
O O6 0.423022 0.388218 0.264058
O O7 0.450606 0.491590 0.000000
O O8 0.676634 0.470388 0.500000
O O9 0.682819 0.373699 0.207574
O O10 0.739126 0.517133 0.293415
O O11 0.659210 0.586070 0.231196
O O12 0.706851 0.167654 0.296554
O O13 0.675905 0.209609 0.000000
O O14 0.371409 0.075749 0.500000
O O15 0.374139 0.204988 0.232163
O O16 0.325889 0.022841 0.238521
O O17 0.412946 0.010438 0.231372
O O18 0.776248 0.502851 0.000000
O O19 0.000000 0.500000 0.728471
O O20 0.955788 0.540095 0.000000
O O21 0.871067 0.177967 0.000000
#
# Coordination Sequence:
#
# PCOD9444386 Si02
#       8
#     8   8   8   8   8   8   8   8
#     4  10  21  38  60  85 117 155 197 248 300 352
#     4  10  22  40  60  86 120 156 196 245 300 354
#     4  11  24  40  61  91 122 156 203 250 299 362
#     4  11  22  40  64  87 119 159 203 253 303 356
#     4   9  20  39  58  83 120 156 191 238 298 353
#     4  11  23  40  64  90 121 160 199 248 308 363
#     4  10  21  37  60  88 118 155 199 246 295 355
#     4  10  22  40  61  85 118 157 196 243 294 353
#
# _framework density 21.568335999999999
#
# number of rings (size 3 to 8) (size 9 to 14) (size 15 to 20)
#    0.000    1.750    2.500    1.125    3.500    2.000 
#    0.000    1.875    0.000    0.000    0.000    0.000 
#    0.000    0.000    0.000    0.000    0.000    0.000 
#
# Total GULP energy -357563.029867 kJ/mol
# GULP energy per Si atom -5586.922342 kJ/mol
# Density = 2.151925 g / cm^3
# Si number density = 21.568336 Si / 1000 Ang^3
#
#
#
# Elastic Constant Matrix: (Units=GPa)
#
#
# Indices 1 2 3 4 5 6 
#
# 1 91.5598 19.6217 -0.2897 0.0000 0.0000 0.0000
# 2 19.6217 109.7881 -1.4071 0.0000 0.0000 0.0000
# 3 -0.2897 -1.4071 29.6138 0.0000 0.0000 0.0000
# 4 0.0000 0.0000 0.0000 7.5821 0.0000 0.0000
# 5 0.0000 0.0000 0.0000 0.0000 13.2006 0.0000
# 6 0.0000 0.0000 0.0000 0.0000 0.0000 33.8397
#
#
#
# Elastic Compliance Matrix: (Units=1/GPa)
#
#
# Indices 1 2 3 4 5 6 
#
# 1 0.011357 -0.002030 0.000015 0.000000 0.000000 0.000000
# 2 -0.002030 0.009477 0.000430 0.000000 0.000000 0.000000
# 3 0.000015 0.000430 0.033789 0.000000 0.000000 0.000000
# 4 0.000000 0.000000 0.000000 0.131890 0.000000 0.000000
# 5 0.000000 0.000000 0.000000 0.000000 0.075754 0.000000
# 6 0.000000 0.000000 0.000000 0.000000 0.000000 0.029551
#
#
# Mechanical properties :
#
#
# Convention : Reuss Voigt Hill
#
# Bulk Modulus (GPa) = 19.43509 29.64571 24.54040
# Shear Modulus (GPa) = 16.01859 25.12692 20.57276
#
# Velocity S-wave (km/s) = 2.72819 3.41690 3.09178
# Velocity P-wave (km/s) = 4.35368 5.41681 4.91408
#
# Compressibility (1/GPa) = 0.05145333
#
# Stress axis : x y z
#
# Youngs Moduli (GPa) = 88.05285 105.52196 29.59571
#
# Poissons Ratio (x) = 0.21416 -0.00043
# Poissons Ratio (y) = 0.17871 -0.01274
# Poissons Ratio (z) = -0.00129 -0.04542
#
# Static dielectric constant tensor:
#      x y z
#    x 1.785410 0.000000 0.000000 
#    y 0.000000 1.757930 0.000000 
#    z 0.000000 0.000000 1.779220 
# 
# From -- ./inp_files/4650.got.cif
#   From: 2010.05.17/outbox.cif.g08.bks.cpg/sg58_3_cif.got.tgz:4650.got - 2010.06.03 14:20:14.
