data_PCOD9444253
_publ_section_title
;
Structure prediction by ZEFSAII (Michael W. Deem and Ramdas Pophale) SiO2 
 PCOD9444253
Probable space group: P N N M
;
_chemical_formula_sum "Si O2"
_cell_formula_units_Z 32
_cell_length_a 20.528191
_cell_length_b 5.215606
_cell_length_c 13.144935
_cell_angle_alpha 90.000000
_cell_angle_beta 90.000000
_cell_angle_gamma 90.000000
_cell_volume 1407.388179
_symmetry_space_group_name_H-M "P N N M"
_symmetry_group_IT_number 58
_symmetry_cell_setting 'orthorhombic'
loop_
_space_group_symop_operation_xyz
x,y,z
-x,-y,z
1/2+x,1/2-y,1/2-z
1/2-x,1/2+y,1/2-z
-x,-y,-z
x,y,-z
1/2-x,1/2+y,1/2+z
1/2+x,1/2-y,1/2+z
loop_
_atom_site_type_symbol
_atom_site_label
_atom_site_fract_x
_atom_site_fract_y
_atom_site_fract_z
Si Si1 0.388274 0.050441 0.386583
Si Si2 0.843064 0.057738 0.721233
Si Si3 0.540671 0.240939 0.771030
Si Si4 0.737395 0.308803 0.609821
O O1 0.403701 0.143591 0.500000
O O2 0.439679 0.842302 0.344205
O O3 0.317773 0.912944 0.390597
O O4 0.384232 0.262784 0.298314
O O5 0.809081 0.202100 0.629258
O O6 0.887984 0.820897 0.686884
O O7 0.783569 0.976821 0.794529
O O8 0.500000 0.500000 0.779709
O O9 0.500000 0.000000 0.814406
O O10 0.732407 0.441914 0.500000
#
# Coordination Sequence:
#
# PCOD9444253 Si02
#       4
#     8   8   8   8
#     4  10  21  37  60  91 125 163 203 256 315 377
#     4  11  20  38  63  89 130 161 206 260 316 372
#     4  11  23  41  59  87 122 173 213 253 306 371
#     4  10  21  36  60  94 126 162 206 257 321 380
#
# _framework density 22.737151000000001
#
# number of rings (size 3 to 8) (size 9 to 14) (size 15 to 20)
#    0.000    1.500    5.000    0.750    0.000    2.000 
#    0.000    0.000    0.000    1.500    0.000    0.000 
#    0.000    0.000    0.000    0.000    0.000    0.000 
#
# Total GULP energy -178467.225150 kJ/mol
# GULP energy per Si atom -5577.100786 kJ/mol
# Density = 2.268540 g / cm^3
# Si number density = 22.737151 Si / 1000 Ang^3
#
#
#
# Elastic Constant Matrix: (Units=GPa)
#
#
# Indices 1 2 3 4 5 6 
#
# 1 48.1767 19.1178 -0.4280 0.0000 0.0000 0.0000
# 2 19.1178 89.8228 3.6091 0.0000 0.0000 0.0000
# 3 -0.4280 3.6091 18.1357 0.0000 0.0000 0.0000
# 4 0.0000 0.0000 0.0000 11.4740 0.0000 0.0000
# 5 0.0000 0.0000 0.0000 0.0000 -0.9940 0.0000
# 6 0.0000 0.0000 0.0000 0.0000 0.0000 28.5600
#
#
#
# Elastic Compliance Matrix: (Units=1/GPa)
#
#
# Indices 1 2 3 4 5 6 
#
# 1 0.022713 -0.004895 0.001510 0.000000 0.000000 0.000000
# 2 -0.004895 0.012278 -0.002559 0.000000 0.000000 0.000000
# 3 0.001510 -0.002559 0.055685 0.000000 0.000000 0.000000
# 4 0.000000 0.000000 0.000000 0.087154 0.000000 0.000000
# 5 0.000000 0.000000 0.000000 0.000000 -1.005996 0.000000
# 6 0.000000 0.000000 0.000000 0.000000 0.000000 0.035014
#
#
# Mechanical properties :
#
#
# Convention : Reuss Voigt Hill
#
# Bulk Modulus (GPa) = 12.69231 22.30369 17.49800
# Shear Modulus (GPa) = -6.62249 16.73040 5.05395
#
# Velocity S-wave (km/s) = -1.70849 2.71554 1.49251
# Velocity P-wave (km/s) = 1.30475 4.43428 3.26843
#
# Compressibility (1/GPa) = 0.07878784
#
# Stress axis : x y z
#
# Youngs Moduli (GPa) = 44.02818 81.44873 17.95827
#
# Poissons Ratio (x) = 0.39868 -0.02712
# Poissons Ratio (y) = 0.21551 0.04595
# Poissons Ratio (z) = -0.06649 0.20841
#
# Static dielectric constant tensor:
#      x y z
#    x 1.918630 0.000000 0.000000 
#    y 0.000000 1.939220 0.000000 
#    z 0.000000 0.000000 1.772660 
# 
# From -- ./inp_files/11523.got.cif
#   From: 2010.05.17/outbox.cif.g08.bks.cpg/sg58_6_cif.got.tgz:11523.got - 2010.06.03 14:20:14.
