data_PCOD9444169
_publ_section_title
;
Structure prediction by ZEFSAII (Michael W. Deem and Ramdas Pophale) SiO2 
 PCOD9444169
Probable space group: P N N M
;
_chemical_formula_sum "Si O2"
_cell_formula_units_Z 64
_cell_length_a 19.107347
_cell_length_b 17.331033
_cell_length_c 9.775969
_cell_angle_alpha 90.000000
_cell_angle_beta 90.000000
_cell_angle_gamma 90.000000
_cell_volume 3237.312735
_symmetry_space_group_name_H-M "P N N M"
_symmetry_group_IT_number 58
_symmetry_cell_setting 'orthorhombic'
loop_
_space_group_symop_operation_xyz
x,y,z
-x,-y,z
1/2+x,1/2-y,1/2-z
1/2-x,1/2+y,1/2-z
-x,-y,-z
x,y,-z
1/2-x,1/2+y,1/2+z
1/2+x,1/2-y,1/2+z
loop_
_atom_site_type_symbol
_atom_site_label
_atom_site_fract_x
_atom_site_fract_y
_atom_site_fract_z
Si Si1 0.719753 0.924411 0.847853
Si Si2 0.293948 0.725123 0.666433
Si Si3 0.385067 0.991770 0.345888
Si Si4 0.956638 0.231788 0.341069
Si Si5 0.500475 0.127699 0.344279
Si Si6 0.812009 0.152702 0.341542
Si Si7 0.938171 0.860819 0.835064
Si Si8 0.135335 0.984420 0.847828
O O1 0.739808 0.841445 0.786133
O O2 0.672299 0.979131 0.757756
O O3 0.794395 0.965107 0.861785
O O4 0.688878 0.913884 0.000000
O O5 0.291787 0.723887 0.500000
O O6 0.260260 0.807010 0.707605
O O7 0.372095 0.696000 0.701660
O O8 0.356961 0.984349 0.500000
O O9 0.443635 0.059187 0.347418
O O10 0.425667 0.912991 0.312070
O O11 0.978344 0.230683 0.500000
O O12 0.873826 0.216253 0.337833
O O13 0.977274 0.310362 0.265515
O O14 0.996444 0.166877 0.252722
O O15 0.504627 0.159846 0.500000
O O16 0.803053 0.128950 0.500000
O O17 0.842654 0.083270 0.252892
O O18 0.919778 0.950047 0.803680
O O19 0.947622 0.855543 0.000000
O O20 0.115706 0.955199 0.000000
#
# Coordination Sequence:
#
# PCOD9444169 Si02
#       8
#     8   8   8   8   8   8   8   8
#     4   9  17  32  54  77 103 133 168 214 263 310
#     4   8  16  34  57  77 100 137 179 211 253 316
#     4   9  18  32  51  76 105 138 175 212 253 308
#     4  11  23  36  53  80 109 137 175 223 272 317
#     4   9  19  35  51  71 104 142 177 211 251 309
#     4  10  21  36  55  79 107 138 172 216 266 313
#     4   9  19  38  60  77 101 141 181 216 258 312
#     4   9  20  37  55  77 103 135 177 219 261 312
#
# _framework density 19.769483000000001
#
# number of rings (size 3 to 8) (size 9 to 14) (size 15 to 20)
#    0.000    2.750    0.000    3.375    0.000    5.500 
#    0.000   10.625    0.000    0.000    0.000    0.000 
#    0.000    0.000    0.000    0.000    0.000    0.000 
#
# Total GULP energy -356841.910069 kJ/mol
# GULP energy per Si atom -5575.654845 kJ/mol
# Density = 1.972449 g / cm^3
# Si number density = 19.769483 Si / 1000 Ang^3
#
#
#
# Elastic Constant Matrix: (Units=GPa)
#
#
# Indices 1 2 3 4 5 6 
#
# 1 48.4979 1.7384 7.7710 0.0000 0.0000 0.0000
# 2 1.7384 62.6122 21.4465 0.0000 0.0000 0.0000
# 3 7.7710 21.4465 40.2911 0.0000 0.0000 0.0000
# 4 0.0000 0.0000 0.0000 37.0540 0.0000 0.0000
# 5 0.0000 0.0000 0.0000 0.0000 26.9018 0.0000
# 6 0.0000 0.0000 0.0000 0.0000 0.0000 28.0310
#
#
#
# Elastic Compliance Matrix: (Units=1/GPa)
#
#
# Indices 1 2 3 4 5 6 
#
# 1 0.021328 0.000999 -0.004645 0.000000 0.000000 0.000000
# 2 0.000999 0.019579 -0.010615 0.000000 0.000000 0.000000
# 3 -0.004645 -0.010615 0.031365 0.000000 0.000000 0.000000
# 4 0.000000 0.000000 0.000000 0.026988 0.000000 0.000000
# 5 0.000000 0.000000 0.000000 0.000000 0.037172 0.000000
# 6 0.000000 0.000000 0.000000 0.000000 0.000000 0.035675
#
#
# Mechanical properties :
#
#
# Convention : Reuss Voigt Hill
#
# Bulk Modulus (GPa) = 22.85666 23.70144 23.27905
# Shear Modulus (GPa) = 23.23285 26.42707 24.82996
#
# Velocity S-wave (km/s) = 3.43182 3.66014 3.54782
# Velocity P-wave (km/s) = 5.22397 5.46600 5.34635
#
# Compressibility (1/GPa) = 0.04375093
#
# Stress axis : x y z
#
# Youngs Moduli (GPa) = 46.88682 51.07416 31.88239
#
# Poissons Ratio (x) = -0.05102 0.14810
# Poissons Ratio (y) = -0.04684 0.33842
# Poissons Ratio (z) = 0.21780 0.54213
#
# Static dielectric constant tensor:
#      x y z
#    x 1.721570 0.000000 0.000000 
#    y 0.000000 1.747860 0.000000 
#    z 0.000000 0.000000 1.671030 
# 
# From -- ./inp_files/9241.got.cif
#   From: 2010.05.17/outbox.cif.g08.bks.cpg/sg58_5_cif.got.tgz:9241.got - 2010.06.03 14:20:14.
