data_PCOD9444894
_publ_section_title
;
Structure prediction by ZEFSAII (Michael W. Deem and Ramdas Pophale) SiO2 
 PCOD9444894
Probable space group: P N N M
;
_chemical_formula_sum "Si O2"
_cell_formula_units_Z 32
_cell_length_a 11.985691
_cell_length_b 8.917724
_cell_length_c 17.054664
_cell_angle_alpha 90.000000
_cell_angle_beta 90.000000
_cell_angle_gamma 90.000000
_cell_volume 1822.889199
_symmetry_space_group_name_H-M "P N N M"
_symmetry_group_IT_number 58
_symmetry_cell_setting 'orthorhombic'
loop_
_space_group_symop_operation_xyz
x,y,z
-x,-y,z
1/2+x,1/2-y,1/2-z
1/2-x,1/2+y,1/2-z
-x,-y,-z
x,y,-z
1/2-x,1/2+y,1/2+z
1/2+x,1/2-y,1/2+z
loop_
_atom_site_type_symbol
_atom_site_label
_atom_site_fract_x
_atom_site_fract_y
_atom_site_fract_z
Si Si1 0.377977 0.951642 0.410566
Si Si2 0.298444 0.328820 0.196237
Si Si3 0.488102 0.179000 0.908660
Si Si4 0.294022 0.659203 0.156895
O O1 0.385812 0.899202 0.500000
O O2 0.316623 0.834353 0.354101
O O3 0.500000 0.000000 0.382707
O O4 0.295719 0.094977 0.404852
O O5 0.390528 0.238298 0.147765
O O6 0.333288 0.504089 0.198817
O O7 0.269751 0.259789 0.279722
O O8 0.603143 0.256618 0.882133
O O9 0.500000 0.000000 0.901988
O O10 0.464307 0.216626 0.000000
#
# Coordination Sequence:
#
# PCOD9444894 Si02
#       4
#     8   8   8   8
#     4   9  20  37  59  83 117 157 197 241 296 366
#     4  10  22  35  60  87 121 155 198 250 302 363
#     4  11  23  39  61  87 123 162 207 256 306 362
#     4  10  22  35  60  87 121 155 198 250 302 363
#
# _framework density 17.554551
#
# number of rings (size 3 to 8) (size 9 to 14) (size 15 to 20)
#    1.500    0.500    0.000    3.750    3.500    1.000 
#    0.000    0.000    0.000    0.000    0.000   10.500 
#    0.000    0.000    0.000    0.000    0.000    0.000 
#
# Total GULP energy -178181.561209 kJ/mol
# GULP energy per Si atom -5568.173788 kJ/mol
# Density = 1.751460 g / cm^3
# Si number density = 17.554551 Si / 1000 Ang^3
#
#
#
# Elastic Constant Matrix: (Units=GPa)
#
#
# Indices 1 2 3 4 5 6 
#
# 1 77.4150 -4.1395 -1.3717 0.0000 0.0000 0.0000
# 2 -4.1395 57.2138 2.4273 0.0000 0.0000 0.0000
# 3 -1.3717 2.4273 37.0904 0.0000 0.0000 0.0000
# 4 0.0000 0.0000 0.0000 5.6442 0.0000 0.0000
# 5 0.0000 0.0000 0.0000 0.0000 35.7250 0.0000
# 6 0.0000 0.0000 0.0000 0.0000 0.0000 30.1184
#
#
#
# Elastic Compliance Matrix: (Units=1/GPa)
#
#
# Indices 1 2 3 4 5 6 
#
# 1 0.012974 0.000921 0.000420 0.000000 0.000000 0.000000
# 2 0.000921 0.017592 -0.001117 0.000000 0.000000 0.000000
# 3 0.000420 -0.001117 0.027050 0.000000 0.000000 0.000000
# 4 0.000000 0.000000 0.000000 0.177173 0.000000 0.000000
# 5 0.000000 0.000000 0.000000 0.000000 0.027992 0.000000
# 6 0.000000 0.000000 0.000000 0.000000 0.000000 0.033202
#
#
# Mechanical properties :
#
#
# Convention : Reuss Voigt Hill
#
# Bulk Modulus (GPa) = 17.22282 18.39463 17.80872
# Shear Modulus (GPa) = 15.87850 25.95106 20.91478
#
# Velocity S-wave (km/s) = 3.01079 3.84905 3.45543
# Velocity P-wave (km/s) = 4.68175 5.50044 5.10753
#
# Compressibility (1/GPa) = 0.05806252
#
# Stress axis : x y z
#
# Youngs Moduli (GPa) = 77.07683 56.84301 36.96888
#
# Poissons Ratio (x) = -0.05235 -0.01551
# Poissons Ratio (y) = -0.07098 0.04130
# Poissons Ratio (z) = -0.03234 0.06351
#
# Static dielectric constant tensor:
#      x y z
#    x 1.585240 0.000000 0.000000 
#    y 0.000000 1.593250 0.000000 
#    z 0.000000 0.000000 1.574900 
# 
# From -- ./inp_files/12645.got.cif
#   From: 2010.05.17/outbox.cif.g08.bks.cpg/sg58_7_cif.got.tgz:12645.got - 2010.06.03 14:20:14.
