data_PCOD9444406
_publ_section_title
;
Structure prediction by ZEFSAII (Michael W. Deem and Ramdas Pophale) SiO2 
 PCOD9444406
Probable space group: P N N M
;
_chemical_formula_sum "Si O2"
_cell_formula_units_Z 44
_cell_length_a 7.666144
_cell_length_b 27.577660
_cell_length_c 10.057594
_cell_angle_alpha 90.000000
_cell_angle_beta 90.000000
_cell_angle_gamma 90.000000
_cell_volume 2126.319323
_symmetry_space_group_name_H-M "P N N M"
_symmetry_group_IT_number 58
_symmetry_cell_setting 'orthorhombic'
loop_
_space_group_symop_operation_xyz
x,y,z
-x,-y,z
1/2+x,1/2-y,1/2-z
1/2-x,1/2+y,1/2-z
-x,-y,-z
x,y,-z
1/2-x,1/2+y,1/2+z
1/2+x,1/2-y,1/2+z
loop_
_atom_site_type_symbol
_atom_site_label
_atom_site_fract_x
_atom_site_fract_y
_atom_site_fract_z
Si Si1 0.627898 0.718356 0.152910
Si Si2 0.500000 0.000000 0.754245
Si Si3 0.473679 0.620436 0.150059
Si Si4 0.391123 0.898485 0.647932
Si Si5 0.569747 0.183358 0.155123
Si Si6 0.642144 0.459408 0.348002
O O1 0.473362 0.678565 0.170284
O O2 0.570017 0.773663 0.161538
O O3 0.765942 0.705395 0.265429
O O4 0.691922 0.710177 0.000000
O O5 0.557986 0.046138 0.668822
O O6 0.332324 0.016969 0.837008
O O7 0.680674 0.607010 0.158957
O O8 0.375619 0.587149 0.254374
O O9 0.414643 0.609657 0.000000
O O10 0.442705 0.882379 0.500000
O O11 0.473134 0.864907 0.762326
O O12 0.605907 0.172838 0.000000
O O13 0.500000 0.500000 0.306316
O O14 0.603381 0.445936 0.500000
#
# Coordination Sequence:
#
# PCOD9444406 Si02
#       6
#     8   4   8   8   8   8
#     4   9  20  39  60  88 124 162 204 250 304 367
#     4  12  24  42  64  92 122 166 214 260 308 380
#     4   9  19  39  63  86 118 161 206 255 306 371
#     4  10  22  40  62  89 121 159 208 259 312 372
#     4  10  21  37  61  90 123 161 203 254 310 365
#     4  11  24  41  61  89 125 163 203 256 313 367
#
# _framework density 20.693035999999999
#
# number of rings (size 3 to 8) (size 9 to 14) (size 15 to 20)
#    0.000    2.000    1.818    2.182    0.000    9.091 
#    0.000    3.636    0.000    0.000    0.000    0.000 
#    0.000    0.000    0.000    0.000    0.000    0.000 
#
# Total GULP energy -245675.932781 kJ/mol
# GULP energy per Si atom -5583.543927 kJ/mol
# Density = 2.064594 g / cm^3
# Si number density = 20.693036 Si / 1000 Ang^3
#
#
#
# Elastic Constant Matrix: (Units=GPa)
#
#
# Indices 1 2 3 4 5 6 
#
# 1 51.2738 19.1797 17.4779 0.0000 0.0000 0.0000
# 2 19.1797 130.6541 68.9283 0.0000 0.0000 0.0000
# 3 17.4779 68.9283 134.9346 0.0000 0.0000 0.0000
# 4 0.0000 0.0000 0.0000 56.3234 0.0000 0.0000
# 5 0.0000 0.0000 0.0000 0.0000 -41.7496 0.0000
# 6 0.0000 0.0000 0.0000 0.0000 0.0000 32.1388
#
#
#
# Elastic Compliance Matrix: (Units=1/GPa)
#
#
# Indices 1 2 3 4 5 6 
#
# 1 0.020873 -0.002242 -0.001558 0.000000 0.000000 0.000000
# 2 -0.002242 0.010718 -0.005185 0.000000 0.000000 0.000000
# 3 -0.001558 -0.005185 0.010261 0.000000 0.000000 0.000000
# 4 0.000000 0.000000 0.000000 0.017755 0.000000 0.000000
# 5 0.000000 0.000000 0.000000 0.000000 -0.023952 0.000000
# 6 0.000000 0.000000 0.000000 0.000000 0.000000 0.031115
#
#
# Mechanical properties :
#
#
# Convention : Reuss Voigt Hill
#
# Bulk Modulus (GPa) = 41.87190 58.67048 50.27119
# Shear Modulus (GPa) = 53.93691 23.42763 38.68227
#
# Velocity S-wave (km/s) = 5.11095 3.36839 4.32827
# Velocity P-wave (km/s) = 7.42346 6.59867 7.02318
#
# Compressibility (1/GPa) = 0.02388236
#
# Stress axis : x y z
#
# Youngs Moduli (GPa) = 47.90876 93.29929 97.45282
#
# Poissons Ratio (x) = 0.20917 0.15187
# Poissons Ratio (y) = 0.10741 0.50527
# Poissons Ratio (z) = 0.07466 0.48373
#
# Static dielectric constant tensor:
#      x y z
#    x 1.763100 0.000000 0.000000 
#    y 0.000000 1.747540 0.000000 
#    z 0.000000 0.000000 1.715420 
# 
# From -- ./inp_files/2816.got.cif
#   From: 2010.05.17/outbox.cif.g08.bks.cpg/sg58_2_cif.got.tgz:2816.got - 2010.06.03 14:20:14.
