data_PCOD9444455
_publ_section_title
;
Structure prediction by ZEFSAII (Michael W. Deem and Ramdas Pophale) SiO2 
 PCOD9444455
Probable space group: P N N M
;
_chemical_formula_sum "Si O2"
_cell_formula_units_Z 64
_cell_length_a 9.551508
_cell_length_b 14.632564
_cell_length_c 23.658174
_cell_angle_alpha 90.000000
_cell_angle_beta 90.000000
_cell_angle_gamma 90.000000
_cell_volume 3306.538606
_symmetry_space_group_name_H-M "P N N M"
_symmetry_group_IT_number 58
_symmetry_cell_setting 'orthorhombic'
loop_
_space_group_symop_operation_xyz
x,y,z
-x,-y,z
1/2+x,1/2-y,1/2-z
1/2-x,1/2+y,1/2-z
-x,-y,-z
x,y,-z
1/2-x,1/2+y,1/2+z
1/2+x,1/2-y,1/2+z
loop_
_atom_site_type_symbol
_atom_site_label
_atom_site_fract_x
_atom_site_fract_y
_atom_site_fract_z
Si Si1 0.209690 0.246807 0.066262
Si Si2 0.578301 0.326856 0.249418
Si Si3 0.363375 0.953349 0.153598
Si Si4 0.460635 0.802212 0.934089
Si Si5 0.613563 0.423116 0.366069
Si Si6 0.382008 0.621462 0.877431
Si Si7 0.787835 0.069321 0.378466
Si Si8 0.244492 0.851029 0.739824
O O1 0.373774 0.218647 0.073842
O O2 0.117178 0.172433 0.099995
O O3 0.205315 0.351467 0.088353
O O4 0.177397 0.243088 0.000000
O O5 0.595702 0.399031 0.299787
O O6 0.640023 0.358276 0.189139
O O7 0.651796 0.233546 0.267502
O O8 0.413310 0.313299 0.240239
O O9 0.415350 0.884788 0.105580
O O10 0.278921 0.899686 0.201516
O O11 0.500000 0.000000 0.180089
O O12 0.263374 0.029328 0.127336
O O13 0.373721 0.713504 0.913490
O O14 0.437126 0.820338 0.000000
O O15 0.500000 0.500000 0.382660
O O16 0.546223 0.593425 0.882450
O O17 0.285326 0.536722 0.895943
O O18 0.746621 0.080740 0.312934
#
# Coordination Sequence:
#
# PCOD9444455 Si02
#       8
#     8   8   8   8   8   8   8   8
#     4  10  21  38  59  84 118 160 208 258 304 360
#     4  11  22  37  62  89 128 157 196 249 311 371
#     4  12  24  38  60  89 122 162 206 246 306 368
#     4  10  21  38  58  86 119 159 209 257 301 359
#     4  12  24  40  60  88 124 160 202 253 308 369
#     4   9  18  33  57  85 118 154 192 245 308 364
#     4   9  18  34  56  86 117 153 194 246 306 364
#     4  11  22  38  61  92 124 161 197 251 309 371
#
# _framework density 19.355588000000001
#
# number of rings (size 3 to 8) (size 9 to 14) (size 15 to 20)
#    0.000    1.500    5.000    0.750    3.500    1.500 
#    0.000    2.500    0.000    0.000    0.000    0.000 
#    0.000    4.500    0.000    0.000    0.000    0.000 
#
# Total GULP energy -357184.626500 kJ/mol
# GULP energy per Si atom -5581.009789 kJ/mol
# Density = 1.931153 g / cm^3
# Si number density = 19.355588 Si / 1000 Ang^3
#
#
#
# Elastic Constant Matrix: (Units=GPa)
#
#
# Indices 1 2 3 4 5 6 
#
# 1 32.2770 18.0760 1.2029 0.0000 0.0000 0.0000
# 2 18.0760 80.9732 15.8829 0.0000 0.0000 0.0000
# 3 1.2029 15.8829 71.4720 0.0000 0.0000 0.0000
# 4 0.0000 0.0000 0.0000 2.8022 0.0000 0.0000
# 5 0.0000 0.0000 0.0000 0.0000 17.7033 0.0000
# 6 0.0000 0.0000 0.0000 0.0000 0.0000 34.2418
#
#
#
# Elastic Compliance Matrix: (Units=1/GPa)
#
#
# Indices 1 2 3 4 5 6 
#
# 1 0.035509 -0.008166 0.001217 0.000000 0.000000 0.000000
# 2 -0.008166 0.014790 -0.003149 0.000000 0.000000 0.000000
# 3 0.001217 -0.003149 0.014671 0.000000 0.000000 0.000000
# 4 0.000000 0.000000 0.000000 0.356864 0.000000 0.000000
# 5 0.000000 0.000000 0.000000 0.000000 0.056487 0.000000
# 6 0.000000 0.000000 0.000000 0.000000 0.000000 0.029204
#
#
# Mechanical properties :
#
#
# Convention : Reuss Voigt Hill
#
# Bulk Modulus (GPa) = 22.33405 28.33840 25.33622
# Shear Modulus (GPa) = 9.21411 20.92017 15.06714
#
# Velocity S-wave (km/s) = 2.18421 3.29117 2.79308
# Velocity P-wave (km/s) = 4.23378 5.39584 4.84974
#
# Compressibility (1/GPa) = 0.04477469
#
# Stress axis : x y z
#
# Youngs Moduli (GPa) = 28.16149 67.61158 68.16222
#
# Poissons Ratio (x) = 0.55209 -0.08295
# Poissons Ratio (y) = 0.22996 0.21467
# Poissons Ratio (z) = -0.03427 0.21293
#
# Static dielectric constant tensor:
#      x y z
#    x 1.672330 0.000000 0.000000 
#    y 0.000000 1.698990 0.000000 
#    z 0.000000 0.000000 1.664380 
# 
# From -- ./inp_files/31622.got.cif
#   From: 2010.05.17/outbox.cif.g08.bks.cpg/sg58_16_cif.got.tgz:31622.got - 2010.06.03 14:20:14.
