data_PCOD9444111
_publ_section_title
;
Structure prediction by ZEFSAII (Michael W. Deem and Ramdas Pophale) SiO2 
 PCOD9444111
Probable space group: P N N M
;
_chemical_formula_sum "Si O2"
_cell_formula_units_Z 56
_cell_length_a 14.240300
_cell_length_b 5.189688
_cell_length_c 36.439513
_cell_angle_alpha 90.000000
_cell_angle_beta 90.000000
_cell_angle_gamma 90.000000
_cell_volume 2692.978909
_symmetry_space_group_name_H-M "P N N M"
_symmetry_group_IT_number 58
_symmetry_cell_setting 'orthorhombic'
loop_
_space_group_symop_operation_xyz
x,y,z
-x,-y,z
1/2+x,1/2-y,1/2-z
1/2-x,1/2+y,1/2-z
-x,-y,-z
x,y,-z
1/2-x,1/2+y,1/2+z
1/2+x,1/2-y,1/2+z
loop_
_atom_site_type_symbol
_atom_site_label
_atom_site_fract_x
_atom_site_fract_y
_atom_site_fract_z
Si Si1 0.438524 0.757608 0.403107
Si Si2 0.894087 0.973235 0.379170
Si Si3 0.153475 0.121443 0.459627
Si Si4 0.279397 0.621975 0.459737
Si Si5 0.114366 0.525049 0.659489
Si Si6 0.249343 0.635884 0.725707
Si Si7 0.437659 0.758563 0.318037
O O1 0.500000 0.500000 0.403998
O O2 0.349717 0.703406 0.428218
O O3 0.413180 0.809311 0.360770
O O4 0.500000 0.000000 0.416371
O O5 0.856423 0.257017 0.370438
O O6 0.900617 0.879543 0.421203
O O7 0.847690 0.748547 0.355321
O O8 0.000000 0.000000 0.365448
O O9 0.107688 0.167076 0.500000
O O10 0.232645 0.342022 0.455604
O O11 0.198996 0.838897 0.460591
O O12 0.326570 0.627209 0.500000
O O13 0.162997 0.599009 0.697539
O O14 0.000000 0.500000 0.662287
O O15 0.269075 0.365408 0.745725
O O16 0.342278 0.719148 0.703792
O O17 0.500000 0.500000 0.315996
O O18 0.500000 0.000000 0.304863
#
# Coordination Sequence:
#
# PCOD9444111 Si02
#       7
#     8   8   8   8   8   8   8
#     4  10  21  37  57  85 115 157 205 246 302 359
#     4  10  21  38  62  89 119 160 205 248 306 363
#     4  10  21  35  55  86 122 160 202 250 305 356
#     4  10  21  36  54  85 120 157 203 252 305 356
#     4  10  23  43  64  95 127 158 205 260 309 368
#     4  12  26  43  67  99 124 164 213 245 319 397
#     4  10  23  42  62  91 129 162 206 259 306 364
#
# _framework density 20.794815
#
# number of rings (size 3 to 8) (size 9 to 14) (size 15 to 20)
#    0.000    1.714    0.000    3.429    4.000    2.571 
#    0.000    0.000    0.000    5.143    0.000    0.000 
#    0.000    0.000    0.000    0.000    0.000    0.000 
#
# Total GULP energy -312568.624249 kJ/mol
# GULP energy per Si atom -5581.582576 kJ/mol
# Density = 2.074749 g / cm^3
# Si number density = 20.794815 Si / 1000 Ang^3
#
#
#
# Elastic Constant Matrix: (Units=GPa)
#
#
# Indices 1 2 3 4 5 6 
#
# 1 43.0687 18.9164 17.5996 0.0000 0.0000 0.0000
# 2 18.9164 103.9934 48.6638 0.0000 0.0000 0.0000
# 3 17.5996 48.6638 57.7589 0.0000 0.0000 0.0000
# 4 0.0000 0.0000 0.0000 43.6784 0.0000 0.0000
# 5 0.0000 0.0000 0.0000 0.0000 100.6345 0.0000
# 6 0.0000 0.0000 0.0000 0.0000 0.0000 13.0524
#
#
#
# Elastic Compliance Matrix: (Units=1/GPa)
#
#
# Indices 1 2 3 4 5 6 
#
# 1 0.026709 -0.001733 -0.006678 0.000000 0.000000 0.000000
# 2 -0.001733 0.015987 -0.012942 0.000000 0.000000 0.000000
# 3 -0.006678 -0.012942 0.030252 0.000000 0.000000 0.000000
# 4 0.000000 0.000000 0.000000 0.022895 0.000000 0.000000
# 5 0.000000 0.000000 0.000000 0.000000 0.009937 0.000000
# 6 0.000000 0.000000 0.000000 0.000000 0.000000 0.076615
#
#
# Mechanical properties :
#
#
# Convention : Reuss Voigt Hill
#
# Bulk Modulus (GPa) = 33.06643 41.68674 37.37659
# Shear Modulus (GPa) = 21.26018 39.44912 30.35465
#
# Velocity S-wave (km/s) = 3.20093 4.36026 3.82478
# Velocity P-wave (km/s) = 5.44032 6.74087 6.12521
#
# Compressibility (1/GPa) = 0.03024215
#
# Stress axis : x y z
#
# Youngs Moduli (GPa) = 37.44068 62.54921 33.05559
#
# Poissons Ratio (x) = 0.10842 0.22074
# Poissons Ratio (y) = 0.06490 0.42780
# Poissons Ratio (z) = 0.25003 0.80950
#
# Static dielectric constant tensor:
#      x y z
#    x 1.719270 0.000000 0.000000 
#    y 0.000000 1.758020 0.000000 
#    z 0.000000 0.000000 1.798410 
# 
# From -- ./inp_files/34190.got.cif
#   From: 2010.05.17/outbox.cif.g08.bks.cpg/sg58_18_cif.got.tgz:34190.got - 2010.06.03 14:20:14.
