data_PCOD9444979
_publ_section_title
;
Structure prediction by ZEFSAII (Michael W. Deem and Ramdas Pophale) SiO2 
 PCOD9444979
Probable space group: P N N M
;
_chemical_formula_sum "Si O2"
_cell_formula_units_Z 64
_cell_length_a 11.616953
_cell_length_b 10.718270
_cell_length_c 27.603428
_cell_angle_alpha 90.000000
_cell_angle_beta 90.000000
_cell_angle_gamma 90.000000
_cell_volume 3437.003264
_symmetry_space_group_name_H-M "P N N M"
_symmetry_group_IT_number 58
_symmetry_cell_setting 'orthorhombic'
loop_
_space_group_symop_operation_xyz
x,y,z
-x,-y,z
1/2+x,1/2-y,1/2-z
1/2-x,1/2+y,1/2-z
-x,-y,-z
x,y,-z
1/2-x,1/2+y,1/2+z
1/2+x,1/2-y,1/2+z
loop_
_atom_site_type_symbol
_atom_site_label
_atom_site_fract_x
_atom_site_fract_y
_atom_site_fract_z
Si Si1 0.138059 0.499982 0.643693
Si Si2 0.582041 0.880480 0.636952
Si Si3 0.516645 0.361281 0.689493
Si Si4 0.272300 0.201603 0.790348
Si Si5 0.690198 0.460463 0.441707
Si Si6 0.467330 0.365986 0.803874
Si Si7 0.709251 0.266044 0.822585
Si Si8 0.031076 0.797397 0.056723
O O1 0.152742 0.583842 0.692381
O O2 0.203658 0.550593 0.595553
O O3 0.210735 0.373726 0.656204
O O4 0.000000 0.500000 0.634564
O O5 0.546132 0.755393 0.666266
O O6 0.718611 0.873754 0.649229
O O7 0.559126 0.831286 0.583152
O O8 0.500000 0.000000 0.648257
O O9 0.500000 0.500000 0.668727
O O10 0.649216 0.326166 0.687910
O O11 0.477799 0.367983 0.745439
O O12 0.340032 0.317713 0.813018
O O13 0.251175 0.221445 0.733272
O O14 0.717158 0.450915 0.500000
O O15 0.626543 0.594541 0.434781
O O16 0.592515 0.357233 0.429612
O O17 0.500000 0.500000 0.822910
O O18 0.571593 0.283381 0.822312
O O19 0.027313 0.777237 0.000000
#
# Coordination Sequence:
#
# PCOD9444979 Si02
#       8
#     8   8   8   8   8   8   8   8
#     4  12  23  39  61  88 123 161 206 252 311 368
#     4  12  24  35  58  92 121 154 194 249 312 365
#     4  10  22  39  58  80 111 159 207 253 299 350
#     4  11  23  37  57  80 115 163 206 247 291 361
#     4   9  19  38  66  93 116 151 201 257 312 369
#     4  10  22  39  55  76 109 166 209 241 297 346
#     4  11  24  39  54  81 125 157 204 257 295 364
#     4   9  19  38  63  89 119 151 192 246 309 378
#
# _framework density 18.620871999999999
#
# number of rings (size 3 to 8) (size 9 to 14) (size 15 to 20)
#    0.000    1.500    3.750    2.250    7.000    2.000 
#    0.000    0.000    0.000    0.000    0.000    0.000 
#    0.000    3.500    0.000    0.000    0.000    0.000 
#
# Total GULP energy -356340.510265 kJ/mol
# GULP energy per Si atom -5567.820473 kJ/mol
# Density = 1.857849 g / cm^3
# Si number density = 18.620872 Si / 1000 Ang^3
#
#
#
# Elastic Constant Matrix: (Units=GPa)
#
#
# Indices 1 2 3 4 5 6 
#
# 1 112.2904 20.6887 32.9583 0.0000 0.0000 0.0000
# 2 20.6887 71.5285 20.3745 0.0000 0.0000 0.0000
# 3 32.9583 20.3745 71.3749 0.0000 0.0000 0.0000
# 4 0.0000 0.0000 0.0000 -97.3242 0.0000 0.0000
# 5 0.0000 0.0000 0.0000 0.0000 8.7981 0.0000
# 6 0.0000 0.0000 0.0000 0.0000 0.0000 31.3423
#
#
#
# Elastic Compliance Matrix: (Units=1/GPa)
#
#
# Indices 1 2 3 4 5 6 
#
# 1 0.010511 -0.001804 -0.004339 0.000000 0.000000 0.000000
# 2 -0.001804 0.015528 -0.003599 0.000000 0.000000 0.000000
# 3 -0.004339 -0.003599 0.017041 0.000000 0.000000 0.000000
# 4 0.000000 0.000000 0.000000 -0.010275 0.000000 0.000000
# 5 0.000000 0.000000 0.000000 0.000000 0.113660 0.000000
# 6 0.000000 0.000000 0.000000 0.000000 0.000000 0.031906
#
#
# Mechanical properties :
#
#
# Convention : Reuss Voigt Hill
#
# Bulk Modulus (GPa) = 42.38069 44.80408 43.59238
# Shear Modulus (GPa) = 24.30472 0.64140 12.47306
#
# Velocity S-wave (km/s) = 3.61673 0.58754 2.59094
# Velocity P-wave (km/s) = 6.34430 4.95719 5.69315
#
# Compressibility (1/GPa) = 0.02359565
#
# Stress axis : x y z
#
# Youngs Moduli (GPa) = 95.13501 64.40160 58.68069
#
# Poissons Ratio (x) = 0.11621 0.25460
# Poissons Ratio (y) = 0.17166 0.21121
# Poissons Ratio (z) = 0.41276 0.23180
#
# Static dielectric constant tensor:
#      x y z
#    x 1.313120 0.000000 0.000000 
#    y 0.000000 1.737190 0.000000 
#    z 0.000000 0.000000 1.667710 
# 
# From -- ./inp_files/34959.got.cif
#   From: 2010.05.17/outbox.cif.g08.bks.cpg/sg58_18_cif.got.tgz:34959.got - 2010.06.03 14:20:14.
