data_PCOD9444325
_publ_section_title
;
Structure prediction by ZEFSAII (Michael W. Deem and Ramdas Pophale) SiO2 
 PCOD9444325
Probable space group: P N N M
;
_chemical_formula_sum "Si O2"
_cell_formula_units_Z 44
_cell_length_a 16.363743
_cell_length_b 11.068148
_cell_length_c 13.785551
_cell_angle_alpha 90.000000
_cell_angle_beta 90.000000
_cell_angle_gamma 90.000000
_cell_volume 2496.788395
_symmetry_space_group_name_H-M "P N N M"
_symmetry_group_IT_number 58
_symmetry_cell_setting 'orthorhombic'
loop_
_space_group_symop_operation_xyz
x,y,z
-x,-y,z
1/2+x,1/2-y,1/2-z
1/2-x,1/2+y,1/2-z
-x,-y,-z
x,y,-z
1/2-x,1/2+y,1/2+z
1/2+x,1/2-y,1/2+z
loop_
_atom_site_type_symbol
_atom_site_label
_atom_site_fract_x
_atom_site_fract_y
_atom_site_fract_z
Si Si1 0.650785 0.513407 0.613256
Si Si2 0.888898 0.374769 0.612362
Si Si3 0.000000 0.000000 0.751180
Si Si4 0.550392 0.282566 0.887269
Si Si5 0.720237 0.242824 0.610745
Si Si6 0.818912 0.609302 0.697336
O O1 0.635840 0.538577 0.500000
O O2 0.573588 0.542615 0.679693
O O3 0.672236 0.370193 0.621849
O O4 0.731057 0.582827 0.649978
O O5 0.882865 0.419138 0.500000
O O6 0.815602 0.278413 0.624420
O O7 0.870628 0.487034 0.681534
O O8 0.975692 0.312008 0.625048
O O9 0.033040 0.105883 0.682643
O O10 0.633173 0.215336 0.857565
O O11 0.551947 0.318988 0.000000
O O12 0.709276 0.200818 0.500000
O O13 0.692508 0.149407 0.691869
#
# Coordination Sequence:
#
# PCOD9444325 Si02
#       6
#     8   8   4   8   8   8
#     4  10  21  37  58  82 109 150 196 232 274 338
#     4   9  19  35  58  83 110 147 189 236 284 338
#     4  12  22  38  58  86 118 158 184 240 290 338
#     4  11  22  36  56  88 119 148 188 236 291 344
#     4   9  18  35  56  80 112 148 188 232 285 339
#     4  11  19  35  61  84 112 147 193 238 283 337
#
# _framework density 17.622638999999999
#
# number of rings (size 3 to 8) (size 9 to 14) (size 15 to 20)
#    0.000    1.818    1.818    4.909    0.000    1.455 
#    0.000    0.909    0.000    4.364    0.000    0.000 
#    0.000    0.000    0.000    0.000    0.000    0.000 
#
# Total GULP energy -245704.078107 kJ/mol
# GULP energy per Si atom -5584.183593 kJ/mol
# Density = 1.758253 g / cm^3
# Si number density = 17.622639 Si / 1000 Ang^3
#
#
#
# Elastic Constant Matrix: (Units=GPa)
#
#
# Indices 1 2 3 4 5 6 
#
# 1 65.8807 23.0615 39.6356 0.0000 0.0000 0.0000
# 2 23.0615 63.6683 61.9638 0.0000 0.0000 0.0000
# 3 39.6356 61.9638 145.2216 0.0000 0.0000 0.0000
# 4 0.0000 0.0000 0.0000 37.9275 0.0000 0.0000
# 5 0.0000 0.0000 0.0000 0.0000 28.0218 0.0000
# 6 0.0000 0.0000 0.0000 0.0000 0.0000 18.1575
#
#
#
# Elastic Compliance Matrix: (Units=1/GPa)
#
#
# Indices 1 2 3 4 5 6 
#
# 1 0.018502 -0.003056 -0.003746 0.000000 0.000000 0.000000
# 2 -0.003056 0.027365 -0.010842 0.000000 0.000000 0.000000
# 3 -0.003746 -0.010842 0.012535 0.000000 0.000000 0.000000
# 4 0.000000 0.000000 0.000000 0.026366 0.000000 0.000000
# 5 0.000000 0.000000 0.000000 0.000000 0.035686 0.000000
# 6 0.000000 0.000000 0.000000 0.000000 0.000000 0.055074
#
#
# Mechanical properties :
#
#
# Convention : Reuss Voigt Hill
#
# Bulk Modulus (GPa) = 43.26439 58.23251 50.74845
# Shear Modulus (GPa) = 22.88102 26.82869 24.85485
#
# Velocity S-wave (km/s) = 3.60722 3.90603 3.75959
# Velocity P-wave (km/s) = 6.47713 7.31154 6.90695
#
# Compressibility (1/GPa) = 0.02311370
#
# Stress axis : x y z
#
# Youngs Moduli (GPa) = 54.04710 36.54256 79.77929
#
# Poissons Ratio (x) = 0.11168 0.29884
# Poissons Ratio (y) = 0.16518 0.86498
# Poissons Ratio (z) = 0.20245 0.39620
#
# Static dielectric constant tensor:
#      x y z
#    x 1.603480 0.000000 0.000000 
#    y 0.000000 1.587280 0.000000 
#    z 0.000000 0.000000 1.583870 
# 
# From -- ./inp_files/16356.got.cif
#   From: 2010.05.17/outbox.cif.g08.bks.cpg/sg58_9_cif.got.tgz:16356.got - 2010.06.03 14:20:14.
