data_PCOD9444836
_publ_section_title
;
Structure prediction by ZEFSAII (Michael W. Deem and Ramdas Pophale) SiO2 
 PCOD9444836
Probable space group: P N N M
;
_chemical_formula_sum "Si O2"
_cell_formula_units_Z 56
_cell_length_a 5.770694
_cell_length_b 13.840808
_cell_length_c 29.750280
_cell_angle_alpha 90.000000
_cell_angle_beta 90.000000
_cell_angle_gamma 90.000000
_cell_volume 2376.186627
_symmetry_space_group_name_H-M "P N N M"
_symmetry_group_IT_number 58
_symmetry_cell_setting 'orthorhombic'
loop_
_space_group_symop_operation_xyz
x,y,z
-x,-y,z
1/2+x,1/2-y,1/2-z
1/2-x,1/2+y,1/2-z
-x,-y,-z
x,y,-z
1/2-x,1/2+y,1/2+z
1/2+x,1/2-y,1/2+z
loop_
_atom_site_type_symbol
_atom_site_label
_atom_site_fract_x
_atom_site_fract_y
_atom_site_fract_z
Si Si1 0.865124 0.594807 0.881113
Si Si2 0.737079 0.482873 0.793243
Si Si3 0.877158 0.906147 0.919042
Si Si4 0.223656 0.766955 0.127082
Si Si5 0.837687 0.799901 0.249756
Si Si6 0.405852 0.275973 0.051328
Si Si7 0.904700 0.399205 0.330884
O O1 0.273613 0.449445 0.837949
O O2 0.035673 0.681405 0.865612
O O3 0.000000 0.500000 0.896678
O O4 0.726985 0.639559 0.922206
O O5 0.500000 0.500000 0.766098
O O6 0.712869 0.367807 0.792652
O O7 0.000000 0.500000 0.778440
O O8 0.752626 0.821753 0.947556
O O9 0.692133 0.926560 0.879871
O O10 0.078445 0.857081 0.890388
O O11 0.000000 0.000000 0.940705
O O12 0.374881 0.737461 0.083605
O O13 0.404552 0.814039 0.162498
O O14 0.608698 0.729930 0.250228
O O15 0.785381 0.857392 0.203286
O O16 0.463137 0.298068 0.000000
O O17 0.000000 0.500000 0.312742
#
# Coordination Sequence:
#
# PCOD9444836 Si02
#       7
#     8   8   8   8   8   8   8
#     4  10  25  43  75 104 137 194 250 303 369 448
#     4  11  26  47  77 106 150 192 253 311 375 451
#     4  10  21  41  73 103 140 192 247 301 373 458
#     4  10  23  43  69 102 142 190 245 299 372 450
#     4  12  30  48  71 112 153 197 251 321 390 452
#     4  10  24  43  67 108 149 188 245 312 377 454
#     4  11  24  43  71  99 142 193 248 308 377 454
#
# _framework density 23.567170999999998
#
# number of rings (size 3 to 8) (size 9 to 14) (size 15 to 20)
#    0.000    1.429    1.429    1.286   10.000   10.286 
#    0.000    1.429    0.000    0.000    0.000    0.000 
#    0.000    0.000    0.000    0.000    0.000    0.000 
#
# Total GULP energy -312051.462776 kJ/mol
# GULP energy per Si atom -5572.347550 kJ/mol
# Density = 2.351353 g / cm^3
# Si number density = 23.567171 Si / 1000 Ang^3
#
#
#
# Elastic Constant Matrix: (Units=GPa)
#
#
# Indices 1 2 3 4 5 6 
#
# 1 114.8093 29.9933 8.6675 0.0000 0.0000 0.0000
# 2 29.9933 128.4421 21.6521 0.0000 0.0000 0.0000
# 3 8.6675 21.6521 80.7445 0.0000 0.0000 0.0000
# 4 0.0000 0.0000 0.0000 22.7172 0.0000 0.0000
# 5 0.0000 0.0000 0.0000 0.0000 104.3430 0.0000
# 6 0.0000 0.0000 0.0000 0.0000 0.0000 53.1766
#
#
#
# Elastic Compliance Matrix: (Units=1/GPa)
#
#
# Indices 1 2 3 4 5 6 
#
# 1 0.009291 -0.002096 -0.000435 0.000000 0.000000 0.000000
# 2 -0.002096 0.008627 -0.002088 0.000000 0.000000 0.000000
# 3 -0.000435 -0.002088 0.012991 0.000000 0.000000 0.000000
# 4 0.000000 0.000000 0.000000 0.044019 0.000000 0.000000
# 5 0.000000 0.000000 0.000000 0.000000 0.009584 0.000000
# 6 0.000000 0.000000 0.000000 0.000000 0.000000 0.018805
#
#
# Mechanical properties :
#
#
# Convention : Reuss Voigt Hill
#
# Bulk Modulus (GPa) = 46.14741 49.40242 47.77492
# Shear Modulus (GPa) = 41.74305 53.62621 47.68463
#
# Velocity S-wave (km/s) = 4.21317 4.77536 4.50305
# Velocity P-wave (km/s) = 6.57963 7.17030 6.88131
#
# Compressibility (1/GPa) = 0.02166969
#
# Stress axis : x y z
#
# Youngs Moduli (GPa) = 107.63619 115.91321 76.97352
#
# Poissons Ratio (x) = 0.24297 0.03350
# Poissons Ratio (y) = 0.22562 0.16075
# Poissons Ratio (z) = 0.04684 0.24207
#
# Static dielectric constant tensor:
#      x y z
#    x 1.691980 0.000000 0.000000 
#    y 0.000000 1.923400 0.000000 
#    z 0.000000 0.000000 1.872310 
# 
# From -- ./inp_files/34202.got.cif
#   From: 2010.05.17/outbox.cif.g08.bks.cpg/sg58_18_cif.got.tgz:34202.got - 2010.06.03 14:20:14.
