data_PCOD9444353
_publ_section_title
;
Structure prediction by ZEFSAII (Michael W. Deem and Ramdas Pophale) SiO2 
 PCOD9444353
Probable space group: P N N M
;
_chemical_formula_sum "Si O2"
_cell_formula_units_Z 48
_cell_length_a 8.987667
_cell_length_b 20.315348
_cell_length_c 13.875880
_cell_angle_alpha 90.000000
_cell_angle_beta 90.000000
_cell_angle_gamma 90.000000
_cell_volume 2533.563389
_symmetry_space_group_name_H-M "P N N M"
_symmetry_group_IT_number 58
_symmetry_cell_setting 'orthorhombic'
loop_
_space_group_symop_operation_xyz
x,y,z
-x,-y,z
1/2+x,1/2-y,1/2-z
1/2-x,1/2+y,1/2-z
-x,-y,-z
x,y,-z
1/2-x,1/2+y,1/2+z
1/2+x,1/2-y,1/2+z
loop_
_atom_site_type_symbol
_atom_site_label
_atom_site_fract_x
_atom_site_fract_y
_atom_site_fract_z
Si Si1 0.585175 0.938696 0.257218
Si Si2 0.560842 0.676102 0.812615
Si Si3 0.883732 0.318158 0.389824
Si Si4 0.383202 0.857765 0.610845
Si Si5 0.872277 0.944410 0.612465
Si Si6 0.530469 0.288804 0.394089
O O1 0.594875 0.878921 0.181725
O O2 0.477142 0.914777 0.342371
O O3 0.741405 0.954464 0.309483
O O4 0.500000 0.000000 0.210628
O O5 0.541905 0.750744 0.851393
O O6 0.727536 0.653845 0.836727
O O7 0.447556 0.625887 0.862873
O O8 0.540263 0.677276 0.697882
O O9 0.931062 0.331068 0.500000
O O10 0.706733 0.303678 0.391982
O O11 0.348050 0.870600 0.500000
O O12 0.478131 0.790225 0.616089
O O13 0.821794 0.945326 0.500000
O O14 0.000000 0.000000 0.622495
O O15 0.472652 0.307798 0.500000
#
# Coordination Sequence:
#
# PCOD9444353 Si02
#       6
#     8   8   8   8   8   8
#     4  12  24  39  60  87 124 170 202 250 309 362
#     4  11  19  38  66  90 120 160 199 247 306 364
#     4  10  21  39  62  90 121 159 202 252 306 356
#     4  10  21  37  58  89 125 157 193 245 310 361
#     4  11  24  41  62  92 123 157 207 256 302 366
#     4   9  18  35  62  90 120 154 195 250 302 354
#
# _framework density 18.945647000000001
#
# number of rings (size 3 to 8) (size 9 to 14) (size 15 to 20)
#    0.000    1.500    3.333    4.000    0.000    3.000 
#    0.000    0.833    0.000    4.000    0.000    0.000 
#    0.000    0.000    0.000    0.000    0.000    0.000 
#
# Total GULP energy -268036.734182 kJ/mol
# GULP energy per Si atom -5584.098629 kJ/mol
# Density = 1.890253 g / cm^3
# Si number density = 18.945647 Si / 1000 Ang^3
#
#
#
# Elastic Constant Matrix: (Units=GPa)
#
#
# Indices 1 2 3 4 5 6 
#
# 1 41.0322 29.0728 26.9675 0.0000 0.0000 0.0000
# 2 29.0728 96.4340 37.1258 0.0000 0.0000 0.0000
# 3 26.9675 37.1258 125.6249 0.0000 0.0000 0.0000
# 4 0.0000 0.0000 0.0000 19.1605 0.0000 0.0000
# 5 0.0000 0.0000 0.0000 0.0000 27.9749 0.0000
# 6 0.0000 0.0000 0.0000 0.0000 0.0000 16.6327
#
#
#
# Elastic Compliance Matrix: (Units=1/GPa)
#
#
# Indices 1 2 3 4 5 6 
#
# 1 0.033298 -0.008222 -0.004718 0.000000 0.000000 0.000000
# 2 -0.008222 0.013731 -0.002293 0.000000 0.000000 0.000000
# 3 -0.004718 -0.002293 0.009651 0.000000 0.000000 0.000000
# 4 0.000000 0.000000 0.000000 0.052191 0.000000 0.000000
# 5 0.000000 0.000000 0.000000 0.000000 0.035746 0.000000
# 6 0.000000 0.000000 0.000000 0.000000 0.000000 0.060123
#
#
# Mechanical properties :
#
#
# Convention : Reuss Voigt Hill
#
# Bulk Modulus (GPa) = 38.14853 49.93594 44.04224
# Shear Modulus (GPa) = 20.49655 24.08194 22.28925
#
# Velocity S-wave (km/s) = 3.29273 3.56913 3.43371
# Velocity P-wave (km/s) = 5.88520 6.58784 6.24641
#
# Compressibility (1/GPa) = 0.02621333
#
# Stress axis : x y z
#
# Youngs Moduli (GPa) = 30.03216 72.82602 103.61992
#
# Poissons Ratio (x) = 0.59879 0.48888
# Poissons Ratio (y) = 0.24693 0.23760
# Poissons Ratio (z) = 0.14169 0.16699
#
# Static dielectric constant tensor:
#      x y z
#    x 1.662140 0.000000 0.000000 
#    y 0.000000 1.701380 0.000000 
#    z 0.000000 0.000000 1.646440 
# 
# From -- ./inp_files/19830.got.cif
#   From: 2010.05.17/outbox.cif.g08.bks.cpg/sg58_10_cif.got.tgz:19830.got - 2010.06.03 14:20:14.
