data_PCOD9444260
_publ_section_title
;
Structure prediction by ZEFSAII (Michael W. Deem and Ramdas Pophale) SiO2 
 PCOD9444260
Probable space group: P N N M
;
_chemical_formula_sum "Si O2"
_cell_formula_units_Z 48
_cell_length_a 9.134241
_cell_length_b 14.314532
_cell_length_c 19.575831
_cell_angle_alpha 90.000000
_cell_angle_beta 90.000000
_cell_angle_gamma 90.000000
_cell_volume 2559.586593
_symmetry_space_group_name_H-M "P N N M"
_symmetry_group_IT_number 58
_symmetry_cell_setting 'orthorhombic'
loop_
_space_group_symop_operation_xyz
x,y,z
-x,-y,z
1/2+x,1/2-y,1/2-z
1/2-x,1/2+y,1/2-z
-x,-y,-z
x,y,-z
1/2-x,1/2+y,1/2+z
1/2+x,1/2-y,1/2+z
loop_
_atom_site_type_symbol
_atom_site_label
_atom_site_fract_x
_atom_site_fract_y
_atom_site_fract_z
Si Si1 0.659900 0.504312 0.765384
Si Si2 0.420385 0.093674 0.657561
Si Si3 0.678037 0.195320 0.733900
Si Si4 0.707485 0.910279 0.000000
Si Si5 0.624856 0.369241 0.359493
Si Si6 0.308145 0.279073 0.621584
Si Si7 0.130582 0.370160 0.500000
O O1 0.500000 0.500000 0.796333
O O2 0.777817 0.444772 0.805600
O O3 0.707289 0.611279 0.770547
O O4 0.650650 0.458189 0.689866
O O5 0.524859 0.144778 0.713949
O O6 0.374901 0.176361 0.606705
O O7 0.500000 0.000000 0.630375
O O8 0.691724 0.280241 0.681103
O O9 0.708519 0.230176 0.810298
O O10 0.798540 0.884005 0.932213
O O11 0.545623 0.864478 0.000000
O O12 0.676705 0.021146 0.000000
O O13 0.452366 0.344282 0.367921
O O14 0.204639 0.321784 0.564827
#
# Coordination Sequence:
#
# PCOD9444260 Si02
#       7
#     8   8   8   4   8   8   4
#     4  11  20  34  58  93 119 155 202 250 301 357
#     4   9  21  37  58  89 128 155 201 261 312 359
#     4  10  21  36  61  90 119 159 202 252 308 355
#     4  11  27  43  57  86 127 164 203 249 321 374
#     4  11  23  39  60  88 125 162 199 252 301 367
#     4  11  21  40  61  89 123 162 211 247 308 373
#     4  11  27  41  60  86 122 168 204 253 311 375
#
# _framework density 18.753028
#
# number of rings (size 3 to 8) (size 9 to 14) (size 15 to 20)
#    0.000    1.500    3.333    1.500    2.333    2.000 
#    0.000    0.417    0.000    3.000    0.000   11.667 
#    0.000    0.000    0.000    0.000    0.000    0.000 
#
# Total GULP energy -267715.076997 kJ/mol
# GULP energy per Si atom -5577.397437 kJ/mol
# Density = 1.871035 g / cm^3
# Si number density = 18.753028 Si / 1000 Ang^3
#
#
#
# Elastic Constant Matrix: (Units=GPa)
#
#
# Indices 1 2 3 4 5 6 
#
# 1 95.7673 42.5950 35.8124 0.0000 0.0000 0.0000
# 2 42.5950 118.9604 34.3966 0.0000 0.0000 0.0000
# 3 35.8124 34.3966 72.1573 0.0000 0.0000 0.0000
# 4 0.0000 0.0000 0.0000 23.5824 0.0000 0.0000
# 5 0.0000 0.0000 0.0000 0.0000 23.4238 0.0000
# 6 0.0000 0.0000 0.0000 0.0000 0.0000 26.5456
#
#
#
# Elastic Compliance Matrix: (Units=1/GPa)
#
#
# Indices 1 2 3 4 5 6 
#
# 1 0.013958 -0.003474 -0.005272 0.000000 0.000000 0.000000
# 2 -0.003474 0.010614 -0.003336 0.000000 0.000000 0.000000
# 3 -0.005272 -0.003336 0.018065 0.000000 0.000000 0.000000
# 4 0.000000 0.000000 0.000000 0.042405 0.000000 0.000000
# 5 0.000000 0.000000 0.000000 0.000000 0.042692 0.000000
# 6 0.000000 0.000000 0.000000 0.000000 0.000000 0.037671
#
#
# Mechanical properties :
#
#
# Convention : Reuss Voigt Hill
#
# Bulk Modulus (GPa) = 54.12570 56.94366 55.53468
# Shear Modulus (GPa) = 25.54590 26.31577 25.93084
#
# Velocity S-wave (km/s) = 3.69484 3.75010 3.72258
# Velocity P-wave (km/s) = 6.86495 7.01299 6.93936
#
# Compressibility (1/GPa) = 0.01847551
#
# Stress axis : x y z
#
# Youngs Moduli (GPa) = 71.64151 94.21119 55.35505
#
# Poissons Ratio (x) = 0.32726 0.29182
# Poissons Ratio (y) = 0.24886 0.18465
# Poissons Ratio (z) = 0.37768 0.31427
#
# Static dielectric constant tensor:
#      x y z
#    x 1.655910 0.000000 0.000000 
#    y 0.000000 1.688490 0.000000 
#    z 0.000000 0.000000 1.616190 
# 
# From -- ./inp_files/25318.got.cif
#   From: 2010.05.17/outbox.cif.g08.bks.cpg/sg58_13_cif.got.tgz:25318.got - 2010.06.03 14:20:14.
