data_PCOD9444457
_publ_section_title
;
Structure prediction by ZEFSAII (Michael W. Deem and Ramdas Pophale) SiO2 
 PCOD9444457
Probable space group: P N N M
;
_chemical_formula_sum "Si O2"
_cell_formula_units_Z 52
_cell_length_a 14.164793
_cell_length_b 19.714393
_cell_length_c 8.152440
_cell_angle_alpha 90.000000
_cell_angle_beta 90.000000
_cell_angle_gamma 90.000000
_cell_volume 2276.571283
_symmetry_space_group_name_H-M "P N N M"
_symmetry_group_IT_number 58
_symmetry_cell_setting 'orthorhombic'
loop_
_space_group_symop_operation_xyz
x,y,z
-x,-y,z
1/2+x,1/2-y,1/2-z
1/2-x,1/2+y,1/2-z
-x,-y,-z
x,y,-z
1/2-x,1/2+y,1/2+z
1/2+x,1/2-y,1/2+z
loop_
_atom_site_type_symbol
_atom_site_label
_atom_site_fract_x
_atom_site_fract_y
_atom_site_fract_z
Si Si1 0.061620 0.766623 0.317387
Si Si2 0.281690 0.424130 0.500000
Si Si3 0.222026 0.255135 0.188853
Si Si4 0.543884 0.655510 0.500000
Si Si5 0.056176 0.357376 0.306932
Si Si6 0.763447 0.893807 0.315654
Si Si7 0.121029 0.060303 0.000000
Si Si8 0.337540 0.971480 0.314279
O O1 0.022439 0.781518 0.500000
O O2 0.171975 0.784531 0.320710
O O3 0.017577 0.805476 0.165659
O O4 0.038247 0.687331 0.285632
O O5 0.342999 0.356215 0.500000
O O6 0.360063 0.481743 0.500000
O O7 0.223690 0.438786 0.333858
O O8 0.141992 0.305921 0.256187
O O9 0.240411 0.187124 0.293623
O O10 0.196255 0.237409 0.000000
O O11 0.481974 0.589050 0.500000
O O12 0.063205 0.371946 0.500000
O O13 0.066629 0.428140 0.210723
O O14 0.799349 0.907131 0.500000
O O15 0.674680 0.946952 0.297059
O O16 0.829304 0.914583 0.165738
O O17 0.304720 0.955276 0.500000
#
# Coordination Sequence:
#
# PCOD9444457 Si02
#       8
#     8   4   8   4   8   8   4   8
#     4  10  26  41  54  88 127 154 201 251 302 365
#     4  10  21  38  58  87 118 154 204 247 300 371
#     4  11  22  39  62  88 121 161 202 252 306 360
#     4  12  23  36  60  82 117 166 194 250 308 352
#     4  11  22  39  62  88 121 161 202 252 306 360
#     4  10  21  38  61  88 119 155 200 251 303 360
#     4  10  21  38  58  87 118 154 204 247 300 371
#     4  10  21  38  61  88 119 155 200 251 303 360
#
# _framework density 22.841367000000002
#
# number of rings (size 3 to 8) (size 9 to 14) (size 15 to 20)
#    0.000    1.538    1.538    3.000    4.308    3.692 
#    0.000    0.769    0.000    9.231    0.000    0.000 
#    0.000    0.000    0.000    0.000    0.000    0.000 
#
# Total GULP energy -289852.605206 kJ/mol
# GULP energy per Si atom -5574.088562 kJ/mol
# Density = 2.278938 g / cm^3
# Si number density = 22.841367 Si / 1000 Ang^3
#
#
#
# Elastic Constant Matrix: (Units=GPa)
#
#
# Indices 1 2 3 4 5 6 
#
# 1 40.5094 -4.5056 13.2053 0.0000 0.0000 0.0000
# 2 -4.5056 59.9427 21.3534 0.0000 0.0000 0.0000
# 3 13.2053 21.3534 157.8676 0.0000 0.0000 0.0000
# 4 0.0000 0.0000 0.0000 47.2287 0.0000 0.0000
# 5 0.0000 0.0000 0.0000 0.0000 -15.3018 0.0000
# 6 0.0000 0.0000 0.0000 0.0000 0.0000 26.1964
#
#
#
# Elastic Compliance Matrix: (Units=1/GPa)
#
#
# Indices 1 2 3 4 5 6 
#
# 1 0.025833 0.002849 -0.002546 0.000000 0.000000 0.000000
# 2 0.002849 0.017841 -0.002652 0.000000 0.000000 0.000000
# 3 -0.002546 -0.002652 0.006906 0.000000 0.000000 0.000000
# 4 0.000000 0.000000 0.000000 0.021174 0.000000 0.000000
# 5 0.000000 0.000000 0.000000 0.000000 -0.065352 0.000000
# 6 0.000000 0.000000 0.000000 0.000000 0.000000 0.038173
#
#
# Mechanical properties :
#
#
# Convention : Reuss Voigt Hill
#
# Bulk Modulus (GPa) = 21.79507 35.38066 28.58787
# Shear Modulus (GPa) = 77.43909 26.84242 52.14075
#
# Velocity S-wave (km/s) = 5.82895 3.43179 4.78298
# Velocity P-wave (km/s) = 7.40708 5.58805 6.56091
#
# Compressibility (1/GPa) = 0.04588193
#
# Stress axis : x y z
#
# Youngs Moduli (GPa) = 38.71091 56.04976 144.80051
#
# Poissons Ratio (x) = -0.15967 0.36869
# Poissons Ratio (y) = -0.11028 0.38394
# Poissons Ratio (z) = 0.09856 0.14862
#
# Static dielectric constant tensor:
#      x y z
#    x 1.897150 0.000000 0.000000 
#    y 0.000000 1.872740 0.000000 
#    z 0.000000 0.000000 1.794000 
# 
# From -- ./inp_files/6218.got.cif
#   From: 2010.05.17/outbox.cif.g08.bks.cpg/sg58_4_cif.got.tgz:6218.got - 2010.06.03 14:20:14.
