data_PCOD9444267
_publ_section_title
;
Structure prediction by ZEFSAII (Michael W. Deem and Ramdas Pophale) SiO2 
 PCOD9444267
Probable space group: P N N M
;
_chemical_formula_sum "Si O2"
_cell_formula_units_Z 38
_cell_length_a 7.414138
_cell_length_b 15.987532
_cell_length_c 16.046563
_cell_angle_alpha 90.000000
_cell_angle_beta 90.000000
_cell_angle_gamma 90.000000
_cell_volume 1902.059584
_symmetry_space_group_name_H-M "P N N M"
_symmetry_group_IT_number 58
_symmetry_cell_setting 'orthorhombic'
loop_
_space_group_symop_operation_xyz
x,y,z
-x,-y,z
1/2+x,1/2-y,1/2-z
1/2-x,1/2+y,1/2-z
-x,-y,-z
x,y,-z
1/2-x,1/2+y,1/2+z
1/2+x,1/2-y,1/2+z
loop_
_atom_site_type_symbol
_atom_site_label
_atom_site_fract_x
_atom_site_fract_y
_atom_site_fract_z
Si Si1 0.976293 0.639160 0.859100
Si Si2 0.847629 0.555850 0.689571
Si Si3 0.249059 0.277871 0.597210
Si Si4 0.566464 0.650285 0.904991
Si Si5 0.500000 0.000000 0.500000
Si Si6 0.500000 0.500000 0.220253
O O1 0.946894 0.596838 0.769769
O O2 0.776808 0.666198 0.889179
O O3 0.041526 0.570619 0.926519
O O4 0.108580 0.717722 0.857222
O O5 0.768099 0.630938 0.635512
O O6 0.679636 0.503081 0.724691
O O7 0.000000 0.500000 0.645954
O O8 0.299448 0.280757 0.500000
O O9 0.056396 0.231432 0.603790
O O10 0.504171 0.580425 0.839786
O O11 0.547534 0.617819 0.000000
#
# Coordination Sequence:
#
# PCOD9444267 Si02
#       6
#     8   8   8   8   2   4
#     4  11  23  39  63  97 130 167 201 267 334 393
#     4  11  25  42  62  91 129 169 218 267 315 381
#     4  11  25  42  63  92 128 171 219 262 317 385
#     4  10  21  36  62  95 126 160 203 259 326 393
#     4  12  20  40  66  96 132 160 206 268 338 400
#     4  10  23  38  61  96 120 166 210 258 329 385
#
# _framework density 19.978342000000001
#
# number of rings (size 3 to 8) (size 9 to 14) (size 15 to 20)
#    0.000    1.263    3.158    1.579    8.842    2.105 
#    0.000    0.526    0.000    0.000    0.000    0.000 
#    0.000    0.000    0.000    0.000    0.000    0.000 
#
# Total GULP energy -211957.405539 kJ/mol
# GULP energy per Si atom -5577.826462 kJ/mol
# Density = 1.993287 g / cm^3
# Si number density = 19.978342 Si / 1000 Ang^3
#
#
#
# Elastic Constant Matrix: (Units=GPa)
#
#
# Indices 1 2 3 4 5 6 
#
# 1 86.4420 52.2252 5.0421 0.0000 0.0000 0.0000
# 2 52.2252 66.8613 -4.6469 0.0000 0.0000 0.0000
# 3 5.0421 -4.6469 4.3569 0.0000 0.0000 0.0000
# 4 0.0000 0.0000 0.0000 -22.4075 0.0000 0.0000
# 5 0.0000 0.0000 0.0000 0.0000 21.4214 0.0000
# 6 0.0000 0.0000 0.0000 0.0000 0.0000 30.8933
#
#
#
# Elastic Compliance Matrix: (Units=1/GPa)
#
#
# Indices 1 2 3 4 5 6 
#
# 1 0.037027 -0.034454 -0.079598 0.000000 0.000000 0.000000
# 2 -0.034454 0.048213 0.091295 0.000000 0.000000 0.000000
# 3 -0.079598 0.091295 0.419013 0.000000 0.000000 0.000000
# 4 0.000000 0.000000 0.000000 -0.044628 0.000000 0.000000
# 5 0.000000 0.000000 0.000000 0.000000 0.046682 0.000000
# 6 0.000000 0.000000 0.000000 0.000000 0.000000 0.032370
#
#
# Mechanical properties :
#
#
# Convention : Reuss Voigt Hill
#
# Bulk Modulus (GPa) = 2.17989 29.21122 15.69555
# Shear Modulus (GPa) = 6.78331 12.98409 9.88370
#
# Velocity S-wave (km/s) = 1.84464 2.55210 2.22664
# Velocity P-wave (km/s) = 2.37285 4.83088 3.80578
#
# Compressibility (1/GPa) = 0.45873977
#
# Stress axis : x y z
#
# Youngs Moduli (GPa) = 27.00721 20.74119 2.38656
#
# Poissons Ratio (x) = 0.71461 0.18997
# Poissons Ratio (y) = 0.93050 -0.21788
# Poissons Ratio (z) = 2.14972 -1.89357
#
# Static dielectric constant tensor:
#      x y z
#    x 1.735640 0.000000 0.000000 
#    y 0.000000 1.690890 0.000000 
#    z 0.000000 0.000000 1.701700 
# 
# From -- ./inp_files/25155.got.cif
#   From: 2010.05.17/outbox.cif.g08.bks.cpg/sg58_13_cif.got.tgz:25155.got - 2010.06.03 14:20:14.
