data_PCOD9444026
_publ_section_title
;
Structure prediction by ZEFSAII (Michael W. Deem and Ramdas Pophale) SiO2 
 PCOD9444026
Probable space group: P N N M
;
_chemical_formula_sum "Si O2"
_cell_formula_units_Z 44
_cell_length_a 8.903635
_cell_length_b 10.734516
_cell_length_c 18.640391
_cell_angle_alpha 90.000000
_cell_angle_beta 90.000000
_cell_angle_gamma 90.000000
_cell_volume 1781.577969
_symmetry_space_group_name_H-M "P N N M"
_symmetry_group_IT_number 58
_symmetry_cell_setting 'orthorhombic'
loop_
_space_group_symop_operation_xyz
x,y,z
-x,-y,z
1/2+x,1/2-y,1/2-z
1/2-x,1/2+y,1/2-z
-x,-y,-z
x,y,-z
1/2-x,1/2+y,1/2+z
1/2+x,1/2-y,1/2+z
loop_
_atom_site_type_symbol
_atom_site_label
_atom_site_fract_x
_atom_site_fract_y
_atom_site_fract_z
Si Si1 0.406232 0.172786 0.417636
Si Si2 0.667676 0.943879 0.274912
Si Si3 0.456225 0.232401 0.838590
Si Si4 0.206060 0.417696 0.582288
Si Si5 0.813522 0.809812 0.082231
Si Si6 0.500000 0.500000 0.781100
O O1 0.413369 0.124662 0.500000
O O2 0.329591 0.083019 0.360405
O O3 0.318671 0.302880 0.419876
O O4 0.564883 0.218157 0.383826
O O5 0.648761 0.820411 0.225465
O O6 0.500000 0.000000 0.265326
O O7 0.824404 0.011596 0.252837
O O8 0.576474 0.130374 0.864999
O O9 0.347482 0.250035 0.906243
O O10 0.519440 0.365272 0.817603
O O11 0.151130 0.436297 0.500000
O O12 0.289081 0.545957 0.602866
O O13 0.861691 0.814560 0.000000
#
# Coordination Sequence:
#
# PCOD9444026 Si02
#       6
#     8   8   8   8   8   4
#     4  10  22  42  68 105 146 185 235 291 354 425
#     4  12  28  50  74 104 144 185 243 298 355 433
#     4  12  26  47  69 103 139 189 238 294 363 425
#     4  10  20  41  70 106 145 182 236 294 350 422
#     4  10  21  39  70 107 144 185 233 295 356 411
#     4  12  30  50  71 106 143 188 242 290 364 428
#
# _framework density 24.697206999999999
#
# number of rings (size 3 to 8) (size 9 to 14) (size 15 to 20)
#    0.000    1.091    1.818    3.818    5.091    5.455 
#    0.000    4.091    0.000    0.000    0.000    0.000 
#    0.000    0.000    0.000    0.000    0.000    0.000 
#
# Total GULP energy -245396.321577 kJ/mol
# GULP energy per Si atom -5577.189127 kJ/mol
# Density = 2.464100 g / cm^3
# Si number density = 24.697207 Si / 1000 Ang^3
#
#
#
# Elastic Constant Matrix: (Units=GPa)
#
#
# Indices 1 2 3 4 5 6 
#
# 1 149.3805 14.0513 17.7181 0.0000 0.0000 0.0000
# 2 14.0513 69.8201 25.1342 0.0000 0.0000 0.0000
# 3 17.7181 25.1342 108.9309 0.0000 0.0000 0.0000
# 4 0.0000 0.0000 0.0000 152.8055 0.0000 0.0000
# 5 0.0000 0.0000 0.0000 0.0000 3.5104 0.0000
# 6 0.0000 0.0000 0.0000 0.0000 0.0000 43.8572
#
#
#
# Elastic Compliance Matrix: (Units=1/GPa)
#
#
# Indices 1 2 3 4 5 6 
#
# 1 0.006899 -0.001074 -0.000874 0.000000 0.000000 0.000000
# 2 -0.001074 0.015787 -0.003468 0.000000 0.000000 0.000000
# 3 -0.000874 -0.003468 0.010123 0.000000 0.000000 0.000000
# 4 0.000000 0.000000 0.000000 0.006544 0.000000 0.000000
# 5 0.000000 0.000000 0.000000 0.000000 0.284868 0.000000
# 6 0.000000 0.000000 0.000000 0.000000 0.000000 0.022801
#
#
# Mechanical properties :
#
#
# Convention : Reuss Voigt Hill
#
# Bulk Modulus (GPa) = 45.50321 49.10428 47.30375
# Shear Modulus (GPa) = 13.69188 58.11647 35.90418
#
# Velocity S-wave (km/s) = 2.35710 4.85620 3.81698
# Velocity P-wave (km/s) = 5.08649 7.16724 6.21456
#
# Compressibility (1/GPa) = 0.02197647
#
# Stress axis : x y z
#
# Youngs Moduli (GPa) = 144.94808 63.34313 98.78932
#
# Poissons Ratio (x) = 0.06801 0.08638
# Poissons Ratio (y) = 0.15562 0.34260
# Poissons Ratio (z) = 0.12675 0.21967
#
# Static dielectric constant tensor:
#      x y z
#    x 2.072600 0.000000 0.000000 
#    y 0.000000 1.998040 0.000000 
#    z 0.000000 0.000000 1.991860 
# 
# From -- ./inp_files/31375.got.cif
#   From: 2010.05.17/outbox.cif.g08.bks.cpg/sg58_16_cif.got.tgz:31375.got - 2010.06.03 14:20:14.
