data_PCOD9444760
_publ_section_title
;
Structure prediction by ZEFSAII (Michael W. Deem and Ramdas Pophale) SiO2 
 PCOD9444760
Probable space group: P N N M
;
_chemical_formula_sum "Si O2"
_cell_formula_units_Z 48
_cell_length_a 8.170953
_cell_length_b 9.035660
_cell_length_c 32.184714
_cell_angle_alpha 90.000000
_cell_angle_beta 90.000000
_cell_angle_gamma 90.000000
_cell_volume 2376.195928
_symmetry_space_group_name_H-M "P N N M"
_symmetry_group_IT_number 58
_symmetry_cell_setting 'orthorhombic'
loop_
_space_group_symop_operation_xyz
x,y,z
-x,-y,z
1/2+x,1/2-y,1/2-z
1/2-x,1/2+y,1/2-z
-x,-y,-z
x,y,-z
1/2-x,1/2+y,1/2+z
1/2+x,1/2-y,1/2+z
loop_
_atom_site_type_symbol
_atom_site_label
_atom_site_fract_x
_atom_site_fract_y
_atom_site_fract_z
Si Si1 0.425682 0.833429 0.207275
Si Si2 0.032002 0.826336 0.208868
Si Si3 0.500000 0.500000 0.068166
Si Si4 0.471970 0.821861 0.373931
Si Si5 0.000000 0.500000 0.566834
Si Si6 0.250759 0.252902 0.044764
Si Si7 0.654180 0.250456 0.878901
O O1 0.228867 0.822349 0.207169
O O2 0.486129 0.744358 0.247017
O O3 0.455492 0.757651 0.162729
O O4 0.500000 0.000000 0.207932
O O5 0.931232 0.738031 0.172691
O O6 0.000000 0.000000 0.205733
O O7 0.377686 0.390094 0.044934
O O8 0.390287 0.602342 0.096999
O O9 0.357988 0.772142 0.412971
O O10 0.650906 0.749253 0.377048
O O11 0.500000 0.000000 0.373919
O O12 0.134523 0.606602 0.545636
O O13 0.102518 0.389889 0.594943
O O14 0.159544 0.254772 0.000000
#
# Coordination Sequence:
#
# PCOD9444760 Si02
#       7
#     8   8   4   8   4   8   8
#     4  11  23  42  64  99 134 173 227 268 329 384
#     4  11  26  41  68  94 136 180 222 280 324 392
#     4  10  21  40  66  94 136 176 220 262 337 400
#     4  11  24  44  66  97 138 175 221 275 342 389
#     4  10  23  42  68  98 136 172 220 266 343 402
#     4  11  24  43  70  99 134 172 223 281 337 407
#     4  10  22  41  66  99 131 181 215 270 322 400
#
# _framework density 20.200354000000001
#
# number of rings (size 3 to 8) (size 9 to 14) (size 15 to 20)
#    0.000    1.333    2.500    2.000    5.833    4.333 
#    0.000    2.500    0.000    0.000    0.000    0.000 
#    0.000    0.000    0.000    0.000    0.000    0.000 
#
# Total GULP energy -267372.867074 kJ/mol
# GULP energy per Si atom -5570.268064 kJ/mol
# Density = 2.015438 g / cm^3
# Si number density = 20.200354 Si / 1000 Ang^3
#
#
#
# Elastic Constant Matrix: (Units=GPa)
#
#
# Indices 1 2 3 4 5 6 
#
# 1 64.1682 13.5539 36.9742 0.0000 0.0000 0.0000
# 2 13.5539 91.7396 61.3274 0.0000 0.0000 0.0000
# 3 36.9742 61.3274 170.1033 0.0000 0.0000 0.0000
# 4 0.0000 0.0000 0.0000 -132.6833 0.0000 0.0000
# 5 0.0000 0.0000 0.0000 0.0000 17.2746 0.0000
# 6 0.0000 0.0000 0.0000 0.0000 0.0000 13.1534
#
#
#
# Elastic Compliance Matrix: (Units=1/GPa)
#
#
# Indices 1 2 3 4 5 6 
#
# 1 0.017816 -0.000057 -0.003852 0.000000 0.000000 0.000000
# 2 -0.000057 0.014362 -0.005165 0.000000 0.000000 0.000000
# 3 -0.003852 -0.005165 0.008578 0.000000 0.000000 0.000000
# 4 0.000000 0.000000 0.000000 -0.007537 0.000000 0.000000
# 5 0.000000 0.000000 0.000000 0.000000 0.057889 0.000000
# 6 0.000000 0.000000 0.000000 0.000000 0.000000 0.076026
#
#
# Mechanical properties :
#
#
# Convention : Reuss Voigt Hill
#
# Bulk Modulus (GPa) = 44.23440 61.08023 52.65731
# Shear Modulus (GPa) = 25.93113 -6.17403 9.87855
#
# Velocity S-wave (km/s) = 3.58676 -1.75015 2.21380
# Velocity P-wave (km/s) = 6.25288 5.12043 5.71477
#
# Compressibility (1/GPa) = 0.02260684
#
# Stress axis : x y z
#
# Youngs Moduli (GPa) = 56.13071 69.62828 116.57260
#
# Poissons Ratio (x) = 0.00398 0.44902
# Poissons Ratio (y) = 0.00321 0.60216
# Poissons Ratio (z) = 0.21621 0.35966
#
# Static dielectric constant tensor:
#      x y z
#    x 1.755500 0.000000 0.000000 
#    y 0.000000 1.671850 0.000000 
#    z 0.000000 0.000000 1.915050 
# 
# From -- ./inp_files/34625.got.cif
#   From: 2010.05.17/outbox.cif.g08.bks.cpg/sg58_18_cif.got.tgz:34625.got - 2010.06.03 14:20:14.
