data_PCOD9444922
_publ_section_title
;
Structure prediction by ZEFSAII (Michael W. Deem and Ramdas Pophale) SiO2 
 PCOD9444922
Probable space group: P N N M
;
_chemical_formula_sum "Si O2"
_cell_formula_units_Z 48
_cell_length_a 12.057123
_cell_length_b 23.556300
_cell_length_c 7.586947
_cell_angle_alpha 90.000000
_cell_angle_beta 90.000000
_cell_angle_gamma 90.000000
_cell_volume 2154.853841
_symmetry_space_group_name_H-M "P N N M"
_symmetry_group_IT_number 58
_symmetry_cell_setting 'orthorhombic'
loop_
_space_group_symop_operation_xyz
x,y,z
-x,-y,z
1/2+x,1/2-y,1/2-z
1/2-x,1/2+y,1/2-z
-x,-y,-z
x,y,-z
1/2-x,1/2+y,1/2+z
1/2+x,1/2-y,1/2+z
loop_
_atom_site_type_symbol
_atom_site_label
_atom_site_fract_x
_atom_site_fract_y
_atom_site_fract_z
Si Si1 0.422451 0.841771 0.298941
Si Si2 0.176338 0.852972 0.798627
Si Si3 0.374726 0.227281 0.283405
Si Si4 0.005449 0.063289 0.704592
Si Si5 0.274655 0.621534 0.784047
Si Si6 0.577067 0.952321 0.297776
O O1 0.393057 0.826702 0.500000
O O2 0.308720 0.856430 0.206050
O O3 0.503434 0.793406 0.225084
O O4 0.501279 0.896473 0.304001
O O5 0.147851 0.790909 0.723710
O O6 0.111487 0.904548 0.711277
O O7 0.138197 0.853842 0.000000
O O8 0.374707 0.226350 0.500000
O O9 0.281513 0.181132 0.227749
O O10 0.036719 0.055285 0.500000
O O11 0.101931 0.105222 0.774639
O O12 0.000000 0.000000 0.783685
O O13 0.193229 0.570218 0.724965
O O14 0.270122 0.623479 0.000000
O O15 0.600531 0.971577 0.500000
O O16 0.500000 0.000000 0.212223
#
# Coordination Sequence:
#
# PCOD9444922 Si02
#       6
#     8   8   8   8   8   8
#     4   9  18  34  55  79 105 134 180 229 265 316
#     4  11  23  36  54  79 113 150 179 219 281 340
#     4   8  17  34  54  79 107 140 179 222 275 330
#     4  10  22  37  57  84 110 143 192 237 271 322
#     4   8  15  30  51  77 108 136 171 224 274 316
#     4   8  14  25  50  81 103 126 163 219 274 310
#
# _framework density 22.275293000000001
#
# number of rings (size 3 to 8) (size 9 to 14) (size 15 to 20)
#    0.000    3.000    0.000    2.500    4.667    0.333 
#    0.000    0.833    0.000    4.500    0.000    0.000 
#    0.000    0.000    0.000    0.000    0.000    0.000 
#
# Total GULP energy -267616.880299 kJ/mol
# GULP energy per Si atom -5575.351673 kJ/mol
# Density = 2.222459 g / cm^3
# Si number density = 22.275293 Si / 1000 Ang^3
#
#
#
# Elastic Constant Matrix: (Units=GPa)
#
#
# Indices 1 2 3 4 5 6 
#
# 1 115.6896 27.8039 -0.2743 0.0000 0.0000 0.0000
# 2 27.8039 67.2290 6.8998 0.0000 0.0000 0.0000
# 3 -0.2743 6.8998 45.4398 0.0000 0.0000 0.0000
# 4 0.0000 0.0000 0.0000 -5.3508 0.0000 0.0000
# 5 0.0000 0.0000 0.0000 0.0000 -5.2048 0.0000
# 6 0.0000 0.0000 0.0000 0.0000 0.0000 9.0423
#
#
#
# Elastic Compliance Matrix: (Units=1/GPa)
#
#
# Indices 1 2 3 4 5 6 
#
# 1 0.009618 -0.004047 0.000673 0.000000 0.000000 0.000000
# 2 -0.004047 0.016813 -0.002577 0.000000 0.000000 0.000000
# 3 0.000673 -0.002577 0.022403 0.000000 0.000000 0.000000
# 4 0.000000 0.000000 0.000000 -0.186887 0.000000 0.000000
# 5 0.000000 0.000000 0.000000 0.000000 -0.192130 0.000000
# 6 0.000000 0.000000 0.000000 0.000000 0.000000 0.110592
#
#
# Mechanical properties :
#
#
# Convention : Reuss Voigt Hill
#
# Bulk Modulus (GPa) = 27.07819 33.02413 30.05116
# Shear Modulus (GPa) = -25.59138 12.62592 -6.48273
#
# Velocity S-wave (km/s) = -3.39317 2.38337 -1.70780
# Velocity P-wave (km/s) = 1.78016 4.73620 3.10343
#
# Compressibility (1/GPa) = 0.03693010
#
# Stress axis : x y z
#
# Youngs Moduli (GPa) = 103.97200 59.47899 44.63782
#
# Poissons Ratio (x) = 0.24070 -0.03002
# Poissons Ratio (y) = 0.42075 0.11505
# Poissons Ratio (z) = -0.06992 0.15330
#
# Static dielectric constant tensor:
#      x y z
#    x 1.811010 0.000000 0.000000 
#    y 0.000000 1.820450 0.000000 
#    z 0.000000 0.000000 1.845140 
# 
# From -- ./inp_files/4229.got.cif
#   From: 2010.05.17/outbox.cif.g08.bks.cpg/sg58_3_cif.got.tgz:4229.got - 2010.06.03 14:20:14.
