data_PCOD9444326
_publ_section_title
;
Structure prediction by ZEFSAII (Michael W. Deem and Ramdas Pophale) SiO2 
 PCOD9444326
Probable space group: P N N M
;
_chemical_formula_sum "Si O2"
_cell_formula_units_Z 64
_cell_length_a 8.309569
_cell_length_b 13.239270
_cell_length_c 30.095800
_cell_angle_alpha 90.000000
_cell_angle_beta 90.000000
_cell_angle_gamma 90.000000
_cell_volume 3310.918037
_symmetry_space_group_name_H-M "P N N M"
_symmetry_group_IT_number 58
_symmetry_cell_setting 'orthorhombic'
loop_
_space_group_symop_operation_xyz
x,y,z
-x,-y,z
1/2+x,1/2-y,1/2-z
1/2-x,1/2+y,1/2-z
-x,-y,-z
x,y,-z
1/2-x,1/2+y,1/2+z
1/2+x,1/2-y,1/2+z
loop_
_atom_site_type_symbol
_atom_site_label
_atom_site_fract_x
_atom_site_fract_y
_atom_site_fract_z
Si Si1 0.811736 0.979238 0.246748
Si Si2 0.807153 0.885457 0.551637
Si Si3 0.304786 0.388369 0.051320
Si Si4 0.678360 0.781843 0.718829
Si Si5 0.305847 0.280962 0.621001
Si Si6 0.189938 0.347480 0.209523
Si Si7 0.806536 0.773528 0.878435
Si Si8 0.696775 0.498224 0.355408
O O1 0.714874 0.033038 0.286891
O O2 0.753378 0.001526 0.196441
O O3 0.783596 0.861730 0.254739
O O4 0.000000 0.000000 0.250006
O O5 0.757650 0.871942 0.500000
O O6 0.751218 0.794331 0.582728
O O7 0.001191 0.887381 0.552404
O O8 0.752254 0.998459 0.566395
O O9 0.245486 0.295306 0.080498
O O10 0.254177 0.377723 0.000000
O O11 0.740916 0.761948 0.669393
O O12 0.699233 0.683416 0.748761
O O13 0.494818 0.818209 0.717174
O O14 0.499879 0.279834 0.621124
O O15 0.252061 0.398560 0.619941
O O16 0.243677 0.289393 0.165464
O O17 0.749865 0.890204 0.875481
O O18 0.500000 0.500000 0.355118
#
# Coordination Sequence:
#
# PCOD9444326 Si02
#       8
#     8   8   8   8   8   8   8   8
#     4  11  21  37  55  74 111 158 194 237 286 330
#     4   9  20  40  62  84 112 143 178 227 285 341
#     4   9  20  40  62  84 112 143 178 227 285 341
#     4  11  22  36  54  81 114 151 195 238 279 333
#     4  10  21  37  58  82 112 148 188 232 277 332
#     4  11  22  36  54  81 114 151 195 238 279 333
#     4  10  21  37  58  82 112 148 188 232 277 332
#     4   9  18  37  56  76 111 153 187 223 275 328
#
# _framework density 19.329986999999999
#
# number of rings (size 3 to 8) (size 9 to 14) (size 15 to 20)
#    0.000    2.000    2.500    1.875    1.750    3.000 
#    0.000    2.500    0.000    3.750    0.000    0.000 
#    0.000    0.000    0.000    0.000    0.000    0.000 
#
# Total GULP energy -356895.248556 kJ/mol
# GULP energy per Si atom -5576.488259 kJ/mol
# Density = 1.928599 g / cm^3
# Si number density = 19.329987 Si / 1000 Ang^3
#
#
#
# Elastic Constant Matrix: (Units=GPa)
#
#
# Indices 1 2 3 4 5 6 
#
# 1 13.3740 15.6806 13.0731 0.0000 0.0000 0.0000
# 2 15.6806 156.7429 78.6200 0.0000 0.0000 0.0000
# 3 13.0731 78.6200 98.6215 0.0000 0.0000 0.0000
# 4 0.0000 0.0000 0.0000 38.6008 0.0000 0.0000
# 5 0.0000 0.0000 0.0000 0.0000 26.0619 0.0000
# 6 0.0000 0.0000 0.0000 0.0000 0.0000 34.6134
#
#
#
# Elastic Compliance Matrix: (Units=1/GPa)
#
#
# Indices 1 2 3 4 5 6 
#
# 1 0.088129 -0.004927 -0.007755 0.000000 0.000000 0.000000
# 2 -0.004927 0.010906 -0.008041 0.000000 0.000000 0.000000
# 3 -0.007755 -0.008041 0.017578 0.000000 0.000000 0.000000
# 4 0.000000 0.000000 0.000000 0.025906 0.000000 0.000000
# 5 0.000000 0.000000 0.000000 0.000000 0.038370 0.000000
# 6 0.000000 0.000000 0.000000 0.000000 0.000000 0.028891
#
#
# Mechanical properties :
#
#
# Convention : Reuss Voigt Hill
#
# Bulk Modulus (GPa) = 13.30355 53.72064 33.51210
# Shear Modulus (GPa) = 18.09753 30.61288 24.35521
#
# Velocity S-wave (km/s) = 3.06313 3.98389 3.55346
# Velocity P-wave (km/s) = 4.40541 7.00097 5.84898
#
# Compressibility (1/GPa) = 0.07516788
#
# Stress axis : x y z
#
# Youngs Moduli (GPa) = 11.34702 91.69215 56.88931
#
# Poissons Ratio (x) = 0.45175 0.44116
# Poissons Ratio (y) = 0.05590 0.45745
# Poissons Ratio (z) = 0.08799 0.73731
#
# Static dielectric constant tensor:
#      x y z
#    x 1.672910 0.000000 0.000000 
#    y 0.000000 1.693010 0.000000 
#    z 0.000000 0.000000 1.658690 
# 
# From -- ./inp_files/34752.got.cif
#   From: 2010.05.17/outbox.cif.g08.bks.cpg/sg58_18_cif.got.tgz:34752.got - 2010.06.03 14:20:14.
