data_PCOD9444869
_publ_section_title
;
Structure prediction by ZEFSAII (Michael W. Deem and Ramdas Pophale) SiO2 
 PCOD9444869
Probable space group: P N N M
;
_chemical_formula_sum "Si O2"
_cell_formula_units_Z 32
_cell_length_a 9.115523
_cell_length_b 5.315138
_cell_length_c 30.331360
_cell_angle_alpha 90.000000
_cell_angle_beta 90.000000
_cell_angle_gamma 90.000000
_cell_volume 1469.562360
_symmetry_space_group_name_H-M "P N N M"
_symmetry_group_IT_number 58
_symmetry_cell_setting 'orthorhombic'
loop_
_space_group_symop_operation_xyz
x,y,z
-x,-y,z
1/2+x,1/2-y,1/2-z
1/2-x,1/2+y,1/2-z
-x,-y,-z
x,y,-z
1/2-x,1/2+y,1/2+z
1/2+x,1/2-y,1/2+z
loop_
_atom_site_type_symbol
_atom_site_label
_atom_site_fract_x
_atom_site_fract_y
_atom_site_fract_z
Si Si1 0.152462 0.614565 0.427512
Si Si2 0.000000 0.000000 0.361679
Si Si3 0.724117 0.117676 0.838391
Si Si4 0.894816 0.752952 0.000000
Si Si5 0.500000 0.500000 0.283431
Si Si6 0.000000 0.500000 0.727035
O O1 0.224598 0.430733 0.390867
O O2 0.278789 0.720095 0.459284
O O3 0.000000 0.500000 0.448181
O O4 0.085401 0.819111 0.394957
O O5 0.126286 0.134718 0.334435
O O6 0.631006 0.930483 0.806847
O O7 0.878519 0.111817 0.816089
O O8 0.000000 0.500000 0.000000
O O9 0.000000 0.000000 0.000000
O O10 0.540059 0.248634 0.255331
#
# Coordination Sequence:
#
# PCOD9444869 Si02
#       6
#     8   4   8   4   4   4
#     4  10  24  46  77 100 141 195 240 288 352 454
#     4  10  21  43  80  99 140 196 251 286 352 454
#     4  11  24  44  70 104 140 197 241 300 360 435
#     4  12  31  49  74 116 150 177 230 309 369 427
#     4  12  29  38  70 102 150 183 247 306 368 407
#     4  12  24  46  64 101 142 195 242 300 354 434
#
# _framework density 21.775189999999998
#
# number of rings (size 3 to 8) (size 9 to 14) (size 15 to 20)
#    0.000    1.000    3.750    2.625   12.250    0.500 
#    0.000    0.000    0.000    0.000    0.000    0.000 
#    0.000    0.000    0.000    0.000    0.000    0.000 
#
# Total GULP energy -178135.249085 kJ/mol
# GULP energy per Si atom -5566.726534 kJ/mol
# Density = 2.172563 g / cm^3
# Si number density = 21.775190 Si / 1000 Ang^3
#
#
#
# Elastic Constant Matrix: (Units=GPa)
#
#
# Indices 1 2 3 4 5 6 
#
# 1 152.6812 47.2861 80.9928 0.0000 0.0000 0.0000
# 2 47.2861 125.0383 45.3249 0.0000 0.0000 0.0000
# 3 80.9928 45.3249 136.5960 0.0000 0.0000 0.0000
# 4 0.0000 0.0000 0.0000 62.0123 0.0000 0.0000
# 5 0.0000 0.0000 0.0000 0.0000 30.5952 0.0000
# 6 0.0000 0.0000 0.0000 0.0000 0.0000 28.2970
#
#
#
# Elastic Compliance Matrix: (Units=1/GPa)
#
#
# Indices 1 2 3 4 5 6 
#
# 1 0.009914 -0.001840 -0.005268 0.000000 0.000000 0.000000
# 2 -0.001840 0.009432 -0.002039 0.000000 0.000000 0.000000
# 3 -0.005268 -0.002039 0.011121 0.000000 0.000000 0.000000
# 4 0.000000 0.000000 0.000000 0.016126 0.000000 0.000000
# 5 0.000000 0.000000 0.000000 0.000000 0.032685 0.000000
# 6 0.000000 0.000000 0.000000 0.000000 0.000000 0.035339
#
#
# Mechanical properties :
#
#
# Convention : Reuss Voigt Hill
#
# Bulk Modulus (GPa) = 82.14149 84.61367 83.37758
# Shear Modulus (GPa) = 36.50483 40.22834 38.36659
#
# Velocity S-wave (km/s) = 4.09888 4.30285 4.20210
# Velocity P-wave (km/s) = 7.75922 7.97673 7.86873
#
# Compressibility (1/GPa) = 0.01217412
#
# Stress axis : x y z
#
# Youngs Moduli (GPa) = 100.87001 106.01790 89.92046
#
# Poissons Ratio (x) = 0.19503 0.47369
# Poissons Ratio (y) = 0.18556 0.18335
# Poissons Ratio (z) = 0.53137 0.21618
#
# Static dielectric constant tensor:
#      x y z
#    x 1.872930 0.000000 0.000000 
#    y 0.000000 1.932440 0.000000 
#    z 0.000000 0.000000 1.813040 
# 
# From -- ./inp_files/34038.got.cif
#   From: 2010.05.17/outbox.cif.g08.bks.cpg/sg58_18_cif.got.tgz:34038.got - 2010.06.03 14:20:14.
