data_PCOD9444221
_publ_section_title
;
Structure prediction by ZEFSAII (Michael W. Deem and Ramdas Pophale) SiO2 
 PCOD9444221
Probable space group: P N N M
;
_chemical_formula_sum "Si O2"
_cell_formula_units_Z 64
_cell_length_a 15.057859
_cell_length_b 23.547061
_cell_length_c 7.396873
_cell_angle_alpha 90.000000
_cell_angle_beta 90.000000
_cell_angle_gamma 90.000000
_cell_volume 2622.696865
_symmetry_space_group_name_H-M "P N N M"
_symmetry_group_IT_number 58
_symmetry_cell_setting 'orthorhombic'
loop_
_space_group_symop_operation_xyz
x,y,z
-x,-y,z
1/2+x,1/2-y,1/2-z
1/2-x,1/2+y,1/2-z
-x,-y,-z
x,y,-z
1/2-x,1/2+y,1/2+z
1/2+x,1/2-y,1/2+z
loop_
_atom_site_type_symbol
_atom_site_label
_atom_site_fract_x
_atom_site_fract_y
_atom_site_fract_z
Si Si1 0.222554 0.553392 0.278825
Si Si2 0.917278 0.537855 0.279283
Si Si3 0.369654 0.845563 0.794747
Si Si4 0.824507 0.112807 0.719937
Si Si5 0.403026 0.509123 0.292989
Si Si6 0.641077 0.281604 0.299503
Si Si7 0.332968 0.176189 0.220792
Si Si8 0.441639 0.282515 0.209109
O O1 0.224033 0.552497 0.500000
O O2 0.169375 0.497219 0.220676
O O3 0.325371 0.549923 0.217909
O O4 0.170892 0.610398 0.223094
O O5 0.914887 0.541082 0.500000
O O6 0.926866 0.602726 0.218321
O O7 0.000000 0.500000 0.227212
O O8 0.272421 0.873140 0.792862
O O9 0.361793 0.786612 0.694809
O O10 0.398847 0.831933 0.000000
O O11 0.821859 0.110746 0.500000
O O12 0.859501 0.053029 0.789211
O O13 0.887366 0.164301 0.783222
O O14 0.500000 0.500000 0.207726
O O15 0.418261 0.528315 0.500000
O O16 0.640180 0.306630 0.500000
O O17 0.736357 0.298989 0.221847
O O18 0.545843 0.295527 0.217324
O O19 0.408578 0.221051 0.281970
O O20 0.336965 0.174582 0.000000
O O21 0.415799 0.280321 0.000000
#
# Coordination Sequence:
#
# PCOD9444221 Si02
#       8
#     8   8   8   8   8   8   8   8
#     4   9  17  32  53  80 113 146 185 235 282 332
#     4   9  18  31  53  86 113 139 184 237 285 334
#     4  11  21  37  62  87 114 151 197 244 292 347
#     4  11  22  39  61  84 119 157 195 244 300 352
#     4  10  21  36  58  88 116 147 196 245 287 345
#     4  11  23  39  59  88 119 153 195 240 295 350
#     4   9  19  36  57  80 115 154 189 234 289 343
#     4  10  22  40  59  84 114 153 198 238 288 352
#
# _framework density 24.402363999999999
#
# number of rings (size 3 to 8) (size 9 to 14) (size 15 to 20)
#    0.000    2.000    2.500    1.125    3.500    1.250 
#    0.000    0.000    0.000    3.750    0.000    0.000 
#    0.000    0.000    0.000    0.000    0.000    0.000 
#
# Total GULP energy -357504.033790 kJ/mol
# GULP energy per Si atom -5586.000528 kJ/mol
# Density = 2.434682 g / cm^3
# Si number density = 24.402364 Si / 1000 Ang^3
#
#
#
# Elastic Constant Matrix: (Units=GPa)
#
#
# Indices 1 2 3 4 5 6 
#
# 1 58.1240 -25.0277 -11.7918 0.0000 0.0000 0.0000
# 2 -25.0277 50.1555 -7.6393 0.0000 0.0000 0.0000
# 3 -11.7918 -7.6393 85.4933 0.0000 0.0000 0.0000
# 4 0.0000 0.0000 0.0000 19.9753 0.0000 0.0000
# 5 0.0000 0.0000 0.0000 0.0000 0.6535 0.0000
# 6 0.0000 0.0000 0.0000 0.0000 0.0000 37.1189
#
#
#
# Elastic Compliance Matrix: (Units=1/GPa)
#
#
# Indices 1 2 3 4 5 6 
#
# 1 0.023393 0.012332 0.004328 0.000000 0.000000 0.000000
# 2 0.012332 0.026715 0.004088 0.000000 0.000000 0.000000
# 3 0.004328 0.004088 0.012659 0.000000 0.000000 0.000000
# 4 0.000000 0.000000 0.000000 0.050062 0.000000 0.000000
# 5 0.000000 0.000000 0.000000 0.000000 1.530142 0.000000
# 6 0.000000 0.000000 0.000000 0.000000 0.000000 0.026940
#
#
# Mechanical properties :
#
#
# Convention : Reuss Voigt Hill
#
# Bulk Modulus (GPa) = 9.59099 11.65058 10.62078
# Shear Modulus (GPa) = 3.00631 27.43165 15.21898
#
# Velocity S-wave (km/s) = 1.11115 3.35646 2.50004
# Velocity P-wave (km/s) = 2.36328 4.45037 3.56307
#
# Compressibility (1/GPa) = 0.10426452
#
# Stress axis : x y z
#
# Youngs Moduli (GPa) = 42.74793 37.43278 78.99437
#
# Poissons Ratio (x) = -0.46164 -0.34193
# Poissons Ratio (y) = -0.52718 -0.32293
# Poissons Ratio (z) = -0.18503 -0.15303
#
# Static dielectric constant tensor:
#      x y z
#    x 1.937190 0.000000 0.000000 
#    y 0.000000 1.914990 0.000000 
#    z 0.000000 0.000000 1.943150 
# 
# From -- ./inp_files/6985.got.cif
#   From: 2010.05.17/outbox.cif.g08.bks.cpg/sg58_4_cif.got.tgz:6985.got - 2010.06.03 14:20:14.
