data_PCOD9444311
_publ_section_title
;
Structure prediction by ZEFSAII (Michael W. Deem and Ramdas Pophale) SiO2 
 PCOD9444311
Probable space group: P N N M
;
_chemical_formula_sum "Si O2"
_cell_formula_units_Z 58
_cell_length_a 12.724310
_cell_length_b 23.286431
_cell_length_c 7.365991
_cell_angle_alpha 90.000000
_cell_angle_beta 90.000000
_cell_angle_gamma 90.000000
_cell_volume 2182.570880
_symmetry_space_group_name_H-M "P N N M"
_symmetry_group_IT_number 58
_symmetry_cell_setting 'orthorhombic'
loop_
_space_group_symop_operation_xyz
x,y,z
-x,-y,z
1/2+x,1/2-y,1/2-z
1/2-x,1/2+y,1/2-z
-x,-y,-z
x,y,-z
1/2-x,1/2+y,1/2+z
1/2+x,1/2-y,1/2+z
loop_
_atom_site_type_symbol
_atom_site_label
_atom_site_fract_x
_atom_site_fract_y
_atom_site_fract_z
Si Si1 0.923099 0.737441 0.789288
Si Si2 0.729887 0.513202 0.214528
Si Si3 0.810093 0.632449 0.790020
Si Si4 0.057636 0.071083 0.208676
Si Si5 0.500000 0.000000 0.000000
Si Si6 0.913152 0.169110 0.777930
Si Si7 0.261655 0.665464 0.783150
Si Si8 0.407092 0.079358 0.279907
O O1 0.897596 0.674904 0.710528
O O2 0.015051 0.777947 0.715012
O O3 0.818185 0.777258 0.784131
O O4 0.949688 0.727721 0.000000
O O5 0.767000 0.573487 0.294126
O O6 0.612170 0.489069 0.241196
O O7 0.814230 0.465908 0.274762
O O8 0.740110 0.516751 0.000000
O O9 0.704477 0.670406 0.787772
O O10 0.840276 0.621013 0.000000
O O11 0.964026 0.108989 0.290940
O O12 0.154289 0.116109 0.231886
O O13 0.031077 0.065562 0.000000
O O14 0.498491 0.051397 0.161014
O O15 0.914462 0.169490 0.000000
O O16 0.146715 0.640726 0.731784
O O17 0.258497 0.669740 0.000000
O O18 0.423265 0.077113 0.500000
#
# Coordination Sequence:
#
# PCOD9444311 Si02
#       8
#     8   8   8   8   2   8   8   8
#     4   9  19  36  58  78 108 148 189 233 288 344
#     4   9  19  35  54  78 114 151 189 229 289 353
#     4  10  21  37  57  81 112 156 191 234 292 353
#     4   9  17  30  53  80 110 143 178 224 274 334
#     4  12  22  32  60  82 116 154 194 232 316 348
#     4   9  19  35  53  81 112 143 187 241 287 342
#     4   9  17  31  54  79 104 136 185 234 280 329
#     4   9  20  36  54  83 116 150 195 246 293 359
#
# _framework density 26.574166000000002
#
# number of rings (size 3 to 8) (size 9 to 14) (size 15 to 20)
#    0.000    2.759    0.000    2.690    4.828    4.414 
#    0.000    4.138    0.000    3.310    0.000    0.000 
#    0.000    0.000    0.000    0.000    0.000    0.000 
#
# Total GULP energy -323370.093258 kJ/mol
# GULP energy per Si atom -5575.346435 kJ/mol
# Density = 2.651368 g / cm^3
# Si number density = 26.574166 Si / 1000 Ang^3
#
#
#
# Elastic Constant Matrix: (Units=GPa)
#
#
# Indices 1 2 3 4 5 6 
#
# 1 97.4497 13.6664 -15.4208 0.0000 0.0000 0.0000
# 2 13.6664 118.0900 -1.3081 0.0000 0.0000 0.0000
# 3 -15.4208 -1.3081 108.3064 0.0000 0.0000 0.0000
# 4 0.0000 0.0000 0.0000 6.7228 0.0000 0.0000
# 5 0.0000 0.0000 0.0000 0.0000 18.2348 0.0000
# 6 0.0000 0.0000 0.0000 0.0000 0.0000 34.4883
#
#
#
# Elastic Compliance Matrix: (Units=1/GPa)
#
#
# Indices 1 2 3 4 5 6 
#
# 1 0.010671 -0.001218 0.001505 0.000000 0.000000 0.000000
# 2 -0.001218 0.008608 -0.000069 0.000000 0.000000 0.000000
# 3 0.001505 -0.000069 0.009446 0.000000 0.000000 0.000000
# 4 0.000000 0.000000 0.000000 0.148747 0.000000 0.000000
# 5 0.000000 0.000000 0.000000 0.000000 0.054840 0.000000
# 6 0.000000 0.000000 0.000000 0.000000 0.000000 0.028995
#
#
# Mechanical properties :
#
#
# Convention : Reuss Voigt Hill
#
# Bulk Modulus (GPa) = 34.29452 35.30232 34.79842
# Shear Modulus (GPa) = 18.47789 33.68308 26.08049
#
# Velocity S-wave (km/s) = 2.63978 3.56408 3.13617
# Velocity P-wave (km/s) = 4.71428 5.50001 5.12224
#
# Compressibility (1/GPa) = 0.02915918
#
# Stress axis : x y z
#
# Youngs Moduli (GPa) = 93.71507 116.16648 105.85982
#
# Poissons Ratio (x) = 0.14152 -0.15928
# Poissons Ratio (y) = 0.11417 0.00736
# Poissons Ratio (z) = -0.14100 0.00807
#
# Static dielectric constant tensor:
#      x y z
#    x 2.221260 0.000000 0.000000 
#    y 0.000000 2.149900 0.000000 
#    z 0.000000 0.000000 1.958370 
# 
# From -- ./inp_files/6678.got.cif
#   From: 2010.05.17/outbox.cif.g08.bks.cpg/sg58_4_cif.got.tgz:6678.got - 2010.06.03 14:20:14.
