data_PCOD9444118
_publ_section_title
;
Structure prediction by ZEFSAII (Michael W. Deem and Ramdas Pophale) SiO2 
 PCOD9444118
Probable space group: P N N M
;
_chemical_formula_sum "Si O2"
_cell_formula_units_Z 64
_cell_length_a 15.876317
_cell_length_b 23.677261
_cell_length_c 7.660804
_cell_angle_alpha 90.000000
_cell_angle_beta 90.000000
_cell_angle_gamma 90.000000
_cell_volume 2879.755222
_symmetry_space_group_name_H-M "P N N M"
_symmetry_group_IT_number 58
_symmetry_cell_setting 'orthorhombic'
loop_
_space_group_symop_operation_xyz
x,y,z
-x,-y,z
1/2+x,1/2-y,1/2-z
1/2-x,1/2+y,1/2-z
-x,-y,-z
x,y,-z
1/2-x,1/2+y,1/2+z
1/2+x,1/2-y,1/2+z
loop_
_atom_site_type_symbol
_atom_site_label
_atom_site_fract_x
_atom_site_fract_y
_atom_site_fract_z
Si Si1 0.498638 0.337292 0.700869
Si Si2 0.408182 0.996154 0.799578
Si Si3 0.188282 0.179522 0.712102
Si Si4 0.254336 0.923737 0.208259
Si Si5 0.070303 0.957551 0.300348
Si Si6 0.999001 0.290465 0.211771
Si Si7 0.641827 0.881011 0.711151
Si Si8 0.308024 0.805159 0.204757
O O1 0.469321 0.339624 0.500000
O O2 0.599823 0.339723 0.710955
O O3 0.462327 0.393001 0.789750
O O4 0.479837 0.273996 0.770565
O O5 0.375264 0.059529 0.796942
O O6 0.500000 0.000000 0.713812
O O7 0.335463 0.957121 0.720435
O O8 0.421049 0.976328 0.000000
O O9 0.178491 0.181084 0.500000
O O10 0.265388 0.139882 0.755181
O O11 0.209575 0.242837 0.775995
O O12 0.165780 0.954948 0.232591
O O13 0.259625 0.859464 0.277905
O O14 0.265605 0.919885 0.000000
O O15 0.078991 0.975743 0.500000
O O16 0.000000 0.000000 0.219695
O O17 0.927165 0.334334 0.262666
O O18 0.090654 0.310693 0.276310
O O19 0.003344 0.288237 0.000000
O O20 0.636503 0.886885 0.500000
O O21 0.286521 0.802159 0.000000
#
# Coordination Sequence:
#
# PCOD9444118 Si02
#       8
#     8   8   8   8   8   8   8   8
#     4  10  21  38  62  86 115 150 191 241 292 345
#     4  10  22  40  60  87 121 155 195 242 290 344
#     4   9  19  35  57  84 117 152 187 231 287 351
#     4  10  22  39  63  91 118 155 200 245 294 347
#     4  11  26  44  61  83 115 155 199 249 299 352
#     4   9  19  35  57  87 120 152 189 236 286 344
#     4  10  21  35  56  84 115 153 192 232 284 346
#     4   9  18  35  60  85 114 152 190 232 290 348
#
# _framework density 22.224112000000002
#
# number of rings (size 3 to 8) (size 9 to 14) (size 15 to 20)
#    0.000    2.250    0.000    1.500    3.500    4.750 
#    0.000    0.000    0.000    0.000    0.000    0.000 
#    0.000    0.000    0.000    0.000    0.000    0.000 
#
# Total GULP energy -357350.494874 kJ/mol
# GULP energy per Si atom -5583.601482 kJ/mol
# Density = 2.217353 g / cm^3
# Si number density = 22.224112 Si / 1000 Ang^3
#
#
#
# Elastic Constant Matrix: (Units=GPa)
#
#
# Indices 1 2 3 4 5 6 
#
# 1 78.2391 40.9371 -1.7739 0.0000 0.0000 0.0000
# 2 40.9371 63.1688 -2.7662 0.0000 0.0000 0.0000
# 3 -1.7739 -2.7662 36.9142 0.0000 0.0000 0.0000
# 4 0.0000 0.0000 0.0000 12.6559 0.0000 0.0000
# 5 0.0000 0.0000 0.0000 0.0000 -32.6157 0.0000
# 6 0.0000 0.0000 0.0000 0.0000 0.0000 31.4445
#
#
#
# Elastic Compliance Matrix: (Units=1/GPa)
#
#
# Indices 1 2 3 4 5 6 
#
# 1 0.019339 -0.012533 -0.000010 0.000000 0.000000 0.000000
# 2 -0.012533 0.024005 0.001197 0.000000 0.000000 0.000000
# 3 -0.000010 0.001197 0.027179 0.000000 0.000000 0.000000
# 4 0.000000 0.000000 0.000000 0.079015 0.000000 0.000000
# 5 0.000000 0.000000 0.000000 0.000000 -0.030660 0.000000
# 6 0.000000 0.000000 0.000000 0.000000 0.000000 0.031802
#
#
# Mechanical properties :
#
#
# Convention : Reuss Voigt Hill
#
# Bulk Modulus (GPa) = 20.90730 27.90181 24.40456
# Shear Modulus (GPa) = 26.41084 11.75861 19.08472
#
# Velocity S-wave (km/s) = 3.45104 2.30270 2.93361
# Velocity P-wave (km/s) = 5.03065 4.43304 4.74127
#
# Compressibility (1/GPa) = 0.04783018
#
# Stress axis : x y z
#
# Youngs Moduli (GPa) = 51.70940 41.65759 36.79309
#
# Poissons Ratio (x) = 0.52210 0.00036
# Poissons Ratio (y) = 0.64808 -0.04403
# Poissons Ratio (z) = 0.00051 -0.04985
#
# Static dielectric constant tensor:
#      x y z
#    x 1.792400 0.000000 0.000000 
#    y 0.000000 1.819440 0.000000 
#    z 0.000000 0.000000 1.858090 
# 
# From -- ./inp_files/6970.got.cif
#   From: 2010.05.17/outbox.cif.g08.bks.cpg/sg58_4_cif.got.tgz:6970.got - 2010.06.03 14:20:14.
