data_PCOD9444968
_publ_section_title
;
Structure prediction by ZEFSAII (Michael W. Deem and Ramdas Pophale) SiO2 
 PCOD9444968
Probable space group: P N N M
;
_chemical_formula_sum "Si O2"
_cell_formula_units_Z 56
_cell_length_a 20.122463
_cell_length_b 5.299228
_cell_length_c 23.289208
_cell_angle_alpha 90.000000
_cell_angle_beta 90.000000
_cell_angle_gamma 90.000000
_cell_volume 2483.410212
_symmetry_space_group_name_H-M "P N N M"
_symmetry_group_IT_number 58
_symmetry_cell_setting 'orthorhombic'
loop_
_space_group_symop_operation_xyz
x,y,z
-x,-y,z
1/2+x,1/2-y,1/2-z
1/2-x,1/2+y,1/2-z
-x,-y,-z
x,y,-z
1/2-x,1/2+y,1/2+z
1/2+x,1/2-y,1/2+z
loop_
_atom_site_type_symbol
_atom_site_label
_atom_site_fract_x
_atom_site_fract_y
_atom_site_fract_z
Si Si1 0.335904 0.571488 0.065110
Si Si2 0.879898 0.533597 0.661302
Si Si3 0.579560 0.525859 0.366698
Si Si4 0.541463 0.754708 0.917877
Si Si5 0.265900 0.360945 0.168552
Si Si6 0.648236 0.339220 0.261928
Si Si7 0.081035 0.478577 0.934356
O O1 0.372807 0.776666 0.106548
O O2 0.386199 0.332470 0.059489
O O3 0.274837 0.482953 0.105528
O O4 0.321524 0.658313 0.000000
O O5 0.936328 0.331406 0.646106
O O6 0.808516 0.397832 0.666933
O O7 0.896084 0.669275 0.720476
O O8 0.500000 0.500000 0.363964
O O9 0.608037 0.523004 0.302757
O O10 0.600323 0.279917 0.403259
O O11 0.602162 0.775682 0.399401
O O12 0.500000 0.500000 0.924403
O O13 0.500000 0.000000 0.939160
O O14 0.304210 0.527509 0.215766
O O15 0.194057 0.317169 0.194358
O O16 0.000000 0.500000 0.935565
O O17 0.104149 0.482192 0.000000
#
# Coordination Sequence:
#
# PCOD9444968 Si02
#       7
#     8   8   8   8   8   8   8
#     4  10  23  43  67  98 134 174 228 288 342 400
#     4  10  22  42  65  93 129 180 225 276 338 392
#     4  10  22  38  61  98 131 166 211 267 332 383
#     4  11  22  43  64  98 136 177 230 275 335 414
#     4  10  22  41  68  92 120 180 229 275 336 398
#     4  11  22  41  68  93 132 174 229 279 333 410
#     4   9  18  37  62  87 124 170 210 249 310 395
#
# _framework density 22.549638000000002
#
# number of rings (size 3 to 8) (size 9 to 14) (size 15 to 20)
#    0.000    1.857    2.857    0.429    2.000    4.571 
#    7.714    1.429    0.000    0.000    0.000    0.000 
#    0.000    0.000    0.000    0.000    0.000    0.000 
#
# Total GULP energy -312453.615390 kJ/mol
# GULP energy per Si atom -5579.528846 kJ/mol
# Density = 2.249831 g / cm^3
# Si number density = 22.549638 Si / 1000 Ang^3
#
#
#
# Elastic Constant Matrix: (Units=GPa)
#
#
# Indices 1 2 3 4 5 6 
#
# 1 22.1015 14.4569 42.2365 0.0000 0.0000 0.0000
# 2 14.4569 103.1425 36.4487 0.0000 0.0000 0.0000
# 3 42.2365 36.4487 166.9155 0.0000 0.0000 0.0000
# 4 0.0000 0.0000 0.0000 7.5478 0.0000 0.0000
# 5 0.0000 0.0000 0.0000 0.0000 -24.4662 0.0000
# 6 0.0000 0.0000 0.0000 0.0000 0.0000 22.2313
#
#
#
# Elastic Compliance Matrix: (Units=1/GPa)
#
#
# Indices 1 2 3 4 5 6 
#
# 1 0.089878 -0.004942 -0.021664 0.000000 0.000000 0.000000
# 2 -0.004942 0.010778 -0.001103 0.000000 0.000000 0.000000
# 3 -0.021664 -0.001103 0.011714 0.000000 0.000000 0.000000
# 4 0.000000 0.000000 0.000000 0.132488 0.000000 0.000000
# 5 0.000000 0.000000 0.000000 0.000000 -0.040873 0.000000
# 6 0.000000 0.000000 0.000000 0.000000 0.000000 0.044982
#
#
# Mechanical properties :
#
#
# Convention : Reuss Voigt Hill
#
# Bulk Modulus (GPa) = 17.55859 53.16041 35.35950
# Shear Modulus (GPa) = 15.46223 14.33043 14.89633
#
# Velocity S-wave (km/s) = 2.62142 2.52366 2.57301
# Velocity P-wave (km/s) = 4.11898 5.66726 4.95398
#
# Compressibility (1/GPa) = 0.05695219
#
# Stress axis : x y z
#
# Youngs Moduli (GPa) = 11.12615 92.78330 85.37009
#
# Poissons Ratio (x) = 0.45855 1.84943
# Poissons Ratio (y) = 0.05499 0.09416
# Poissons Ratio (z) = 0.24103 0.10233
#
# Static dielectric constant tensor:
#      x y z
#    x 1.863430 0.000000 0.000000 
#    y 0.000000 1.922230 0.000000 
#    z 0.000000 0.000000 1.833570 
# 
# From -- ./inp_files/30515.got.cif
#   From: 2010.05.17/outbox.cif.g08.bks.cpg/sg58_16_cif.got.tgz:30515.got - 2010.06.03 14:20:14.
