data_PCOD9444116
_publ_section_title
;
Structure prediction by ZEFSAII (Michael W. Deem and Ramdas Pophale) SiO2 
 PCOD9444116
Probable space group: P N N M
;
_chemical_formula_sum "Si O2"
_cell_formula_units_Z 58
_cell_length_a 12.256348
_cell_length_b 28.405136
_cell_length_c 7.407364
_cell_angle_alpha 90.000000
_cell_angle_beta 90.000000
_cell_angle_gamma 90.000000
_cell_volume 2578.823642
_symmetry_space_group_name_H-M "P N N M"
_symmetry_group_IT_number 58
_symmetry_cell_setting 'orthorhombic'
loop_
_space_group_symop_operation_xyz
x,y,z
-x,-y,z
1/2+x,1/2-y,1/2-z
1/2-x,1/2+y,1/2-z
-x,-y,-z
x,y,-z
1/2-x,1/2+y,1/2+z
1/2+x,1/2-y,1/2+z
loop_
_atom_site_type_symbol
_atom_site_label
_atom_site_fract_x
_atom_site_fract_y
_atom_site_fract_z
Si Si1 0.172573 0.998604 0.781320
Si Si2 0.439426 0.124347 0.217947
Si Si3 0.632582 0.062014 0.203161
Si Si4 0.500000 0.500000 0.000000
Si Si5 0.305898 0.607069 0.719376
Si Si6 0.074467 0.282124 0.786581
Si Si7 0.510168 0.320578 0.281851
Si Si8 0.737349 0.653334 0.212144
O O1 0.166109 0.053680 0.732226
O O2 0.291666 0.979448 0.724440
O O3 0.078364 0.976424 0.660239
O O4 0.160293 0.992376 0.000000
O O5 0.522960 0.083996 0.286247
O O6 0.316101 0.119075 0.281254
O O7 0.489353 0.175397 0.260123
O O8 0.439822 0.120394 0.000000
O O9 0.715720 0.106397 0.198215
O O10 0.603666 0.047138 0.000000
O O11 0.304258 0.608650 0.500000
O O12 0.396776 0.643596 0.782151
O O13 0.034691 0.232202 0.713869
O O14 0.189764 0.302791 0.719131
O O15 0.088041 0.274844 0.000000
O O16 0.514598 0.320303 0.500000
O O17 0.389457 0.337463 0.234547
O O18 0.761189 0.647459 0.000000
#
# Coordination Sequence:
#
# PCOD9444116 Si02
#       8
#     8   8   8   2   8   8   8   8
#     4  10  23  41  62  91 125 161 204 251 309 355
#     4   9  18  36  63  86 113 151 198 242 294 358
#     4   9  19  36  60  88 115 152 194 241 293 354
#     4  12  26  40  64  88 124 168 206 248 290 374
#     4   9  20  38  59  85 116 156 195 242 298 358
#     4   9  20  37  54  80 111 148 188 239 299 348
#     4  10  21  36  55  77 112 151 190 237 296 354
#     4  10  21  35  56  82 111 145 192 241 288 350
#
# _framework density 22.490873000000001
#
# number of rings (size 3 to 8) (size 9 to 14) (size 15 to 20)
#    0.000    2.483    0.000    0.621    4.828    1.655 
#    1.241    2.759    0.000    0.828    0.000    0.000 
#    0.000    0.000    0.000    0.000    0.000    0.000 
#
# Total GULP energy -323349.809093 kJ/mol
# GULP energy per Si atom -5574.996709 kJ/mol
# Density = 2.243968 g / cm^3
# Si number density = 22.490873 Si / 1000 Ang^3
#
#
#
# Elastic Constant Matrix: (Units=GPa)
#
#
# Indices 1 2 3 4 5 6 
#
# 1 152.7996 39.2417 -3.6619 0.0000 0.0000 0.0000
# 2 39.2417 57.5170 2.3702 0.0000 0.0000 0.0000
# 3 -3.6619 2.3702 85.4877 0.0000 0.0000 0.0000
# 4 0.0000 0.0000 0.0000 7.4042 0.0000 0.0000
# 5 0.0000 0.0000 0.0000 0.0000 -10.2594 0.0000
# 6 0.0000 0.0000 0.0000 0.0000 0.0000 17.7743
#
#
#
# Elastic Compliance Matrix: (Units=1/GPa)
#
#
# Indices 1 2 3 4 5 6 
#
# 1 0.007955 -0.005448 0.000492 0.000000 0.000000 0.000000
# 2 -0.005448 0.021137 -0.000819 0.000000 0.000000 0.000000
# 3 0.000492 -0.000819 0.011741 0.000000 0.000000 0.000000
# 4 0.000000 0.000000 0.000000 0.135058 0.000000 0.000000
# 5 0.000000 0.000000 0.000000 0.000000 -0.097471 0.000000
# 6 0.000000 0.000000 0.000000 0.000000 0.000000 0.056261
#
#
# Mechanical properties :
#
#
# Convention : Reuss Voigt Hill
#
# Bulk Modulus (GPa) = 34.14996 41.30047 37.72522
# Shear Modulus (GPa) = 32.05256 20.17410 26.11333
#
# Velocity S-wave (km/s) = 3.77919 2.99823 3.41113
# Velocity P-wave (km/s) = 5.85320 5.51261 5.68546
#
# Compressibility (1/GPa) = 0.02928261
#
# Stress axis : x y z
#
# Youngs Moduli (GPa) = 125.70014 47.31070 85.16888
#
# Poissons Ratio (x) = 0.25775 -0.04189
# Poissons Ratio (y) = 0.68481 0.06979
# Poissons Ratio (z) = -0.06182 0.03877
#
# Static dielectric constant tensor:
#      x y z
#    x 1.832960 0.000000 0.000000 
#    y 0.000000 1.829500 0.000000 
#    z 0.000000 0.000000 1.874390 
# 
# From -- ./inp_files/4581.got.cif
#   From: 2010.05.17/outbox.cif.g08.bks.cpg/sg58_3_cif.got.tgz:4581.got - 2010.06.03 14:20:14.
