data_PCOD9444349
_publ_section_title
;
Structure prediction by ZEFSAII (Michael W. Deem and Ramdas Pophale) SiO2 
 PCOD9444349
Probable space group: P N N M
;
_chemical_formula_sum "Si O2"
_cell_formula_units_Z 64
_cell_length_a 5.080832
_cell_length_b 24.240744
_cell_length_c 22.202917
_cell_angle_alpha 90.000000
_cell_angle_beta 90.000000
_cell_angle_gamma 90.000000
_cell_volume 2734.581148
_symmetry_space_group_name_H-M "P N N M"
_symmetry_group_IT_number 58
_symmetry_cell_setting 'orthorhombic'
loop_
_space_group_symop_operation_xyz
x,y,z
-x,-y,z
1/2+x,1/2-y,1/2-z
1/2-x,1/2+y,1/2-z
-x,-y,-z
x,y,-z
1/2-x,1/2+y,1/2+z
1/2+x,1/2-y,1/2+z
loop_
_atom_site_type_symbol
_atom_site_label
_atom_site_fract_x
_atom_site_fract_y
_atom_site_fract_z
Si Si1 0.133102 0.900262 0.567156
Si Si2 0.265150 0.164495 0.069903
Si Si3 0.924063 0.418881 0.713267
Si Si4 0.730078 0.716483 0.632459
Si Si5 0.589494 0.440653 0.184053
Si Si6 0.741465 0.965505 0.094337
Si Si7 0.870329 0.326400 0.931933
Si Si8 0.073844 0.858044 0.774572
O O1 0.158289 0.924524 0.500000
O O2 0.993708 0.939723 0.615098
O O3 0.416077 0.873724 0.583110
O O4 0.920742 0.851171 0.564348
O O5 0.487720 0.198333 0.106625
O O6 0.281588 0.097975 0.074360
O O7 0.980090 0.180084 0.095454
O O8 0.290599 0.180153 0.000000
O O9 0.874332 0.434651 0.783235
O O10 0.797925 0.461425 0.667001
O O11 0.000000 0.500000 0.569739
O O12 0.216837 0.401415 0.696655
O O13 0.648280 0.778378 0.616722
O O14 0.684353 0.699615 0.702359
O O15 0.500000 0.500000 0.208506
O O16 0.445866 0.384367 0.208222
O O17 0.773376 0.866636 0.205547
O O18 0.000000 0.000000 0.080001
O O19 0.940280 0.306229 0.000000
#
# Coordination Sequence:
#
# PCOD9444349 Si02
#       8
#     8   8   8   8   8   8   8   8
#     4  10  23  44  65  96 134 165 206 263 320 384
#     4  12  24  37  56  85 118 156 214 271 314 381
#     4  10  21  37  58  87 122 155 203 259 301 361
#     4  12  21  42  64  92 119 163 209 273 323 376
#     4  10  24  40  67  97 128 170 215 257 313 389
#     4  12  23  36  56  78 118 166 208 257 326 378
#     4  10  22  41  67  93 124 168 213 261 324 386
#     4  10  21  38  60  91 127 154 208 266 312 365
#
# _framework density 23.403948
#
# number of rings (size 3 to 8) (size 9 to 14) (size 15 to 20)
#    0.750    0.500    2.500    3.750    3.500    1.750 
#    0.000    1.250    0.000    2.250    0.000    0.000 
#    0.000    0.000    0.000    0.000    0.000    0.000 
#
# Total GULP energy -356561.519586 kJ/mol
# GULP energy per Si atom -5571.273744 kJ/mol
# Density = 2.335068 g / cm^3
# Si number density = 23.403948 Si / 1000 Ang^3
#
#
#
# Elastic Constant Matrix: (Units=GPa)
#
#
# Indices 1 2 3 4 5 6 
#
# 1 104.4391 -6.2082 -1.1536 0.0000 0.0000 0.0000
# 2 -6.2082 43.0761 21.6125 0.0000 0.0000 0.0000
# 3 -1.1536 21.6125 83.8708 0.0000 0.0000 0.0000
# 4 0.0000 0.0000 0.0000 6.9706 0.0000 0.0000
# 5 0.0000 0.0000 0.0000 0.0000 16.3998 0.0000
# 6 0.0000 0.0000 0.0000 0.0000 0.0000 11.4800
#
#
#
# Elastic Compliance Matrix: (Units=1/GPa)
#
#
# Indices 1 2 3 4 5 6 
#
# 1 0.009663 0.001523 -0.000259 0.000000 0.000000 0.000000
# 2 0.001523 0.026902 -0.006911 0.000000 0.000000 0.000000
# 3 -0.000259 -0.006911 0.013700 0.000000 0.000000 0.000000
# 4 0.000000 0.000000 0.000000 0.143459 0.000000 0.000000
# 5 0.000000 0.000000 0.000000 0.000000 0.060976 0.000000
# 6 0.000000 0.000000 0.000000 0.000000 0.000000 0.087108
#
#
# Mechanical properties :
#
#
# Convention : Reuss Voigt Hill
#
# Bulk Modulus (GPa) = 25.66152 28.87637 27.26895
# Shear Modulus (GPa) = 13.65767 21.44576 17.55172
#
# Velocity S-wave (km/s) = 2.41833 3.03038 2.74149
# Velocity P-wave (km/s) = 4.33430 4.96078 4.65808
#
# Compressibility (1/GPa) = 0.03896885
#
# Stress axis : x y z
#
# Youngs Moduli (GPa) = 103.49175 37.17221 72.99004
#
# Poissons Ratio (x) = -0.05661 0.01894
# Poissons Ratio (y) = -0.15760 0.50446
# Poissons Ratio (z) = 0.02686 0.25691
#
# Static dielectric constant tensor:
#      x y z
#    x 1.849670 0.000000 0.000000 
#    y 0.000000 1.901890 0.000000 
#    z 0.000000 0.000000 2.003730 
# 
# From -- ./inp_files/31092.got.cif
#   From: 2010.05.17/outbox.cif.g08.bks.cpg/sg58_16_cif.got.tgz:31092.got - 2010.06.03 14:20:14.
