data_PCOD9444830
_publ_section_title
;
Structure prediction by ZEFSAII (Michael W. Deem and Ramdas Pophale) SiO2 
 PCOD9444830
Probable space group: P N N M
;
_chemical_formula_sum "Si O2"
_cell_formula_units_Z 40
_cell_length_a 8.816867
_cell_length_b 19.245910
_cell_length_c 10.782552
_cell_angle_alpha 90.000000
_cell_angle_beta 90.000000
_cell_angle_gamma 90.000000
_cell_volume 1829.676463
_symmetry_space_group_name_H-M "P N N M"
_symmetry_group_IT_number 58
_symmetry_cell_setting 'orthorhombic'
loop_
_space_group_symop_operation_xyz
x,y,z
-x,-y,z
1/2+x,1/2-y,1/2-z
1/2-x,1/2+y,1/2-z
-x,-y,-z
x,y,-z
1/2-x,1/2+y,1/2+z
1/2+x,1/2-y,1/2+z
loop_
_atom_site_type_symbol
_atom_site_label
_atom_site_fract_x
_atom_site_fract_y
_atom_site_fract_z
Si Si1 0.631179 0.904978 0.360007
Si Si2 0.336708 0.465251 0.218016
Si Si3 0.326184 0.733606 0.139202
Si Si4 0.672838 0.689138 0.135500
Si Si5 0.423714 0.924635 0.132085
O O1 0.568352 0.904959 0.500000
O O2 0.748202 0.841779 0.346390
O O3 0.504189 0.895176 0.254739
O O4 0.723391 0.976852 0.339291
O O5 0.500000 0.500000 0.234228
O O6 0.347890 0.394082 0.141638
O O7 0.252360 0.439542 0.342621
O O8 0.505973 0.722665 0.145157
O O9 0.267559 0.782441 0.248670
O O10 0.283094 0.757339 0.000000
O O11 0.738322 0.707696 0.000000
O O12 0.500000 0.000000 0.123280
O O13 0.452220 0.888696 0.000000
#
# Coordination Sequence:
#
# PCOD9444830 Si02
#       5
#     8   8   8   8   8
#     4  10  21  41  69  98 129 168 218 272 325 384
#     4  11  22  40  69 102 131 164 218 282 331 375
#     4  10  24  45  66  94 132 174 219 267 324 393
#     4  11  25  44  68  97 130 172 220 270 328 390
#     4   9  21  39  59  90 132 171 206 253 319 391
#
# _framework density 21.861788000000001
#
# number of rings (size 3 to 8) (size 9 to 14) (size 15 to 20)
#    0.000    1.800    2.000    0.600    2.800    8.000 
#    0.000    0.000    0.000    0.000    0.000    0.000 
#    0.000    0.000    0.000    0.000    0.000    0.000 
#
# Total GULP energy -223483.133239 kJ/mol
# GULP energy per Si atom -5587.078331 kJ/mol
# Density = 2.181203 g / cm^3
# Si number density = 21.861788 Si / 1000 Ang^3
#
#
#
# Elastic Constant Matrix: (Units=GPa)
#
#
# Indices 1 2 3 4 5 6 
#
# 1 91.5481 27.5140 80.6094 0.0000 0.0000 0.0000
# 2 27.5140 121.4907 54.5654 0.0000 0.0000 0.0000
# 3 80.6094 54.5654 206.5124 0.0000 0.0000 0.0000
# 4 0.0000 0.0000 0.0000 -39.6727 0.0000 0.0000
# 5 0.0000 0.0000 0.0000 0.0000 41.5540 0.0000
# 6 0.0000 0.0000 0.0000 0.0000 0.0000 43.6249
#
#
#
# Elastic Compliance Matrix: (Units=1/GPa)
#
#
# Indices 1 2 3 4 5 6 
#
# 1 0.016744 -0.000972 -0.006279 0.000000 0.000000 0.000000
# 2 -0.000972 0.009396 -0.002103 0.000000 0.000000 0.000000
# 3 -0.006279 -0.002103 0.007849 0.000000 0.000000 0.000000
# 4 0.000000 0.000000 0.000000 -0.025206 0.000000 0.000000
# 5 0.000000 0.000000 0.000000 0.000000 0.024065 0.000000
# 6 0.000000 0.000000 0.000000 0.000000 0.000000 0.022923
#
#
# Mechanical properties :
#
#
# Convention : Reuss Voigt Hill
#
# Bulk Modulus (GPa) = 65.44266 82.76987 74.10627
# Shear Modulus (GPa) = 62.83590 26.22538 44.53064
#
# Velocity S-wave (km/s) = 5.36700 3.46728 4.51812
# Velocity P-wave (km/s) = 8.27079 7.34657 7.82234
#
# Compressibility (1/GPa) = 0.01528055
#
# Stress axis : x y z
#
# Youngs Moduli (GPa) = 59.72250 106.43029 127.40499
#
# Poissons Ratio (x) = 0.10344 0.79998
# Poissons Ratio (y) = 0.05805 0.26796
# Poissons Ratio (z) = 0.37500 0.22385
#
# Static dielectric constant tensor:
#      x y z
#    x 1.767910 0.000000 0.000000 
#    y 0.000000 1.819440 0.000000 
#    z 0.000000 0.000000 1.828230 
# 
# From -- ./inp_files/12906.got.cif
#   From: 2010.05.17/outbox.cif.g08.bks.cpg/sg58_7_cif.got.tgz:12906.got - 2010.06.03 14:20:14.
