data_PCOD9444302
_publ_section_title
;
Structure prediction by ZEFSAII (Michael W. Deem and Ramdas Pophale) SiO2 
 PCOD9444302
Probable space group: P N N M
;
_chemical_formula_sum "Si O2"
_cell_formula_units_Z 56
_cell_length_a 14.930821
_cell_length_b 21.562232
_cell_length_c 9.177650
_cell_angle_alpha 90.000000
_cell_angle_beta 90.000000
_cell_angle_gamma 90.000000
_cell_volume 2954.669403
_symmetry_space_group_name_H-M "P N N M"
_symmetry_group_IT_number 58
_symmetry_cell_setting 'orthorhombic'
loop_
_space_group_symop_operation_xyz
x,y,z
-x,-y,z
1/2+x,1/2-y,1/2-z
1/2-x,1/2+y,1/2-z
-x,-y,-z
x,y,-z
1/2-x,1/2+y,1/2+z
1/2+x,1/2-y,1/2+z
loop_
_atom_site_type_symbol
_atom_site_label
_atom_site_fract_x
_atom_site_fract_y
_atom_site_fract_z
Si Si1 0.669564 0.217725 0.671407
Si Si2 0.650001 0.906054 0.328189
Si Si3 0.011874 0.928911 0.822954
Si Si4 0.673918 0.365010 0.671672
Si Si5 0.203093 0.877719 0.827221
Si Si6 0.134384 0.470762 0.334823
Si Si7 0.510755 0.150204 0.830646
O O1 0.663325 0.202909 0.500000
O O2 0.680790 0.291109 0.687718
O O3 0.750366 0.178574 0.742269
O O4 0.578623 0.196527 0.751210
O O5 0.646186 0.898533 0.500000
O O6 0.749001 0.896196 0.265751
O O7 0.582884 0.858202 0.250003
O O8 0.621681 0.975008 0.279424
O O9 0.104792 0.897543 0.774955
O O10 0.924068 0.889584 0.785321
O O11 0.017227 0.930687 0.000000
O O12 0.000000 0.000000 0.773286
O O13 0.686957 0.380428 0.500000
O O14 0.270513 0.936270 0.814345
O O15 0.199949 0.862279 0.000000
O O16 0.130749 0.496761 0.500000
O O17 0.061370 0.416403 0.324708
O O18 0.499197 0.166457 0.000000
#
# Coordination Sequence:
#
# PCOD9444302 Si02
#       7
#     8   8   8   8   8   8   8
#     4  10  21  37  56  82 114 146 184 230 278 330
#     4  12  24  35  53  82 113 145 183 230 279 327
#     4   9  17  33  59  85 106 137 187 238 278 326
#     4  10  22  39  57  79 111 149 188 232 282 336
#     4   9  18  34  59  85 109 145 187 227 277 339
#     4   9  18  34  56  82 112 145 180 219 272 339
#     4  10  21  38  60  82 109 147 185 224 274 336
#
# _framework density 18.953050000000001
#
# number of rings (size 3 to 8) (size 9 to 14) (size 15 to 20)
#    0.000    2.143    0.000    4.286    0.000    9.143 
#    0.000    2.143    0.000    1.714    0.000    0.000 
#    0.000    0.000    0.000    0.000    0.000    0.000 
#
# Total GULP energy -312791.716067 kJ/mol
# GULP energy per Si atom -5585.566358 kJ/mol
# Density = 1.890991 g / cm^3
# Si number density = 18.953050 Si / 1000 Ang^3
#
#
#
# Elastic Constant Matrix: (Units=GPa)
#
#
# Indices 1 2 3 4 5 6 
#
# 1 95.8982 0.0697 20.4988 0.0000 0.0000 0.0000
# 2 0.0697 39.2278 23.7486 0.0000 0.0000 0.0000
# 3 20.4988 23.7486 78.3108 0.0000 0.0000 0.0000
# 4 0.0000 0.0000 0.0000 22.8025 0.0000 0.0000
# 5 0.0000 0.0000 0.0000 0.0000 18.5903 0.0000
# 6 0.0000 0.0000 0.0000 0.0000 0.0000 8.1138
#
#
#
# Elastic Compliance Matrix: (Units=1/GPa)
#
#
# Indices 1 2 3 4 5 6 
#
# 1 0.011192 0.002148 -0.003581 0.000000 0.000000 0.000000
# 2 0.002148 0.031637 -0.010157 0.000000 0.000000 0.000000
# 3 -0.003581 -0.010157 0.016787 0.000000 0.000000 0.000000
# 4 0.000000 0.000000 0.000000 0.043855 0.000000 0.000000
# 5 0.000000 0.000000 0.000000 0.000000 0.053791 0.000000
# 6 0.000000 0.000000 0.000000 0.000000 0.000000 0.123246
#
#
# Mechanical properties :
#
#
# Convention : Reuss Voigt Hill
#
# Bulk Modulus (GPa) = 27.44475 33.56344 30.50409
# Shear Modulus (GPa) = 15.83115 21.17598 18.50356
#
# Velocity S-wave (km/s) = 2.89326 3.34621 3.12794
# Velocity P-wave (km/s) = 5.06686 5.71635 5.40138
#
# Compressibility (1/GPa) = 0.03643685
#
# Stress axis : x y z
#
# Youngs Moduli (GPa) = 89.35261 31.60839 59.56965
#
# Poissons Ratio (x) = -0.06790 0.21332
# Poissons Ratio (y) = -0.19193 0.60502
# Poissons Ratio (z) = 0.31997 0.32103
#
# Static dielectric constant tensor:
#      x y z
#    x 1.666210 0.000000 0.000000 
#    y 0.000000 1.650370 0.000000 
#    z 0.000000 0.000000 1.634560 
# 
# From -- ./inp_files/6239.got.cif
#   From: 2010.05.17/outbox.cif.g08.bks.cpg/sg58_4_cif.got.tgz:6239.got - 2010.06.03 14:20:14.
