data_PCOD9444533
_publ_section_title
;
Structure prediction by ZEFSAII (Michael W. Deem and Ramdas Pophale) SiO2 
 PCOD9444533
Probable space group: P N N M
;
_chemical_formula_sum "Si O2"
_cell_formula_units_Z 48
_cell_length_a 21.421522
_cell_length_b 5.868412
_cell_length_c 19.507127
_cell_angle_alpha 90.000000
_cell_angle_beta 90.000000
_cell_angle_gamma 90.000000
_cell_volume 2452.247114
_symmetry_space_group_name_H-M "P N N M"
_symmetry_group_IT_number 58
_symmetry_cell_setting 'orthorhombic'
loop_
_space_group_symop_operation_xyz
x,y,z
-x,-y,z
1/2+x,1/2-y,1/2-z
1/2-x,1/2+y,1/2-z
-x,-y,-z
x,y,-z
1/2-x,1/2+y,1/2+z
1/2+x,1/2-y,1/2+z
loop_
_atom_site_type_symbol
_atom_site_label
_atom_site_fract_x
_atom_site_fract_y
_atom_site_fract_z
Si Si1 0.832634 0.241666 0.925269
Si Si2 0.662322 0.209127 0.803884
Si Si3 0.288033 0.055230 0.922749
Si Si4 0.232427 0.444426 0.830767
Si Si5 0.534119 0.243773 0.724137
Si Si6 0.936402 0.857424 0.924286
O O1 0.762719 0.144425 0.929880
O O2 0.880610 0.037643 0.913042
O O3 0.824589 0.413910 0.863638
O O4 0.847923 0.340656 0.000000
O O5 0.700794 0.431874 0.825358
O O6 0.595384 0.257159 0.771623
O O7 0.661227 0.038364 0.868849
O O8 0.708258 0.113525 0.744644
O O9 0.247691 0.245147 0.883824
O O10 0.308429 0.119404 0.000000
O O11 0.500000 0.500000 0.728452
O O12 0.555235 0.215064 0.644587
O O13 0.500000 0.000000 0.741194
O O14 0.927989 0.750419 0.000000
O O15 0.000000 0.000000 0.928631
#
# Coordination Sequence:
#
# PCOD9444533 Si02
#       6
#     8   8   8   8   8   8
#     4   9  19  35  55  86 128 166 211 258 319 386
#     4  11  24  38  63  94 130 163 217 268 329 390
#     4  10  21  38  61  92 126 163 207 265 336 399
#     4  11  21  35  63  94 125 169 205 272 328 390
#     4  11  27  44  67  93 128 178 224 274 327 393
#     4   9  19  36  57  86 126 173 221 266 310 373
#
# _framework density 19.573882999999999
#
# number of rings (size 3 to 8) (size 9 to 14) (size 15 to 20)
#    0.000    1.833    1.667    1.500    9.333    1.000 
#    0.000    0.833    0.000    1.000    0.000    0.000 
#    0.000    0.000    0.000    0.000    0.000    0.000 
#
# Total GULP energy -267291.514653 kJ/mol
# GULP energy per Si atom -5568.573222 kJ/mol
# Density = 1.952933 g / cm^3
# Si number density = 19.573883 Si / 1000 Ang^3
#
#
#
# Elastic Constant Matrix: (Units=GPa)
#
#
# Indices 1 2 3 4 5 6 
#
# 1 99.9898 36.0287 35.4475 0.0000 0.0000 0.0000
# 2 36.0287 56.6653 34.3225 0.0000 0.0000 0.0000
# 3 35.4475 34.3225 125.1482 0.0000 0.0000 0.0000
# 4 0.0000 0.0000 0.0000 -118.5034 0.0000 0.0000
# 5 0.0000 0.0000 0.0000 0.0000 40.6394 0.0000
# 6 0.0000 0.0000 0.0000 0.0000 0.0000 25.3150
#
#
#
# Elastic Compliance Matrix: (Units=1/GPa)
#
#
# Indices 1 2 3 4 5 6 
#
# 1 0.013280 -0.007393 -0.001734 0.000000 0.000000 0.000000
# 2 -0.007393 0.025279 -0.004839 0.000000 0.000000 0.000000
# 3 -0.001734 -0.004839 0.009809 0.000000 0.000000 0.000000
# 4 0.000000 0.000000 0.000000 -0.008439 0.000000 0.000000
# 5 0.000000 0.000000 0.000000 0.000000 0.024607 0.000000
# 6 0.000000 0.000000 0.000000 0.000000 0.000000 0.039502
#
#
# Mechanical properties :
#
#
# Convention : Reuss Voigt Hill
#
# Bulk Modulus (GPa) = 48.93381 54.82233 51.87807
# Shear Modulus (GPa) = 36.02789 1.22383 18.62586
#
# Velocity S-wave (km/s) = 4.29489 0.79158 3.08809
# Velocity P-wave (km/s) = 7.04617 5.37626 6.26709
#
# Compressibility (1/GPa) = 0.02043577
#
# Stress axis : x y z
#
# Youngs Moduli (GPa) = 75.30336 39.55829 101.95055
#
# Poissons Ratio (x) = 0.29246 0.17676
# Poissons Ratio (y) = 0.55674 0.49332
# Poissons Ratio (z) = 0.13056 0.19142
#
# Static dielectric constant tensor:
#      x y z
#    x 1.666400 0.000000 0.000000 
#    y 0.000000 1.765060 0.000000 
#    z 0.000000 0.000000 1.760450 
# 
# From -- ./inp_files/27617.got.cif
#   From: 2010.05.17/outbox.cif.g08.bks.cpg/sg58_14_cif.got.tgz:27617.got - 2010.06.03 14:20:14.
