data_PCOD9444851
_publ_section_title
;
Structure prediction by ZEFSAII (Michael W. Deem and Ramdas Pophale) SiO2 
 PCOD9444851
Probable space group: P N N M
;
_chemical_formula_sum "Si O2"
_cell_formula_units_Z 40
_cell_length_a 9.623649
_cell_length_b 9.921137
_cell_length_c 16.872464
_cell_angle_alpha 90.000000
_cell_angle_beta 90.000000
_cell_angle_gamma 90.000000
_cell_volume 1610.941359
_symmetry_space_group_name_H-M "P N N M"
_symmetry_group_IT_number 58
_symmetry_cell_setting 'orthorhombic'
loop_
_space_group_symop_operation_xyz
x,y,z
-x,-y,z
1/2+x,1/2-y,1/2-z
1/2-x,1/2+y,1/2-z
-x,-y,-z
x,y,-z
1/2-x,1/2+y,1/2+z
1/2+x,1/2-y,1/2+z
loop_
_atom_site_type_symbol
_atom_site_label
_atom_site_fract_x
_atom_site_fract_y
_atom_site_fract_z
Si Si1 0.247069 0.672457 0.845503
Si Si2 0.259853 0.455359 0.500000
Si Si3 0.554951 0.216525 0.634160
Si Si4 0.403419 0.671841 0.000000
Si Si5 0.355267 0.957329 0.222019
Si Si6 0.500000 0.500000 0.371230
Si Si7 0.214745 0.750669 0.500000
O O1 0.351326 0.618162 0.913633
O O2 0.287031 0.827102 0.821256
O O3 0.224834 0.585252 0.763434
O O4 0.099074 0.675273 0.892634
O O5 0.167686 0.322416 0.500000
O O6 0.368605 0.471781 0.427640
O O7 0.173785 0.592933 0.500000
O O8 0.595073 0.112786 0.698781
O O9 0.529766 0.363120 0.672881
O O10 0.679685 0.225113 0.572573
O O11 0.429711 0.327931 0.000000
O O12 0.500000 0.000000 0.178706
#
# Coordination Sequence:
#
# PCOD9444851 Si02
#       7
#     8   4   8   4   8   4   4
#     4  11  25  47  75 103 148 193 247 306 382 446
#     4   9  17  32  57  99 137 177 232 287 359 423
#     4  10  21  42  68  98 140 186 243 296 373 444
#     4  12  23  41  68 108 145 189 243 316 379 427
#     4  10  26  47  71 109 145 194 253 313 376 460
#     4   9  16  32  66 100 128 177 238 284 350 445
#     4  10  23  37  65 108 150 187 245 315 363 453
#
# _framework density 24.830202
#
# number of rings (size 3 to 8) (size 9 to 14) (size 15 to 20)
#    0.000    1.800    2.000    1.500    2.800    5.600 
#    0.000    9.000    0.000    1.200    0.000    0.000 
#    0.000    0.000    0.000    0.000    0.000    0.000 
#
# Total GULP energy -222920.327230 kJ/mol
# GULP energy per Si atom -5573.008181 kJ/mol
# Density = 2.477369 g / cm^3
# Si number density = 24.830202 Si / 1000 Ang^3
#
#
#
# Elastic Constant Matrix: (Units=GPa)
#
#
# Indices 1 2 3 4 5 6 
#
# 1 169.0403 33.0508 42.3296 0.0000 0.0000 0.0000
# 2 33.0508 110.2962 29.0742 0.0000 0.0000 0.0000
# 3 42.3296 29.0742 53.6254 0.0000 0.0000 0.0000
# 4 0.0000 0.0000 0.0000 28.2716 0.0000 0.0000
# 5 0.0000 0.0000 0.0000 0.0000 35.7287 0.0000
# 6 0.0000 0.0000 0.0000 0.0000 0.0000 39.5875
#
#
#
# Elastic Compliance Matrix: (Units=1/GPa)
#
#
# Indices 1 2 3 4 5 6 
#
# 1 0.007432 -0.000794 -0.005436 0.000000 0.000000 0.000000
# 2 -0.000794 0.010663 -0.005154 0.000000 0.000000 0.000000
# 3 -0.005436 -0.005154 0.025734 0.000000 0.000000 0.000000
# 4 0.000000 0.000000 0.000000 0.035371 0.000000 0.000000
# 5 0.000000 0.000000 0.000000 0.000000 0.027989 0.000000
# 6 0.000000 0.000000 0.000000 0.000000 0.000000 0.025261
#
#
# Mechanical properties :
#
#
# Convention : Reuss Voigt Hill
#
# Bulk Modulus (GPa) = 47.48442 60.20791 53.84616
# Shear Modulus (GPa) = 30.81878 35.95137 33.38507
#
# Velocity S-wave (km/s) = 3.52686 3.80924 3.67077
# Velocity P-wave (km/s) = 5.97915 6.60663 6.30070
#
# Compressibility (1/GPa) = 0.02105954
#
# Stress axis : x y z
#
# Youngs Moduli (GPa) = 134.54781 93.78066 38.85979
#
# Poissons Ratio (x) = 0.07448 0.21125
# Poissons Ratio (y) = 0.10685 0.20030
# Poissons Ratio (z) = 0.73143 0.48339
#
# Static dielectric constant tensor:
#      x y z
#    x 2.060340 0.000000 0.000000 
#    y 0.000000 2.054250 0.000000 
#    z 0.000000 0.000000 2.029350 
# 
# From -- ./inp_files/29450.got.cif
#   From: 2010.05.17/outbox.cif.g08.bks.cpg/sg58_15_cif.got.tgz:29450.got - 2010.06.03 14:20:14.
