data_PCOD9444019
_publ_section_title
;
Structure prediction by ZEFSAII (Michael W. Deem and Ramdas Pophale) SiO2 
 PCOD9444019
Probable space group: P N N M
;
_chemical_formula_sum "Si O2"
_cell_formula_units_Z 64
_cell_length_a 11.666145
_cell_length_b 15.030538
_cell_length_c 17.877775
_cell_angle_alpha 90.000000
_cell_angle_beta 90.000000
_cell_angle_gamma 90.000000
_cell_volume 3134.839881
_symmetry_space_group_name_H-M "P N N M"
_symmetry_group_IT_number 58
_symmetry_cell_setting 'orthorhombic'
loop_
_space_group_symop_operation_xyz
x,y,z
-x,-y,z
1/2+x,1/2-y,1/2-z
1/2-x,1/2+y,1/2-z
-x,-y,-z
x,y,-z
1/2-x,1/2+y,1/2+z
1/2+x,1/2-y,1/2+z
loop_
_atom_site_type_symbol
_atom_site_label
_atom_site_fract_x
_atom_site_fract_y
_atom_site_fract_z
Si Si1 0.568989 0.133554 0.795412
Si Si2 0.676393 0.893604 0.615169
Si Si3 0.049092 0.286176 0.870939
Si Si4 0.824011 0.437766 0.288401
Si Si5 0.957887 0.095328 0.333208
Si Si6 0.612078 0.269866 0.916073
Si Si7 0.239588 0.411657 0.081140
Si Si8 0.062736 0.087963 0.834147
O O1 0.564829 0.185941 0.716736
O O2 0.436145 0.114668 0.819065
O O3 0.632474 0.190146 0.858485
O O4 0.632655 0.039594 0.784846
O O5 0.562992 0.837409 0.600923
O O6 0.691699 0.901739 0.704435
O O7 0.784034 0.839772 0.584656
O O8 0.672921 0.994640 0.586643
O O9 0.155810 0.328810 0.913025
O O10 0.041557 0.180356 0.876215
O O11 0.699851 0.427444 0.326380
O O12 0.823328 0.092916 0.347717
O O13 0.007036 0.175489 0.381215
O O14 0.005648 0.100802 0.248942
O O15 0.000000 0.000000 0.363198
O O16 0.590737 0.238931 0.000000
O O17 0.300138 0.411225 0.000000
O O18 0.000000 0.000000 0.865082
#
# Coordination Sequence:
#
# PCOD9444019 Si02
#       8
#     8   8   8   8   8   8   8   8
#     4  10  22  39  65  96 123 168 211 272 312 379
#     4  11  21  39  61  94 130 172 208 255 316 388
#     4  11  24  39  66  92 126 168 219 264 314 373
#     4  10  20  41  64  90 127 161 216 269 321 359
#     4  11  22  39  58  92 129 165 199 247 318 389
#     4  12  24  39  62  95 133 170 207 256 323 393
#     4  12  25  40  63  94 134 169 204 262 327 394
#     4  11  23  39  64  96 124 165 211 270 315 371
#
# _framework density 20.415716
#
# number of rings (size 3 to 8) (size 9 to 14) (size 15 to 20)
#    0.000    1.000    5.000    1.875    3.500    2.000 
#    0.000    1.250    0.000    1.125    0.000    0.000 
#    0.000    0.000    0.000    0.000    0.000    0.000 
#
# Total GULP energy -357542.078816 kJ/mol
# GULP energy per Si atom -5586.594982 kJ/mol
# Density = 2.036925 g / cm^3
# Si number density = 20.415716 Si / 1000 Ang^3
#
#
#
# Elastic Constant Matrix: (Units=GPa)
#
#
# Indices 1 2 3 4 5 6 
#
# 1 91.1151 37.4965 1.0057 0.0000 0.0000 0.0000
# 2 37.4965 106.1864 20.9247 0.0000 0.0000 0.0000
# 3 1.0057 20.9247 40.0483 0.0000 0.0000 0.0000
# 4 0.0000 0.0000 0.0000 14.2152 0.0000 0.0000
# 5 0.0000 0.0000 0.0000 0.0000 5.1065 0.0000
# 6 0.0000 0.0000 0.0000 0.0000 0.0000 19.8061
#
#
#
# Elastic Compliance Matrix: (Units=1/GPa)
#
#
# Indices 1 2 3 4 5 6 
#
# 1 0.013031 -0.005058 0.002315 0.000000 0.000000 0.000000
# 2 -0.005058 0.012461 -0.006384 0.000000 0.000000 0.000000
# 3 0.002315 -0.006384 0.028247 0.000000 0.000000 0.000000
# 4 0.000000 0.000000 0.000000 0.070347 0.000000 0.000000
# 5 0.000000 0.000000 0.000000 0.000000 0.195830 0.000000
# 6 0.000000 0.000000 0.000000 0.000000 0.000000 0.050489
#
#
# Mechanical properties :
#
#
# Convention : Reuss Voigt Hill
#
# Bulk Modulus (GPa) = 28.17932 39.57817 33.87875
# Shear Modulus (GPa) = 12.48477 19.68709 16.08593
#
# Velocity S-wave (km/s) = 2.47559 3.10870 2.81003
# Velocity P-wave (km/s) = 4.69086 5.68451 5.21142
#
# Compressibility (1/GPa) = 0.03548702
#
# Stress axis : x y z
#
# Youngs Moduli (GPa) = 76.74010 80.24787 35.40174
#
# Poissons Ratio (x) = 0.40587 -0.08197
# Poissons Ratio (y) = 0.38813 0.22600
# Poissons Ratio (z) = -0.17768 0.51229
#
# Static dielectric constant tensor:
#      x y z
#    x 1.775090 0.000000 0.000000 
#    y 0.000000 1.714880 0.000000 
#    z 0.000000 0.000000 1.717650 
# 
# From -- ./inp_files/26350.got.cif
#   From: 2010.05.17/outbox.cif.g08.bks.cpg/sg58_14_cif.got.tgz:26350.got - 2010.06.03 14:20:14.
