data_PCOD9444588
_publ_section_title
;
Structure prediction by ZEFSAII (Michael W. Deem and Ramdas Pophale) SiO2 
 PCOD9444588
Probable space group: P N N M
;
_chemical_formula_sum "Si O2"
_cell_formula_units_Z 48
_cell_length_a 18.531144
_cell_length_b 8.821407
_cell_length_c 14.005765
_cell_angle_alpha 90.000000
_cell_angle_beta 90.000000
_cell_angle_gamma 90.000000
_cell_volume 2289.533097
_symmetry_space_group_name_H-M "P N N M"
_symmetry_group_IT_number 58
_symmetry_cell_setting 'orthorhombic'
loop_
_space_group_symop_operation_xyz
x,y,z
-x,-y,z
1/2+x,1/2-y,1/2-z
1/2-x,1/2+y,1/2-z
-x,-y,-z
x,y,-z
1/2-x,1/2+y,1/2+z
1/2+x,1/2-y,1/2+z
loop_
_atom_site_type_symbol
_atom_site_label
_atom_site_fract_x
_atom_site_fract_y
_atom_site_fract_z
Si Si1 0.816255 0.314982 0.109670
Si Si2 0.554808 0.869741 0.250052
Si Si3 0.328600 0.546076 0.185804
Si Si4 0.183537 0.039868 0.103518
Si Si5 0.466750 0.668279 0.104696
Si Si6 0.835511 0.295392 0.608439
O O1 0.893641 0.324991 0.162059
O O2 0.753753 0.404186 0.166386
O O3 0.796158 0.137525 0.107602
O O4 0.819269 0.370009 0.000000
O O5 0.505717 0.748955 0.193102
O O6 0.613234 0.908104 0.167217
O O7 0.500000 0.000000 0.278689
O O8 0.353413 0.570182 0.295225
O O9 0.381944 0.645311 0.121973
O O10 0.336230 0.368939 0.158862
O O11 0.255285 0.140262 0.105690
O O12 0.146778 0.065533 0.000000
O O13 0.500000 0.500000 0.101533
O O14 0.477824 0.740363 0.000000
O O15 0.860185 0.275104 0.500000
#
# Coordination Sequence:
#
# PCOD9444588 Si02
#       6
#     8   8   8   8   8   8
#     4  11  24  44  67  94 127 174 225 270 323 388
#     4  12  26  42  62  91 135 176 213 272 324 386
#     4  12  21  41  67  98 130 165 215 275 327 394
#     4  10  21  38  65  94 125 162 208 262 319 380
#     4  11  23  40  63  94 131 173 214 265 337 401
#     4  11  22  39  63  95 130 164 203 261 327 388
#
# _framework density 20.964973000000001
#
# number of rings (size 3 to 8) (size 9 to 14) (size 15 to 20)
#    0.000    0.833    5.000    2.000    2.333    3.000 
#    0.000    0.833    0.000    3.000    0.000    0.000 
#    0.000    0.000    0.000    0.000    0.000    0.000 
#
# Total GULP energy -267877.250742 kJ/mol
# GULP energy per Si atom -5580.776057 kJ/mol
# Density = 2.091726 g / cm^3
# Si number density = 20.964973 Si / 1000 Ang^3
#
#
#
# Elastic Constant Matrix: (Units=GPa)
#
#
# Indices 1 2 3 4 5 6 
#
# 1 81.3489 33.2703 27.0883 0.0000 0.0000 0.0000
# 2 33.2703 37.0844 16.9715 0.0000 0.0000 0.0000
# 3 27.0883 16.9715 158.1524 0.0000 0.0000 0.0000
# 4 0.0000 0.0000 0.0000 18.2800 0.0000 0.0000
# 5 0.0000 0.0000 0.0000 0.0000 22.4054 0.0000
# 6 0.0000 0.0000 0.0000 0.0000 0.0000 27.4078
#
#
#
# Elastic Compliance Matrix: (Units=1/GPa)
#
#
# Indices 1 2 3 4 5 6 
#
# 1 0.019777 -0.017029 -0.001560 0.000000 0.000000 0.000000
# 2 -0.017029 0.043021 -0.001700 0.000000 0.000000 0.000000
# 3 -0.001560 -0.001700 0.006773 0.000000 0.000000 0.000000
# 4 0.000000 0.000000 0.000000 0.054705 0.000000 0.000000
# 5 0.000000 0.000000 0.000000 0.000000 0.044632 0.000000
# 6 0.000000 0.000000 0.000000 0.000000 0.000000 0.036486
#
#
# Mechanical properties :
#
#
# Convention : Reuss Voigt Hill
#
# Bulk Modulus (GPa) = 34.49124 47.91621 41.20373
# Shear Modulus (GPa) = 19.55918 26.90234 23.23076
#
# Velocity S-wave (km/s) = 3.05773 3.58607 3.33239
# Velocity P-wave (km/s) = 5.38088 6.32863 5.87390
#
# Compressibility (1/GPa) = 0.02899287
#
# Stress axis : x y z
#
# Youngs Moduli (GPa) = 50.56471 23.24453 147.65318
#
# Poissons Ratio (x) = 0.39583 0.23033
# Poissons Ratio (y) = 0.86105 0.25100
# Poissons Ratio (z) = 0.07888 0.03951
#
# Static dielectric constant tensor:
#      x y z
#    x 1.757040 0.000000 0.000000 
#    y 0.000000 1.740260 0.000000 
#    z 0.000000 0.000000 1.814010 
# 
# From -- ./inp_files/22746.got.cif
#   From: 2010.05.17/outbox.cif.g08.bks.cpg/sg58_12_cif.got.tgz:22746.got - 2010.06.03 14:20:14.
