data_PCOD9444798
_publ_section_title
;
Structure prediction by ZEFSAII (Michael W. Deem and Ramdas Pophale) SiO2 
 PCOD9444798
Probable space group: P N N M
;
_chemical_formula_sum "Si O2"
_cell_formula_units_Z 48
_cell_length_a 14.066614
_cell_length_b 9.456386
_cell_length_c 19.305128
_cell_angle_alpha 90.000000
_cell_angle_beta 90.000000
_cell_angle_gamma 90.000000
_cell_volume 2567.955225
_symmetry_space_group_name_H-M "P N N M"
_symmetry_group_IT_number 58
_symmetry_cell_setting 'orthorhombic'
loop_
_space_group_symop_operation_xyz
x,y,z
-x,-y,z
1/2+x,1/2-y,1/2-z
1/2-x,1/2+y,1/2-z
-x,-y,-z
x,y,-z
1/2-x,1/2+y,1/2+z
1/2+x,1/2-y,1/2+z
loop_
_atom_site_type_symbol
_atom_site_label
_atom_site_fract_x
_atom_site_fract_y
_atom_site_fract_z
Si Si1 0.055013 0.648409 0.419712
Si Si2 0.239528 0.690873 0.329967
Si Si3 0.053294 0.148632 0.318409
Si Si4 0.459046 0.657640 0.662161
Si Si5 0.758596 0.471595 0.812614
Si Si6 0.580370 0.880322 0.421022
O O1 0.061867 0.686924 0.500000
O O2 0.159302 0.654114 0.385739
O O3 0.000000 0.500000 0.414148
O O4 0.991764 0.756812 0.376724
O O5 0.346994 0.659562 0.355714
O O6 0.217649 0.593115 0.262916
O O7 0.238634 0.859213 0.311179
O O8 0.039365 0.214345 0.241647
O O9 0.162537 0.112065 0.331083
O O10 0.000000 0.000000 0.317152
O O11 0.500000 0.500000 0.663246
O O12 0.526080 0.747728 0.612581
O O13 0.837924 0.434501 0.869295
O O14 0.613845 0.853571 0.500000
O O15 0.500000 0.000000 0.423998
#
# Coordination Sequence:
#
# PCOD9444798 Si02
#       6
#     8   8   8   8   8   8
#     4  11  26  43  63  93 133 174 210 256 318 384
#     4  11  24  42  66  96 128 163 212 268 317 373
#     4  10  21  41  64  94 123 160 215 264 310 370
#     4  10  23  41  67  95 126 162 211 265 317 370
#     4  11  24  40  67  98 123 167 211 268 318 367
#     4  11  24  41  62  92 128 168 211 251 310 380
#
# _framework density 18.691915000000002
#
# number of rings (size 3 to 8) (size 9 to 14) (size 15 to 20)
#    0.000    1.333    3.333    1.000    9.333    4.000 
#    0.000    1.667    0.000    0.000    0.000    0.000 
#    0.000    0.000    0.000    0.000    0.000    0.000 
#
# Total GULP energy -268025.321459 kJ/mol
# GULP energy per Si atom -5583.860864 kJ/mol
# Density = 1.864937 g / cm^3
# Si number density = 18.691915 Si / 1000 Ang^3
#
#
#
# Elastic Constant Matrix: (Units=GPa)
#
#
# Indices 1 2 3 4 5 6 
#
# 1 67.0028 5.6306 35.6771 0.0000 0.0000 0.0000
# 2 5.6306 59.3790 34.0637 0.0000 0.0000 0.0000
# 3 35.6771 34.0637 79.7536 0.0000 0.0000 0.0000
# 4 0.0000 0.0000 0.0000 16.9384 0.0000 0.0000
# 5 0.0000 0.0000 0.0000 0.0000 10.9208 0.0000
# 6 0.0000 0.0000 0.0000 0.0000 0.0000 24.3195
#
#
#
# Elastic Compliance Matrix: (Units=1/GPa)
#
#
# Indices 1 2 3 4 5 6 
#
# 1 0.020415 0.004375 -0.011001 0.000000 0.000000 0.000000
# 2 0.004375 0.023244 -0.011885 0.000000 0.000000 0.000000
# 3 -0.011001 -0.011885 0.022536 0.000000 0.000000 0.000000
# 4 0.000000 0.000000 0.000000 0.059037 0.000000 0.000000
# 5 0.000000 0.000000 0.000000 0.000000 0.091568 0.000000
# 6 0.000000 0.000000 0.000000 0.000000 0.000000 0.041119
#
#
# Mechanical properties :
#
#
# Convention : Reuss Voigt Hill
#
# Bulk Modulus (GPa) = 34.27813 39.65311 36.96562
# Shear Modulus (GPa) = 16.41140 19.15334 17.78237
#
# Velocity S-wave (km/s) = 2.96631 3.20454 3.08773
# Velocity P-wave (km/s) = 5.48729 5.91204 5.70362
#
# Compressibility (1/GPa) = 0.02917312
#
# Stress axis : x y z
#
# Youngs Moduli (GPa) = 48.98401 43.02163 44.37331
#
# Poissons Ratio (x) = -0.18822 0.48815
# Poissons Ratio (y) = -0.21431 0.52738
# Poissons Ratio (z) = 0.53888 0.51131
#
# Static dielectric constant tensor:
#      x y z
#    x 1.652250 0.000000 0.000000 
#    y 0.000000 1.655050 0.000000 
#    z 0.000000 0.000000 1.646870 
# 
# From -- ./inp_files/26819.got.cif
#   From: 2010.05.17/outbox.cif.g08.bks.cpg/sg58_14_cif.got.tgz:26819.got - 2010.06.03 14:20:14.
