data_PCOD9444282
_publ_section_title
;
Structure prediction by ZEFSAII (Michael W. Deem and Ramdas Pophale) SiO2 
 PCOD9444282
Probable space group: P N N M
;
_chemical_formula_sum "Si O2"
_cell_formula_units_Z 64
_cell_length_a 29.570293
_cell_length_b 12.879929
_cell_length_c 7.691729
_cell_angle_alpha 90.000000
_cell_angle_beta 90.000000
_cell_angle_gamma 90.000000
_cell_volume 2929.497092
_symmetry_space_group_name_H-M "P N N M"
_symmetry_group_IT_number 58
_symmetry_cell_setting 'orthorhombic'
loop_
_space_group_symop_operation_xyz
x,y,z
-x,-y,z
1/2+x,1/2-y,1/2-z
1/2-x,1/2+y,1/2-z
-x,-y,-z
x,y,-z
1/2-x,1/2+y,1/2+z
1/2+x,1/2-y,1/2+z
loop_
_atom_site_type_symbol
_atom_site_label
_atom_site_fract_x
_atom_site_fract_y
_atom_site_fract_z
Si Si1 0.970702 0.735760 0.787054
Si Si2 0.938187 0.147953 0.787833
Si Si3 0.122262 0.668235 0.212806
Si Si4 0.685967 0.353459 0.295234
Si Si5 0.661642 0.125668 0.193771
Si Si6 0.928464 0.532124 0.195997
Si Si7 0.284842 0.068104 0.292377
Si Si8 0.091327 0.074697 0.788286
O O1 0.962100 0.617936 0.725199
O O2 0.931707 0.817264 0.733189
O O3 0.017150 0.790182 0.733401
O O4 0.970160 0.730378 0.000000
O O5 0.895721 0.219275 0.736966
O O6 0.933659 0.029534 0.727618
O O7 0.939635 0.144786 0.000000
O O8 0.087254 0.578092 0.272841
O O9 0.172885 0.638996 0.269595
O O10 0.121954 0.663388 0.000000
O O11 0.680114 0.337563 0.500000
O O12 0.678722 0.241612 0.211570
O O13 0.735565 0.397158 0.264519
O O14 0.643972 0.424902 0.237472
O O15 0.619227 0.095208 0.312352
O O16 0.702172 0.046779 0.231498
O O17 0.644504 0.107159 0.000000
O O18 0.944461 0.509043 0.000000
O O19 0.285660 0.070058 0.500000
O O20 0.088501 0.073479 0.000000
#
# Coordination Sequence:
#
# PCOD9444282 Si02
#       8
#     8   8   8   8   8   8   8   8
#     4   9  15  25  45  72 104 142 177 216 267 323
#     4   9  16  26  43  73 108 139 174 215 270 330
#     4   8  16  29  45  68 104 142 171 218 274 320
#     4  11  21  35  55  80 109 141 181 226 277 331
#     4  11  21  35  55  78 103 138 181 225 273 324
#     4   9  16  30  50  73 105 138 171 218 271 317
#     4  10  21  37  55  78 109 141 179 227 282 335
#     4   9  17  28  44  70 108 144 173 217 269 319
#
# _framework density 21.846751999999999
#
# number of rings (size 3 to 8) (size 9 to 14) (size 15 to 20)
#    0.000    2.500    1.250    3.000    0.000    3.000 
#    0.000    5.000    0.000    0.000    0.000   11.375 
#    0.000    0.000    0.000    0.000    0.000    0.000 
#
# Total GULP energy -357222.559375 kJ/mol
# GULP energy per Si atom -5581.602490 kJ/mol
# Density = 2.179703 g / cm^3
# Si number density = 21.846752 Si / 1000 Ang^3
#
#
#
# Elastic Constant Matrix: (Units=GPa)
#
#
# Indices 1 2 3 4 5 6 
#
# 1 72.0427 -6.5190 -1.1827 0.0000 0.0000 0.0000
# 2 -6.5190 41.1016 -4.5032 0.0000 0.0000 0.0000
# 3 -1.1827 -4.5032 56.2658 0.0000 0.0000 0.0000
# 4 0.0000 0.0000 0.0000 0.1790 0.0000 0.0000
# 5 0.0000 0.0000 0.0000 0.0000 7.7240 0.0000
# 6 0.0000 0.0000 0.0000 0.0000 0.0000 27.2432
#
#
#
# Elastic Compliance Matrix: (Units=1/GPa)
#
#
# Indices 1 2 3 4 5 6 
#
# 1 0.014096 0.002288 0.000479 0.000000 0.000000 0.000000
# 2 0.002288 0.024917 0.002042 0.000000 0.000000 0.000000
# 3 0.000479 0.002042 0.017946 0.000000 0.000000 0.000000
# 4 0.000000 0.000000 0.000000 5.586417 0.000000 0.000000
# 5 0.000000 0.000000 0.000000 0.000000 0.129467 0.000000
# 6 0.000000 0.000000 0.000000 0.000000 0.000000 0.036706
#
#
# Mechanical properties :
#
#
# Convention : Reuss Voigt Hill
#
# Bulk Modulus (GPa) = 15.01991 16.11115 15.56553
# Shear Modulus (GPa) = 0.85879 19.13689 9.99784
#
# Velocity S-wave (km/s) = 0.62766 2.96287 2.14156
# Velocity P-wave (km/s) = 2.72311 4.36983 3.64079
#
# Compressibility (1/GPa) = 0.06657830
#
# Stress axis : x y z
#
# Youngs Moduli (GPa) = 70.94424 40.13386 55.72170
#
# Poissons Ratio (x) = -0.09183 -0.02671
# Poissons Ratio (y) = -0.16233 -0.11380
# Poissons Ratio (z) = -0.03401 -0.08196
#
# Static dielectric constant tensor:
#      x y z
#    x 1.903100 0.000000 0.000000 
#    y 0.000000 1.771500 0.000000 
#    z 0.000000 0.000000 1.842630 
# 
# From -- ./inp_files/11007.got.cif
#   From: 2010.05.17/outbox.cif.g08.bks.cpg/sg58_6_cif.got.tgz:11007.got - 2010.06.03 14:20:14.
