data_PCOD9444418
_publ_section_title
;
Structure prediction by ZEFSAII (Michael W. Deem and Ramdas Pophale) SiO2 
 PCOD9444418
Probable space group: P N N M
;
_chemical_formula_sum "Si O2"
_cell_formula_units_Z 64
_cell_length_a 28.001715
_cell_length_b 12.903883
_cell_length_c 9.561283
_cell_angle_alpha 90.000000
_cell_angle_beta 90.000000
_cell_angle_gamma 90.000000
_cell_volume 3454.786553
_symmetry_space_group_name_H-M "P N N M"
_symmetry_group_IT_number 58
_symmetry_cell_setting 'orthorhombic'
loop_
_space_group_symop_operation_xyz
x,y,z
-x,-y,z
1/2+x,1/2-y,1/2-z
1/2-x,1/2+y,1/2-z
-x,-y,-z
x,y,-z
1/2-x,1/2+y,1/2+z
1/2+x,1/2-y,1/2+z
loop_
_atom_site_type_symbol
_atom_site_label
_atom_site_fract_x
_atom_site_fract_y
_atom_site_fract_z
Si Si1 0.039161 0.744707 0.162227
Si Si2 0.300310 0.316215 0.167849
Si Si3 0.155537 0.038605 0.667334
Si Si4 0.447387 0.450137 0.164246
Si Si5 0.624436 0.075755 0.662186
Si Si6 0.196054 0.232933 0.836130
Si Si7 0.141644 0.651628 0.159665
Si Si8 0.030279 0.393913 0.662156
O O1 0.084666 0.668352 0.166676
O O2 0.996923 0.693339 0.249713
O O3 0.054462 0.851015 0.235924
O O4 0.026258 0.760870 0.000000
O O5 0.317490 0.431623 0.208139
O O6 0.246765 0.282290 0.207427
O O7 0.334486 0.231555 0.236443
O O8 0.303948 0.312156 0.000000
O O9 0.160834 0.052400 0.500000
O O10 0.098627 0.022430 0.695360
O O11 0.178423 0.135299 0.747098
O O12 0.500000 0.500000 0.180987
O O13 0.442582 0.419753 0.000000
O O14 0.607467 0.068317 0.500000
O O15 0.657864 0.174889 0.674288
O O16 0.580916 0.086053 0.767447
O O17 0.651980 0.968253 0.690435
O O18 0.199861 0.202917 0.000000
O O19 0.156601 0.674623 0.000000
O O20 0.034481 0.363394 0.500000
O O21 0.000000 0.500000 0.669141
#
# Coordination Sequence:
#
# PCOD9444418 Si02
#       8
#     8   8   8   8   8   8   8   8
#     4  11  22  37  59  88 120 158 203 247 298 359
#     4  10  22  41  64  88 117 156 201 249 305 359
#     4  10  22  41  64  89 123 162 201 250 305 363
#     4  10  22  40  61  87 121 161 202 249 302 360
#     4  10  22  41  61  85 122 162 200 247 304 362
#     4  10  24  42  62  89 121 158 200 250 302 358
#     4  10  21  37  62  91 119 154 199 249 299 360
#     4  11  23  37  57  86 121 159 198 244 295 354
#
# _framework density 18.525023000000001
#
# number of rings (size 3 to 8) (size 9 to 14) (size 15 to 20)
#    0.000    1.750    2.500    0.750    3.500    3.750 
#    0.000    0.000    0.000    0.000    0.000    0.000 
#    0.000    0.000    0.000    0.000    0.000    0.000 
#
# Total GULP energy -357328.968401 kJ/mol
# GULP energy per Si atom -5583.265131 kJ/mol
# Density = 1.848286 g / cm^3
# Si number density = 18.525023 Si / 1000 Ang^3
#
#
#
# Elastic Constant Matrix: (Units=GPa)
#
#
# Indices 1 2 3 4 5 6 
#
# 1 89.7934 40.6546 45.3224 0.0000 0.0000 0.0000
# 2 40.6546 116.1044 54.9794 0.0000 0.0000 0.0000
# 3 45.3224 54.9794 69.3170 0.0000 0.0000 0.0000
# 4 0.0000 0.0000 0.0000 24.3130 0.0000 0.0000
# 5 0.0000 0.0000 0.0000 0.0000 17.5582 0.0000
# 6 0.0000 0.0000 0.0000 0.0000 0.0000 24.0733
#
#
#
# Elastic Compliance Matrix: (Units=1/GPa)
#
#
# Indices 1 2 3 4 5 6 
#
# 1 0.016707 -0.001085 -0.010064 0.000000 0.000000 0.000000
# 2 -0.001085 0.013864 -0.010287 0.000000 0.000000 0.000000
# 3 -0.010064 -0.010287 0.029166 0.000000 0.000000 0.000000
# 4 0.000000 0.000000 0.000000 0.041130 0.000000 0.000000
# 5 0.000000 0.000000 0.000000 0.000000 0.056953 0.000000
# 6 0.000000 0.000000 0.000000 0.000000 0.000000 0.041540
#
#
# Mechanical properties :
#
#
# Convention : Reuss Voigt Hill
#
# Bulk Modulus (GPa) = 59.28998 61.90306 60.59652
# Shear Modulus (GPa) = 20.17318 22.13946 21.15632
#
# Velocity S-wave (km/s) = 3.30353 3.46079 3.38307
# Velocity P-wave (km/s) = 6.82832 7.03263 6.93123
#
# Compressibility (1/GPa) = 0.01686626
#
# Stress axis : x y z
#
# Youngs Moduli (GPa) = 59.85406 72.12875 34.28660
#
# Poissons Ratio (x) = 0.07824 0.34505
# Poissons Ratio (y) = 0.06492 0.35271
# Poissons Ratio (z) = 0.60235 0.74200
#
# Static dielectric constant tensor:
#      x y z
#    x 1.650010 0.000000 0.000000 
#    y 0.000000 1.618880 0.000000 
#    z 0.000000 0.000000 1.619040 
# 
# From -- ./inp_files/10982.got.cif
#   From: 2010.05.17/outbox.cif.g08.bks.cpg/sg58_6_cif.got.tgz:10982.got - 2010.06.03 14:20:14.
