data_PCOD9444755
_publ_section_title
;
Structure prediction by ZEFSAII (Michael W. Deem and Ramdas Pophale) SiO2 
 PCOD9444755
Probable space group: P N N M
;
_chemical_formula_sum "Si O2"
_cell_formula_units_Z 48
_cell_length_a 9.232608
_cell_length_b 18.603065
_cell_length_c 14.759693
_cell_angle_alpha 90.000000
_cell_angle_beta 90.000000
_cell_angle_gamma 90.000000
_cell_volume 2535.048219
_symmetry_space_group_name_H-M "P N N M"
_symmetry_group_IT_number 58
_symmetry_cell_setting 'orthorhombic'
loop_
_space_group_symop_operation_xyz
x,y,z
-x,-y,z
1/2+x,1/2-y,1/2-z
1/2-x,1/2+y,1/2-z
-x,-y,-z
x,y,-z
1/2-x,1/2+y,1/2+z
1/2+x,1/2-y,1/2+z
loop_
_atom_site_type_symbol
_atom_site_label
_atom_site_fract_x
_atom_site_fract_y
_atom_site_fract_z
Si Si1 0.642352 0.544170 0.000000
Si Si2 0.362677 0.329937 0.357756
Si Si3 0.452615 0.580944 0.500000
Si Si4 0.009171 0.319862 0.854827
Si Si5 0.397365 0.072370 0.000000
Si Si6 0.653246 0.672303 0.142388
Si Si7 0.522066 0.181827 0.139987
Si Si8 0.100680 0.567866 0.000000
O O1 0.500000 0.500000 0.000000
O O2 0.643417 0.599248 0.084857
O O3 0.751844 0.476534 0.000000
O O4 0.469298 0.381233 0.413889
O O5 0.419901 0.250601 0.377484
O O6 0.370225 0.342489 0.249295
O O7 0.192278 0.328577 0.381887
O O8 0.500000 0.500000 0.500000
O O9 0.278037 0.573771 0.500000
O O10 0.941134 0.383885 0.913246
O O11 0.179094 0.305471 0.873776
O O12 0.000325 0.330565 0.747044
O O13 0.440724 0.120191 0.086091
O O14 0.500000 0.000000 0.000000
O O15 0.545256 0.738778 0.118296
O O16 0.000000 0.500000 0.000000
#
# Coordination Sequence:
#
# PCOD9444755 Si02
#       8
#     4   8   4   8   4   8   8   4
#     4  12  27  41  58  93 132 172 207 258 322 377
#     4  10  22  40  68  95 122 164 212 261 310 373
#     4  12  25  43  62  89 124 163 208 256 320 370
#     4  10  21  40  66  94 123 166 211 255 309 372
#     4  12  25  43  62  91 124 163 206 260 320 373
#     4  10  21  42  64  93 128 164 211 257 310 372
#     4  10  22  40  66  95 124 162 210 261 310 372
#     4  12  23  41  62  91 128 170 209 252 316 383
#
# _framework density 18.934550999999999
#
# number of rings (size 3 to 8) (size 9 to 14) (size 15 to 20)
#    0.000    1.333    1.667    3.500    2.333    2.667 
#    3.000    0.000    0.000    0.000    0.000    0.000 
#    0.000    0.000    0.000    0.000    0.000    0.000 
#
# Total GULP energy -267553.473758 kJ/mol
# GULP energy per Si atom -5574.030703 kJ/mol
# Density = 1.889146 g / cm^3
# Si number density = 18.934551 Si / 1000 Ang^3
#
#
#
# Elastic Constant Matrix: (Units=GPa)
#
#
# Indices 1 2 3 4 5 6 
#
# 1 199.2362 83.9359 57.5281 0.0000 0.0000 0.0000
# 2 83.9359 139.6327 65.3344 0.0000 0.0000 0.0000
# 3 57.5281 65.3344 82.8178 0.0000 0.0000 0.0000
# 4 0.0000 0.0000 0.0000 6.8549 0.0000 0.0000
# 5 0.0000 0.0000 0.0000 0.0000 37.2586 0.0000
# 6 0.0000 0.0000 0.0000 0.0000 0.0000 47.0776
#
#
#
# Elastic Compliance Matrix: (Units=1/GPa)
#
#
# Indices 1 2 3 4 5 6 
#
# 1 0.007022 -0.003073 -0.002453 0.000000 0.000000 0.000000
# 2 -0.003073 0.012697 -0.007882 0.000000 0.000000 0.000000
# 3 -0.002453 -0.007882 0.019997 0.000000 0.000000 0.000000
# 4 0.000000 0.000000 0.000000 0.145881 0.000000 0.000000
# 5 0.000000 0.000000 0.000000 0.000000 0.026839 0.000000
# 6 0.000000 0.000000 0.000000 0.000000 0.000000 0.021242
#
#
# Mechanical properties :
#
#
# Convention : Reuss Voigt Hill
#
# Bulk Modulus (GPa) = 77.52459 92.80927 85.16693
# Shear Modulus (GPa) = 18.88253 32.56410 25.72332
#
# Velocity S-wave (km/s) = 3.16136 4.15158 3.68983
# Velocity P-wave (km/s) = 7.37278 8.49135 7.95176
#
# Compressibility (1/GPa) = 0.01289913
#
# Stress axis : x y z
#
# Youngs Moduli (GPa) = 142.40299 78.75930 50.00804
#
# Poissons Ratio (x) = 0.24205 0.12269
# Poissons Ratio (y) = 0.43764 0.39415
# Poissons Ratio (z) = 0.34938 0.62076
#
# Static dielectric constant tensor:
#      x y z
#    x 1.624770 0.000000 0.000000 
#    y 0.000000 1.484540 0.000000 
#    z 0.000000 0.000000 1.692610 
# 
# From -- ./inp_files/19921.got.cif
#   From: 2010.05.17/outbox.cif.g08.bks.cpg/sg58_10_cif.got.tgz:19921.got - 2010.06.03 14:20:14.
