data_PCOD9444909
_publ_section_title
;
Structure prediction by ZEFSAII (Michael W. Deem and Ramdas Pophale) SiO2 
 PCOD9444909
Probable space group: P N N M
;
_chemical_formula_sum "Si O2"
_cell_formula_units_Z 60
_cell_length_a 22.459901
_cell_length_b 5.216992
_cell_length_c 25.796375
_cell_angle_alpha 90.000000
_cell_angle_beta 90.000000
_cell_angle_gamma 90.000000
_cell_volume 3022.641842
_symmetry_space_group_name_H-M "P N N M"
_symmetry_group_IT_number 58
_symmetry_cell_setting 'orthorhombic'
loop_
_space_group_symop_operation_xyz
x,y,z
-x,-y,z
1/2+x,1/2-y,1/2-z
1/2-x,1/2+y,1/2-z
-x,-y,-z
x,y,-z
1/2-x,1/2+y,1/2+z
1/2+x,1/2-y,1/2+z
loop_
_atom_site_type_symbol
_atom_site_label
_atom_site_fract_x
_atom_site_fract_y
_atom_site_fract_z
Si Si1 0.000000 0.500000 0.297966
Si Si2 0.708941 0.000616 0.749515
Si Si3 0.432971 0.572106 0.774585
Si Si4 0.568130 0.581959 0.660565
Si Si5 0.865047 0.575154 0.143469
Si Si6 0.193464 0.617876 0.558699
Si Si7 0.121240 0.691438 0.660486
Si Si8 0.272908 0.123881 0.441348
O O1 0.953568 0.645267 0.259511
O O2 0.946429 0.408367 0.335234
O O3 0.749430 0.748086 0.740806
O O4 0.670483 0.059610 0.698082
O O5 0.666017 0.941326 0.798409
O O6 0.500000 0.500000 0.794199
O O7 0.418289 0.428091 0.722354
O O8 0.386838 0.485628 0.818092
O O9 0.500000 0.500000 0.653674
O O10 0.582126 0.867612 0.643349
O O11 0.610673 0.363086 0.636400
O O12 0.821201 0.471200 0.099351
O O13 0.171729 0.562163 0.500000
O O14 0.145350 0.644694 0.603689
O O15 0.239852 0.389845 0.572314
O O16 0.225821 0.891944 0.557614
O O17 0.297002 0.154103 0.500000
#
# Coordination Sequence:
#
# PCOD9444909 Si02
#       8
#     4   8   8   8   8   8   8   8
#     4  10  22  36  61  84 120 166 219 238 306 362
#     4  12  25  37  56  89 126 157 194 252 318 367
#     4   9  20  35  54  83 114 165 198 244 286 365
#     4  11  23  37  59  88 124 159 203 247 297 368
#     4  12  22  39  60  88 121 159 202 246 308 370
#     4  10  22  40  64  90 118 159 208 258 308 361
#     4  11  22  38  60  86 125 161 204 255 306 368
#     4  10  22  42  65  89 117 159 209 252 305 375
#
# _framework density 19.850183999999999
#
# number of rings (size 3 to 8) (size 9 to 14) (size 15 to 20)
#    0.000    1.333    1.333    4.400    7.467    0.000 
#    0.000    0.333    0.000    6.000    0.000    0.000 
#    0.000    0.000    0.000    0.000    0.000    0.000 
#
# Total GULP energy -334236.829543 kJ/mol
# GULP energy per Si atom -5570.613826 kJ/mol
# Density = 1.980500 g / cm^3
# Si number density = 19.850184 Si / 1000 Ang^3
#
#
#
# Elastic Constant Matrix: (Units=GPa)
#
#
# Indices 1 2 3 4 5 6 
#
# 1 77.4544 11.6308 35.4914 0.0000 0.0000 0.0000
# 2 11.6308 54.2361 -5.7901 0.0000 0.0000 0.0000
# 3 35.4914 -5.7901 75.0323 0.0000 0.0000 0.0000
# 4 0.0000 0.0000 0.0000 198.9048 0.0000 0.0000
# 5 0.0000 0.0000 0.0000 0.0000 3.0426 0.0000
# 6 0.0000 0.0000 0.0000 0.0000 0.0000 33.3456
#
#
#
# Elastic Compliance Matrix: (Units=1/GPa)
#
#
# Indices 1 2 3 4 5 6 
#
# 1 0.017597 -0.004701 -0.008686 0.000000 0.000000 0.000000
# 2 -0.004701 0.019847 0.003755 0.000000 0.000000 0.000000
# 3 -0.008686 0.003755 0.017726 0.000000 0.000000 0.000000
# 4 0.000000 0.000000 0.000000 0.005028 0.000000 0.000000
# 5 0.000000 0.000000 0.000000 0.000000 0.328667 0.000000
# 6 0.000000 0.000000 0.000000 0.000000 0.000000 0.029989
#
#
# Mechanical properties :
#
#
# Convention : Reuss Voigt Hill
#
# Bulk Modulus (GPa) = 27.85074 32.15411 30.00243
# Shear Modulus (GPa) = 11.10898 58.08464 34.59681
#
# Velocity S-wave (km/s) = 2.36824 5.41526 4.17933
# Velocity P-wave (km/s) = 4.64101 7.43866 6.19970
#
# Compressibility (1/GPa) = 0.03590569
#
# Stress axis : x y z
#
# Youngs Moduli (GPa) = 56.82758 50.38565 56.41365
#
# Poissons Ratio (x) = 0.23686 0.49003
# Poissons Ratio (y) = 0.26715 -0.21184
# Poissons Ratio (z) = 0.49363 -0.18921
#
# Static dielectric constant tensor:
#      x y z
#    x 1.700090 0.000000 0.000000 
#    y 0.000000 1.065330 0.000000 
#    z 0.000000 0.000000 1.739760 
# 
# From -- ./inp_files/32422.got.cif
#   From: 2010.05.17/outbox.cif.g08.bks.cpg/sg58_17_cif.got.tgz:32422.got - 2010.06.03 14:20:14.
