data_PCOD9444310
_publ_section_title
;
Structure prediction by ZEFSAII (Michael W. Deem and Ramdas Pophale) SiO2 
 PCOD9444310
Probable space group: P N N M
;
_chemical_formula_sum "Si O2"
_cell_formula_units_Z 56
_cell_length_a 21.931121
_cell_length_b 15.145035
_cell_length_c 7.595602
_cell_angle_alpha 90.000000
_cell_angle_beta 90.000000
_cell_angle_gamma 90.000000
_cell_volume 2522.860938
_symmetry_space_group_name_H-M "P N N M"
_symmetry_group_IT_number 58
_symmetry_cell_setting 'orthorhombic'
loop_
_space_group_symop_operation_xyz
x,y,z
-x,-y,z
1/2+x,1/2-y,1/2-z
1/2-x,1/2+y,1/2-z
-x,-y,-z
x,y,-z
1/2-x,1/2+y,1/2+z
1/2+x,1/2-y,1/2+z
loop_
_atom_site_type_symbol
_atom_site_label
_atom_site_fract_x
_atom_site_fract_y
_atom_site_fract_z
Si Si1 0.725096 0.710475 0.700430
Si Si2 0.103265 0.699595 0.795078
Si Si3 0.473619 0.361566 0.787104
Si Si4 0.094058 0.036580 0.712809
Si Si5 0.932720 0.494840 0.702662
Si Si6 0.194573 0.450538 0.716784
Si Si7 0.724495 0.387570 0.295557
O O1 0.709607 0.684201 0.500000
O O2 0.662160 0.747944 0.779625
O O3 0.761750 0.628394 0.778970
O O4 0.769686 0.794639 0.699970
O O5 0.047382 0.767462 0.781103
O O6 0.088406 0.607129 0.705449
O O7 0.115660 0.679875 0.000000
O O8 0.540039 0.396736 0.733042
O O9 0.426191 0.438409 0.731444
O O10 0.473069 0.358369 0.000000
O O11 0.095584 0.036273 0.500000
O O12 0.159035 0.067318 0.778730
O O13 0.939286 0.524945 0.500000
O O14 0.875540 0.549731 0.777309
O O15 0.000000 0.500000 0.785070
O O16 0.193810 0.448382 0.500000
O O17 0.225586 0.542587 0.769827
O O18 0.736868 0.369946 0.500000
#
# Coordination Sequence:
#
# PCOD9444310 Si02
#       7
#     8   8   8   8   8   8   8
#     4  10  21  37  57  81 112 154 195 237 293 350
#     4  11  22  36  57  85 118 152 191 243 299 353
#     4   9  19  36  58  81 111 152 194 232 279 345
#     4   9  19  36  56  82 114 149 190 237 284 340
#     4  10  21  39  62  83 109 153 204 246 291 351
#     4   9  19  37  58  81 113 149 194 244 289 344
#     4  11  21  35  57  84 115 149 185 238 292 343
#
# _framework density 22.197020999999999
#
# number of rings (size 3 to 8) (size 9 to 14) (size 15 to 20)
#    0.000    2.143    1.429    2.571    0.000    4.286 
#    0.000    6.429    0.000    0.000    0.000    0.000 
#    0.000    0.000    0.000    0.000    0.000    0.000 
#
# Total GULP energy -312816.636769 kJ/mol
# GULP energy per Si atom -5586.011371 kJ/mol
# Density = 2.214650 g / cm^3
# Si number density = 22.197021 Si / 1000 Ang^3
#
#
#
# Elastic Constant Matrix: (Units=GPa)
#
#
# Indices 1 2 3 4 5 6 
#
# 1 99.7744 23.0293 -0.6964 0.0000 0.0000 0.0000
# 2 23.0293 71.6211 -4.7597 0.0000 0.0000 0.0000
# 3 -0.6964 -4.7597 55.1968 0.0000 0.0000 0.0000
# 4 0.0000 0.0000 0.0000 10.9750 0.0000 0.0000
# 5 0.0000 0.0000 0.0000 0.0000 10.5713 0.0000
# 6 0.0000 0.0000 0.0000 0.0000 0.0000 33.7098
#
#
#
# Elastic Compliance Matrix: (Units=1/GPa)
#
#
# Indices 1 2 3 4 5 6 
#
# 1 0.010828 -0.003492 -0.000165 0.000000 0.000000 0.000000
# 2 -0.003492 0.015169 0.001264 0.000000 0.000000 0.000000
# 3 -0.000165 0.001264 0.018224 0.000000 0.000000 0.000000
# 4 0.000000 0.000000 0.000000 0.091116 0.000000 0.000000
# 5 0.000000 0.000000 0.000000 0.000000 0.094595 0.000000
# 6 0.000000 0.000000 0.000000 0.000000 0.000000 0.029665
#
#
# Mechanical properties :
#
#
# Convention : Reuss Voigt Hill
#
# Bulk Modulus (GPa) = 25.35830 29.08206 27.22018
# Shear Modulus (GPa) = 18.01620 24.98585 21.50102
#
# Velocity S-wave (km/s) = 2.85204 3.35870 3.11568
# Velocity P-wave (km/s) = 4.72170 5.30767 5.02324
#
# Compressibility (1/GPa) = 0.03943483
#
# Stress axis : x y z
#
# Youngs Moduli (GPa) = 92.35681 65.92237 54.87298
#
# Poissons Ratio (x) = 0.23023 0.00903
# Poissons Ratio (y) = 0.32255 -0.06936
# Poissons Ratio (z) = 0.01520 -0.08333
#
# Static dielectric constant tensor:
#      x y z
#    x 1.828190 0.000000 0.000000 
#    y 0.000000 1.775600 0.000000 
#    z 0.000000 0.000000 1.851370 
# 
# From -- ./inp_files/8976.got.cif
#   From: 2010.05.17/outbox.cif.g08.bks.cpg/sg58_5_cif.got.tgz:8976.got - 2010.06.03 14:20:14.
