data_PCOD9444385
_publ_section_title
;
Structure prediction by ZEFSAII (Michael W. Deem and Ramdas Pophale) SiO2 
 PCOD9444385
Probable space group: P N N M
;
_chemical_formula_sum "Si O2"
_cell_formula_units_Z 64
_cell_length_a 20.297279
_cell_length_b 19.016672
_cell_length_c 8.738984
_cell_angle_alpha 90.000000
_cell_angle_beta 90.000000
_cell_angle_gamma 90.000000
_cell_volume 3373.131571
_symmetry_space_group_name_H-M "P N N M"
_symmetry_group_IT_number 58
_symmetry_cell_setting 'orthorhombic'
loop_
_space_group_symop_operation_xyz
x,y,z
-x,-y,z
1/2+x,1/2-y,1/2-z
1/2-x,1/2+y,1/2-z
-x,-y,-z
x,y,-z
1/2-x,1/2+y,1/2+z
1/2+x,1/2-y,1/2+z
loop_
_atom_site_type_symbol
_atom_site_label
_atom_site_fract_x
_atom_site_fract_y
_atom_site_fract_z
Si Si1 0.853946 0.788272 0.683439
Si Si2 0.187441 0.053410 0.315609
Si Si3 0.298513 0.964780 0.818105
Si Si4 0.057658 0.445786 0.184510
Si Si5 0.094723 0.799538 0.684483
Si Si6 0.435716 0.457490 0.186390
Si Si7 0.979932 0.713485 0.183060
Si Si8 0.753277 0.181445 0.683719
O O1 0.855254 0.782520 0.500000
O O2 0.835919 0.868289 0.723566
O O3 0.924264 0.764274 0.747628
O O4 0.798961 0.736428 0.750688
O O5 0.194273 0.049092 0.500000
O O6 0.255438 0.030314 0.239578
O O7 0.130272 0.998763 0.268386
O O8 0.373165 0.966135 0.758944
O O9 0.264725 0.895076 0.748020
O O10 0.297410 0.960610 0.000000
O O11 0.037600 0.366395 0.228811
O O12 0.000000 0.500000 0.225750
O O13 0.065461 0.447077 0.000000
O O14 0.089352 0.795304 0.500000
O O15 0.067389 0.876280 0.733542
O O16 0.171942 0.797861 0.724196
O O17 0.050509 0.739354 0.758170
O O18 0.500000 0.500000 0.238673
O O19 0.436892 0.457506 0.000000
O O20 0.977678 0.717090 0.000000
O O21 0.748256 0.178787 0.500000
#
# Coordination Sequence:
#
# PCOD9444385 Si02
#       8
#     8   8   8   8   8   8   8   8
#     4  11  23  39  64  94 123 162 210 259 311 375
#     4  10  21  39  62  88 123 164 207 254 308 376
#     4  12  24  39  64  94 126 163 208 265 317 373
#     4  10  23  44  68  91 120 166 216 259 314 381
#     4  10  21  37  60  87 119 160 205 250 301 371
#     4   9  16  31  56  83 112 153 202 243 288 353
#     4  11  23  39  62  90 127 167 205 260 316 373
#     4  11  22  40  64  88 123 169 210 254 315 378
#
# _framework density 18.973465999999998
#
# number of rings (size 3 to 8) (size 9 to 14) (size 15 to 20)
#    0.000    1.500    2.500    3.000    0.000    5.750 
#    0.000    3.750    0.000    1.500    0.000    0.000 
#    0.000    0.000    0.000    0.000    0.000    0.000 
#
# Total GULP energy -357753.347276 kJ/mol
# GULP energy per Si atom -5589.896051 kJ/mol
# Density = 1.893028 g / cm^3
# Si number density = 18.973466 Si / 1000 Ang^3
#
#
#
# Elastic Constant Matrix: (Units=GPa)
#
#
# Indices 1 2 3 4 5 6 
#
# 1 138.2802 44.5228 41.8267 0.0000 0.0000 0.0000
# 2 44.5228 83.9433 33.8081 0.0000 0.0000 0.0000
# 3 41.8267 33.8081 37.2221 0.0000 0.0000 0.0000
# 4 0.0000 0.0000 0.0000 20.5674 0.0000 0.0000
# 5 0.0000 0.0000 0.0000 0.0000 -53.8438 0.0000
# 6 0.0000 0.0000 0.0000 0.0000 0.0000 40.6607
#
#
#
# Elastic Compliance Matrix: (Units=1/GPa)
#
#
# Indices 1 2 3 4 5 6 
#
# 1 0.011052 -0.001356 -0.011188 0.000000 0.000000 0.000000
# 2 -0.001356 0.018951 -0.015689 0.000000 0.000000 0.000000
# 3 -0.011188 -0.015689 0.053687 0.000000 0.000000 0.000000
# 4 0.000000 0.000000 0.000000 0.048621 0.000000 0.000000
# 5 0.000000 0.000000 0.000000 0.000000 -0.018572 0.000000
# 6 0.000000 0.000000 0.000000 0.000000 0.000000 0.024594
#
#
# Mechanical properties :
#
#
# Convention : Reuss Voigt Hill
#
# Bulk Modulus (GPa) = 36.73083 55.52896 46.12989
# Shear Modulus (GPa) = 24.52513 10.76275 17.64394
#
# Velocity S-wave (km/s) = 3.59918 2.38429 3.05278
# Velocity P-wave (km/s) = 6.05584 6.07536 6.06561
#
# Compressibility (1/GPa) = 0.02722509
#
# Stress axis : x y z
#
# Youngs Moduli (GPa) = 90.47781 52.76861 18.62642
#
# Poissons Ratio (x) = 0.07157 0.20839
# Poissons Ratio (y) = 0.12271 0.29222
# Poissons Ratio (z) = 1.01225 0.82786
#
# Static dielectric constant tensor:
#      x y z
#    x 1.638190 0.000000 0.000000 
#    y 0.000000 1.647200 0.000000 
#    z 0.000000 0.000000 1.638570 
# 
# From -- ./inp_files/9326.got.cif
#   From: 2010.05.17/outbox.cif.g08.bks.cpg/sg58_5_cif.got.tgz:9326.got - 2010.06.03 14:20:14.
