data_PCOD9444315
_publ_section_title
;
Structure prediction by ZEFSAII (Michael W. Deem and Ramdas Pophale) SiO2 
 PCOD9444315
Probable space group: P N N M
;
_chemical_formula_sum "Si O2"
_cell_formula_units_Z 40
_cell_length_a 5.100986
_cell_length_b 13.323834
_cell_length_c 30.678056
_cell_angle_alpha 90.000000
_cell_angle_beta 90.000000
_cell_angle_gamma 90.000000
_cell_volume 2085.024587
_symmetry_space_group_name_H-M "P N N M"
_symmetry_group_IT_number 58
_symmetry_cell_setting 'orthorhombic'
loop_
_space_group_symop_operation_xyz
x,y,z
-x,-y,z
1/2+x,1/2-y,1/2-z
1/2-x,1/2+y,1/2-z
-x,-y,-z
x,y,-z
1/2-x,1/2+y,1/2+z
1/2+x,1/2-y,1/2+z
loop_
_atom_site_type_symbol
_atom_site_label
_atom_site_fract_x
_atom_site_fract_y
_atom_site_fract_z
Si Si1 0.008203 0.786627 0.692674
Si Si2 0.990532 0.382193 0.763000
Si Si3 0.930574 0.222577 0.409352
Si Si4 0.243016 0.068100 0.049701
Si Si5 0.552595 0.880486 0.550317
O O1 0.002442 0.680616 0.718101
O O2 0.269447 0.843521 0.707776
O O3 0.995015 0.773831 0.641197
O O4 0.769382 0.851105 0.711313
O O5 0.000000 0.500000 0.755351
O O6 0.842153 0.332616 0.425846
O O7 0.666900 0.160809 0.417498
O O8 0.166918 0.165974 0.435126
O O9 0.500000 0.000000 0.047882
O O10 0.165487 0.096667 0.000000
O O11 0.000000 0.000000 0.067289
O O12 0.507541 0.848448 0.500000
O O13 0.500000 0.000000 0.550976
#
# Coordination Sequence:
#
# PCOD9444315 Si02
#       5
#     8   8   8   8   8
#     4  10  23  38  59  92 114 146 200 235 285 363
#     4  10  21  41  62  82 119 155 183 236 298 349
#     4  12  23  39  62  88 121 154 197 255 297 343
#     4  10  21  37  57  82 113 153 196 235 286 345
#     4  11  24  40  59  86 121 162 202 241 296 357
#
# _framework density 19.184426999999999
#
# number of rings (size 3 to 8) (size 9 to 14) (size 15 to 20)
#    0.000    1.400    0.000    5.400    0.000    8.800 
#    0.000    4.000    0.000    0.000    0.000    0.000 
#    0.000    0.000    0.000    0.000    0.000    0.000 
#
# Total GULP energy -223278.320571 kJ/mol
# GULP energy per Si atom -5581.958014 kJ/mol
# Density = 1.914076 g / cm^3
# Si number density = 19.184427 Si / 1000 Ang^3
#
#
#
# Elastic Constant Matrix: (Units=GPa)
#
#
# Indices 1 2 3 4 5 6 
#
# 1 147.9702 54.2122 14.6106 0.0000 0.0000 0.0000
# 2 54.2122 161.9404 39.4136 0.0000 0.0000 0.0000
# 3 14.6106 39.4136 93.5062 0.0000 0.0000 0.0000
# 4 0.0000 0.0000 0.0000 5.2855 0.0000 0.0000
# 5 0.0000 0.0000 0.0000 0.0000 -71.3305 0.0000
# 6 0.0000 0.0000 0.0000 0.0000 0.0000 -21.4660
#
#
#
# Elastic Compliance Matrix: (Units=1/GPa)
#
#
# Indices 1 2 3 4 5 6 
#
# 1 0.007704 -0.002547 -0.000130 0.000000 0.000000 0.000000
# 2 -0.002547 0.007723 -0.002857 0.000000 0.000000 0.000000
# 3 -0.000130 -0.002857 0.011919 0.000000 0.000000 0.000000
# 4 0.000000 0.000000 0.000000 0.189196 0.000000 0.000000
# 5 0.000000 0.000000 0.000000 0.000000 -0.014019 0.000000
# 6 0.000000 0.000000 0.000000 0.000000 0.000000 -0.046585
#
#
# Mechanical properties :
#
#
# Convention : Reuss Voigt Hill
#
# Bulk Modulus (GPa) = 61.43632 68.87662 65.15647
# Shear Modulus (GPa) = 28.99670 2.17650 15.58660
#
# Velocity S-wave (km/s) = 3.89198 1.06629 2.85346
# Velocity P-wave (km/s) = 7.23120 6.12342 6.70024
#
# Compressibility (1/GPa) = 0.01627702
#
# Stress axis : x y z
#
# Youngs Moduli (GPa) = 129.79790 129.47715 83.89813
#
# Poissons Ratio (x) = 0.32984 0.01091
# Poissons Ratio (y) = 0.33066 0.23973
# Poissons Ratio (z) = 0.01688 0.36997
#
# Static dielectric constant tensor:
#      x y z
#    x 1.650290 0.000000 0.000000 
#    y 0.000000 1.799560 0.000000 
#    z 0.000000 0.000000 1.658610 
# 
# From -- ./inp_files/32650.got.cif
#   From: 2010.05.17/outbox.cif.g08.bks.cpg/sg58_17_cif.got.tgz:32650.got - 2010.06.03 14:20:14.
