data_PCOD9444164
_publ_section_title
;
Structure prediction by ZEFSAII (Michael W. Deem and Ramdas Pophale) SiO2 
 PCOD9444164
Probable space group: P N N M
;
_chemical_formula_sum "Si O2"
_cell_formula_units_Z 64
_cell_length_a 19.576590
_cell_length_b 20.191577
_cell_length_c 7.672315
_cell_angle_alpha 90.000000
_cell_angle_beta 90.000000
_cell_angle_gamma 90.000000
_cell_volume 3032.729739
_symmetry_space_group_name_H-M "P N N M"
_symmetry_group_IT_number 58
_symmetry_cell_setting 'orthorhombic'
loop_
_space_group_symop_operation_xyz
x,y,z
-x,-y,z
1/2+x,1/2-y,1/2-z
1/2-x,1/2+y,1/2-z
-x,-y,-z
x,y,-z
1/2-x,1/2+y,1/2+z
1/2+x,1/2-y,1/2+z
loop_
_atom_site_type_symbol
_atom_site_label
_atom_site_fract_x
_atom_site_fract_y
_atom_site_fract_z
Si Si1 0.805818 0.246614 0.206347
Si Si2 0.712313 0.972559 0.206395
Si Si3 0.440255 0.046619 0.207640
Si Si4 0.050975 0.189070 0.794001
Si Si5 0.803562 0.853758 0.797610
Si Si6 0.047060 0.699301 0.788873
Si Si7 0.958131 0.064422 0.288740
Si Si8 0.305356 0.407325 0.208580
O O1 0.747294 0.291551 0.289701
O O2 0.880454 0.270033 0.270517
O O3 0.796864 0.168767 0.237471
O O4 0.803006 0.259152 0.000000
O O5 0.635780 0.967178 0.279331
O O6 0.763421 0.916542 0.280788
O O7 0.746347 0.043854 0.228373
O O8 0.706583 0.958125 0.000000
O O9 0.457231 0.123396 0.235358
O O10 0.500000 0.000000 0.279978
O O11 0.437039 0.034009 0.000000
O O12 0.123539 0.166114 0.718005
O O13 0.014933 0.255062 0.723229
O O14 0.997135 0.129859 0.772320
O O15 0.061927 0.201031 0.000000
O O16 0.817359 0.870953 0.000000
O O17 0.047224 0.702416 0.000000
O O18 0.958091 0.064484 0.500000
O O19 0.879596 0.066763 0.229114
O O20 0.000000 0.000000 0.229872
O O21 0.305694 0.409596 0.000000
#
# Coordination Sequence:
#
# PCOD9444164 Si02
#       8
#     8   8   8   8   8   8   8   8
#     4  11  22  38  61  85 115 155 199 243 291 350
#     4  10  21  38  59  85 119 156 197 245 296 355
#     4  10  22  40  63  89 117 154 200 247 298 356
#     4  10  21  37  58  87 119 150 193 242 291 350
#     4  10  21  38  61  88 118 155 196 242 297 354
#     4  10  21  38  60  86 116 153 195 243 294 349
#     4  10  21  36  54  81 117 154 193 237 284 341
#     4  11  23  37  58  86 118 156 197 240 291 351
#
# _framework density 21.103100000000001
#
# number of rings (size 3 to 8) (size 9 to 14) (size 15 to 20)
#    0.000    1.750    2.500    1.500    0.000    4.500 
#    0.000    2.500    0.000    0.000    0.000    0.000 
#    0.000    0.000    0.000    0.000    0.000    0.000 
#
# Total GULP energy -357639.530252 kJ/mol
# GULP energy per Si atom -5588.117660 kJ/mol
# Density = 2.105507 g / cm^3
# Si number density = 21.103100 Si / 1000 Ang^3
#
#
#
# Elastic Constant Matrix: (Units=GPa)
#
#
# Indices 1 2 3 4 5 6 
#
# 1 151.8043 79.7978 6.0255 0.0000 0.0000 0.0000
# 2 79.7978 143.1985 -26.1885 0.0000 0.0000 0.0000
# 3 6.0255 -26.1885 31.6039 0.0000 0.0000 0.0000
# 4 0.0000 0.0000 0.0000 4.0854 0.0000 0.0000
# 5 0.0000 0.0000 0.0000 0.0000 -5.2554 0.0000
# 6 0.0000 0.0000 0.0000 0.0000 0.0000 28.9500
#
#
#
# Elastic Compliance Matrix: (Units=1/GPa)
#
#
# Indices 1 2 3 4 5 6 
#
# 1 0.010931 -0.007629 -0.008406 0.000000 0.000000 0.000000
# 2 -0.007629 0.013555 0.012686 0.000000 0.000000 0.000000
# 3 -0.008406 0.012686 0.043757 0.000000 0.000000 0.000000
# 4 0.000000 0.000000 0.000000 0.244777 0.000000 0.000000
# 5 0.000000 0.000000 0.000000 0.000000 -0.190281 0.000000
# 6 0.000000 0.000000 0.000000 0.000000 0.000000 0.034542
#
#
# Mechanical properties :
#
#
# Convention : Reuss Voigt Hill
#
# Bulk Modulus (GPa) = 16.24778 49.54182 32.89480
# Shear Modulus (GPa) = 27.10142 23.35411 25.22777
#
# Velocity S-wave (km/s) = 3.58752 3.33027 3.46128
# Velocity P-wave (km/s) = 4.98762 6.18988 5.62099
#
# Compressibility (1/GPa) = 0.06154688
#
# Stress axis : x y z
#
# Youngs Moduli (GPa) = 91.48143 73.77601 22.85355
#
# Poissons Ratio (x) = 0.56281 0.19210
# Poissons Ratio (y) = 0.69788 -0.28993
# Poissons Ratio (z) = 0.76896 -0.93595
#
# Static dielectric constant tensor:
#      x y z
#    x 1.766960 0.000000 0.000000 
#    y 0.000000 1.708030 0.000000 
#    z 0.000000 0.000000 1.776140 
# 
# From -- ./inp_files/9236.got.cif
#   From: 2010.05.17/outbox.cif.g08.bks.cpg/sg58_5_cif.got.tgz:9236.got - 2010.06.03 14:20:14.
