data_PCOD9444295
_publ_section_title
;
Structure prediction by ZEFSAII (Michael W. Deem and Ramdas Pophale) SiO2 
 PCOD9444295
Probable space group: P N N M
;
_chemical_formula_sum "Si O2"
_cell_formula_units_Z 48
_cell_length_a 27.913084
_cell_length_b 4.853606
_cell_length_c 13.588542
_cell_angle_alpha 90.000000
_cell_angle_beta 90.000000
_cell_angle_gamma 90.000000
_cell_volume 1840.963603
_symmetry_space_group_name_H-M "P N N M"
_symmetry_group_IT_number 58
_symmetry_cell_setting 'orthorhombic'
loop_
_space_group_symop_operation_xyz
x,y,z
-x,-y,z
1/2+x,1/2-y,1/2-z
1/2-x,1/2+y,1/2-z
-x,-y,-z
x,y,-z
1/2-x,1/2+y,1/2+z
1/2+x,1/2-y,1/2+z
loop_
_atom_site_type_symbol
_atom_site_label
_atom_site_fract_x
_atom_site_fract_y
_atom_site_fract_z
Si Si1 0.947636 0.630242 0.605107
Si Si2 0.198193 0.581313 0.882907
Si Si3 0.887565 0.036230 0.807244
Si Si4 0.641094 0.697601 0.889380
Si Si5 0.948721 0.567958 0.825317
Si Si6 0.256176 0.075428 0.119101
O O1 0.941212 0.794489 0.500000
O O2 0.903298 0.413107 0.606562
O O3 0.954563 0.721023 0.719106
O O4 0.000000 0.500000 0.593152
O O5 0.213249 0.278748 0.847092
O O6 0.154580 0.773382 0.850888
O O7 0.244537 0.763522 0.855929
O O8 0.193771 0.560318 0.000000
O O9 0.907091 0.770454 0.866644
O O10 0.871847 0.977198 0.694076
O O11 0.929080 0.264554 0.806969
O O12 0.690332 0.837907 0.853961
O O13 0.649696 0.591352 0.000000
O O14 0.000000 0.500000 0.873217
O O15 0.255406 0.088287 0.000000
#
# Coordination Sequence:
#
# PCOD9444295 Si02
#       6
#     8   8   8   8   8   8
#     4   8  15  30  52  78 111 152 193 230 269 320
#     4  10  21  38  58  81 109 143 186 230 277 335
#     4  11  22  36  59  83 107 147 185 224 278 327
#     4   9  19  34  53  82 117 150 189 232 276 329
#     4  10  21  37  56  81 112 143 180 226 277 332
#     4   9  19  35  55  80 113 149 182 228 282 327
#
# _framework density 26.073302000000002
#
# number of rings (size 3 to 8) (size 9 to 14) (size 15 to 20)
#    0.000    2.500    0.000    1.500    0.000    4.667 
#    0.000    5.000    0.000   13.000    0.000    0.000 
#    0.000    0.000    0.000    0.000    0.000    0.000 
#
# Total GULP energy -267553.669951 kJ/mol
# GULP energy per Si atom -5574.034791 kJ/mol
# Density = 2.601396 g / cm^3
# Si number density = 26.073302 Si / 1000 Ang^3
#
#
#
# Elastic Constant Matrix: (Units=GPa)
#
#
# Indices 1 2 3 4 5 6 
#
# 1 106.5145 18.0567 -0.8137 0.0000 0.0000 0.0000
# 2 18.0567 112.8615 4.0605 0.0000 0.0000 0.0000
# 3 -0.8137 4.0605 69.0561 0.0000 0.0000 0.0000
# 4 0.0000 0.0000 0.0000 10.4986 0.0000 0.0000
# 5 0.0000 0.0000 0.0000 0.0000 19.9291 0.0000
# 6 0.0000 0.0000 0.0000 0.0000 0.0000 43.4438
#
#
#
# Elastic Compliance Matrix: (Units=1/GPa)
#
#
# Indices 1 2 3 4 5 6 
#
# 1 0.009653 -0.001552 0.000205 0.000000 0.000000 0.000000
# 2 -0.001552 0.009129 -0.000555 0.000000 0.000000 0.000000
# 3 0.000205 -0.000555 0.014516 0.000000 0.000000 0.000000
# 4 0.000000 0.000000 0.000000 0.095251 0.000000 0.000000
# 5 0.000000 0.000000 0.000000 0.000000 0.050178 0.000000
# 6 0.000000 0.000000 0.000000 0.000000 0.000000 0.023018
#
#
# Mechanical properties :
#
#
# Convention : Reuss Voigt Hill
#
# Bulk Modulus (GPa) = 33.90513 36.78211 35.34362
# Shear Modulus (GPa) = 23.21483 32.58288 27.89885
#
# Velocity S-wave (km/s) = 2.98714 3.53889 3.27466
# Velocity P-wave (km/s) = 4.99293 5.55303 5.28041
#
# Compressibility (1/GPa) = 0.02949406
#
# Stress axis : x y z
#
# Youngs Moduli (GPa) = 103.59450 109.54522 68.88934
#
# Poissons Ratio (x) = 0.16999 -0.01412
# Poissons Ratio (y) = 0.16075 0.03824
# Poissons Ratio (z) = -0.02123 0.06080
#
# Static dielectric constant tensor:
#      x y z
#    x 2.167880 0.000000 0.000000 
#    y 0.000000 2.042910 0.000000 
#    z 0.000000 0.000000 2.135670 
# 
# From -- ./inp_files/27630.got.cif
#   From: 2010.05.17/outbox.cif.g08.bks.cpg/sg58_14_cif.got.tgz:27630.got - 2010.06.03 14:20:14.
