data_PCOD9444454
_publ_section_title
;
Structure prediction by ZEFSAII (Michael W. Deem and Ramdas Pophale) SiO2 
 PCOD9444454
Probable space group: P N N M
;
_chemical_formula_sum "Si O2"
_cell_formula_units_Z 40
_cell_length_a 7.007828
_cell_length_b 22.844537
_cell_length_c 11.452810
_cell_angle_alpha 90.000000
_cell_angle_beta 90.000000
_cell_angle_gamma 90.000000
_cell_volume 1833.487065
_symmetry_space_group_name_H-M "P N N M"
_symmetry_group_IT_number 58
_symmetry_cell_setting 'orthorhombic'
loop_
_space_group_symop_operation_xyz
x,y,z
-x,-y,z
1/2+x,1/2-y,1/2-z
1/2-x,1/2+y,1/2-z
-x,-y,-z
x,y,-z
1/2-x,1/2+y,1/2+z
1/2+x,1/2-y,1/2+z
loop_
_atom_site_type_symbol
_atom_site_label
_atom_site_fract_x
_atom_site_fract_y
_atom_site_fract_z
Si Si1 0.778606 0.949122 0.133134
Si Si2 0.318453 0.619203 0.130272
Si Si3 0.175116 0.419321 0.370979
Si Si4 0.430933 0.263976 0.124740
Si Si5 0.929882 0.671467 0.806585
O O1 0.853789 0.917859 0.250923
O O2 0.551809 0.933691 0.131077
O O3 0.784403 0.019479 0.145728
O O4 0.846755 0.933849 0.000000
O O5 0.430085 0.680607 0.139835
O O6 0.092396 0.634333 0.130196
O O7 0.367193 0.594299 0.000000
O O8 0.221029 0.396630 0.500000
O O9 0.199205 0.371989 0.271119
O O10 0.218260 0.289339 0.124068
O O11 0.458770 0.215848 0.222321
O O12 0.475541 0.235921 0.000000
#
# Coordination Sequence:
#
# PCOD9444454 Si02
#       5
#     8   8   8   8   8
#     4   8  15  32  57  85 112 147 189 235 285 341
#     4  10  21  38  58  86 119 150 186 236 288 345
#     4   8  15  30  56  84 111 143 191 241 283 334
#     4  11  23  38  56  83 118 151 194 240 286 344
#     4  11  20  38  58  83 111 155 193 236 290 341
#
# _framework density 21.816352999999999
#
# number of rings (size 3 to 8) (size 9 to 14) (size 15 to 20)
#    0.000    2.400    2.000    2.400    0.000    0.800 
#    0.000   12.000    0.000    4.800    0.000    0.000 
#    0.000    0.000    0.000    0.000    0.000    0.000 
#
# Total GULP energy -223178.849854 kJ/mol
# GULP energy per Si atom -5579.471246 kJ/mol
# Density = 2.176670 g / cm^3
# Si number density = 21.816353 Si / 1000 Ang^3
#
#
#
# Elastic Constant Matrix: (Units=GPa)
#
#
# Indices 1 2 3 4 5 6 
#
# 1 66.4055 0.9108 13.1793 0.0000 0.0000 0.0000
# 2 0.9108 51.9761 56.7366 0.0000 0.0000 0.0000
# 3 13.1793 56.7366 176.1944 0.0000 0.0000 0.0000
# 4 0.0000 0.0000 0.0000 -60.1498 0.0000 0.0000
# 5 0.0000 0.0000 0.0000 0.0000 12.4852 0.0000
# 6 0.0000 0.0000 0.0000 0.0000 0.0000 29.5315
#
#
#
# Elastic Compliance Matrix: (Units=1/GPa)
#
#
# Indices 1 2 3 4 5 6 
#
# 1 0.015363 0.001519 -0.001638 0.000000 0.000000 0.000000
# 2 0.001519 0.029818 -0.009715 0.000000 0.000000 0.000000
# 3 -0.001638 -0.009715 0.008927 0.000000 0.000000 0.000000
# 4 0.000000 0.000000 0.000000 -0.016625 0.000000 0.000000
# 5 0.000000 0.000000 0.000000 0.000000 0.080095 0.000000
# 6 0.000000 0.000000 0.000000 0.000000 0.000000 0.033862
#
#
# Mechanical properties :
#
#
# Convention : Reuss Voigt Hill
#
# Bulk Modulus (GPa) = 29.03689 48.46992 38.75340
# Shear Modulus (GPa) = 27.38389 11.29001 19.33695
#
# Velocity S-wave (km/s) = 3.54672 2.27733 2.98039
# Velocity P-wave (km/s) = 5.48734 5.40190 5.44479
#
# Compressibility (1/GPa) = 0.03443896
#
# Stress axis : x y z
#
# Youngs Moduli (GPa) = 65.09008 33.53650 112.02494
#
# Poissons Ratio (x) = -0.05095 0.18354
# Poissons Ratio (y) = -0.09889 1.08837
# Poissons Ratio (z) = 0.10664 0.32582
#
# Static dielectric constant tensor:
#      x y z
#    x 1.830190 0.000000 0.000000 
#    y 0.000000 1.746600 0.000000 
#    z 0.000000 0.000000 1.786980 
# 
# From -- ./inp_files/13135.got.cif
#   From: 2010.05.17/outbox.cif.g08.bks.cpg/sg58_7_cif.got.tgz:13135.got - 2010.06.03 14:20:14.
