data_PCOD9444204
_publ_section_title
;
Structure prediction by ZEFSAII (Michael W. Deem and Ramdas Pophale) SiO2 
 PCOD9444204
Probable space group: P N N M
;
_chemical_formula_sum "Si O2"
_cell_formula_units_Z 48
_cell_length_a 10.549388
_cell_length_b 30.635142
_cell_length_c 7.954475
_cell_angle_alpha 90.000000
_cell_angle_beta 90.000000
_cell_angle_gamma 90.000000
_cell_volume 2570.743135
_symmetry_space_group_name_H-M "P N N M"
_symmetry_group_IT_number 58
_symmetry_cell_setting 'orthorhombic'
loop_
_space_group_symop_operation_xyz
x,y,z
-x,-y,z
1/2+x,1/2-y,1/2-z
1/2-x,1/2+y,1/2-z
-x,-y,-z
x,y,-z
1/2-x,1/2+y,1/2+z
1/2+x,1/2-y,1/2+z
loop_
_atom_site_type_symbol
_atom_site_label
_atom_site_fract_x
_atom_site_fract_y
_atom_site_fract_z
Si Si1 0.523324 0.289973 0.303058
Si Si2 0.702298 0.018623 0.500000
Si Si3 0.302324 0.226970 0.199515
Si Si4 0.614651 0.534463 0.311857
Si Si5 0.948228 0.428052 0.000000
Si Si6 0.547806 0.386557 0.195719
Si Si7 0.666496 0.876159 0.194015
O O1 0.542467 0.300450 0.500000
O O2 0.404421 0.258410 0.282664
O O3 0.655987 0.268374 0.243463
O O4 0.507265 0.336111 0.211424
O O5 0.786546 0.024785 0.334362
O O6 0.590451 0.054113 0.500000
O O7 0.641012 0.970730 0.500000
O O8 0.336204 0.176025 0.224668
O O9 0.307311 0.235798 0.000000
O O10 0.500000 0.500000 0.297972
O O11 0.668862 0.531145 0.500000
O O12 0.551504 0.581649 0.283314
O O13 0.916266 0.400369 0.166474
O O14 0.686911 0.390019 0.277923
O O15 0.558140 0.398852 0.000000
O O16 0.630806 0.884656 0.000000
#
# Coordination Sequence:
#
# PCOD9444204 Si02
#       7
#     8   4   8   8   4   8   8
#     4  10  21  36  57  86 120 157 201 253 307 365
#     4  11  25  42  60  92 129 155 208 256 304 373
#     4   9  20  38  57  85 119 155 204 254 301 366
#     4  11  23  40  64  92 123 158 200 255 315 368
#     4  11  24  42  64  88 120 170 206 248 307 360
#     4  11  20  36  63  89 119 154 199 254 306 364
#     4  10  21  39  63  90 120 158 209 249 297 369
#
# _framework density 18.671643
#
# number of rings (size 3 to 8) (size 9 to 14) (size 15 to 20)
#    0.000    1.667    1.667    4.250    1.167    4.000 
#    3.000    1.667    0.000    0.000    0.000    0.000 
#    0.000    0.000    0.000    0.000    0.000    0.000 
#
# Total GULP energy -268177.239865 kJ/mol
# GULP energy per Si atom -5587.025831 kJ/mol
# Density = 1.862915 g / cm^3
# Si number density = 18.671643 Si / 1000 Ang^3
#
#
#
# Elastic Constant Matrix: (Units=GPa)
#
#
# Indices 1 2 3 4 5 6 
#
# 1 82.7011 40.2508 47.0422 0.0000 0.0000 0.0000
# 2 40.2508 41.5926 30.7842 0.0000 0.0000 0.0000
# 3 47.0422 30.7842 123.4951 0.0000 0.0000 0.0000
# 4 0.0000 0.0000 0.0000 30.3437 0.0000 0.0000
# 5 0.0000 0.0000 0.0000 0.0000 11.1779 0.0000
# 6 0.0000 0.0000 0.0000 0.0000 0.0000 26.1152
#
#
#
# Elastic Compliance Matrix: (Units=1/GPa)
#
#
# Indices 1 2 3 4 5 6 
#
# 1 0.024513 -0.020615 -0.004199 0.000000 0.000000 0.000000
# 2 -0.020615 0.046818 -0.003818 0.000000 0.000000 0.000000
# 3 -0.004199 -0.003818 0.010649 0.000000 0.000000 0.000000
# 4 0.000000 0.000000 0.000000 0.032956 0.000000 0.000000
# 5 0.000000 0.000000 0.000000 0.000000 0.089463 0.000000
# 6 0.000000 0.000000 0.000000 0.000000 0.000000 0.038292
#
#
# Mechanical properties :
#
#
# Convention : Reuss Voigt Hill
#
# Bulk Modulus (GPa) = 40.45811 53.77146 47.11479
# Shear Modulus (GPa) = 16.22360 22.17479 19.19919
#
# Velocity S-wave (km/s) = 2.95089 3.44992 3.21012
# Velocity P-wave (km/s) = 5.77283 6.68807 6.24723
#
# Compressibility (1/GPa) = 0.02471693
#
# Stress axis : x y z
#
# Youngs Moduli (GPa) = 40.79392 21.35921 93.90812
#
# Poissons Ratio (x) = 0.44031 0.39432
# Poissons Ratio (y) = 0.84096 0.35854
# Poissons Ratio (z) = 0.17129 0.08155
#
# Static dielectric constant tensor:
#      x y z
#    x 1.622940 0.000000 0.000000 
#    y 0.000000 1.629000 0.000000 
#    z 0.000000 0.000000 1.651500 
# 
# From -- ./inp_files/3072.got.cif
#   From: 2010.05.17/outbox.cif.g08.bks.cpg/sg58_2_cif.got.tgz:3072.got - 2010.06.03 14:20:14.
