data_PCOD9444309
_publ_section_title
;
Structure prediction by ZEFSAII (Michael W. Deem and Ramdas Pophale) SiO2 
 PCOD9444309
Probable space group: P N N M
;
_chemical_formula_sum "Si O2"
_cell_formula_units_Z 40
_cell_length_a 8.054741
_cell_length_b 23.791654
_cell_length_c 9.255239
_cell_angle_alpha 90.000000
_cell_angle_beta 90.000000
_cell_angle_gamma 90.000000
_cell_volume 1773.633380
_symmetry_space_group_name_H-M "P N N M"
_symmetry_group_IT_number 58
_symmetry_cell_setting 'orthorhombic'
loop_
_space_group_symop_operation_xyz
x,y,z
-x,-y,z
1/2+x,1/2-y,1/2-z
1/2-x,1/2+y,1/2-z
-x,-y,-z
x,y,-z
1/2-x,1/2+y,1/2+z
1/2+x,1/2-y,1/2+z
loop_
_atom_site_type_symbol
_atom_site_label
_atom_site_fract_x
_atom_site_fract_y
_atom_site_fract_z
Si Si1 0.654723 0.872050 0.328840
Si Si2 0.641668 0.674338 0.663247
Si Si3 0.151799 0.037907 0.830599
Si Si4 0.993672 0.269363 0.665772
Si Si5 0.358072 0.929435 0.833335
O O1 0.670805 0.868424 0.500000
O O2 0.804241 0.906609 0.256698
O O3 0.618310 0.811486 0.260121
O O4 0.492317 0.908026 0.279977
O O5 0.577597 0.680620 0.500000
O O6 0.524754 0.706778 0.773284
O O7 0.694693 0.609853 0.686243
O O8 0.820186 0.706295 0.672655
O O9 0.305339 0.993890 0.823605
O O10 0.123862 0.050990 0.000000
O O11 0.000000 0.000000 0.776523
O O12 0.939427 0.271159 0.500000
O O13 0.415800 0.918075 0.000000
#
# Coordination Sequence:
#
# PCOD9444309 Si02
#       5
#     8   8   8   8   8
#     4  11  22  36  56  81 109 143 184 227 269 317
#     4   9  19  35  54  80 110 141 182 227 269 315
#     4  10  21  37  57  82 111 144 181 221 271 327
#     4  10  21  37  57  81 110 145 182 220 268 324
#     4   9  19  37  58  79 108 145 183 222 265 321
#
# _framework density 22.552575999999998
#
# number of rings (size 3 to 8) (size 9 to 14) (size 15 to 20)
#    0.000    2.200    0.000    4.200    0.000    9.200 
#    0.000    2.000    0.000    0.000    0.000    0.000 
#    0.000    0.000    0.000    0.000    0.000    0.000 
#
# Total GULP energy -223767.141353 kJ/mol
# GULP energy per Si atom -5594.178534 kJ/mol
# Density = 2.250125 g / cm^3
# Si number density = 22.552576 Si / 1000 Ang^3
#
#
#
# Elastic Constant Matrix: (Units=GPa)
#
#
# Indices 1 2 3 4 5 6 
#
# 1 46.9879 5.2403 12.0907 0.0000 0.0000 0.0000
# 2 5.2403 118.1348 40.8391 0.0000 0.0000 0.0000
# 3 12.0907 40.8391 98.5159 0.0000 0.0000 0.0000
# 4 0.0000 0.0000 0.0000 21.4378 0.0000 0.0000
# 5 0.0000 0.0000 0.0000 0.0000 22.6719 0.0000
# 6 0.0000 0.0000 0.0000 0.0000 0.0000 45.2880
#
#
#
# Elastic Compliance Matrix: (Units=1/GPa)
#
#
# Indices 1 2 3 4 5 6 
#
# 1 0.021976 -0.000050 -0.002677 0.000000 0.000000 0.000000
# 2 -0.000050 0.009881 -0.004090 0.000000 0.000000 0.000000
# 3 -0.002677 -0.004090 0.012175 0.000000 0.000000 0.000000
# 4 0.000000 0.000000 0.000000 0.046647 0.000000 0.000000
# 5 0.000000 0.000000 0.000000 0.000000 0.044107 0.000000
# 6 0.000000 0.000000 0.000000 0.000000 0.000000 0.022081
#
#
# Mechanical properties :
#
#
# Convention : Reuss Voigt Hill
#
# Bulk Modulus (GPa) = 32.89510 42.21986 37.55748
# Shear Modulus (GPa) = 27.68054 31.57747 29.62900
#
# Velocity S-wave (km/s) = 3.50720 3.74595 3.62854
# Velocity P-wave (km/s) = 5.56940 6.12134 5.85188
#
# Compressibility (1/GPa) = 0.03039966
#
# Stress axis : x y z
#
# Youngs Moduli (GPa) = 45.50355 101.20416 82.13808
#
# Poissons Ratio (x) = 0.00501 0.21985
# Poissons Ratio (y) = 0.00225 0.33595
# Poissons Ratio (z) = 0.12179 0.41393
#
# Static dielectric constant tensor:
#      x y z
#    x 1.924450 0.000000 0.000000 
#    y 0.000000 1.829510 0.000000 
#    z 0.000000 0.000000 1.743380 
# 
# From -- ./inp_files/2396.got.cif
#   From: 2010.05.17/outbox.cif.g08.bks.cpg/sg58_2_cif.got.tgz:2396.got - 2010.06.03 14:20:14.
