data_PCOD9444357
_publ_section_title
;
Structure prediction by ZEFSAII (Michael W. Deem and Ramdas Pophale) SiO2 
 PCOD9444357
Probable space group: P N N M
;
_chemical_formula_sum "Si O2"
_cell_formula_units_Z 64
_cell_length_a 31.841752
_cell_length_b 12.216568
_cell_length_c 7.597795
_cell_angle_alpha 90.000000
_cell_angle_beta 90.000000
_cell_angle_gamma 90.000000
_cell_volume 2955.518919
_symmetry_space_group_name_H-M "P N N M"
_symmetry_group_IT_number 58
_symmetry_cell_setting 'orthorhombic'
loop_
_space_group_symop_operation_xyz
x,y,z
-x,-y,z
1/2+x,1/2-y,1/2-z
1/2-x,1/2+y,1/2-z
-x,-y,-z
x,y,-z
1/2-x,1/2+y,1/2+z
1/2+x,1/2-y,1/2+z
loop_
_atom_site_type_symbol
_atom_site_label
_atom_site_fract_x
_atom_site_fract_y
_atom_site_fract_z
Si Si1 0.543317 0.553272 0.212144
Si Si2 0.075706 0.717219 0.207702
Si Si3 0.621967 0.164578 0.783206
Si Si4 0.545600 0.016926 0.201124
Si Si5 0.208464 0.951307 0.212691
Si Si6 0.123973 0.083778 0.290177
Si Si7 0.301787 0.986374 0.793745
Si Si8 0.669728 0.771252 0.712323
O O1 0.500000 0.500000 0.275571
O O2 0.545528 0.681120 0.258346
O O3 0.585072 0.489776 0.278446
O O4 0.543633 0.546060 0.000000
O O5 0.065122 0.603956 0.299824
O O6 0.122050 0.754325 0.264578
O O7 0.076608 0.693916 0.000000
O O8 0.622756 0.290759 0.726349
O O9 0.579971 0.100448 0.723968
O O10 0.663122 0.097200 0.722531
O O11 0.621933 0.161177 0.000000
O O12 0.500000 0.000000 0.286960
O O13 0.538041 0.055101 0.000000
O O14 0.198493 0.828085 0.273309
O O15 0.169174 0.028252 0.259389
O O16 0.254567 0.982914 0.279955
O O17 0.209364 0.951792 0.000000
O O18 0.118375 0.089724 0.500000
O O19 0.318274 0.109482 0.777485
O O20 0.298182 0.958694 0.000000
O O21 0.671635 0.774281 0.500000
#
# Coordination Sequence:
#
# PCOD9444357 Si02
#       8
#     8   8   8   8   8   8   8   8
#     4  10  22  38  60  88 116 148 194 245 283 332
#     4  11  22  38  60  84 116 155 192 234 288 348
#     4   9  19  36  56  82 112 143 185 232 280 331
#     4  10  21  37  62  87 112 149 191 238 286 334
#     4  10  22  39  57  82 115 150 186 230 287 342
#     4  10  21  37  59  84 113 150 189 232 282 337
#     4  10  21  37  59  83 110 147 189 235 284 335
#     4  10  21  38  59  81 113 151 189 235 284 336
#
# _framework density 21.654404
#
# number of rings (size 3 to 8) (size 9 to 14) (size 15 to 20)
#    0.000    2.000    2.500    0.375    3.500    2.000 
#    0.000    1.250    0.000    0.000    0.000    0.000 
#    0.000    0.000    0.000    0.000    0.000    0.000 
#
# Total GULP energy -357409.018968 kJ/mol
# GULP energy per Si atom -5584.515921 kJ/mol
# Density = 2.160512 g / cm^3
# Si number density = 21.654404 Si / 1000 Ang^3
#
#
#
# Elastic Constant Matrix: (Units=GPa)
#
#
# Indices 1 2 3 4 5 6 
#
# 1 101.4311 18.4872 6.3443 0.0000 0.0000 0.0000
# 2 18.4872 107.6623 -3.4069 0.0000 0.0000 0.0000
# 3 6.3443 -3.4069 46.4822 0.0000 0.0000 0.0000
# 4 0.0000 0.0000 0.0000 17.4208 0.0000 0.0000
# 5 0.0000 0.0000 0.0000 0.0000 -187.1985 0.0000
# 6 0.0000 0.0000 0.0000 0.0000 0.0000 36.4306
#
#
#
# Elastic Compliance Matrix: (Units=1/GPa)
#
#
# Indices 1 2 3 4 5 6 
#
# 1 0.010286 -0.001815 -0.001537 0.000000 0.000000 0.000000
# 2 -0.001815 0.009630 0.000954 0.000000 0.000000 0.000000
# 3 -0.001537 0.000954 0.021793 0.000000 0.000000 0.000000
# 4 0.000000 0.000000 0.000000 0.057403 0.000000 0.000000
# 5 0.000000 0.000000 0.000000 0.000000 -0.005342 0.000000
# 6 0.000000 0.000000 0.000000 0.000000 0.000000 0.027449
#
#
# Mechanical properties :
#
#
# Convention : Reuss Voigt Hill
#
# Bulk Modulus (GPa) = 27.09093 33.15831 30.12462
# Shear Modulus (GPa) = 36.14804 -11.05934 12.54435
#
# Velocity S-wave (km/s) = 4.09016 -2.26236 2.40947
# Velocity P-wave (km/s) = 5.90285 2.91914 4.65645
#
# Compressibility (1/GPa) = 0.03691273
#
# Stress axis : x y z
#
# Youngs Moduli (GPa) = 97.22126 103.84096 45.88576
#
# Poissons Ratio (x) = 0.18846 0.07052
# Poissons Ratio (y) = 0.17644 -0.04375
# Poissons Ratio (z) = 0.14942 -0.09902
#
# Static dielectric constant tensor:
#      x y z
#    x 1.804830 0.000000 0.000000 
#    y 0.000000 1.739190 0.000000 
#    z 0.000000 0.000000 1.838860 
# 
# From -- ./inp_files/4652.got.cif
#   From: 2010.05.17/outbox.cif.g08.bks.cpg/sg58_3_cif.got.tgz:4652.got - 2010.06.03 14:20:14.
