data_PCOD9444398
_publ_section_title
;
Structure prediction by ZEFSAII (Michael W. Deem and Ramdas Pophale) SiO2 
 PCOD9444398
Probable space group: P N N M
;
_chemical_formula_sum "Si O2"
_cell_formula_units_Z 56
_cell_length_a 8.973507
_cell_length_b 19.838629
_cell_length_c 15.928595
_cell_angle_alpha 90.000000
_cell_angle_beta 90.000000
_cell_angle_gamma 90.000000
_cell_volume 2835.641553
_symmetry_space_group_name_H-M "P N N M"
_symmetry_group_IT_number 58
_symmetry_cell_setting 'orthorhombic'
loop_
_space_group_symop_operation_xyz
x,y,z
-x,-y,z
1/2+x,1/2-y,1/2-z
1/2-x,1/2+y,1/2-z
-x,-y,-z
x,y,-z
1/2-x,1/2+y,1/2+z
1/2+x,1/2-y,1/2+z
loop_
_atom_site_type_symbol
_atom_site_label
_atom_site_fract_x
_atom_site_fract_y
_atom_site_fract_z
Si Si1 0.901606 0.778965 0.860373
Si Si2 0.264248 0.101121 0.237966
Si Si3 0.065381 0.075156 0.399987
Si Si4 0.207667 0.843476 0.907869
Si Si5 0.678296 0.498341 0.408636
Si Si6 0.392837 0.290309 0.092381
Si Si7 0.539823 0.184435 0.216263
O O1 0.820719 0.833409 0.800132
O O2 0.776347 0.736873 0.909666
O O3 0.036541 0.818948 0.903371
O O4 0.970222 0.720500 0.804560
O O5 0.196095 0.087751 0.330825
O O6 0.438977 0.118372 0.227184
O O7 0.230912 0.041536 0.172519
O O8 0.108511 0.079561 0.500000
O O9 0.937794 0.132792 0.384235
O O10 0.000000 0.000000 0.386838
O O11 0.223294 0.923961 0.907425
O O12 0.296774 0.822920 0.824049
O O13 0.265515 0.820310 0.000000
O O14 0.500000 0.500000 0.407106
O O15 0.725040 0.468235 0.500000
O O16 0.468044 0.238127 0.153839
O O17 0.456225 0.281902 0.000000
#
# Coordination Sequence:
#
# PCOD9444398 Si02
#       7
#     8   8   8   8   8   8   8
#     4  11  22  37  60  90 120 161 206 253 309 382
#     4  11  22  38  63  87 124 168 200 263 320 367
#     4  10  22  40  66  96 123 166 224 272 323 387
#     4  11  23  40  61  89 125 166 207 256 312 384
#     4  10  21  37  60  91 122 157 208 253 308 385
#     4  10  21  39  61  88 120 155 203 261 311 366
#     4  11  24  38  56  90 125 160 204 254 310 385
#
# _framework density 19.748618
#
# number of rings (size 3 to 8) (size 9 to 14) (size 15 to 20)
#    0.000    1.429    2.857    3.000    0.000    3.429 
#    0.000    2.143    0.000    0.000    0.000    5.000 
#    0.000    0.000    0.000    0.000    0.000    0.000 
#
# Total GULP energy -311819.655669 kJ/mol
# GULP energy per Si atom -5568.208137 kJ/mol
# Density = 1.970367 g / cm^3
# Si number density = 19.748618 Si / 1000 Ang^3
#
#
#
# Elastic Constant Matrix: (Units=GPa)
#
#
# Indices 1 2 3 4 5 6 
#
# 1 45.4376 7.5532 2.9698 0.0000 0.0000 0.0000
# 2 7.5532 63.2667 17.4148 0.0000 0.0000 0.0000
# 3 2.9698 17.4148 76.5404 0.0000 0.0000 0.0000
# 4 0.0000 0.0000 0.0000 29.2224 0.0000 0.0000
# 5 0.0000 0.0000 0.0000 0.0000 22.1555 0.0000
# 6 0.0000 0.0000 0.0000 0.0000 0.0000 24.8738
#
#
#
# Elastic Compliance Matrix: (Units=1/GPa)
#
#
# Indices 1 2 3 4 5 6 
#
# 1 0.022459 -0.002605 -0.000279 0.000000 0.000000 0.000000
# 2 -0.002605 0.017164 -0.003804 0.000000 0.000000 0.000000
# 3 -0.000279 -0.003804 0.013941 0.000000 0.000000 0.000000
# 4 0.000000 0.000000 0.000000 0.034220 0.000000 0.000000
# 5 0.000000 0.000000 0.000000 0.000000 0.045135 0.000000
# 6 0.000000 0.000000 0.000000 0.000000 0.000000 0.040203
#
#
# Mechanical properties :
#
#
# Convention : Reuss Voigt Hill
#
# Bulk Modulus (GPa) = 24.88201 26.79115 25.83658
# Shear Modulus (GPa) = 25.01307 25.73748 25.37527
#
# Velocity S-wave (km/s) = 3.56276 3.61398 3.58846
# Velocity P-wave (km/s) = 5.43609 5.56866 5.50277
#
# Compressibility (1/GPa) = 0.04018968
#
# Stress axis : x y z
#
# Youngs Moduli (GPa) = 44.52476 58.26075 71.72896
#
# Poissons Ratio (x) = 0.15175 0.02000
# Poissons Ratio (y) = 0.11597 0.27287
# Poissons Ratio (z) = 0.01241 0.22164
#
# Static dielectric constant tensor:
#      x y z
#    x 1.735430 0.000000 0.000000 
#    y 0.000000 1.692830 0.000000 
#    z 0.000000 0.000000 1.724930 
# 
# From -- ./inp_files/20133.got.cif
#   From: 2010.05.17/outbox.cif.g08.bks.cpg/sg58_11_cif.got.tgz:20133.got - 2010.06.03 14:20:14.
