data_PCOD9444519
_publ_section_title
;
Structure prediction by ZEFSAII (Michael W. Deem and Ramdas Pophale) SiO2 
 PCOD9444519
Probable space group: P N N M
;
_chemical_formula_sum "Si O2"
_cell_formula_units_Z 64
_cell_length_a 15.020334
_cell_length_b 23.365660
_cell_length_c 7.705781
_cell_angle_alpha 90.000000
_cell_angle_beta 90.000000
_cell_angle_gamma 90.000000
_cell_volume 2704.421033
_symmetry_space_group_name_H-M "P N N M"
_symmetry_group_IT_number 58
_symmetry_cell_setting 'orthorhombic'
loop_
_space_group_symop_operation_xyz
x,y,z
-x,-y,z
1/2+x,1/2-y,1/2-z
1/2-x,1/2+y,1/2-z
-x,-y,-z
x,y,-z
1/2-x,1/2+y,1/2+z
1/2+x,1/2-y,1/2+z
loop_
_atom_site_type_symbol
_atom_site_label
_atom_site_fract_x
_atom_site_fract_y
_atom_site_fract_z
Si Si1 0.850456 0.719046 0.805194
Si Si2 0.275852 0.443863 0.712779
Si Si3 0.841044 0.177456 0.798504
Si Si4 0.600575 0.001918 0.211042
Si Si5 0.684082 0.880600 0.797933
Si Si6 0.370987 0.658505 0.189324
Si Si7 0.544195 0.783489 0.287895
Si Si8 0.417171 0.536753 0.291153
O O1 0.757337 0.706711 0.711624
O O2 0.869132 0.787072 0.811856
O O3 0.944861 0.698993 0.729029
O O4 0.839259 0.696622 0.000000
O O5 0.276061 0.441712 0.500000
O O6 0.324815 0.386208 0.774918
O O7 0.172824 0.450656 0.767834
O O8 0.329823 0.501029 0.762951
O O9 0.914769 0.222038 0.728640
O O10 0.864990 0.169593 0.000000
O O11 0.642679 0.940700 0.253377
O O12 0.500000 0.000000 0.277207
O O13 0.596104 0.006428 0.000000
O O14 0.770476 0.864448 0.691831
O O15 0.612384 0.831046 0.775567
O O16 0.711743 0.885046 0.000000
O O17 0.425466 0.602271 0.236037
O O18 0.395674 0.680070 0.000000
O O19 0.542972 0.782889 0.500000
O O20 0.500000 0.500000 0.229096
O O21 0.416701 0.537073 0.500000
#
# Coordination Sequence:
#
# PCOD9444519 Si02
#       8
#     8   8   8   8   8   8   8   8
#     4  11  24  41  62  88 120 160 206 250 298 364
#     4   9  18  34  56  84 118 154 194 236 287 352
#     4  10  21  38  61  87 119 158 197 245 301 354
#     4   9  18  32  54  87 119 148 190 242 286 340
#     4  11  21  37  64  90 116 153 203 249 297 359
#     4  12  24  40  62  87 122 160 200 254 308 354
#     4  10  23  40  59  87 123 157 196 248 305 355
#     4  10  21  38  64  91 116 154 202 247 294 356
#
# _framework density 23.664956
#
# number of rings (size 3 to 8) (size 9 to 14) (size 15 to 20)
#    0.000    1.750    2.500    1.875    3.500    1.250 
#    0.000    0.625    0.000    1.500    0.000    0.000 
#    0.000    0.000    0.000    0.000    0.000    0.000 
#
# Total GULP energy -357584.118066 kJ/mol
# GULP energy per Si atom -5587.251845 kJ/mol
# Density = 2.361109 g / cm^3
# Si number density = 23.664956 Si / 1000 Ang^3
#
#
#
# Elastic Constant Matrix: (Units=GPa)
#
#
# Indices 1 2 3 4 5 6 
#
# 1 61.6540 -24.0421 -0.3846 0.0000 0.0000 0.0000
# 2 -24.0421 52.4397 0.6666 0.0000 0.0000 0.0000
# 3 -0.3846 0.6666 47.3761 0.0000 0.0000 0.0000
# 4 0.0000 0.0000 0.0000 24.4806 0.0000 0.0000
# 5 0.0000 0.0000 0.0000 0.0000 230.6660 0.0000
# 6 0.0000 0.0000 0.0000 0.0000 0.0000 31.1871
#
#
#
# Elastic Compliance Matrix: (Units=1/GPa)
#
#
# Indices 1 2 3 4 5 6 
#
# 1 0.019751 0.009055 0.000033 0.000000 0.000000 0.000000
# 2 0.009055 0.023224 -0.000253 0.000000 0.000000 0.000000
# 3 0.000033 -0.000253 0.021112 0.000000 0.000000 0.000000
# 4 0.000000 0.000000 0.000000 0.040849 0.000000 0.000000
# 5 0.000000 0.000000 0.000000 0.000000 0.004335 0.000000
# 6 0.000000 0.000000 0.000000 0.000000 0.000000 0.032064
#
#
# Mechanical properties :
#
#
# Convention : Reuss Voigt Hill
#
# Bulk Modulus (GPa) = 12.23169 12.66108 12.44638
# Shear Modulus (GPa) = 33.13065 69.61540 51.37303
#
# Velocity S-wave (km/s) = 3.74570 5.42964 4.66429
# Velocity P-wave (km/s) = 4.88743 6.68354 5.85477
#
# Compressibility (1/GPa) = 0.08175487
#
# Stress axis : x y z
#
# Youngs Moduli (GPa) = 50.63128 43.05880 47.36751
#
# Poissons Ratio (x) = -0.38988 -0.00156
# Poissons Ratio (y) = -0.45845 0.01200
# Poissons Ratio (z) = -0.00167 0.01091
#
# Static dielectric constant tensor:
#      x y z
#    x 1.918220 0.000000 0.000000 
#    y 0.000000 1.887280 0.000000 
#    z 0.000000 0.000000 1.893090 
# 
# From -- ./inp_files/6796.got.cif
#   From: 2010.05.17/outbox.cif.g08.bks.cpg/sg58_4_cif.got.tgz:6796.got - 2010.06.03 14:20:14.
