data_PCOD9444886
_publ_section_title
;
Structure prediction by ZEFSAII (Michael W. Deem and Ramdas Pophale) SiO2 
 PCOD9444886
Probable space group: P N N M
;
_chemical_formula_sum "Si O2"
_cell_formula_units_Z 64
_cell_length_a 16.772880
_cell_length_b 9.453627
_cell_length_c 23.158420
_cell_angle_alpha 90.000000
_cell_angle_beta 90.000000
_cell_angle_gamma 90.000000
_cell_volume 3672.104475
_symmetry_space_group_name_H-M "P N N M"
_symmetry_group_IT_number 58
_symmetry_cell_setting 'orthorhombic'
loop_
_space_group_symop_operation_xyz
x,y,z
-x,-y,z
1/2+x,1/2-y,1/2-z
1/2-x,1/2+y,1/2-z
-x,-y,-z
x,y,-z
1/2-x,1/2+y,1/2+z
1/2+x,1/2-y,1/2+z
loop_
_atom_site_type_symbol
_atom_site_label
_atom_site_fract_x
_atom_site_fract_y
_atom_site_fract_z
Si Si1 0.941261 0.627373 0.261916
Si Si2 0.797185 0.618059 0.804222
Si Si3 0.441962 0.373621 0.240259
Si Si4 0.839167 0.657893 0.371736
Si Si5 0.345913 0.352937 0.875344
Si Si6 0.797049 0.273443 0.798832
Si Si7 0.415785 0.076830 0.067589
Si Si8 0.578989 0.413265 0.933874
O O1 0.888947 0.657744 0.205244
O O2 0.880209 0.594766 0.313921
O O3 0.000000 0.500000 0.251496
O O4 0.995433 0.756816 0.279855
O O5 0.746746 0.663178 0.859808
O O6 0.795261 0.445379 0.797578
O O7 0.753257 0.709258 0.754467
O O8 0.500000 0.500000 0.259959
O O9 0.387270 0.410945 0.184258
O O10 0.383426 0.298517 0.287140
O O11 0.752881 0.717786 0.354089
O O12 0.846536 0.536538 0.419265
O O13 0.895012 0.783916 0.394730
O O14 0.393009 0.213902 0.895330
O O15 0.354102 0.468626 0.925006
O O16 0.500000 0.000000 0.083153
O O17 0.420545 0.113561 0.000000
O O18 0.500000 0.500000 0.916557
O O19 0.569197 0.367187 0.000000
#
# Coordination Sequence:
#
# PCOD9444886 Si02
#       8
#     8   8   8   8   8   8   8   8
#     4  11  20  33  53  74 106 142 179 220 263 319
#     4  10  22  35  52  77 105 143 182 224 269 322
#     4  11  22  33  53  79 108 141 182 218 265 326
#     4  11  21  34  53  72 108 146 183 214 272 322
#     4  11  21  36  53  74 108 146 183 220 268 323
#     4  10  22  36  51  77 109 140 180 223 268 322
#     4  11  23  37  53  78 109 146 189 229 262 305
#     4  11  21  33  50  74 104 140 182 229 263 303
#
# _framework density 17.428698000000001
#
# number of rings (size 3 to 8) (size 9 to 14) (size 15 to 20)
#    0.000    1.250    2.500    5.250   10.500    2.000 
#    0.000    0.000    0.000    0.000    0.000    0.000 
#    0.000   20.000    0.000    0.000    0.000    0.000 
#
# Total GULP energy -356626.907165 kJ/mol
# GULP energy per Si atom -5572.295424 kJ/mol
# Density = 1.738903 g / cm^3
# Si number density = 17.428698 Si / 1000 Ang^3
#
#
#
# Elastic Constant Matrix: (Units=GPa)
#
#
# Indices 1 2 3 4 5 6 
#
# 1 61.7563 10.1187 25.5261 0.0000 0.0000 0.0000
# 2 10.1187 59.0565 10.3405 0.0000 0.0000 0.0000
# 3 25.5261 10.3405 47.8614 0.0000 0.0000 0.0000
# 4 0.0000 0.0000 0.0000 25.9570 0.0000 0.0000
# 5 0.0000 0.0000 0.0000 0.0000 21.1450 0.0000
# 6 0.0000 0.0000 0.0000 0.0000 0.0000 26.4321
#
#
#
# Elastic Compliance Matrix: (Units=1/GPa)
#
#
# Indices 1 2 3 4 5 6 
#
# 1 0.020934 -0.001696 -0.010798 0.000000 0.000000 0.000000
# 2 -0.001696 0.017736 -0.002927 0.000000 0.000000 0.000000
# 3 -0.010798 -0.002927 0.027285 0.000000 0.000000 0.000000
# 4 0.000000 0.000000 0.000000 0.038525 0.000000 0.000000
# 5 0.000000 0.000000 0.000000 0.000000 0.047292 0.000000
# 6 0.000000 0.000000 0.000000 0.000000 0.000000 0.037833
#
#
# Mechanical properties :
#
#
# Convention : Reuss Voigt Hill
#
# Bulk Modulus (GPa) = 28.48047 28.96055 28.72051
# Shear Modulus (GPa) = 21.53749 22.88607 22.21178
#
# Velocity S-wave (km/s) = 3.51914 3.62764 3.57380
# Velocity P-wave (km/s) = 5.73490 5.84799 5.79172
#
# Compressibility (1/GPa) = 0.03511178
#
# Stress axis : x y z
#
# Youngs Moduli (GPa) = 47.76932 56.38216 36.64979
#
# Poissons Ratio (x) = 0.09563 0.39576
# Poissons Ratio (y) = 0.08102 0.10729
# Poissons Ratio (z) = 0.51583 0.16505
#
# Static dielectric constant tensor:
#      x y z
#    x 1.638900 0.000000 0.000000 
#    y 0.000000 1.595130 0.000000 
#    z 0.000000 0.000000 1.602350 
# 
# From -- ./inp_files/31684.got.cif
#   From: 2010.05.17/outbox.cif.g08.bks.cpg/sg58_16_cif.got.tgz:31684.got - 2010.06.03 14:20:14.
