data_PCOD9444228
_publ_section_title
;
Structure prediction by ZEFSAII (Michael W. Deem and Ramdas Pophale) SiO2 
 PCOD9444228
Probable space group: P N N M
;
_chemical_formula_sum "Si O2"
_cell_formula_units_Z 48
_cell_length_a 16.185786
_cell_length_b 7.906539
_cell_length_c 17.385202
_cell_angle_alpha 90.000000
_cell_angle_beta 90.000000
_cell_angle_gamma 90.000000
_cell_volume 2224.845987
_symmetry_space_group_name_H-M "P N N M"
_symmetry_group_IT_number 58
_symmetry_cell_setting 'orthorhombic'
loop_
_space_group_symop_operation_xyz
x,y,z
-x,-y,z
1/2+x,1/2-y,1/2-z
1/2-x,1/2+y,1/2-z
-x,-y,-z
x,y,-z
1/2-x,1/2+y,1/2+z
1/2+x,1/2-y,1/2+z
loop_
_atom_site_type_symbol
_atom_site_label
_atom_site_fract_x
_atom_site_fract_y
_atom_site_fract_z
Si Si1 0.407812 0.484233 0.908550
Si Si2 0.541936 0.235999 0.588408
Si Si3 0.326823 0.256631 0.210936
Si Si4 0.838427 0.562276 0.799659
Si Si5 0.623585 0.591510 0.631202
Si Si6 0.759680 0.810920 0.412004
O O1 0.500000 0.500000 0.877923
O O2 0.360176 0.331051 0.868153
O O3 0.355136 0.655233 0.893846
O O4 0.411321 0.457223 0.000000
O O5 0.555941 0.179681 0.500000
O O6 0.580714 0.120938 0.655115
O O7 0.589998 0.412773 0.603256
O O8 0.445294 0.276575 0.600071
O O9 0.227631 0.288234 0.216599
O O10 0.367980 0.374282 0.277726
O O11 0.350307 0.063048 0.227845
O O12 0.789980 0.438135 0.857876
O O13 0.714521 0.633253 0.599439
O O14 0.748025 0.861834 0.500000
#
# Coordination Sequence:
#
# PCOD9444228 Si02
#       6
#     8   8   8   8   8   8
#     4   9  19  36  63  94 119 159 207 258 316 369
#     4  11  22  37  60  91 127 165 208 249 305 384
#     4  10  21  38  58  87 123 157 204 250 301 373
#     4  10  21  37  59  84 117 160 202 247 302 356
#     4  10  21  36  58  92 125 165 200 248 314 369
#     4   9  17  33  56  84 119 153 193 242 299 361
#
# _framework density 21.574525999999999
#
# number of rings (size 3 to 8) (size 9 to 14) (size 15 to 20)
#    0.000    2.167    0.000    3.500    2.333    3.333 
#    0.000    4.167    3.667    2.000    0.000    3.500 
#    0.000    0.667    0.000    0.000    0.000    0.000 
#
# Total GULP energy -267876.240158 kJ/mol
# GULP energy per Si atom -5580.755003 kJ/mol
# Density = 2.152542 g / cm^3
# Si number density = 21.574526 Si / 1000 Ang^3
#
#
#
# Elastic Constant Matrix: (Units=GPa)
#
#
# Indices 1 2 3 4 5 6 
#
# 1 118.6468 38.8822 30.8360 0.0000 0.0000 0.0000
# 2 38.8822 73.5301 13.0431 0.0000 0.0000 0.0000
# 3 30.8360 13.0431 52.8531 0.0000 0.0000 0.0000
# 4 0.0000 0.0000 0.0000 16.1275 0.0000 0.0000
# 5 0.0000 0.0000 0.0000 0.0000 29.0259 0.0000
# 6 0.0000 0.0000 0.0000 0.0000 0.0000 37.8380
#
#
#
# Elastic Compliance Matrix: (Units=1/GPa)
#
#
# Indices 1 2 3 4 5 6 
#
# 1 0.011528 -0.005127 -0.005460 0.000000 0.000000 0.000000
# 2 -0.005127 0.016503 -0.001081 0.000000 0.000000 0.000000
# 3 -0.005460 -0.001081 0.022373 0.000000 0.000000 0.000000
# 4 0.000000 0.000000 0.000000 0.062006 0.000000 0.000000
# 5 0.000000 0.000000 0.000000 0.000000 0.034452 0.000000
# 6 0.000000 0.000000 0.000000 0.000000 0.000000 0.026428
#
#
# Mechanical properties :
#
#
# Convention : Reuss Voigt Hill
#
# Bulk Modulus (GPa) = 36.94669 45.61694 41.28182
# Shear Modulus (GPa) = 24.31323 27.41620 25.86471
#
# Velocity S-wave (km/s) = 3.36064 3.56865 3.46620
# Velocity P-wave (km/s) = 5.67634 6.17820 5.93258
#
# Compressibility (1/GPa) = 0.02706603
#
# Stress axis : x y z
#
# Youngs Moduli (GPa) = 86.74714 60.59544 44.69694
#
# Poissons Ratio (x) = 0.31069 0.24406
# Poissons Ratio (y) = 0.44477 0.04833
# Poissons Ratio (z) = 0.47367 0.06552
#
# Static dielectric constant tensor:
#      x y z
#    x 1.804910 0.000000 0.000000 
#    y 0.000000 1.850740 0.000000 
#    z 0.000000 0.000000 1.806440 
# 
# From -- ./inp_files/26814.got.cif
#   From: 2010.05.17/outbox.cif.g08.bks.cpg/sg58_14_cif.got.tgz:26814.got - 2010.06.03 14:20:14.
