data_PCOD9444103
_publ_section_title
;
Structure prediction by ZEFSAII (Michael W. Deem and Ramdas Pophale) SiO2 
 PCOD9444103
Probable space group: P N N M
;
_chemical_formula_sum "Si O2"
_cell_formula_units_Z 40
_cell_length_a 19.548588
_cell_length_b 8.554492
_cell_length_c 10.567274
_cell_angle_alpha 90.000000
_cell_angle_beta 90.000000
_cell_angle_gamma 90.000000
_cell_volume 1767.146629
_symmetry_space_group_name_H-M "P N N M"
_symmetry_group_IT_number 58
_symmetry_cell_setting 'orthorhombic'
loop_
_space_group_symop_operation_xyz
x,y,z
-x,-y,z
1/2+x,1/2-y,1/2-z
1/2-x,1/2+y,1/2-z
-x,-y,-z
x,y,-z
1/2-x,1/2+y,1/2+z
1/2+x,1/2-y,1/2+z
loop_
_atom_site_type_symbol
_atom_site_label
_atom_site_fract_x
_atom_site_fract_y
_atom_site_fract_z
Si Si1 0.061445 0.626878 0.362128
Si Si2 0.749733 0.272669 0.358090
Si Si3 0.323060 0.530922 0.148565
Si Si4 0.965261 0.851926 0.765243
Si Si5 0.613767 0.062732 0.363377
O O1 0.094221 0.629232 0.500000
O O2 0.107190 0.558551 0.250170
O O3 0.000000 0.500000 0.368411
O O4 0.022764 0.786395 0.329672
O O5 0.751522 0.344686 0.500000
O O6 0.813427 0.155935 0.338232
O O7 0.730643 0.387699 0.244465
O O8 0.396986 0.592942 0.192329
O O9 0.185548 0.347652 0.138975
O O10 0.311519 0.568409 0.000000
O O11 0.941975 0.701965 0.846293
O O12 0.000000 0.000000 0.832763
O O13 0.604374 0.986239 0.500000
#
# Coordination Sequence:
#
# PCOD9444103 Si02
#       5
#     8   8   8   8   8
#     4   9  18  32  52  79 108 141 181 219 260 315
#     4   9  20  38  58  82 110 141 182 228 272 321
#     4  10  21  38  59  81 108 144 182 223 273 323
#     4  10  21  35  54  83 115 142 176 226 275 319
#     4   9  19  37  58  79 108 146 184 221 265 323
#
# _framework density 22.635361
#
# number of rings (size 3 to 8) (size 9 to 14) (size 15 to 20)
#    0.000    2.600    0.000    0.600    0.000   12.800 
#    0.000    2.000    0.000    0.000    0.000    0.000 
#    0.000    0.000    0.000    0.000    0.000    0.000 
#
# Total GULP energy -223369.140420 kJ/mol
# GULP energy per Si atom -5584.228510 kJ/mol
# Density = 2.258384 g / cm^3
# Si number density = 22.635361 Si / 1000 Ang^3
#
#
#
# Elastic Constant Matrix: (Units=GPa)
#
#
# Indices 1 2 3 4 5 6 
#
# 1 84.2142 21.5435 35.0242 0.0000 0.0000 0.0000
# 2 21.5435 83.5418 55.3255 0.0000 0.0000 0.0000
# 3 35.0242 55.3255 166.3447 0.0000 0.0000 0.0000
# 4 0.0000 0.0000 0.0000 18.0481 0.0000 0.0000
# 5 0.0000 0.0000 0.0000 0.0000 10.3951 0.0000
# 6 0.0000 0.0000 0.0000 0.0000 0.0000 50.9686
#
#
#
# Elastic Compliance Matrix: (Units=1/GPa)
#
#
# Indices 1 2 3 4 5 6 
#
# 1 0.013274 -0.002016 -0.002124 0.000000 0.000000 0.000000
# 2 -0.002016 0.015658 -0.004783 0.000000 0.000000 0.000000
# 3 -0.002124 -0.004783 0.008050 0.000000 0.000000 0.000000
# 4 0.000000 0.000000 0.000000 0.055408 0.000000 0.000000
# 5 0.000000 0.000000 0.000000 0.000000 0.096199 0.000000
# 6 0.000000 0.000000 0.000000 0.000000 0.000000 0.019620
#
#
# Mechanical properties :
#
#
# Convention : Reuss Voigt Hill
#
# Bulk Modulus (GPa) = 52.26325 61.98746 57.12535
# Shear Modulus (GPa) = 21.51163 30.69621 26.10392
#
# Velocity S-wave (km/s) = 3.08613 3.68655 3.39962
# Velocity P-wave (km/s) = 5.98650 6.75022 6.37980
#
# Compressibility (1/GPa) = 0.01913390
#
# Stress axis : x y z
#
# Youngs Moduli (GPa) = 75.33685 63.86670 124.22791
#
# Poissons Ratio (x) = 0.12877 0.26389
# Poissons Ratio (y) = 0.15190 0.59420
# Poissons Ratio (z) = 0.16003 0.30548
#
# Static dielectric constant tensor:
#      x y z
#    x 1.911850 0.000000 0.000000 
#    y 0.000000 1.817650 0.000000 
#    z 0.000000 0.000000 1.822000 
# 
# From -- ./inp_files/16878.got.cif
#   From: 2010.05.17/outbox.cif.g08.bks.cpg/sg58_9_cif.got.tgz:16878.got - 2010.06.03 14:20:14.
