data_PCOD9444897
_publ_section_title
;
Structure prediction by ZEFSAII (Michael W. Deem and Ramdas Pophale) SiO2 
 PCOD9444897
Probable space group: P N N M
;
_chemical_formula_sum "Si O2"
_cell_formula_units_Z 58
_cell_length_a 22.567284
_cell_length_b 15.366590
_cell_length_c 7.240156
_cell_angle_alpha 90.000000
_cell_angle_beta 90.000000
_cell_angle_gamma 90.000000
_cell_volume 2510.757231
_symmetry_space_group_name_H-M "P N N M"
_symmetry_group_IT_number 58
_symmetry_cell_setting 'orthorhombic'
loop_
_space_group_symop_operation_xyz
x,y,z
-x,-y,z
1/2+x,1/2-y,1/2-z
1/2-x,1/2+y,1/2-z
-x,-y,-z
x,y,-z
1/2-x,1/2+y,1/2+z
1/2+x,1/2-y,1/2+z
loop_
_atom_site_type_symbol
_atom_site_label
_atom_site_fract_x
_atom_site_fract_y
_atom_site_fract_z
Si Si1 0.237023 0.634624 0.723424
Si Si2 0.500000 0.500000 0.500000
Si Si3 0.954606 0.363524 0.724132
Si Si4 0.625130 0.366831 0.210951
Si Si5 0.639965 0.003993 0.775759
Si Si6 0.087347 0.320948 0.725883
Si Si7 0.144347 0.774252 0.276913
Si Si8 0.084002 0.945940 0.722341
O O1 0.238377 0.634066 0.500000
O O2 0.303861 0.632505 0.788567
O O3 0.196913 0.552148 0.782295
O O4 0.202156 0.721646 0.784290
O O5 0.524509 0.567024 0.663487
O O6 0.956189 0.365568 0.500000
O O7 0.918824 0.449885 0.779975
O O8 0.912558 0.283190 0.777841
O O9 0.021682 0.350176 0.783489
O O10 0.603231 0.275620 0.290765
O O11 0.604155 0.458632 0.291203
O O12 0.603491 0.369031 0.000000
O O13 0.633137 0.103530 0.717333
O O14 0.640822 0.003047 0.000000
O O15 0.088391 0.319076 0.500000
O O16 0.146075 0.772089 0.500000
O O17 0.132504 0.873472 0.226400
O O18 0.075892 0.943010 0.500000
#
# Coordination Sequence:
#
# PCOD9444897 Si02
#       8
#     8   2   8   8   8   8   8   8
#     4   9  18  34  56  77 107 145 193 241 285 338
#     4  12  26  40  64  94 116 162 206 244 302 370
#     4   8  13  23  45  75 104 134 173 217 273 336
#     4  10  22  36  51  78 112 152 187 233 294 344
#     4   8  14  26  46  75 103 134 174 225 273 324
#     4   9  16  26  44  73 106 135 170 216 275 336
#     4   8  16  33  56  80 107 152 192 233 291 346
#     4  10  23  42  61  86 125 158 199 249 301 360
#
# _framework density 23.100601000000001
#
# number of rings (size 3 to 8) (size 9 to 14) (size 15 to 20)
#    0.000    3.034    0.000    2.276    2.897    2.759 
#    1.241    0.000    0.000    0.000    0.000    0.000 
#    0.000    5.517    0.000    0.276    0.000    0.000 
#
# Total GULP energy -323343.588567 kJ/mol
# GULP energy per Si atom -5574.889458 kJ/mol
# Density = 2.304802 g / cm^3
# Si number density = 23.100601 Si / 1000 Ang^3
#
#
#
# Elastic Constant Matrix: (Units=GPa)
#
#
# Indices 1 2 3 4 5 6 
#
# 1 59.4285 20.9717 -11.2728 0.0000 0.0000 0.0000
# 2 20.9717 158.0892 3.6391 0.0000 0.0000 0.0000
# 3 -11.2728 3.6391 119.4958 0.0000 0.0000 0.0000
# 4 0.0000 0.0000 0.0000 -23.6496 0.0000 0.0000
# 5 0.0000 0.0000 0.0000 0.0000 160.2380 0.0000
# 6 0.0000 0.0000 0.0000 0.0000 0.0000 13.7961
#
#
#
# Elastic Compliance Matrix: (Units=1/GPa)
#
#
# Indices 1 2 3 4 5 6 
#
# 1 0.018022 -0.002432 0.001774 0.000000 0.000000 0.000000
# 2 -0.002432 0.006658 -0.000432 0.000000 0.000000 0.000000
# 3 0.001774 -0.000432 0.008549 0.000000 0.000000 0.000000
# 4 0.000000 0.000000 0.000000 -0.042284 0.000000 0.000000
# 5 0.000000 0.000000 0.000000 0.000000 0.006241 0.000000
# 6 0.000000 0.000000 0.000000 0.000000 0.000000 0.072484
#
#
# Mechanical properties :
#
#
# Convention : Reuss Voigt Hill
#
# Bulk Modulus (GPa) = 32.20659 40.40994 36.30827
# Shear Modulus (GPa) = 60.82843 51.65526 56.24184
#
# Velocity S-wave (km/s) = 5.13704 4.73387 4.93957
# Velocity P-wave (km/s) = 7.01125 6.88552 6.94867
#
# Compressibility (1/GPa) = 0.03104954
#
# Stress axis : x y z
#
# Youngs Moduli (GPa) = 55.48914 150.19407 116.97245
#
# Poissons Ratio (x) = 0.36520 -0.20753
# Poissons Ratio (y) = 0.13492 0.05055
# Poissons Ratio (z) = -0.09845 0.06491
#
# Static dielectric constant tensor:
#      x y z
#    x 1.908950 0.000000 0.000000 
#    y 0.000000 1.872350 0.000000 
#    z 0.000000 0.000000 1.893110 
# 
# From -- ./inp_files/9883.got.cif
#   From: 2010.05.17/outbox.cif.g08.bks.cpg/sg58_5_cif.got.tgz:9883.got - 2010.06.03 14:20:14.
