data_PCOD9444602
_publ_section_title
;
Structure prediction by ZEFSAII (Michael W. Deem and Ramdas Pophale) SiO2 
 PCOD9444602
Probable space group: P N N M
;
_chemical_formula_sum "Si O2"
_cell_formula_units_Z 56
_cell_length_a 21.662462
_cell_length_b 14.884306
_cell_length_c 7.775530
_cell_angle_alpha 90.000000
_cell_angle_beta 90.000000
_cell_angle_gamma 90.000000
_cell_volume 2507.069683
_symmetry_space_group_name_H-M "P N N M"
_symmetry_group_IT_number 58
_symmetry_cell_setting 'orthorhombic'
loop_
_space_group_symop_operation_xyz
x,y,z
-x,-y,z
1/2+x,1/2-y,1/2-z
1/2-x,1/2+y,1/2-z
-x,-y,-z
x,y,-z
1/2-x,1/2+y,1/2+z
1/2+x,1/2-y,1/2+z
loop_
_atom_site_type_symbol
_atom_site_label
_atom_site_fract_x
_atom_site_fract_y
_atom_site_fract_z
Si Si1 0.467816 0.591464 0.210171
Si Si2 0.212740 0.699288 0.202791
Si Si3 0.486929 0.787631 0.791408
Si Si4 0.097929 0.582555 0.203540
Si Si5 0.174013 0.086176 0.289060
Si Si6 0.630966 0.110522 0.197474
Si Si7 0.770789 0.102002 0.698031
O O1 0.500000 0.500000 0.269451
O O2 0.499445 0.685148 0.262144
O O3 0.396487 0.595215 0.265139
O O4 0.468658 0.589811 0.000000
O O5 0.156019 0.640570 0.271620
O O6 0.278573 0.663383 0.269482
O O7 0.205500 0.804998 0.225626
O O8 0.212984 0.681341 0.000000
O O9 0.537318 0.857987 0.728476
O O10 0.418553 0.818242 0.734468
O O11 0.486765 0.791290 0.000000
O O12 0.097945 0.486263 0.293442
O O13 0.105494 0.564802 0.000000
O O14 0.173226 0.087733 0.500000
O O15 0.202104 0.990693 0.230588
O O16 0.696639 0.101793 0.288175
O O17 0.645311 0.134858 0.000000
O O18 0.789179 0.103756 0.500000
#
# Coordination Sequence:
#
# PCOD9444602 Si02
#       7
#     8   8   8   8   8   8   8
#     4   9  18  33  57  86 114 148 194 244 293 347
#     4  10  21  39  58  81 119 160 195 240 303 360
#     4  10  22  38  59  87 117 156 201 246 299 361
#     4  11  23  39  60  87 120 157 199 252 305 356
#     4   9  18  36  57  81 117 153 190 241 294 345
#     4  11  22  39  61  87 122 160 198 244 302 365
#     4  11  22  36  60  91 119 152 199 248 296 355
#
# _framework density 22.336832999999999
#
# number of rings (size 3 to 8) (size 9 to 14) (size 15 to 20)
#    0.000    1.857    1.429    2.571    2.000    6.286 
#    0.000    0.000    0.000    2.143    0.000    0.000 
#    0.000    0.000    0.000    0.000    0.000    0.000 
#
# Total GULP energy -313026.077169 kJ/mol
# GULP energy per Si atom -5589.751378 kJ/mol
# Density = 2.228599 g / cm^3
# Si number density = 22.336833 Si / 1000 Ang^3
#
#
#
# Elastic Constant Matrix: (Units=GPa)
#
#
# Indices 1 2 3 4 5 6 
#
# 1 41.9153 -6.6700 -3.1659 0.0000 0.0000 0.0000
# 2 -6.6700 93.0826 -8.3826 0.0000 0.0000 0.0000
# 3 -3.1659 -8.3826 27.9710 0.0000 0.0000 0.0000
# 4 0.0000 0.0000 0.0000 15.3237 0.0000 0.0000
# 5 0.0000 0.0000 0.0000 0.0000 20.4569 0.0000
# 6 0.0000 0.0000 0.0000 0.0000 0.0000 33.6510
#
#
#
# Elastic Compliance Matrix: (Units=1/GPa)
#
#
# Indices 1 2 3 4 5 6 
#
# 1 0.024440 0.002056 0.003382 0.000000 0.000000 0.000000
# 2 0.002056 0.011214 0.003593 0.000000 0.000000 0.000000
# 3 0.003382 0.003593 0.037211 0.000000 0.000000 0.000000
# 4 0.000000 0.000000 0.000000 0.065258 0.000000 0.000000
# 5 0.000000 0.000000 0.000000 0.000000 0.048883 0.000000
# 6 0.000000 0.000000 0.000000 0.000000 0.000000 0.029717
#
#
# Mechanical properties :
#
#
# Convention : Reuss Voigt Hill
#
# Bulk Modulus (GPa) = 10.99762 14.05911 12.52837
# Shear Modulus (GPa) = 21.83692 25.96547 23.90120
#
# Velocity S-wave (km/s) = 3.13008 3.41317 3.27469
# Velocity P-wave (km/s) = 4.24234 4.67341 4.46308
#
# Compressibility (1/GPa) = 0.09092873
#
# Stress axis : x y z
#
# Youngs Moduli (GPa) = 40.91608 89.17365 26.87377
#
# Poissons Ratio (x) = -0.18333 -0.09090
# Poissons Ratio (y) = -0.08412 -0.09657
# Poissons Ratio (z) = -0.13839 -0.32044
#
# Static dielectric constant tensor:
#      x y z
#    x 1.801380 0.000000 0.000000 
#    y 0.000000 1.815410 0.000000 
#    z 0.000000 0.000000 1.852740 
# 
# From -- ./inp_files/6292.got.cif
#   From: 2010.05.17/outbox.cif.g08.bks.cpg/sg58_4_cif.got.tgz:6292.got - 2010.06.03 14:20:14.
