data_PCOD9444040
_publ_section_title
;
Structure prediction by ZEFSAII (Michael W. Deem and Ramdas Pophale) SiO2 
 PCOD9444040
Probable space group: P N N M
;
_chemical_formula_sum "Si O2"
_cell_formula_units_Z 48
_cell_length_a 8.266285
_cell_length_b 9.309167
_cell_length_c 31.635340
_cell_angle_alpha 90.000000
_cell_angle_beta 90.000000
_cell_angle_gamma 90.000000
_cell_volume 2434.409882
_symmetry_space_group_name_H-M "P N N M"
_symmetry_group_IT_number 58
_symmetry_cell_setting 'orthorhombic'
loop_
_space_group_symop_operation_xyz
x,y,z
-x,-y,z
1/2+x,1/2-y,1/2-z
1/2-x,1/2+y,1/2-z
-x,-y,-z
x,y,-z
1/2-x,1/2+y,1/2+z
1/2+x,1/2-y,1/2+z
loop_
_atom_site_type_symbol
_atom_site_label
_atom_site_fract_x
_atom_site_fract_y
_atom_site_fract_z
Si Si1 0.040973 0.743682 0.500000
Si Si2 0.677159 0.519628 0.141700
Si Si3 0.305972 0.485431 0.723857
Si Si4 0.000000 0.000000 0.436791
Si Si5 0.261226 0.470528 0.500000
Si Si6 0.640811 0.307262 0.652001
Si Si7 0.857770 0.328609 0.206164
Si Si8 0.500000 0.500000 0.577735
O O1 0.038833 0.856322 0.538230
O O2 0.187758 0.631759 0.500000
O O3 0.881919 0.645106 0.500000
O O4 0.500000 0.500000 0.162092
O O5 0.650063 0.469349 0.093993
O O6 0.731346 0.684141 0.141459
O O7 0.793849 0.416137 0.166250
O O8 0.500000 0.500000 0.736025
O O9 0.290427 0.557558 0.677827
O O10 0.183132 0.563671 0.755554
O O11 0.268376 0.317609 0.719803
O O12 0.361322 0.455322 0.543861
O O13 0.526600 0.231048 0.687586
O O14 0.555086 0.372353 0.610116
#
# Coordination Sequence:
#
# PCOD9444040 Si02
#       8
#     4   8   8   4   4   8   8   4
#     4  10  20  44  64  94 128 170 210 259 330 396
#     4  10  23  39  60  93 121 171 211 272 313 384
#     4  10  22  39  61  88 125 173 211 272 319 388
#     4   9  22  38  65  88 130 164 209 262 320 387
#     4  10  24  38  72  98 131 169 212 277 318 423
#     4  11  22  43  66  89 135 170 216 276 327 393
#     4  11  21  39  62  91 123 170 219 266 331 374
#     4  11  22  42  67 102 132 170 217 268 352 377
#
# _framework density 19.717303999999999
#
# number of rings (size 3 to 8) (size 9 to 14) (size 15 to 20)
#    0.500    1.167    2.500    3.000    2.333    2.667 
#    0.000    4.167    0.000    3.000    0.000    0.000 
#    0.000    0.000    0.000    0.000    0.000    0.000 
#
# Total GULP energy -267268.489285 kJ/mol
# GULP energy per Si atom -5568.093527 kJ/mol
# Density = 1.967243 g / cm^3
# Si number density = 19.717304 Si / 1000 Ang^3
#
#
#
# Elastic Constant Matrix: (Units=GPa)
#
#
# Indices 1 2 3 4 5 6 
#
# 1 36.8166 19.9778 22.3597 0.0000 0.0000 0.0000
# 2 19.9778 128.7626 46.4378 0.0000 0.0000 0.0000
# 3 22.3597 46.4378 137.4755 0.0000 0.0000 0.0000
# 4 0.0000 0.0000 0.0000 247.2685 0.0000 0.0000
# 5 0.0000 0.0000 0.0000 0.0000 27.9557 0.0000
# 6 0.0000 0.0000 0.0000 0.0000 0.0000 31.8441
#
#
#
# Elastic Compliance Matrix: (Units=1/GPa)
#
#
# Indices 1 2 3 4 5 6 
#
# 1 0.031432 -0.003454 -0.003946 0.000000 0.000000 0.000000
# 2 -0.003454 0.009223 -0.002554 0.000000 0.000000 0.000000
# 3 -0.003946 -0.002554 0.008778 0.000000 0.000000 0.000000
# 4 0.000000 0.000000 0.000000 0.004044 0.000000 0.000000
# 5 0.000000 0.000000 0.000000 0.000000 0.035771 0.000000
# 6 0.000000 0.000000 0.000000 0.000000 0.000000 0.031403
#
#
# Mechanical properties :
#
#
# Convention : Reuss Voigt Hill
#
# Bulk Modulus (GPa) = 33.86697 53.40060 43.63378
# Shear Modulus (GPa) = 33.24461 75.69895 54.47178
#
# Velocity S-wave (km/s) = 4.11062 6.20286 5.26178
# Velocity P-wave (km/s) = 6.30422 8.85678 7.68719
#
# Compressibility (1/GPa) = 0.02952730
#
# Stress axis : x y z
#
# Youngs Moduli (GPa) = 31.81464 108.42364 113.91627
#
# Poissons Ratio (x) = 0.37447 0.44947
# Poissons Ratio (y) = 0.10988 0.29091
# Poissons Ratio (z) = 0.12553 0.27688
#
# Static dielectric constant tensor:
#      x y z
#    x 1.689510 0.000000 0.000000 
#    y 0.000000 1.644610 0.000000 
#    z 0.000000 0.000000 1.710880 
# 
# From -- ./inp_files/34671.got.cif
#   From: 2010.05.17/outbox.cif.g08.bks.cpg/sg58_18_cif.got.tgz:34671.got - 2010.06.03 14:20:14.
