data_PCOD9444925
_publ_section_title
;
Structure prediction by ZEFSAII (Michael W. Deem and Ramdas Pophale) SiO2 
 PCOD9444925
Probable space group: P N N M
;
_chemical_formula_sum "Si O2"
_cell_formula_units_Z 34
_cell_length_a 5.064691
_cell_length_b 19.894928
_cell_length_c 17.169791
_cell_angle_alpha 90.000000
_cell_angle_beta 90.000000
_cell_angle_gamma 90.000000
_cell_volume 1730.056691
_symmetry_space_group_name_H-M "P N N M"
_symmetry_group_IT_number 58
_symmetry_cell_setting 'orthorhombic'
loop_
_space_group_symop_operation_xyz
x,y,z
-x,-y,z
1/2+x,1/2-y,1/2-z
1/2-x,1/2+y,1/2-z
-x,-y,-z
x,y,-z
1/2-x,1/2+y,1/2+z
1/2+x,1/2-y,1/2+z
loop_
_atom_site_type_symbol
_atom_site_label
_atom_site_fract_x
_atom_site_fract_y
_atom_site_fract_z
Si Si1 0.647750 0.751345 0.000000
Si Si2 0.142560 0.655022 0.000000
Si Si3 0.628976 0.066924 0.370475
Si Si4 0.056539 0.693587 0.666684
Si Si5 0.438171 0.339654 0.750957
Si Si6 0.000000 0.000000 0.500000
O O1 0.422872 0.692502 0.000000
O O2 0.624214 0.795712 0.077172
O O3 0.923605 0.712592 0.000000
O O4 0.085060 0.610007 0.077593
O O5 0.798013 0.109433 0.309677
O O6 0.829722 0.039344 0.433899
O O7 0.500000 0.000000 0.334577
O O8 0.269138 0.650997 0.716741
O O9 0.061583 0.768372 0.704018
O O10 0.762954 0.667008 0.679085
#
# Coordination Sequence:
#
# PCOD9444925 Si02
#       6
#     4   4   8   8   8   2
#     4  12  22  39  63  89 118 166 200 254 308 368
#     4  11  24  34  59  91 127 161 203 240 295 360
#     4  11  25  37  58  86 130 171 207 242 296 369
#     4  10  22  37  58  84 115 157 203 251 307 354
#     4  10  22  38  56  84 120 156 200 252 297 359
#     4  10  24  40  56  90 120 170 204 236 286 380
#
# _framework density 19.652533999999999
#
# number of rings (size 3 to 8) (size 9 to 14) (size 15 to 20)
#    0.000    1.412    2.353    2.824   16.471    0.000 
#    0.000    0.000    0.000    0.000    0.000    4.941 
#    0.000    0.000    0.000    0.000    0.000    0.000 
#
# Total GULP energy -189507.279256 kJ/mol
# GULP energy per Si atom -5573.743508 kJ/mol
# Density = 1.960780 g / cm^3
# Si number density = 19.652534 Si / 1000 Ang^3
#
#
#
# Elastic Constant Matrix: (Units=GPa)
#
#
# Indices 1 2 3 4 5 6 
#
# 1 63.4687 2.2664 -4.2590 0.0000 0.0000 0.0000
# 2 2.2664 33.6796 -1.5756 0.0000 0.0000 0.0000
# 3 -4.2590 -1.5756 63.4179 0.0000 0.0000 0.0000
# 4 0.0000 0.0000 0.0000 2296.9560 0.0000 0.0000
# 5 0.0000 0.0000 0.0000 0.0000 -100.8863 0.0000
# 6 0.0000 0.0000 0.0000 0.0000 0.0000 26.9759
#
#
#
# Elastic Compliance Matrix: (Units=1/GPa)
#
#
# Indices 1 2 3 4 5 6 
#
# 1 0.015862 -0.001019 0.001040 0.000000 0.000000 0.000000
# 2 -0.001019 0.029792 0.000672 0.000000 0.000000 0.000000
# 3 0.001040 0.000672 0.015855 0.000000 0.000000 0.000000
# 4 0.000000 0.000000 0.000000 0.000435 0.000000 0.000000
# 5 0.000000 0.000000 0.000000 0.000000 -0.009912 0.000000
# 6 0.000000 0.000000 0.000000 0.000000 0.000000 0.037070
#
#
# Mechanical properties :
#
#
# Convention : Reuss Voigt Hill
#
# Bulk Modulus (GPa) = 15.89972 17.04779 16.47375
# Shear Modulus (GPa) = 46.00636 455.55142 250.77889
#
# Velocity S-wave (km/s) = 4.84363 15.24159 11.30855
# Velocity P-wave (km/s) = 6.27606 17.84474 13.37580
#
# Compressibility (1/GPa) = 0.06289420
#
# Stress axis : x y z
#
# Youngs Moduli (GPa) = 63.04391 33.56662 63.07183
#
# Poissons Ratio (x) = 0.03420 -0.06559
# Poissons Ratio (y) = 0.06423 -0.04237
# Poissons Ratio (z) = -0.06556 -0.02255
#
# Static dielectric constant tensor:
#      x y z
#    x 1.736020 0.000000 0.000000 
#    y 0.000000 1.716480 0.000000 
#    z 0.000000 0.000000 1.669010 
# 
# From -- ./inp_files/18426.got.cif
#   From: 2010.05.17/outbox.cif.g08.bks.cpg/sg58_10_cif.got.tgz:18426.got - 2010.06.03 14:20:14.
