data_PCOD9444557
_publ_section_title
;
Structure prediction by ZEFSAII (Michael W. Deem and Ramdas Pophale) SiO2 
 PCOD9444557
Probable space group: P N N M
;
_chemical_formula_sum "Si O2"
_cell_formula_units_Z 64
_cell_length_a 32.485405
_cell_length_b 10.742280
_cell_length_c 9.127905
_cell_angle_alpha 90.000000
_cell_angle_beta 90.000000
_cell_angle_gamma 90.000000
_cell_volume 3185.340512
_symmetry_space_group_name_H-M "P N N M"
_symmetry_group_IT_number 58
_symmetry_cell_setting 'orthorhombic'
loop_
_space_group_symop_operation_xyz
x,y,z
-x,-y,z
1/2+x,1/2-y,1/2-z
1/2-x,1/2+y,1/2-z
-x,-y,-z
x,y,-z
1/2-x,1/2+y,1/2+z
1/2+x,1/2-y,1/2+z
loop_
_atom_site_type_symbol
_atom_site_label
_atom_site_fract_x
_atom_site_fract_y
_atom_site_fract_z
Si Si1 0.659832 0.729074 0.160545
Si Si2 0.618223 0.345833 0.325441
Si Si3 0.404896 0.148394 0.670961
Si Si4 0.696519 0.457453 0.833619
Si Si5 0.036165 0.098965 0.674209
Si Si6 0.511195 0.854582 0.173177
Si Si7 0.865005 0.589961 0.324349
Si Si8 0.281562 0.032514 0.831510
O O1 0.626287 0.741769 0.286331
O O2 0.683600 0.601124 0.162565
O O3 0.692531 0.839992 0.173714
O O4 0.639239 0.742860 0.000000
O O5 0.616677 0.345042 0.500000
O O6 0.661961 0.395280 0.266980
O O7 0.578949 0.418795 0.259560
O O8 0.616856 0.207616 0.257893
O O9 0.403639 0.120547 0.500000
O O10 0.450067 0.177260 0.726946
O O11 0.388313 0.031175 0.764234
O O12 0.742316 0.453583 0.770328
O O13 0.694507 0.406603 0.000000
O O14 0.043744 0.083846 0.500000
O O15 0.021259 0.242533 0.697789
O O16 0.000000 0.000000 0.713607
O O17 0.500000 0.000000 0.203534
O O18 0.521659 0.849543 0.000000
O O19 0.869836 0.599006 0.500000
O O20 0.816146 0.570650 0.292479
O O21 0.268552 0.010716 0.000000
#
# Coordination Sequence:
#
# PCOD9444557 Si02
#       8
#     8   8   8   8   8   8   8   8
#     4   9  21  41  61  83 119 164 207 250 299 365
#     4  12  26  42  63  92 128 165 206 258 315 370
#     4  11  22  36  61  95 127 159 199 253 312 362
#     4  11  24  40  62  89 121 165 211 253 303 372
#     4  10  23  43  66  92 124 167 215 261 317 387
#     4  10  21  38  63  91 121 162 208 257 311 377
#     4  10  21  41  66  92 127 168 209 253 307 372
#     4   9  20  39  62  91 121 155 200 260 316 358
#
# _framework density 20.092043
#
# number of rings (size 3 to 8) (size 9 to 14) (size 15 to 20)
#    0.000    1.750    0.000    4.500    3.500    5.500 
#    0.000    0.000    0.000    0.000    0.000    0.000 
#    0.000    0.000    0.000    0.000    0.000    0.000 
#
# Total GULP energy -357435.055420 kJ/mol
# GULP energy per Si atom -5584.922741 kJ/mol
# Density = 2.004631 g / cm^3
# Si number density = 20.092043 Si / 1000 Ang^3
#
#
#
# Elastic Constant Matrix: (Units=GPa)
#
#
# Indices 1 2 3 4 5 6 
#
# 1 96.5955 4.3369 71.9768 0.0000 0.0000 0.0000
# 2 4.3369 43.6690 13.8991 0.0000 0.0000 0.0000
# 3 71.9768 13.8991 106.9730 0.0000 0.0000 0.0000
# 4 0.0000 0.0000 0.0000 27.4656 0.0000 0.0000
# 5 0.0000 0.0000 0.0000 0.0000 38.1797 0.0000
# 6 0.0000 0.0000 0.0000 0.0000 0.0000 15.0458
#
#
#
# Elastic Compliance Matrix: (Units=1/GPa)
#
#
# Indices 1 2 3 4 5 6 
#
# 1 0.021024 0.002519 -0.014473 0.000000 0.000000 0.000000
# 2 0.002519 0.024189 -0.004838 0.000000 0.000000 0.000000
# 3 -0.014473 -0.004838 0.019715 0.000000 0.000000 0.000000
# 4 0.000000 0.000000 0.000000 0.036409 0.000000 0.000000
# 5 0.000000 0.000000 0.000000 0.000000 0.026192 0.000000
# 6 0.000000 0.000000 0.000000 0.000000 0.000000 0.066464
#
#
# Mechanical properties :
#
#
# Convention : Reuss Voigt Hill
#
# Bulk Modulus (GPa) = 31.90429 47.51810 39.71120
# Shear Modulus (GPa) = 21.00620 26.60651 23.80636
#
# Velocity S-wave (km/s) = 3.23692 3.64295 3.44592
# Velocity P-wave (km/s) = 5.46661 6.43400 5.96993
#
# Compressibility (1/GPa) = 0.03134375
#
# Stress axis : x y z
#
# Youngs Moduli (GPa) = 47.56510 41.34086 50.72295
#
# Poissons Ratio (x) = -0.10412 0.73412
# Poissons Ratio (y) = -0.11980 0.24537
# Poissons Ratio (z) = 0.68842 0.19999
#
# Static dielectric constant tensor:
#      x y z
#    x 1.830170 0.000000 0.000000 
#    y 0.000000 1.757110 0.000000 
#    z 0.000000 0.000000 1.688330 
# 
# From -- ./inp_files/11090.got.cif
#   From: 2010.05.17/outbox.cif.g08.bks.cpg/sg58_6_cif.got.tgz:11090.got - 2010.06.03 14:20:14.
