data_PCOD9444156
_publ_section_title
;
Structure prediction by ZEFSAII (Michael W. Deem and Ramdas Pophale) SiO2 
 PCOD9444156
Probable space group: P N N M
;
_chemical_formula_sum "Si O2"
_cell_formula_units_Z 64
_cell_length_a 36.667945
_cell_length_b 5.032034
_cell_length_c 18.032329
_cell_angle_alpha 90.000000
_cell_angle_beta 90.000000
_cell_angle_gamma 90.000000
_cell_volume 3327.223391
_symmetry_space_group_name_H-M "P N N M"
_symmetry_group_IT_number 58
_symmetry_cell_setting 'orthorhombic'
loop_
_space_group_symop_operation_xyz
x,y,z
-x,-y,z
1/2+x,1/2-y,1/2-z
1/2-x,1/2+y,1/2-z
-x,-y,-z
x,y,-z
1/2-x,1/2+y,1/2+z
1/2+x,1/2-y,1/2+z
loop_
_atom_site_type_symbol
_atom_site_label
_atom_site_fract_x
_atom_site_fract_y
_atom_site_fract_z
Si Si1 0.772879 0.303545 0.661168
Si Si2 0.393114 0.944837 0.585413
Si Si3 0.041589 0.969453 0.696985
Si Si4 0.656636 0.541373 0.415224
Si Si5 0.272794 0.203420 0.339434
Si Si6 0.541877 0.036837 0.700846
Si Si7 0.849943 0.311941 0.415473
Si Si8 0.100632 0.203261 0.415138
O O1 0.758870 0.592416 0.639014
O O2 0.775942 0.292171 0.750298
O O3 0.812721 0.270504 0.628070
O O4 0.742082 0.087088 0.638492
O O5 0.402242 0.868708 0.500000
O O6 0.363692 0.724124 0.613581
O O7 0.373337 0.227537 0.583750
O O8 0.428256 0.977365 0.636775
O O9 0.044900 0.170795 0.765392
O O10 0.068763 0.082038 0.635191
O O11 0.047886 0.677763 0.732341
O O12 0.000000 0.000000 0.669459
O O13 0.668424 0.483508 0.500000
O O14 0.690461 0.671696 0.372259
O O15 0.500000 0.000000 0.675222
O O16 0.841456 0.396822 0.500000
O O17 0.878358 0.534507 0.385896
O O18 0.870032 0.031595 0.417594
O O19 0.088131 0.259392 0.500000
#
# Coordination Sequence:
#
# PCOD9444156 Si02
#       8
#     8   8   8   8   8   8   8   8
#     4  10  21  36  53  76 106 139 178 223 271 325
#     4  10  21  37  56  81 112 144 182 226 272 326
#     4  10  21  37  57  83 113 145 185 229 273 327
#     4  10  21  36  55  80 108 140 181 225 269 323
#     4  10  21  36  53  76 106 139 178 223 271 325
#     4  10  21  37  57  83 113 145 185 229 273 327
#     4  10  21  36  55  80 108 140 181 225 269 323
#     4  10  21  37  56  81 112 144 182 226 272 326
#
# _framework density 19.235258000000002
#
# number of rings (size 3 to 8) (size 9 to 14) (size 15 to 20)
#    0.000    2.000    0.000    3.000    0.000    4.500 
#    0.000    0.000    0.000    9.000    0.000    0.000 
#    0.000    0.000    0.000    0.000    0.000    0.000 
#
# Total GULP energy -356926.797795 kJ/mol
# GULP energy per Si atom -5576.981216 kJ/mol
# Density = 1.919148 g / cm^3
# Si number density = 19.235258 Si / 1000 Ang^3
#
#
#
# Elastic Constant Matrix: (Units=GPa)
#
#
# Indices 1 2 3 4 5 6 
#
# 1 71.3680 -17.6596 31.5316 0.0000 0.0000 0.0000
# 2 -17.6596 67.4479 -10.9428 0.0000 0.0000 0.0000
# 3 31.5316 -10.9428 22.6467 0.0000 0.0000 0.0000
# 4 0.0000 0.0000 0.0000 6.5171 0.0000 0.0000
# 5 0.0000 0.0000 0.0000 0.0000 28.9380 0.0000
# 6 0.0000 0.0000 0.0000 0.0000 0.0000 26.2513
#
#
#
# Elastic Compliance Matrix: (Units=1/GPa)
#
#
# Indices 1 2 3 4 5 6 
#
# 1 0.036535 0.001424 -0.050180 0.000000 0.000000 0.000000
# 2 0.001424 0.016143 0.005817 0.000000 0.000000 0.000000
# 3 -0.050180 0.005817 0.116834 0.000000 0.000000 0.000000
# 4 0.000000 0.000000 0.000000 0.153443 0.000000 0.000000
# 5 0.000000 0.000000 0.000000 0.000000 0.034557 0.000000
# 6 0.000000 0.000000 0.000000 0.000000 0.000000 0.038093
#
#
# Mechanical properties :
#
#
# Convention : Reuss Voigt Hill
#
# Bulk Modulus (GPa) = 11.95675 18.59122 15.27398
# Shear Modulus (GPa) = 9.81624 22.91017 16.36321
#
# Velocity S-wave (km/s) = 2.26149 3.45490 2.91982
# Velocity P-wave (km/s) = 3.61229 5.05977 4.39602
#
# Compressibility (1/GPa) = 0.08363475
#
# Stress axis : x y z
#
# Youngs Moduli (GPa) = 27.37128 61.94649 8.55914
#
# Poissons Ratio (x) = -0.08824 0.42950
# Poissons Ratio (y) = -0.03899 -0.04979
# Poissons Ratio (z) = 1.37349 -0.36034
#
# Static dielectric constant tensor:
#      x y z
#    x 1.665240 0.000000 0.000000 
#    y 0.000000 1.669570 0.000000 
#    z 0.000000 0.000000 1.679900 
# 
# From -- ./inp_files/27785.got.cif
#   From: 2010.05.17/outbox.cif.g08.bks.cpg/sg58_14_cif.got.tgz:27785.got - 2010.06.03 14:20:14.
