data_PCOD9444752
_publ_section_title
;
Structure prediction by ZEFSAII (Michael W. Deem and Ramdas Pophale) SiO2 
 PCOD9444752
Probable space group: P N N M
;
_chemical_formula_sum "Si O2"
_cell_formula_units_Z 64
_cell_length_a 15.018988
_cell_length_b 7.648356
_cell_length_c 23.484363
_cell_angle_alpha 90.000000
_cell_angle_beta 90.000000
_cell_angle_gamma 90.000000
_cell_volume 2697.662093
_symmetry_space_group_name_H-M "P N N M"
_symmetry_group_IT_number 58
_symmetry_cell_setting 'orthorhombic'
loop_
_space_group_symop_operation_xyz
x,y,z
-x,-y,z
1/2+x,1/2-y,1/2-z
1/2-x,1/2+y,1/2-z
-x,-y,-z
x,y,-z
1/2-x,1/2+y,1/2+z
1/2+x,1/2-y,1/2+z
loop_
_atom_site_type_symbol
_atom_site_label
_atom_site_fract_x
_atom_site_fract_y
_atom_site_fract_z
Si Si1 0.625181 0.382665 0.241203
Si Si2 0.173790 0.709945 0.262477
Si Si3 0.382382 0.150201 0.890639
Si Si4 0.462418 0.655590 0.363700
Si Si5 0.598139 0.915954 0.652693
Si Si6 0.428448 0.742356 0.116888
Si Si7 0.742213 0.814403 0.433149
Si Si8 0.700099 0.398536 0.435877
O O1 0.722446 0.296754 0.247019
O O2 0.640081 0.591126 0.240210
O O3 0.570242 0.347442 0.298312
O O4 0.581116 0.310319 0.183433
O O5 0.154373 0.656381 0.326437
O O6 0.128377 0.574799 0.217778
O O7 0.467455 0.275910 0.898792
O O8 0.297687 0.185980 0.929646
O O9 0.411303 0.947841 0.895834
O O10 0.500000 0.500000 0.403099
O O11 0.562465 0.722075 0.353034
O O12 0.370815 0.697482 0.395293
O O13 0.677971 0.926208 0.608179
O O14 0.500000 0.000000 0.639836
O O15 0.344957 0.655304 0.084695
O O16 0.728151 0.849536 0.500000
O O17 0.718211 0.606547 0.423363
O O18 0.668076 0.384360 0.500000
#
# Coordination Sequence:
#
# PCOD9444752 Si02
#       8
#     8   8   8   8   8   8   8   8
#     4  12  24  39  64  93 133 170 208 264 328 392
#     4  12  24  40  64  95 132 169 208 264 328 391
#     4  10  22  39  62  97 128 164 213 268 318 385
#     4  12  23  41  63  94 129 166 213 261 318 389
#     4  12  27  41  64  97 132 168 213 264 327 392
#     4  10  22  39  65  94 128 167 213 263 324 384
#     4  10  21  42  65  91 126 169 217 268 318 377
#     4  10  21  40  66  92 124 167 220 270 315 372
#
# _framework density 23.724246000000001
#
# number of rings (size 3 to 8) (size 9 to 14) (size 15 to 20)
#    0.000    1.000    5.000    1.500    5.250    1.500 
#    0.000    2.500    0.000    0.000    0.000    1.750 
#    0.000    0.000    0.000    0.000    0.000    0.000 
#
# Total GULP energy -356604.311846 kJ/mol
# GULP energy per Si atom -5571.942373 kJ/mol
# Density = 2.367025 g / cm^3
# Si number density = 23.724246 Si / 1000 Ang^3
#
#
#
# Elastic Constant Matrix: (Units=GPa)
#
#
# Indices 1 2 3 4 5 6 
#
# 1 112.9733 13.8059 13.2577 0.0000 0.0000 0.0000
# 2 13.8059 9.1352 1.0952 0.0000 0.0000 0.0000
# 3 13.2577 1.0952 77.6678 0.0000 0.0000 0.0000
# 4 0.0000 0.0000 0.0000 24.0997 0.0000 0.0000
# 5 0.0000 0.0000 0.0000 0.0000 8.1482 0.0000
# 6 0.0000 0.0000 0.0000 0.0000 0.0000 33.9281
#
#
#
# Elastic Compliance Matrix: (Units=1/GPa)
#
#
# Indices 1 2 3 4 5 6 
#
# 1 0.011065 -0.016524 -0.001656 0.000000 0.000000 0.000000
# 2 -0.016524 0.134329 0.000926 0.000000 0.000000 0.000000
# 3 -0.001656 0.000926 0.013145 0.000000 0.000000 0.000000
# 4 0.000000 0.000000 0.000000 0.041494 0.000000 0.000000
# 5 0.000000 0.000000 0.000000 0.000000 0.122727 0.000000
# 6 0.000000 0.000000 0.000000 0.000000 0.000000 0.029474
#
#
# Mechanical properties :
#
#
# Convention : Reuss Voigt Hill
#
# Bulk Modulus (GPa) = 8.06243 28.45486 18.25865
# Shear Modulus (GPa) = 11.67988 24.67635 18.17811
#
# Velocity S-wave (km/s) = 2.22123 3.22861 2.77108
# Velocity P-wave (km/s) = 3.15979 5.09103 4.23691
#
# Compressibility (1/GPa) = 0.12403201
#
# Stress axis : x y z
#
# Youngs Moduli (GPa) = 90.37239 7.44439 76.07498
#
# Poissons Ratio (x) = 0.12301 0.12597
# Poissons Ratio (y) = 1.49335 -0.07048
# Poissons Ratio (z) = 0.14964 -0.00690
#
# Static dielectric constant tensor:
#      x y z
#    x 1.890270 0.000000 0.000000 
#    y 0.000000 1.931400 0.000000 
#    z 0.000000 0.000000 1.819680 
# 
# From -- ./inp_files/32238.got.cif
#   From: 2010.05.17/outbox.cif.g08.bks.cpg/sg58_17_cif.got.tgz:32238.got - 2010.06.03 14:20:14.
