data_PCOD9444910
_publ_section_title
;
Structure prediction by ZEFSAII (Michael W. Deem and Ramdas Pophale) SiO2 
 PCOD9444910
Probable space group: P N N M
;
_chemical_formula_sum "Si O2"
_cell_formula_units_Z 32
_cell_length_a 8.573232
_cell_length_b 13.067047
_cell_length_c 14.384362
_cell_angle_alpha 90.000000
_cell_angle_beta 90.000000
_cell_angle_gamma 90.000000
_cell_volume 1611.434412
_symmetry_space_group_name_H-M "P N N M"
_symmetry_group_IT_number 58
_symmetry_cell_setting 'orthorhombic'
loop_
_space_group_symop_operation_xyz
x,y,z
-x,-y,z
1/2+x,1/2-y,1/2-z
1/2-x,1/2+y,1/2-z
-x,-y,-z
x,y,-z
1/2-x,1/2+y,1/2+z
1/2+x,1/2-y,1/2+z
loop_
_atom_site_type_symbol
_atom_site_label
_atom_site_fract_x
_atom_site_fract_y
_atom_site_fract_z
Si Si1 0.336294 0.549954 0.390565
Si Si2 0.333581 0.890937 0.218353
Si Si3 0.351762 0.426735 0.893699
Si Si4 0.347404 0.221799 0.202786
O O1 0.500000 0.500000 0.360081
O O2 0.342743 0.569343 0.500000
O O3 0.204578 0.466872 0.364788
O O4 0.292216 0.652900 0.337010
O O5 0.507515 0.849882 0.224206
O O6 0.220390 0.791351 0.214385
O O7 0.277853 0.945437 0.314250
O O8 0.500000 0.500000 0.879161
O O9 0.395392 0.308088 0.873027
O O10 0.298955 0.438571 0.000000
#
# Coordination Sequence:
#
# PCOD9444910 Si02
#       4
#     8   8   8   8
#     4  11  23  40  63  92 127 166 215 272 326 381
#     4  10  22  36  62  90 127 161 213 257 326 374
#     4   9  20  37  62  89 122 170 218 261 311 377
#     4  10  22  38  62  92 126 170 206 262 316 387
#
# _framework density 19.858084999999999
#
# number of rings (size 3 to 8) (size 9 to 14) (size 15 to 20)
#    1.500    0.500    0.000    3.750    3.500    3.000 
#    0.000    0.000    0.000    3.000    0.000    0.000 
#    0.000    0.000    0.000    0.000    0.000    0.000 
#
# Total GULP energy -178334.741837 kJ/mol
# GULP energy per Si atom -5572.960682 kJ/mol
# Density = 1.981289 g / cm^3
# Si number density = 19.858085 Si / 1000 Ang^3
#
#
#
# Elastic Constant Matrix: (Units=GPa)
#
#
# Indices 1 2 3 4 5 6 
#
# 1 70.8854 21.4184 1.7880 0.0000 0.0000 0.0000
# 2 21.4184 94.3516 -1.4478 0.0000 0.0000 0.0000
# 3 1.7880 -1.4478 37.3355 0.0000 0.0000 0.0000
# 4 0.0000 0.0000 0.0000 14.7536 0.0000 0.0000
# 5 0.0000 0.0000 0.0000 0.0000 11.5484 0.0000
# 6 0.0000 0.0000 0.0000 0.0000 0.0000 38.4358
#
#
#
# Elastic Compliance Matrix: (Units=1/GPa)
#
#
# Indices 1 2 3 4 5 6 
#
# 1 0.015174 -0.003458 -0.000861 0.000000 0.000000 0.000000
# 2 -0.003458 0.011393 0.000607 0.000000 0.000000 0.000000
# 3 -0.000861 0.000607 0.026849 0.000000 0.000000 0.000000
# 4 0.000000 0.000000 0.000000 0.067780 0.000000 0.000000
# 5 0.000000 0.000000 0.000000 0.000000 0.086592 0.000000
# 6 0.000000 0.000000 0.000000 0.000000 0.000000 0.026017
#
#
# Mechanical properties :
#
#
# Convention : Reuss Voigt Hill
#
# Bulk Modulus (GPa) = 21.74226 27.34329 24.54277
# Shear Modulus (GPa) = 19.48871 25.00182 22.24527
#
# Velocity S-wave (km/s) = 3.13613 3.55212 3.35059
# Velocity P-wave (km/s) = 4.90778 5.53378 5.23015
#
# Compressibility (1/GPa) = 0.04599339
#
# Stress axis : x y z
#
# Youngs Moduli (GPa) = 65.90319 87.77395 37.24547
#
# Poissons Ratio (x) = 0.30350 0.03206
# Poissons Ratio (y) = 0.22788 -0.02262
# Poissons Ratio (z) = 0.05673 -0.05331
#
# Static dielectric constant tensor:
#      x y z
#    x 1.713090 0.000000 0.000000 
#    y 0.000000 1.732960 0.000000 
#    z 0.000000 0.000000 1.674270 
# 
# From -- ./inp_files/12433.got.cif
#   From: 2010.05.17/outbox.cif.g08.bks.cpg/sg58_7_cif.got.tgz:12433.got - 2010.06.03 14:20:14.
