data_PCOD9444340
_publ_section_title
;
Structure prediction by ZEFSAII (Michael W. Deem and Ramdas Pophale) SiO2 
 PCOD9444340
Probable space group: P N N M
;
_chemical_formula_sum "Si O2"
_cell_formula_units_Z 56
_cell_length_a 19.878153
_cell_length_b 14.263672
_cell_length_c 8.006708
_cell_angle_alpha 90.000000
_cell_angle_beta 90.000000
_cell_angle_gamma 90.000000
_cell_volume 2270.185591
_symmetry_space_group_name_H-M "P N N M"
_symmetry_group_IT_number 58
_symmetry_cell_setting 'orthorhombic'
loop_
_space_group_symop_operation_xyz
x,y,z
-x,-y,z
1/2+x,1/2-y,1/2-z
1/2-x,1/2+y,1/2-z
-x,-y,-z
x,y,-z
1/2-x,1/2+y,1/2+z
1/2+x,1/2-y,1/2+z
loop_
_atom_site_type_symbol
_atom_site_label
_atom_site_fract_x
_atom_site_fract_y
_atom_site_fract_z
Si Si1 0.149914 0.719476 0.303567
Si Si2 0.578104 0.384303 0.301364
Si Si3 0.491296 0.222836 0.697600
Si Si4 0.431095 0.957408 0.298893
Si Si5 0.641202 0.564935 0.201487
Si Si6 0.791848 0.768001 0.692823
Si Si7 0.212750 0.443575 0.195223
O O1 0.163116 0.719142 0.500000
O O2 0.076521 0.678050 0.270030
O O3 0.137004 0.827332 0.244056
O O4 0.217994 0.685541 0.216877
O O5 0.574399 0.376364 0.500000
O O6 0.516197 0.322535 0.231865
O O7 0.584612 0.492807 0.256374
O O8 0.647119 0.334656 0.242995
O O9 0.478694 0.229416 0.500000
O O10 0.554209 0.153278 0.720050
O O11 0.429593 0.977458 0.500000
O O12 0.357335 0.979756 0.229372
O O13 0.500000 0.000000 0.230390
O O14 0.714534 0.530424 0.266388
O O15 0.642863 0.564966 0.000000
O O16 0.799621 0.742390 0.500000
O O17 0.790104 0.670363 0.794234
O O18 0.213235 0.469522 0.000000
#
# Coordination Sequence:
#
# PCOD9444340 Si02
#       7
#     8   8   8   8   8   8   8
#     4  10  22  40  60  83 118 156 192 241 300 351
#     4  11  22  37  58  85 119 155 195 243 296 349
#     4  10  21  37  58  85 116 154 198 239 289 354
#     4   9  17  32  57  85 114 151 191 233 284 345
#     4   9  20  36  56  83 112 152 200 244 288 345
#     4  11  21  35  59  84 109 149 200 243 289 351
#     4   9  17  35  57  80 114 149 189 236 291 345
#
# _framework density 24.667586
#
# number of rings (size 3 to 8) (size 9 to 14) (size 15 to 20)
#    0.000    2.143    1.429    3.000    0.000    5.714 
#    0.000    5.714    0.000    1.714    0.000    0.000 
#    0.000    0.000    0.000    0.000    0.000    0.000 
#
# Total GULP energy -312931.858721 kJ/mol
# GULP energy per Si atom -5588.068906 kJ/mol
# Density = 2.461144 g / cm^3
# Si number density = 24.667586 Si / 1000 Ang^3
#
#
#
# Elastic Constant Matrix: (Units=GPa)
#
#
# Indices 1 2 3 4 5 6 
#
# 1 112.7907 6.6534 -8.8333 0.0000 0.0000 0.0000
# 2 6.6534 38.0267 6.8234 0.0000 0.0000 0.0000
# 3 -8.8333 6.8234 25.8227 0.0000 0.0000 0.0000
# 4 0.0000 0.0000 0.0000 31.2429 0.0000 0.0000
# 5 0.0000 0.0000 0.0000 0.0000 -99.7401 0.0000
# 6 0.0000 0.0000 0.0000 0.0000 0.0000 43.2706
#
#
#
# Elastic Compliance Matrix: (Units=1/GPa)
#
#
# Indices 1 2 3 4 5 6 
#
# 1 0.009299 -0.002307 0.003791 0.000000 0.000000 0.000000
# 2 -0.002307 0.028179 -0.008235 0.000000 0.000000 0.000000
# 3 0.003791 -0.008235 0.042198 0.000000 0.000000 0.000000
# 4 0.000000 0.000000 0.000000 0.032007 0.000000 0.000000
# 5 0.000000 0.000000 0.000000 0.000000 -0.010026 0.000000
# 6 0.000000 0.000000 0.000000 0.000000 0.000000 0.023110
#
#
# Mechanical properties :
#
#
# Convention : Reuss Voigt Hill
#
# Bulk Modulus (GPa) = 15.11203 20.65857 17.88530
# Shear Modulus (GPa) = 31.18593 6.42112 18.80352
#
# Velocity S-wave (km/s) = 3.55948 1.61515 2.76393
# Velocity P-wave (km/s) = 4.79925 3.44547 4.17756
#
# Compressibility (1/GPa) = 0.06617246
#
# Stress axis : x y z
#
# Youngs Moduli (GPa) = 107.53919 35.48784 23.69756
#
# Poissons Ratio (x) = 0.08188 -0.08983
# Poissons Ratio (y) = 0.24811 0.19515
# Poissons Ratio (z) = -0.40764 0.29225
#
# Static dielectric constant tensor:
#      x y z
#    x 1.991890 0.000000 0.000000 
#    y 0.000000 2.042130 0.000000 
#    z 0.000000 0.000000 1.864300 
# 
# From -- ./inp_files/9055.got.cif
#   From: 2010.05.17/outbox.cif.g08.bks.cpg/sg58_5_cif.got.tgz:9055.got - 2010.06.03 14:20:14.
