data_PCOD9444425
_publ_section_title
;
Structure prediction by ZEFSAII (Michael W. Deem and Ramdas Pophale) SiO2 
 PCOD9444425
Probable space group: P N N M
;
_chemical_formula_sum "Si O2"
_cell_formula_units_Z 48
_cell_length_a 9.352399
_cell_length_b 7.818178
_cell_length_c 30.591519
_cell_angle_alpha 90.000000
_cell_angle_beta 90.000000
_cell_angle_gamma 90.000000
_cell_volume 2236.812715
_symmetry_space_group_name_H-M "P N N M"
_symmetry_group_IT_number 58
_symmetry_cell_setting 'orthorhombic'
loop_
_space_group_symop_operation_xyz
x,y,z
-x,-y,z
1/2+x,1/2-y,1/2-z
1/2-x,1/2+y,1/2-z
-x,-y,-z
x,y,-z
1/2-x,1/2+y,1/2+z
1/2+x,1/2-y,1/2+z
loop_
_atom_site_type_symbol
_atom_site_label
_atom_site_fract_x
_atom_site_fract_y
_atom_site_fract_z
Si Si1 0.133721 0.387107 0.721439
Si Si2 0.170510 0.707961 0.048987
Si Si3 0.630535 0.384548 0.290959
Si Si4 0.838403 0.800108 0.364958
Si Si5 0.661228 0.208931 0.548333
Si Si6 0.680512 0.705272 0.865483
O O1 0.262594 0.502484 0.738802
O O2 0.076510 0.261429 0.758436
O O3 0.202275 0.296099 0.679279
O O4 0.000000 0.500000 0.707120
O O5 0.265386 0.762730 0.090198
O O6 0.170346 0.499318 0.048288
O O7 0.004565 0.757126 0.055101
O O8 0.216321 0.762841 0.000000
O O9 0.500000 0.500000 0.307185
O O10 0.730126 0.302511 0.328296
O O11 0.009726 0.776918 0.366076
O O12 0.798398 0.000350 0.360730
O O13 0.705299 0.267448 0.500000
O O14 0.757680 0.266438 0.588176
#
# Coordination Sequence:
#
# PCOD9444425 Si02
#       6
#     8   8   8   8   8   8
#     4  12  25  46  65  89 125 163 206 259 320 376
#     4   8  15  30  54  88 123 161 205 251 302 357
#     4  12  27  43  66  93 122 163 211 260 317 383
#     4  10  21  37  63  88 126 165 205 258 306 371
#     4   8  15  30  54  87 126 160 202 254 299 356
#     4  10  21  38  59  93 125 162 209 255 312 365
#
# _framework density 21.459104
#
# number of rings (size 3 to 8) (size 9 to 14) (size 15 to 20)
#    0.000    2.000    1.667    3.000    4.667    0.667 
#    3.000    3.333    0.000    2.000    0.000    0.000 
#    0.000    0.000    0.000    0.000    0.000    0.000 
#
# Total GULP energy -267986.792432 kJ/mol
# GULP energy per Si atom -5583.058176 kJ/mol
# Density = 2.141026 g / cm^3
# Si number density = 21.459104 Si / 1000 Ang^3
#
#
#
# Elastic Constant Matrix: (Units=GPa)
#
#
# Indices 1 2 3 4 5 6 
#
# 1 73.1033 43.4832 43.9394 0.0000 0.0000 0.0000
# 2 43.4832 50.7320 45.4677 0.0000 0.0000 0.0000
# 3 43.9394 45.4677 136.1361 0.0000 0.0000 0.0000
# 4 0.0000 0.0000 0.0000 12.4773 0.0000 0.0000
# 5 0.0000 0.0000 0.0000 0.0000 35.5057 0.0000
# 6 0.0000 0.0000 0.0000 0.0000 0.0000 25.1647
#
#
#
# Elastic Compliance Matrix: (Units=1/GPa)
#
#
# Indices 1 2 3 4 5 6 
#
# 1 0.028110 -0.022781 -0.001464 0.000000 0.000000 0.000000
# 2 -0.022781 0.046595 -0.008209 0.000000 0.000000 0.000000
# 3 -0.001464 -0.008209 0.010560 0.000000 0.000000 0.000000
# 4 0.000000 0.000000 0.000000 0.080145 0.000000 0.000000
# 5 0.000000 0.000000 0.000000 0.000000 0.028165 0.000000
# 6 0.000000 0.000000 0.000000 0.000000 0.000000 0.039738
#
#
# Mechanical properties :
#
#
# Convention : Reuss Voigt Hill
#
# Bulk Modulus (GPa) = 49.12649 58.41687 53.77168
# Shear Modulus (GPa) = 16.39300 23.10162 19.74731
#
# Velocity S-wave (km/s) = 2.76691 3.28463 3.03682
# Velocity P-wave (km/s) = 5.75764 6.45496 6.11625
#
# Compressibility (1/GPa) = 0.02035562
#
# Stress axis : x y z
#
# Youngs Moduli (GPa) = 35.57430 21.46144 94.69762
#
# Poissons Ratio (x) = 0.48892 0.13865
# Poissons Ratio (y) = 0.81044 0.77739
# Poissons Ratio (z) = 0.05209 0.17618
#
# Static dielectric constant tensor:
#      x y z
#    x 1.742860 0.000000 0.000000 
#    y 0.000000 1.864030 0.000000 
#    z 0.000000 0.000000 1.749090 
# 
# From -- ./inp_files/34537.got.cif
#   From: 2010.05.17/outbox.cif.g08.bks.cpg/sg58_18_cif.got.tgz:34537.got - 2010.06.03 14:20:14.
