data_PCOD9444761
_publ_section_title
;
Structure prediction by ZEFSAII (Michael W. Deem and Ramdas Pophale) SiO2 
 PCOD9444761
Probable space group: P N N M
;
_chemical_formula_sum "Si O2"
_cell_formula_units_Z 64
_cell_length_a 9.207634
_cell_length_b 14.706788
_cell_length_c 23.128314
_cell_angle_alpha 90.000000
_cell_angle_beta 90.000000
_cell_angle_gamma 90.000000
_cell_volume 3131.914193
_symmetry_space_group_name_H-M "P N N M"
_symmetry_group_IT_number 58
_symmetry_cell_setting 'orthorhombic'
loop_
_space_group_symop_operation_xyz
x,y,z
-x,-y,z
1/2+x,1/2-y,1/2-z
1/2-x,1/2+y,1/2-z
-x,-y,-z
x,y,-z
1/2-x,1/2+y,1/2+z
1/2+x,1/2-y,1/2+z
loop_
_atom_site_type_symbol
_atom_site_label
_atom_site_fract_x
_atom_site_fract_y
_atom_site_fract_z
Si Si1 0.692608 0.655795 0.634995
Si Si2 0.231353 0.555618 0.066056
Si Si3 0.673708 0.988076 0.932009
Si Si4 0.686924 0.780076 0.935737
Si Si5 0.082406 0.905878 0.256296
Si Si6 0.628090 0.067390 0.329425
Si Si7 0.064040 0.190737 0.362606
Si Si8 0.011194 0.298977 0.910233
O O1 0.747659 0.562314 0.607274
O O2 0.612605 0.640219 0.695318
O O3 0.825613 0.725549 0.643866
O O4 0.584412 0.708829 0.592597
O O5 0.190456 0.475071 0.110266
O O6 0.357243 0.614182 0.097709
O O7 0.090238 0.621756 0.064294
O O8 0.267038 0.528949 0.000000
O O9 0.500000 0.000000 0.925946
O O10 0.711498 0.884107 0.916328
O O11 0.709565 0.002202 0.000000
O O12 0.577554 0.727881 0.894602
O O13 0.837328 0.726617 0.938181
O O14 0.620651 0.786064 0.000000
O O15 0.238859 0.923202 0.286250
O O16 0.985150 0.849584 0.301521
O O17 0.000000 0.000000 0.246781
O O18 0.553677 0.162271 0.346756
O O19 0.500000 0.000000 0.309057
#
# Coordination Sequence:
#
# PCOD9444761 Si02
#       8
#     8   8   8   8   8   8   8   8
#     4  11  27  44  69  94 126 179 217 270 340 389
#     4  10  21  40  66  95 136 178 211 259 333 398
#     4  10  22  43  68  98 129 161 210 272 330 398
#     4  11  22  38  67  98 132 168 212 271 328 390
#     4  12  26  46  67  94 132 173 224 279 316 383
#     4  10  22  43  63  94 134 171 213 271 323 385
#     4  11  23  44  65  97 130 170 227 270 317 386
#     4  10  23  40  62  97 131 165 220 263 325 393
#
# _framework density 20.434787
#
# number of rings (size 3 to 8) (size 9 to 14) (size 15 to 20)
#    0.000    1.375    3.750    0.750    3.500    5.750 
#    0.000    1.875    0.000    0.000    0.000    0.000 
#    0.000    0.000    0.000    0.000    0.000    0.000 
#
# Total GULP energy -357710.288416 kJ/mol
# GULP energy per Si atom -5589.223257 kJ/mol
# Density = 2.038828 g / cm^3
# Si number density = 20.434787 Si / 1000 Ang^3
#
#
#
# Elastic Constant Matrix: (Units=GPa)
#
#
# Indices 1 2 3 4 5 6 
#
# 1 70.2313 17.9249 6.1472 0.0000 0.0000 0.0000
# 2 17.9249 78.8331 13.0951 0.0000 0.0000 0.0000
# 3 6.1472 13.0951 49.5276 0.0000 0.0000 0.0000
# 4 0.0000 0.0000 0.0000 13.6017 0.0000 0.0000
# 5 0.0000 0.0000 0.0000 0.0000 11.6877 0.0000
# 6 0.0000 0.0000 0.0000 0.0000 0.0000 29.1732
#
#
#
# Elastic Compliance Matrix: (Units=1/GPa)
#
#
# Indices 1 2 3 4 5 6 
#
# 1 0.015165 -0.003279 -0.001015 0.000000 0.000000 0.000000
# 2 -0.003279 0.013977 -0.003288 0.000000 0.000000 0.000000
# 3 -0.001015 -0.003288 0.021186 0.000000 0.000000 0.000000
# 4 0.000000 0.000000 0.000000 0.073520 0.000000 0.000000
# 5 0.000000 0.000000 0.000000 0.000000 0.085560 0.000000
# 6 0.000000 0.000000 0.000000 0.000000 0.000000 0.034278
#
#
# Mechanical properties :
#
#
# Convention : Reuss Voigt Hill
#
# Bulk Modulus (GPa) = 28.44006 30.32516 29.38261
# Shear Modulus (GPa) = 18.47932 21.65416 20.06674
#
# Velocity S-wave (km/s) = 3.01043 3.25879 3.13707
# Velocity P-wave (km/s) = 5.10209 5.38812 5.24705
#
# Compressibility (1/GPa) = 0.03516167
#
# Stress axis : x y z
#
# Youngs Moduli (GPa) = 65.94336 71.54628 47.20050
#
# Poissons Ratio (x) = 0.23463 0.04791
# Poissons Ratio (y) = 0.21626 0.15522
# Poissons Ratio (z) = 0.06694 0.23528
#
# Static dielectric constant tensor:
#      x y z
#    x 1.718180 0.000000 0.000000 
#    y 0.000000 1.717790 0.000000 
#    z 0.000000 0.000000 1.711030 
# 
# From -- ./inp_files/31641.got.cif
#   From: 2010.05.17/outbox.cif.g08.bks.cpg/sg58_16_cif.got.tgz:31641.got - 2010.06.03 14:20:14.
