data_PCOD9444493
_publ_section_title
;
Structure prediction by ZEFSAII (Michael W. Deem and Ramdas Pophale) SiO2 
 PCOD9444493
Probable space group: P N N M
;
_chemical_formula_sum "Si O2"
_cell_formula_units_Z 48
_cell_length_a 15.194740
_cell_length_b 9.227135
_cell_length_c 16.881168
_cell_angle_alpha 90.000000
_cell_angle_beta 90.000000
_cell_angle_gamma 90.000000
_cell_volume 2366.805882
_symmetry_space_group_name_H-M "P N N M"
_symmetry_group_IT_number 58
_symmetry_cell_setting 'orthorhombic'
loop_
_space_group_symop_operation_xyz
x,y,z
-x,-y,z
1/2+x,1/2-y,1/2-z
1/2-x,1/2+y,1/2-z
-x,-y,-z
x,y,-z
1/2-x,1/2+y,1/2+z
1/2+x,1/2-y,1/2+z
loop_
_atom_site_type_symbol
_atom_site_label
_atom_site_fract_x
_atom_site_fract_y
_atom_site_fract_z
Si Si1 0.854153 0.685641 0.852194
Si Si2 0.383282 0.804761 0.831428
Si Si3 0.801027 0.011137 0.326159
Si Si4 0.273705 0.505897 0.357511
Si Si5 0.544289 0.660852 0.910636
Si Si6 0.519979 0.167125 0.500000
Si Si7 0.902776 0.079172 0.000000
O O1 0.893940 0.679642 0.763643
O O2 0.794906 0.543070 0.861047
O O3 0.924108 0.703725 0.921470
O O4 0.786895 0.821197 0.856733
O O5 0.330251 0.653175 0.842354
O O6 0.322980 0.934107 0.866579
O O7 0.476832 0.773726 0.871695
O O8 0.799384 0.038275 0.231981
O O9 0.869164 0.125190 0.361948
O O10 0.343229 0.454837 0.423518
O O11 0.500000 0.500000 0.913013
O O12 0.564718 0.705002 0.000000
O O13 0.430262 0.254876 0.500000
O O14 0.500000 0.000000 0.500000
O O15 0.000000 0.000000 0.000000
#
# Coordination Sequence:
#
# PCOD9444493 Si02
#       7
#     8   8   8   8   8   4   4
#     4  10  21  41  58  86 123 155 196 246 308 356
#     4   9  20  37  62  87 115 159 200 248 293 359
#     4   9  20  36  61  85 117 159 196 248 297 352
#     4  10  21  38  60  86 118 155 201 242 302 364
#     4   9  18  33  55  87 115 148 199 244 291 343
#     4  12  28  42  60  93 122 157 201 258 309 370
#     4  12  24  40  62  89 116 159 199 244 313 370
#
# _framework density 20.280495999999999
#
# number of rings (size 3 to 8) (size 9 to 14) (size 15 to 20)
#    0.000    2.167    1.667    0.000    7.000    0.667 
#    0.000    0.833    0.000    1.000    0.000    0.000 
#    0.000    0.000    0.000    0.000    0.000    0.000 
#
# Total GULP energy -267718.501219 kJ/mol
# GULP energy per Si atom -5577.468775 kJ/mol
# Density = 2.023434 g / cm^3
# Si number density = 20.280496 Si / 1000 Ang^3
#
#
#
# Elastic Constant Matrix: (Units=GPa)
#
#
# Indices 1 2 3 4 5 6 
#
# 1 31.8857 2.8493 22.2186 0.0000 0.0000 0.0000
# 2 2.8493 36.9783 15.8928 0.0000 0.0000 0.0000
# 3 22.2186 15.8928 59.0052 0.0000 0.0000 0.0000
# 4 0.0000 0.0000 0.0000 16.9076 0.0000 0.0000
# 5 0.0000 0.0000 0.0000 0.0000 21.3943 0.0000
# 6 0.0000 0.0000 0.0000 0.0000 0.0000 41.5771
#
#
#
# Elastic Compliance Matrix: (Units=1/GPa)
#
#
# Indices 1 2 3 4 5 6 
#
# 1 0.043069 0.004130 -0.017330 0.000000 0.000000 0.000000
# 2 0.004130 0.030979 -0.009899 0.000000 0.000000 0.000000
# 3 -0.017330 -0.009899 0.026140 0.000000 0.000000 0.000000
# 4 0.000000 0.000000 0.000000 0.059145 0.000000 0.000000
# 5 0.000000 0.000000 0.000000 0.000000 0.046741 0.000000
# 6 0.000000 0.000000 0.000000 0.000000 0.000000 0.024052
#
#
# Mechanical properties :
#
#
# Convention : Reuss Voigt Hill
#
# Bulk Modulus (GPa) = 18.52241 23.31007 20.91624
# Shear Modulus (GPa) = 16.98823 21.76969 19.37896
#
# Velocity S-wave (km/s) = 2.89738 3.27988 3.09455
# Velocity P-wave (km/s) = 4.51066 5.08549 4.80668
#
# Compressibility (1/GPa) = 0.05398866
#
# Stress axis : x y z
#
# Youngs Moduli (GPa) = 23.21863 32.27966 38.25603
#
# Poissons Ratio (x) = -0.13330 0.66298
# Poissons Ratio (y) = -0.09589 0.37870
# Poissons Ratio (z) = 0.40238 0.31954
#
# Static dielectric constant tensor:
#      x y z
#    x 1.699690 0.000000 0.000000 
#    y 0.000000 1.747570 0.000000 
#    z 0.000000 0.000000 1.696280 
# 
# From -- ./inp_files/25340.got.cif
#   From: 2010.05.17/outbox.cif.g08.bks.cpg/sg58_13_cif.got.tgz:25340.got - 2010.06.03 14:20:14.
