data_PCOD9444030
_publ_section_title
;
Structure prediction by ZEFSAII (Michael W. Deem and Ramdas Pophale) SiO2 
 PCOD9444030
Probable space group: P N N M
;
_chemical_formula_sum "Si O2"
_cell_formula_units_Z 60
_cell_length_a 12.363495
_cell_length_b 18.202610
_cell_length_c 12.982219
_cell_angle_alpha 90.000000
_cell_angle_beta 90.000000
_cell_angle_gamma 90.000000
_cell_volume 2921.620834
_symmetry_space_group_name_H-M "P N N M"
_symmetry_group_IT_number 58
_symmetry_cell_setting 'orthorhombic'
loop_
_space_group_symop_operation_xyz
x,y,z
-x,-y,z
1/2+x,1/2-y,1/2-z
1/2-x,1/2+y,1/2-z
-x,-y,-z
x,y,-z
1/2-x,1/2+y,1/2+z
1/2+x,1/2-y,1/2+z
loop_
_atom_site_type_symbol
_atom_site_label
_atom_site_fract_x
_atom_site_fract_y
_atom_site_fract_z
Si Si1 0.145076 0.761800 0.111702
Si Si2 0.217925 0.057624 0.202920
Si Si3 0.722023 0.057111 0.385238
Si Si4 0.581165 0.643689 0.811280
Si Si5 0.553125 0.919649 0.113377
Si Si6 0.037458 0.338695 0.811989
Si Si7 0.363246 0.708229 0.194008
Si Si8 0.000000 0.000000 0.800118
O O1 0.120200 0.813750 0.208754
O O2 0.269114 0.737517 0.121333
O O3 0.063857 0.692853 0.124846
O O4 0.124954 0.796588 0.000000
O O5 0.319447 0.070096 0.130253
O O6 0.183150 0.135038 0.252275
O O7 0.254679 0.002327 0.295417
O O8 0.112378 0.022907 0.147435
O O9 0.724425 0.024538 0.500000
O O10 0.816041 0.119219 0.376860
O O11 0.609215 0.098784 0.365004
O O12 0.479945 0.689185 0.855814
O O13 0.529670 0.567882 0.772457
O O14 0.507316 0.870606 0.204866
O O15 0.500000 0.000000 0.120787
O O16 0.529487 0.889247 0.000000
O O17 0.111880 0.269313 0.781000
#
# Coordination Sequence:
#
# PCOD9444030 Si02
#       8
#     8   8   8   8   8   8   8   4
#     4  11  22  37  61  91 125 165 207 260 322 373
#     4  10  20  42  62  95 130 163 207 265 307 385
#     4  11  22  39  66  95 126 170 208 262 330 378
#     4   9  20  40  59  87 125 158 205 263 303 375
#     4  11  23  41  67  94 125 165 211 266 332 387
#     4  11  22  42  61  93 130 165 211 274 311 385
#     4  10  21  39  63  85 131 167 205 262 314 369
#     4   8  18  38  66  82 120 162 196 248 314 346
#
# _framework density 20.536546999999999
#
# number of rings (size 3 to 8) (size 9 to 14) (size 15 to 20)
#    0.000    1.733    4.000    0.400    0.000    1.600 
#    0.000   26.667    0.000    0.000    0.000    0.000 
#    0.000    0.000    0.000    0.000    0.000    0.000 
#
# Total GULP energy -334730.708962 kJ/mol
# GULP energy per Si atom -5578.845149 kJ/mol
# Density = 2.048980 g / cm^3
# Si number density = 20.536547 Si / 1000 Ang^3
#
#
#
# Elastic Constant Matrix: (Units=GPa)
#
#
# Indices 1 2 3 4 5 6 
#
# 1 96.0009 9.7825 26.1156 0.0000 0.0000 0.0000
# 2 9.7825 60.7887 15.7307 0.0000 0.0000 0.0000
# 3 26.1156 15.7307 77.3430 0.0000 0.0000 0.0000
# 4 0.0000 0.0000 0.0000 -5.8454 0.0000 0.0000
# 5 0.0000 0.0000 0.0000 0.0000 -21.7391 0.0000
# 6 0.0000 0.0000 0.0000 0.0000 0.0000 27.7988
#
#
#
# Elastic Compliance Matrix: (Units=1/GPa)
#
#
# Indices 1 2 3 4 5 6 
#
# 1 0.011516 -0.000894 -0.003707 0.000000 0.000000 0.000000
# 2 -0.000894 0.017434 -0.003244 0.000000 0.000000 0.000000
# 3 -0.003707 -0.003244 0.014841 0.000000 0.000000 0.000000
# 4 0.000000 0.000000 0.000000 -0.171073 0.000000 0.000000
# 5 0.000000 0.000000 0.000000 0.000000 -0.046000 0.000000
# 6 0.000000 0.000000 0.000000 0.000000 0.000000 0.035973
#
#
# Mechanical properties :
#
#
# Convention : Reuss Voigt Hill
#
# Bulk Modulus (GPa) = 35.58556 37.48779 36.53668
# Shear Modulus (GPa) = -44.54195 12.20978 -16.16609
#
# Velocity S-wave (km/s) = -4.66221 2.44096 -2.80873
# Velocity P-wave (km/s) = 3.40823 5.12232 2.70390
#
# Compressibility (1/GPa) = 0.02810128
#
# Stress axis : x y z
#
# Youngs Moduli (GPa) = 86.83564 57.35998 67.38187
#
# Poissons Ratio (x) = 0.05128 0.24976
# Poissons Ratio (y) = 0.07763 0.21858
# Poissons Ratio (z) = 0.32187 0.18607
#
# Static dielectric constant tensor:
#      x y z
#    x 1.809180 0.000000 0.000000 
#    y 0.000000 1.730100 0.000000 
#    z 0.000000 0.000000 1.685650 
# 
# From -- ./inp_files/14635.got.cif
#   From: 2010.05.17/outbox.cif.g08.bks.cpg/sg58_8_cif.got.tgz:14635.got - 2010.06.03 14:20:14.
