data_PCOD9444601
_publ_section_title
;
Structure prediction by ZEFSAII (Michael W. Deem and Ramdas Pophale) SiO2 
 PCOD9444601
Probable space group: P N N M
;
_chemical_formula_sum "Si O2"
_cell_formula_units_Z 40
_cell_length_a 7.596517
_cell_length_b 15.870745
_cell_length_c 16.360075
_cell_angle_alpha 90.000000
_cell_angle_beta 90.000000
_cell_angle_gamma 90.000000
_cell_volume 1972.409648
_symmetry_space_group_name_H-M "P N N M"
_symmetry_group_IT_number 58
_symmetry_cell_setting 'orthorhombic'
loop_
_space_group_symop_operation_xyz
x,y,z
-x,-y,z
1/2+x,1/2-y,1/2-z
1/2-x,1/2+y,1/2-z
-x,-y,-z
x,y,-z
1/2-x,1/2+y,1/2+z
1/2+x,1/2-y,1/2+z
loop_
_atom_site_type_symbol
_atom_site_label
_atom_site_fract_x
_atom_site_fract_y
_atom_site_fract_z
Si Si1 0.304975 0.467123 0.825700
Si Si2 0.081583 0.327207 0.000000
Si Si3 0.353236 0.781630 0.328376
Si Si4 0.500000 0.000000 0.798964
Si Si5 0.974699 0.315786 0.656372
Si Si6 0.505243 0.295877 0.000000
Si Si7 0.773976 0.452173 0.000000
O O1 0.500000 0.500000 0.806966
O O2 0.269837 0.366360 0.824527
O O3 0.166885 0.505903 0.761736
O O4 0.260295 0.497783 0.916823
O O5 0.033882 0.288344 0.088521
O O6 0.296339 0.321198 0.000000
O O7 0.967985 0.411878 0.000000
O O8 0.453719 0.783227 0.243313
O O9 0.233385 0.700250 0.338476
O O10 0.516543 0.085708 0.849493
O O11 0.038586 0.260514 0.580250
O O12 0.630081 0.376513 0.000000
#
# Coordination Sequence:
#
# PCOD9444601 Si02
#       7
#     8   4   8   4   8   4   4
#     4  11  22  36  57  93 123 160 198 247 320 378
#     4  10  21  39  56  93 121 160 197 243 309 370
#     4  10  22  37  61  87 124 160 203 253 305 379
#     4  10  24  40  60  88 116 166 216 257 302 359
#     4  10  22  40  61  87 120 164 210 256 309 358
#     4  10  24  41  60  94 123 166 215 249 309 372
#     4  12  22  35  67  88 134 159 188 257 328 388
#
# _framework density 20.279765000000001
#
# number of rings (size 3 to 8) (size 9 to 14) (size 15 to 20)
#    0.000    1.600    0.000    5.700    8.400    1.600 
#    0.000    0.000    0.000    0.000    0.000    6.300 
#    0.000    0.000    0.000    0.000    0.000    0.000 
#
# Total GULP energy -223440.227811 kJ/mol
# GULP energy per Si atom -5586.005695 kJ/mol
# Density = 2.023361 g / cm^3
# Si number density = 20.279765 Si / 1000 Ang^3
#
#
#
# Elastic Constant Matrix: (Units=GPa)
#
#
# Indices 1 2 3 4 5 6 
#
# 1 84.3486 15.4419 29.0287 0.0000 0.0000 0.0000
# 2 15.4419 74.8002 47.7779 0.0000 0.0000 0.0000
# 3 29.0287 47.7779 133.9872 0.0000 0.0000 0.0000
# 4 0.0000 0.0000 0.0000 42.7287 0.0000 0.0000
# 5 0.0000 0.0000 0.0000 0.0000 24.3980 0.0000
# 6 0.0000 0.0000 0.0000 0.0000 0.0000 32.4117
#
#
#
# Elastic Compliance Matrix: (Units=1/GPa)
#
#
# Indices 1 2 3 4 5 6 
#
# 1 0.012885 -0.001136 -0.002387 0.000000 0.000000 0.000000
# 2 -0.001136 0.017412 -0.005963 0.000000 0.000000 0.000000
# 3 -0.002387 -0.005963 0.010107 0.000000 0.000000 0.000000
# 4 0.000000 0.000000 0.000000 0.023404 0.000000 0.000000
# 5 0.000000 0.000000 0.000000 0.000000 0.040987 0.000000
# 6 0.000000 0.000000 0.000000 0.000000 0.000000 0.030853
#
#
# Mechanical properties :
#
#
# Convention : Reuss Voigt Hill
#
# Bulk Modulus (GPa) = 46.65575 53.07034 49.86305
# Shear Modulus (GPa) = 30.90962 33.30015 32.10489
#
# Velocity S-wave (km/s) = 3.90829 4.05660 3.98313
# Velocity P-wave (km/s) = 6.58956 6.94027 6.76718
#
# Compressibility (1/GPa) = 0.02143358
#
# Stress axis : x y z
#
# Youngs Moduli (GPa) = 77.61081 57.43124 98.94381
#
# Poissons Ratio (x) = 0.06522 0.23614
# Poissons Ratio (y) = 0.08813 0.58999
# Poissons Ratio (z) = 0.18523 0.34246
#
# Static dielectric constant tensor:
#      x y z
#    x 1.750900 0.000000 0.000000 
#    y 0.000000 1.736670 0.000000 
#    z 0.000000 0.000000 1.734630 
# 
# From -- ./inp_files/19546.got.cif
#   From: 2010.05.17/outbox.cif.g08.bks.cpg/sg58_10_cif.got.tgz:19546.got - 2010.06.03 14:20:14.
