data_PCOD9444182
_publ_section_title
;
Structure prediction by ZEFSAII (Michael W. Deem and Ramdas Pophale) SiO2 
 PCOD9444182
Probable space group: P N N M
;
_chemical_formula_sum "Si O2"
_cell_formula_units_Z 48
_cell_length_a 19.320895
_cell_length_b 15.449553
_cell_length_c 8.895682
_cell_angle_alpha 90.000000
_cell_angle_beta 90.000000
_cell_angle_gamma 90.000000
_cell_volume 2655.353883
_symmetry_space_group_name_H-M "P N N M"
_symmetry_group_IT_number 58
_symmetry_cell_setting 'orthorhombic'
loop_
_space_group_symop_operation_xyz
x,y,z
-x,-y,z
1/2+x,1/2-y,1/2-z
1/2-x,1/2+y,1/2-z
-x,-y,-z
x,y,-z
1/2-x,1/2+y,1/2+z
1/2+x,1/2-y,1/2+z
loop_
_atom_site_type_symbol
_atom_site_label
_atom_site_fract_x
_atom_site_fract_y
_atom_site_fract_z
Si Si1 0.830872 0.851292 0.320561
Si Si2 0.679373 0.151775 0.179793
Si Si3 0.828222 0.154045 0.320822
Si Si4 0.919890 0.492980 0.319447
Si Si5 0.329870 0.158198 0.320467
Si Si6 0.581051 0.502941 0.320479
O O1 0.840136 0.863190 0.500000
O O2 0.843043 0.750069 0.284561
O O3 0.749816 0.867628 0.285172
O O4 0.880163 0.916427 0.233844
O O5 0.750671 0.131926 0.264636
O O6 0.621338 0.081278 0.214508
O O7 0.693480 0.149742 0.000000
O O8 0.830369 0.154940 0.500000
O O9 0.843579 0.249352 0.255890
O O10 0.880948 0.083657 0.256636
O O11 0.916707 0.479715 0.500000
O O12 0.881396 0.414245 0.239283
O O13 0.000000 0.500000 0.275923
O O14 0.334489 0.167823 0.500000
O O15 0.500000 0.500000 0.280767
O O16 0.587123 0.511147 0.500000
#
# Coordination Sequence:
#
# PCOD9444182 Si02
#       6
#     8   8   8   8   8   8
#     4   9  19  36  58  83 109 143 187 232 276 324
#     4   9  19  37  59  82 112 146 183 231 278 323
#     4  11  22  37  60  85 108 141 187 233 277 329
#     4  10  21  36  55  83 117 152 188 225 271 326
#     4  10  21  38  59  84 113 144 183 230 279 329
#     4  11  24  39  55  80 115 151 184 224 277 332
#
# _framework density 18.076688000000001
#
# number of rings (size 3 to 8) (size 9 to 14) (size 15 to 20)
#    0.000    2.000    0.000    4.500    0.000    9.667 
#    0.000    1.667    0.000    0.000    0.000    0.000 
#    0.000    0.000    0.000    0.000    0.000    0.000 
#
# Total GULP energy -268179.178058 kJ/mol
# GULP energy per Si atom -5587.066210 kJ/mol
# Density = 1.803554 g / cm^3
# Si number density = 18.076688 Si / 1000 Ang^3
#
#
#
# Elastic Constant Matrix: (Units=GPa)
#
#
# Indices 1 2 3 4 5 6 
#
# 1 165.5701 132.2773 87.9915 0.0000 0.0000 0.0000
# 2 132.2773 140.5821 77.4347 0.0000 0.0000 0.0000
# 3 87.9915 77.4347 75.7064 0.0000 0.0000 0.0000
# 4 0.0000 0.0000 0.0000 26.2483 0.0000 0.0000
# 5 0.0000 0.0000 0.0000 0.0000 11.9456 0.0000
# 6 0.0000 0.0000 0.0000 0.0000 0.0000 -18.5974
#
#
#
# Elastic Compliance Matrix: (Units=1/GPa)
#
#
# Indices 1 2 3 4 5 6 
#
# 1 0.029257 -0.020151 -0.013393 0.000000 0.000000 0.000000
# 2 -0.020151 0.030172 -0.007439 0.000000 0.000000 0.000000
# 3 -0.013393 -0.007439 0.036384 0.000000 0.000000 0.000000
# 4 0.000000 0.000000 0.000000 0.038098 0.000000 0.000000
# 5 0.000000 0.000000 0.000000 0.000000 0.083713 0.000000
# 6 0.000000 0.000000 0.000000 0.000000 0.000000 -0.053771
#
#
# Mechanical properties :
#
#
# Convention : Reuss Voigt Hill
#
# Bulk Modulus (GPa) = 72.22439 108.58504 90.40472
# Shear Modulus (GPa) = 19.96539 9.52967 14.74753
#
# Velocity S-wave (km/s) = 3.32698 2.29853 2.85937
# Velocity P-wave (km/s) = 7.40267 8.20023 7.81164
#
# Compressibility (1/GPa) = 0.01384574
#
# Stress axis : x y z
#
# Youngs Moduli (GPa) = 34.18040 33.14352 27.48457
#
# Poissons Ratio (x) = 0.66788 0.36809
# Poissons Ratio (y) = 0.68878 0.20447
# Poissons Ratio (z) = 0.45777 0.24656
#
# Static dielectric constant tensor:
#      x y z
#    x 1.591950 0.000000 0.000000 
#    y 0.000000 1.599430 0.000000 
#    z 0.000000 0.000000 1.603370 
# 
# From -- ./inp_files/5799.got.cif
#   From: 2010.05.17/outbox.cif.g08.bks.cpg/sg58_3_cif.got.tgz:5799.got - 2010.06.03 14:20:14.
