data_PCOD9444181
_publ_section_title
;
Structure prediction by ZEFSAII (Michael W. Deem and Ramdas Pophale) SiO2 
 PCOD9444181
Probable space group: P N N M
;
_chemical_formula_sum "Si O2"
_cell_formula_units_Z 48
_cell_length_a 12.152728
_cell_length_b 24.111727
_cell_length_c 7.577877
_cell_angle_alpha 90.000000
_cell_angle_beta 90.000000
_cell_angle_gamma 90.000000
_cell_volume 2220.494221
_symmetry_space_group_name_H-M "P N N M"
_symmetry_group_IT_number 58
_symmetry_cell_setting 'orthorhombic'
loop_
_space_group_symop_operation_xyz
x,y,z
-x,-y,z
1/2+x,1/2-y,1/2-z
1/2-x,1/2+y,1/2-z
-x,-y,-z
x,y,-z
1/2-x,1/2+y,1/2+z
1/2+x,1/2-y,1/2+z
loop_
_atom_site_type_symbol
_atom_site_label
_atom_site_fract_x
_atom_site_fract_y
_atom_site_fract_z
Si Si1 0.123004 0.726394 0.296662
Si Si2 0.983022 0.937404 0.207281
Si Si3 0.664018 0.651602 0.214462
Si Si4 0.411109 0.836334 0.301159
Si Si5 0.237559 0.121165 0.214585
Si Si6 0.046418 0.559063 0.286926
O O1 0.156720 0.732545 0.500000
O O2 0.120885 0.788338 0.222844
O O3 0.207435 0.679574 0.221717
O O4 0.999557 0.702822 0.291274
O O5 0.880690 0.900448 0.279128
O O6 0.091790 0.899910 0.222690
O O7 0.957240 0.944999 0.000000
O O8 0.000000 0.000000 0.280103
O O9 0.790748 0.653204 0.273574
O O10 0.660956 0.648328 0.000000
O O11 0.397842 0.814572 0.500000
O O12 0.471566 0.894853 0.300459
O O13 0.327887 0.073862 0.256321
O O14 0.232824 0.126183 0.000000
O O15 0.036355 0.564830 0.500000
O O16 0.000000 0.500000 0.235947
#
# Coordination Sequence:
#
# PCOD9444181 Si02
#       6
#     8   8   8   8   8   8
#     4   9  19  38  60  80 108 147 189 229 282 344
#     4  10  22  37  58  86 114 150 197 236 273 335
#     4  10  23  39  57  82 115 151 182 228 290 343
#     4  10  21  36  55  83 115 142 180 232 284 332
#     4   8  16  33  55  80 109 141 179 231 279 319
#     4   9  18  33  58  82 107 146 185 224 274 330
#
# _framework density 21.616809
#
# number of rings (size 3 to 8) (size 9 to 14) (size 15 to 20)
#    0.000    2.667    0.000    1.500    4.667    2.667 
#    0.000    3.333    0.000    0.000    0.000    0.000 
#    0.000    0.000    0.000    0.000    0.000    0.000 
#
# Total GULP energy -267604.865617 kJ/mol
# GULP energy per Si atom -5575.101367 kJ/mol
# Density = 2.156761 g / cm^3
# Si number density = 21.616809 Si / 1000 Ang^3
#
#
#
# Elastic Constant Matrix: (Units=GPa)
#
#
# Indices 1 2 3 4 5 6 
#
# 1 137.6947 69.3789 -7.4074 0.0000 0.0000 0.0000
# 2 69.3789 112.5377 3.1712 0.0000 0.0000 0.0000
# 3 -7.4074 3.1712 38.6311 0.0000 0.0000 0.0000
# 4 0.0000 0.0000 0.0000 7.6518 0.0000 0.0000
# 5 0.0000 0.0000 0.0000 0.0000 15.0541 0.0000
# 6 0.0000 0.0000 0.0000 0.0000 0.0000 13.1371
#
#
#
# Elastic Compliance Matrix: (Units=1/GPa)
#
#
# Indices 1 2 3 4 5 6 
#
# 1 0.010793 -0.006728 0.002622 0.000000 0.000000 0.000000
# 2 -0.006728 0.013100 -0.002365 0.000000 0.000000 0.000000
# 3 0.002622 -0.002365 0.026583 0.000000 0.000000 0.000000
# 4 0.000000 0.000000 0.000000 0.130688 0.000000 0.000000
# 5 0.000000 0.000000 0.000000 0.000000 0.066427 0.000000
# 6 0.000000 0.000000 0.000000 0.000000 0.000000 0.076120
#
#
# Mechanical properties :
#
#
# Convention : Reuss Voigt Hill
#
# Bulk Modulus (GPa) = 26.64288 46.57210 36.60749
# Shear Modulus (GPa) = 14.31985 22.08333 18.20159
#
# Velocity S-wave (km/s) = 2.57658 3.19969 2.90489
# Velocity P-wave (km/s) = 4.60473 5.93648 5.31250
#
# Compressibility (1/GPa) = 0.03753348
#
# Stress axis : x y z
#
# Youngs Moduli (GPa) = 92.64867 76.33387 37.61832
#
# Poissons Ratio (x) = 0.51357 -0.09863
# Poissons Ratio (y) = 0.62334 0.08899
# Poissons Ratio (z) = -0.24292 0.18057
#
# Static dielectric constant tensor:
#      x y z
#    x 1.790190 0.000000 0.000000 
#    y 0.000000 1.795640 0.000000 
#    z 0.000000 0.000000 1.827710 
# 
# From -- ./inp_files/4224.got.cif
#   From: 2010.05.17/outbox.cif.g08.bks.cpg/sg58_3_cif.got.tgz:4224.got - 2010.06.03 14:20:14.
