data_PCOD9444616
_publ_section_title
;
Structure prediction by ZEFSAII (Michael W. Deem and Ramdas Pophale) SiO2 
 PCOD9444616
Probable space group: P N N M
;
_chemical_formula_sum "Si O2"
_cell_formula_units_Z 56
_cell_length_a 19.651645
_cell_length_b 14.106824
_cell_length_c 8.215565
_cell_angle_alpha 90.000000
_cell_angle_beta 90.000000
_cell_angle_gamma 90.000000
_cell_volume 2277.537803
_symmetry_space_group_name_H-M "P N N M"
_symmetry_group_IT_number 58
_symmetry_cell_setting 'orthorhombic'
loop_
_space_group_symop_operation_xyz
x,y,z
-x,-y,z
1/2+x,1/2-y,1/2-z
1/2-x,1/2+y,1/2-z
-x,-y,-z
x,y,-z
1/2-x,1/2+y,1/2+z
1/2+x,1/2-y,1/2+z
loop_
_atom_site_type_symbol
_atom_site_label
_atom_site_fract_x
_atom_site_fract_y
_atom_site_fract_z
Si Si1 0.573106 0.877618 0.310258
Si Si2 0.637295 0.057482 0.810392
Si Si3 0.072418 0.966368 0.189048
Si Si4 0.782725 0.050345 0.313471
Si Si5 0.641358 0.276339 0.802477
Si Si6 0.005401 0.795309 0.309603
Si Si7 0.789731 0.264917 0.196654
O O1 0.559315 0.862939 0.500000
O O2 0.585006 0.987740 0.276447
O O3 0.518741 0.816558 0.210784
O O4 0.645953 0.829543 0.266676
O O5 0.715640 0.023993 0.786900
O O6 0.637955 0.165836 0.751158
O O7 0.621060 0.057363 0.000000
O O8 0.143548 0.992213 0.270863
O O9 0.060772 0.852940 0.207260
O O10 0.075609 0.991713 0.000000
O O11 0.000000 0.000000 0.262227
O O12 0.766896 0.029064 0.500000
O O13 0.792131 0.163256 0.283622
O O14 0.570244 0.319929 0.746063
O O15 0.716581 0.310593 0.757826
O O16 0.637628 0.279244 0.000000
O O17 0.012710 0.819407 0.500000
O O18 0.788343 0.248076 0.000000
#
# Coordination Sequence:
#
# PCOD9444616 Si02
#       7
#     8   8   8   8   8   8   8
#     4  11  22  36  58  88 122 158 202 250 302 360
#     4  10  21  39  61  85 118 158 202 249 301 353
#     4  11  24  41  60  85 120 160 198 243 306 367
#     4  11  21  36  60  87 115 148 195 245 297 358
#     4   8  18  37  59  83 113 156 200 244 297 354
#     4  11  22  38  61  88 119 156 202 249 302 364
#     4   9  18  36  60  81 112 156 197 241 297 355
#
# _framework density 24.587958
#
# number of rings (size 3 to 8) (size 9 to 14) (size 15 to 20)
#    0.000    1.857    1.429    3.857    0.000    3.429 
#    0.000   11.429    0.000    0.000    0.000    0.000 
#    0.000    0.000    0.000    0.000    0.000    0.000 
#
# Total GULP energy -313220.410721 kJ/mol
# GULP energy per Si atom -5593.221620 kJ/mol
# Density = 2.453200 g / cm^3
# Si number density = 24.587958 Si / 1000 Ang^3
#
#
#
# Elastic Constant Matrix: (Units=GPa)
#
#
# Indices 1 2 3 4 5 6 
#
# 1 115.8200 -0.3247 3.2209 0.0000 0.0000 0.0000
# 2 -0.3247 46.9337 -1.3274 0.0000 0.0000 0.0000
# 3 3.2209 -1.3274 45.3623 0.0000 0.0000 0.0000
# 4 0.0000 0.0000 0.0000 23.0601 0.0000 0.0000
# 5 0.0000 0.0000 0.0000 0.0000 32.7821 0.0000
# 6 0.0000 0.0000 0.0000 0.0000 0.0000 45.5148
#
#
#
# Elastic Compliance Matrix: (Units=1/GPa)
#
#
# Indices 1 2 3 4 5 6 
#
# 1 0.008651 0.000043 -0.000613 0.000000 0.000000 0.000000
# 2 0.000043 0.021325 0.000621 0.000000 0.000000 0.000000
# 3 -0.000613 0.000621 0.022106 0.000000 0.000000 0.000000
# 4 0.000000 0.000000 0.000000 0.043365 0.000000 0.000000
# 5 0.000000 0.000000 0.000000 0.000000 0.030504 0.000000
# 6 0.000000 0.000000 0.000000 0.000000 0.000000 0.021971
#
#
# Mechanical properties :
#
#
# Convention : Reuss Voigt Hill
#
# Bulk Modulus (GPa) = 19.16327 23.47262 21.31794
# Shear Modulus (GPa) = 30.26342 34.04121 32.15231
#
# Velocity S-wave (km/s) = 3.51211 3.72488 3.62006
# Velocity P-wave (km/s) = 4.92517 5.29781 5.11488
#
# Compressibility (1/GPa) = 0.05218317
#
# Stress axis : x y z
#
# Youngs Moduli (GPa) = 115.59020 46.89435 45.23572
#
# Poissons Ratio (x) = -0.00199 0.02773
# Poissons Ratio (y) = -0.00491 -0.02809
# Poissons Ratio (z) = 0.07086 -0.02912
#
# Static dielectric constant tensor:
#      x y z
#    x 1.972320 0.000000 0.000000 
#    y 0.000000 2.085150 0.000000 
#    z 0.000000 0.000000 1.822750 
# 
# From -- ./inp_files/6302.got.cif
#   From: 2010.05.17/outbox.cif.g08.bks.cpg/sg58_4_cif.got.tgz:6302.got - 2010.06.03 14:20:14.
