data_PCOD9444015
_publ_section_title
;
Structure prediction by ZEFSAII (Michael W. Deem and Ramdas Pophale) SiO2 
 PCOD9444015
Probable space group: P N N M
;
_chemical_formula_sum "Si O2"
_cell_formula_units_Z 40
_cell_length_a 10.028064
_cell_length_b 11.356248
_cell_length_c 18.302700
_cell_angle_alpha 90.000000
_cell_angle_beta 90.000000
_cell_angle_gamma 90.000000
_cell_volume 2084.333105
_symmetry_space_group_name_H-M "P N N M"
_symmetry_group_IT_number 58
_symmetry_cell_setting 'orthorhombic'
loop_
_space_group_symop_operation_xyz
x,y,z
-x,-y,z
1/2+x,1/2-y,1/2-z
1/2-x,1/2+y,1/2-z
-x,-y,-z
x,y,-z
1/2-x,1/2+y,1/2+z
1/2+x,1/2-y,1/2+z
loop_
_atom_site_type_symbol
_atom_site_label
_atom_site_fract_x
_atom_site_fract_y
_atom_site_fract_z
Si Si1 0.101190 0.609403 0.000000
Si Si2 0.128418 0.917553 0.842097
Si Si3 0.070812 0.867457 0.000000
Si Si4 0.075750 0.831836 0.320009
Si Si5 0.633250 0.924766 0.209084
Si Si6 0.284905 0.569488 0.859016
O O1 0.014982 0.731995 0.000000
O O2 0.200552 0.598821 0.069486
O O3 0.000000 0.500000 0.000000
O O4 0.096695 0.846169 0.767907
O O5 0.256949 0.995588 0.829006
O O6 0.144398 0.862680 0.921968
O O7 0.000000 0.000000 0.846835
O O8 0.000000 0.000000 0.000000
O O9 0.111088 0.696880 0.333578
O O10 0.924870 0.861877 0.345015
O O11 0.170688 0.931515 0.355280
O O12 0.692435 0.903641 0.289600
O O13 0.500000 0.000000 0.215217
#
# Coordination Sequence:
#
# PCOD9444015 Si02
#       6
#     4   8   4   8   8   8
#     4  12  26  43  66  98 131 171 225 268 321 400
#     4  10  20  41  61  93 127 172 213 260 330 388
#     4  10  24  40  69  89 133 172 205 267 337 381
#     4  10  21  40  64  92 130 168 217 266 331 388
#     4  11  23  35  66  97 123 162 223 273 318 386
#     4  10  23  42  63  92 128 174 209 269 329 387
#
# _framework density 19.190788999999999
#
# number of rings (size 3 to 8) (size 9 to 14) (size 15 to 20)
#    0.000    1.600    4.000    1.800    8.400    4.800 
#    0.000    1.500    0.000    0.000    0.000    0.000 
#    0.000    0.000    0.000    0.000    0.000    0.000 
#
# Total GULP energy -222721.413895 kJ/mol
# GULP energy per Si atom -5568.035347 kJ/mol
# Density = 1.914711 g / cm^3
# Si number density = 19.190789 Si / 1000 Ang^3
#
#
#
# Elastic Constant Matrix: (Units=GPa)
#
#
# Indices 1 2 3 4 5 6 
#
# 1 119.7960 53.0183 21.5900 0.0000 0.0000 0.0000
# 2 53.0183 96.9117 24.7685 0.0000 0.0000 0.0000
# 3 21.5900 24.7685 90.0699 0.0000 0.0000 0.0000
# 4 0.0000 0.0000 0.0000 -5.9557 0.0000 0.0000
# 5 0.0000 0.0000 0.0000 0.0000 -5.9783 0.0000
# 6 0.0000 0.0000 0.0000 0.0000 0.0000 7.4977
#
#
#
# Elastic Compliance Matrix: (Units=1/GPa)
#
#
# Indices 1 2 3 4 5 6 
#
# 1 0.011109 -0.005805 -0.001067 0.000000 0.000000 0.000000
# 2 -0.005805 0.014132 -0.002495 0.000000 0.000000 0.000000
# 3 -0.001067 -0.002495 0.012044 0.000000 0.000000 0.000000
# 4 0.000000 0.000000 0.000000 -0.167908 0.000000 0.000000
# 5 0.000000 0.000000 0.000000 0.000000 -0.167272 0.000000
# 6 0.000000 0.000000 0.000000 0.000000 0.000000 0.133374
#
#
# Mechanical properties :
#
#
# Convention : Reuss Voigt Hill
#
# Bulk Modulus (GPa) = 53.90036 56.17014 55.03525
# Shear Modulus (GPa) = -35.81567 12.93947 -11.43810
#
# Velocity S-wave (km/s) = -4.32475 2.59946 -2.44400
# Velocity P-wave (km/s) = 1.79154 6.19213 4.55807
#
# Compressibility (1/GPa) = 0.01855275
#
# Stress axis : x y z
#
# Youngs Moduli (GPa) = 90.01902 70.76164 83.02771
#
# Poissons Ratio (x) = 0.41076 0.08855
# Poissons Ratio (y) = 0.52254 0.20713
# Poissons Ratio (z) = 0.09601 0.17653
#
# Static dielectric constant tensor:
#      x y z
#    x 1.625060 0.000000 0.000000 
#    y 0.000000 1.776890 0.000000 
#    z 0.000000 0.000000 1.693620 
# 
# From -- ./inp_files/28760.got.cif
#   From: 2010.05.17/outbox.cif.g08.bks.cpg/sg58_15_cif.got.tgz:28760.got - 2010.06.03 14:20:14.
