data_PCOD9444658
_publ_section_title
;
Structure prediction by ZEFSAII (Michael W. Deem and Ramdas Pophale) SiO2 
 PCOD9444658
Probable space group: P N N M
;
_chemical_formula_sum "Si O2"
_cell_formula_units_Z 58
_cell_length_a 16.134848
_cell_length_b 20.128253
_cell_length_c 7.523867
_cell_angle_alpha 90.000000
_cell_angle_beta 90.000000
_cell_angle_gamma 90.000000
_cell_volume 2443.498467
_symmetry_space_group_name_H-M "P N N M"
_symmetry_group_IT_number 58
_symmetry_cell_setting 'orthorhombic'
loop_
_space_group_symop_operation_xyz
x,y,z
-x,-y,z
1/2+x,1/2-y,1/2-z
1/2-x,1/2+y,1/2-z
-x,-y,-z
x,y,-z
1/2-x,1/2+y,1/2+z
1/2+x,1/2-y,1/2+z
loop_
_atom_site_type_symbol
_atom_site_label
_atom_site_fract_x
_atom_site_fract_y
_atom_site_fract_z
Si Si1 0.680480 0.438172 0.795165
Si Si2 0.500000 0.000000 0.000000
Si Si3 0.088195 0.255479 0.788029
Si Si4 0.174312 0.912718 0.202024
Si Si5 0.341219 0.138301 0.282543
Si Si6 0.775653 0.226975 0.791687
Si Si7 0.490179 0.619421 0.205041
Si Si8 0.524061 0.097262 0.287241
O O1 0.690340 0.517003 0.791409
O O2 0.761073 0.401985 0.718951
O O3 0.591618 0.416622 0.717695
O O4 0.675858 0.415397 0.000000
O O5 0.446957 0.960325 0.841959
O O6 0.182363 0.246770 0.725445
O O7 0.030147 0.197762 0.712600
O O8 0.063200 0.330934 0.747408
O O9 0.084881 0.248322 0.000000
O O10 0.214696 0.846586 0.285711
O O11 0.075924 0.898399 0.203171
O O12 0.203997 0.920135 0.000000
O O13 0.341276 0.139004 0.500000
O O14 0.333745 0.214511 0.221061
O O15 0.427592 0.106058 0.232284
O O16 0.796358 0.219661 0.000000
O O17 0.500955 0.598298 0.000000
O O18 0.531830 0.084307 0.500000
#
# Coordination Sequence:
#
# PCOD9444658 Si02
#       8
#     8   2   8   8   8   8   8   8
#     4  10  21  39  63  90 124 172 215 255 323 392
#     4  12  26  44  68  98 128 180 226 284 336 402
#     4  11  23  40  65  97 130 167 212 273 333 384
#     4  11  24  39  59  92 130 165 206 266 327 381
#     4   9  18  41  68  88 124 175 216 267 331 393
#     4  10  21  41  65  91 127 168 216 268 327 393
#     4  11  22  39  65  92 125 167 216 263 313 392
#     4  10  24  45  68  98 136 176 226 281 336 399
#
# _framework density 23.736459
#
# number of rings (size 3 to 8) (size 9 to 14) (size 15 to 20)
#    0.000    1.655    1.379    2.690    1.931    7.172 
#    4.966    2.759    0.000    0.000    0.000    0.000 
#    0.000    0.000    0.000    0.000    0.000    0.000 
#
# Total GULP energy -323838.611371 kJ/mol
# GULP energy per Si atom -5583.424334 kJ/mol
# Density = 2.368243 g / cm^3
# Si number density = 23.736459 Si / 1000 Ang^3
#
#
#
# Elastic Constant Matrix: (Units=GPa)
#
#
# Indices 1 2 3 4 5 6 
#
# 1 48.5706 7.1527 -9.2227 0.0000 0.0000 0.0000
# 2 7.1527 110.1048 6.5255 0.0000 0.0000 0.0000
# 3 -9.2227 6.5255 76.3337 0.0000 0.0000 0.0000
# 4 0.0000 0.0000 0.0000 28.9586 0.0000 0.0000
# 5 0.0000 0.0000 0.0000 0.0000 16.0604 0.0000
# 6 0.0000 0.0000 0.0000 0.0000 0.0000 46.8774
#
#
#
# Elastic Compliance Matrix: (Units=1/GPa)
#
#
# Indices 1 2 3 4 5 6 
#
# 1 0.021331 -0.001546 0.002709 0.000000 0.000000 0.000000
# 2 -0.001546 0.009241 -0.000977 0.000000 0.000000 0.000000
# 3 0.002709 -0.000977 0.013511 0.000000 0.000000 0.000000
# 4 0.000000 0.000000 0.000000 0.034532 0.000000 0.000000
# 5 0.000000 0.000000 0.000000 0.000000 0.062265 0.000000
# 6 0.000000 0.000000 0.000000 0.000000 0.000000 0.021332
#
#
# Mechanical properties :
#
#
# Convention : Reuss Voigt Hill
#
# Bulk Modulus (GPa) = 22.49452 27.10222 24.79837
# Shear Modulus (GPa) = 28.30334 33.74953 31.02643
#
# Velocity S-wave (km/s) = 3.45686 3.77482 3.61934
# Velocity P-wave (km/s) = 5.04287 5.51741 5.28547
#
# Compressibility (1/GPa) = 0.04445528
#
# Stress axis : x y z
#
# Youngs Moduli (GPa) = 46.88064 108.21818 74.01254
#
# Poissons Ratio (x) = 0.16733 -0.20053
# Poissons Ratio (y) = 0.07249 0.07229
# Poissons Ratio (z) = -0.12702 0.10570
#
# Static dielectric constant tensor:
#      x y z
#    x 1.895870 0.000000 0.000000 
#    y 0.000000 1.968210 0.000000 
#    z 0.000000 0.000000 1.931700 
# 
# From -- ./inp_files/8014.got.cif
#   From: 2010.05.17/outbox.cif.g08.bks.cpg/sg58_5_cif.got.tgz:8014.got - 2010.06.03 14:20:14.
