data_PCOD9444724
_publ_section_title
;
Structure prediction by ZEFSAII (Michael W. Deem and Ramdas Pophale) SiO2 
 PCOD9444724
Probable space group: P N N M
;
_chemical_formula_sum "Si O2"
_cell_formula_units_Z 20
_cell_length_a 11.267122
_cell_length_b 8.458226
_cell_length_c 9.891593
_cell_angle_alpha 90.000000
_cell_angle_beta 90.000000
_cell_angle_gamma 90.000000
_cell_volume 942.667470
_symmetry_space_group_name_H-M "P N N M"
_symmetry_group_IT_number 58
_symmetry_cell_setting 'orthorhombic'
loop_
_space_group_symop_operation_xyz
x,y,z
-x,-y,z
1/2+x,1/2-y,1/2-z
1/2-x,1/2+y,1/2-z
-x,-y,-z
x,y,-z
1/2-x,1/2+y,1/2+z
1/2+x,1/2-y,1/2+z
loop_
_atom_site_type_symbol
_atom_site_label
_atom_site_fract_x
_atom_site_fract_y
_atom_site_fract_z
Si Si1 0.787134 0.801576 0.000000
Si Si2 0.520097 0.686598 0.000000
Si Si3 0.387332 0.380263 0.500000
Si Si4 0.519861 0.186239 0.709138
O O1 0.863875 0.741581 0.127574
O O2 0.659042 0.726934 0.000000
O O3 0.781525 0.993789 0.000000
O O4 0.500000 0.500000 0.000000
O O5 0.469861 0.760135 0.862754
O O6 0.500000 0.500000 0.500000
O O7 0.409743 0.273495 0.632007
O O8 0.500000 0.000000 0.697915
#
# Coordination Sequence:
#
# PCOD9444724 Si02
#       4
#     4   4   4   8
#     4  10  22  42  66  91 129 179 211 271 337 370
#     4  12  25  41  64  99 133 171 225 272 322 402
#     4   8  16  37  63  86 120 168 215 259 318 388
#     4  10  21  40  63  95 131 172 224 270 321 395
#
# _framework density 21.216388999999999
#
# number of rings (size 3 to 8) (size 9 to 14) (size 15 to 20)
#    0.000    2.400    0.000    6.600    0.000    6.400 
#    0.000    8.000    0.000    0.000    0.000    0.000 
#    0.000    0.000    0.000    0.000    0.000    0.000 
#
# Total GULP energy -111766.014786 kJ/mol
# GULP energy per Si atom -5588.300739 kJ/mol
# Density = 2.116810 g / cm^3
# Si number density = 21.216389 Si / 1000 Ang^3
#
#
#
# Elastic Constant Matrix: (Units=GPa)
#
#
# Indices 1 2 3 4 5 6 
#
# 1 87.3857 31.8888 46.3004 0.0000 0.0000 0.0000
# 2 31.8888 212.3386 72.0771 0.0000 0.0000 0.0000
# 3 46.3004 72.0771 210.2279 0.0000 0.0000 0.0000
# 4 0.0000 0.0000 0.0000 42.8699 0.0000 0.0000
# 5 0.0000 0.0000 0.0000 0.0000 13.5602 0.0000
# 6 0.0000 0.0000 0.0000 0.0000 0.0000 35.6406
#
#
#
# Elastic Compliance Matrix: (Units=1/GPa)
#
#
# Indices 1 2 3 4 5 6 
#
# 1 0.013189 -0.001126 -0.002519 0.000000 0.000000 0.000000
# 2 -0.001126 0.005426 -0.001612 0.000000 0.000000 0.000000
# 3 -0.002519 -0.001612 0.005864 0.000000 0.000000 0.000000
# 4 0.000000 0.000000 0.000000 0.023326 0.000000 0.000000
# 5 0.000000 0.000000 0.000000 0.000000 0.073745 0.000000
# 6 0.000000 0.000000 0.000000 0.000000 0.000000 0.028058
#
#
# Mechanical properties :
#
#
# Convention : Reuss Voigt Hill
#
# Bulk Modulus (GPa) = 71.60582 90.05386 80.82984
# Shear Modulus (GPa) = 30.34407 42.39322 36.36865
#
# Velocity S-wave (km/s) = 3.78593 4.47490 4.14475
# Velocity P-wave (km/s) = 7.27561 8.32089 7.81574
#
# Compressibility (1/GPa) = 0.01396535
#
# Stress axis : x y z
#
# Youngs Moduli (GPa) = 75.82169 184.30422 170.52456
#
# Poissons Ratio (x) = 0.20747 0.42951
# Poissons Ratio (y) = 0.08535 0.27494
# Poissons Ratio (z) = 0.19098 0.29716
#
# Static dielectric constant tensor:
#      x y z
#    x 1.796780 0.000000 0.000000 
#    y 0.000000 1.765060 0.000000 
#    z 0.000000 0.000000 1.759820 
# 
# From -- ./inp_files/1566.got.cif
#   From: 2010.05.17/outbox.cif.g08.bks.cpg/sg58_1_cif.got.tgz:1566.got - 2010.06.03 14:20:14.
