data_PCOD9444035
_publ_section_title
;
Structure prediction by ZEFSAII (Michael W. Deem and Ramdas Pophale) SiO2 
 PCOD9444035
Probable space group: P N N M
;
_chemical_formula_sum "Si O2"
_cell_formula_units_Z 32
_cell_length_a 13.419403
_cell_length_b 8.787778
_cell_length_c 11.715825
_cell_angle_alpha 90.000000
_cell_angle_beta 90.000000
_cell_angle_gamma 90.000000
_cell_volume 1381.608984
_symmetry_space_group_name_H-M "P N N M"
_symmetry_group_IT_number 58
_symmetry_cell_setting 'orthorhombic'
loop_
_space_group_symop_operation_xyz
x,y,z
-x,-y,z
1/2+x,1/2-y,1/2-z
1/2-x,1/2+y,1/2-z
-x,-y,-z
x,y,-z
1/2-x,1/2+y,1/2+z
1/2+x,1/2-y,1/2+z
loop_
_atom_site_type_symbol
_atom_site_label
_atom_site_fract_x
_atom_site_fract_y
_atom_site_fract_z
Si Si1 0.746199 0.995742 0.207265
Si Si2 0.447185 0.166885 0.247066
Si Si3 0.482208 0.176897 0.500000
Si Si4 0.611618 0.433474 0.500000
Si Si5 0.364615 0.698431 0.136423
O O1 0.658226 0.871062 0.191119
O O2 0.826826 0.978036 0.109281
O O3 0.805767 0.951333 0.321963
O O4 0.694221 0.158966 0.193572
O O5 0.431454 0.214226 0.379263
O O6 0.522795 0.281891 0.185068
O O7 0.500000 0.000000 0.248458
O O8 0.589913 0.254660 0.500000
O O9 0.500000 0.000000 0.500000
O O10 0.500000 0.500000 0.500000
O O11 0.364581 0.713442 0.000000
#
# Coordination Sequence:
#
# PCOD9444035 Si02
#       5
#     8   8   4   4   8
#     4  11  25  43  68 102 136 186 228 289 352 415
#     4   9  21  38  65  92 130 172 232 274 341 409
#     4  10  20  42  66  96 130 178 229 289 324 430
#     4  12  26  44  69 100 142 180 231 294 364 396
#     4  11  24  44  68 101 138 184 236 291 347 421
#
# _framework density 23.161403
#
# number of rings (size 3 to 8) (size 9 to 14) (size 15 to 20)
#    0.000    1.500    3.750    0.000    7.000    1.500 
#    4.500    0.000    0.000    2.250    0.000    0.000 
#    0.000    0.000    0.000    0.000    0.000    0.000 
#
# Total GULP energy -178865.940149 kJ/mol
# GULP energy per Si atom -5589.560630 kJ/mol
# Density = 2.310869 g / cm^3
# Si number density = 23.161403 Si / 1000 Ang^3
#
#
#
# Elastic Constant Matrix: (Units=GPa)
#
#
# Indices 1 2 3 4 5 6 
#
# 1 154.1451 30.5356 61.6298 0.0000 0.0000 0.0000
# 2 30.5356 58.4408 39.2421 0.0000 0.0000 0.0000
# 3 61.6298 39.2421 128.5190 0.0000 0.0000 0.0000
# 4 0.0000 0.0000 0.0000 -89.9122 0.0000 0.0000
# 5 0.0000 0.0000 0.0000 0.0000 -915.7317 0.0000
# 6 0.0000 0.0000 0.0000 0.0000 0.0000 31.7726
#
#
#
# Elastic Compliance Matrix: (Units=1/GPa)
#
#
# Indices 1 2 3 4 5 6 
#
# 1 0.008221 -0.002074 -0.003309 0.000000 0.000000 0.000000
# 2 -0.002074 0.022048 -0.005738 0.000000 0.000000 0.000000
# 3 -0.003309 -0.005738 0.011120 0.000000 0.000000 0.000000
# 4 0.000000 0.000000 0.000000 -0.011122 0.000000 0.000000
# 5 0.000000 0.000000 0.000000 0.000000 -0.001092 0.000000
# 6 0.000000 0.000000 0.000000 0.000000 0.000000 0.031474
#
#
# Mechanical properties :
#
#
# Convention : Reuss Voigt Hill
#
# Bulk Modulus (GPa) = 52.22568 67.10220 59.66394
# Shear Modulus (GPa) = 56.00873 -180.79444 -62.39285
#
# Velocity S-wave (km/s) = 4.92285 -8.84466 -5.19584
# Velocity P-wave (km/s) = 7.41013 8.67580 3.19056
#
# Compressibility (1/GPa) = 0.01914767
#
# Stress axis : x y z
#
# Youngs Moduli (GPa) = 121.63591 45.35657 89.92951
#
# Poissons Ratio (x) = 0.09405 0.29760
# Poissons Ratio (y) = 0.25221 0.51599
# Poissons Ratio (z) = 0.40253 0.26024
#
# Static dielectric constant tensor:
#      x y z
#    x 1.878150 0.000000 0.000000 
#    y 0.000000 1.977350 0.000000 
#    z 0.000000 0.000000 1.851610 
# 
# From -- ./inp_files/13794.got.cif
#   From: 2010.05.17/outbox.cif.g08.bks.cpg/sg58_7_cif.got.tgz:13794.got - 2010.06.03 14:20:14.
