data_PCOD9444389
_publ_section_title
;
Structure prediction by ZEFSAII (Michael W. Deem and Ramdas Pophale) SiO2 
 PCOD9444389
Probable space group: P N N M
;
_chemical_formula_sum "Si O2"
_cell_formula_units_Z 48
_cell_length_a 9.261312
_cell_length_b 24.460442
_cell_length_c 11.027334
_cell_angle_alpha 90.000000
_cell_angle_beta 90.000000
_cell_angle_gamma 90.000000
_cell_volume 2498.085764
_symmetry_space_group_name_H-M "P N N M"
_symmetry_group_IT_number 58
_symmetry_cell_setting 'orthorhombic'
loop_
_space_group_symop_operation_xyz
x,y,z
-x,-y,z
1/2+x,1/2-y,1/2-z
1/2-x,1/2+y,1/2-z
-x,-y,-z
x,y,-z
1/2-x,1/2+y,1/2+z
1/2+x,1/2-y,1/2+z
loop_
_atom_site_type_symbol
_atom_site_label
_atom_site_fract_x
_atom_site_fract_y
_atom_site_fract_z
Si Si1 0.710262 0.865803 0.635691
Si Si2 0.423663 0.853138 0.788825
Si Si3 0.715240 0.704293 0.137544
Si Si4 0.669726 0.487275 0.861758
Si Si5 0.846698 0.530524 0.633172
Si Si6 0.589266 0.268415 0.787323
O O1 0.647003 0.865110 0.500000
O O2 0.581764 0.860754 0.732070
O O3 0.796095 0.922553 0.650149
O O4 0.818114 0.814813 0.648816
O O5 0.306915 0.847696 0.679774
O O6 0.380468 0.905113 0.864901
O O7 0.414083 0.792412 0.846921
O O8 0.575436 0.712875 0.220837
O O9 0.827478 0.753764 0.162711
O O10 0.667264 0.701646 0.000000
O O11 0.500000 0.500000 0.853601
O O12 0.751578 0.515550 0.749961
O O13 0.716904 0.503057 0.000000
O O14 0.785291 0.515418 0.500000
O O15 0.000000 0.500000 0.646218
#
# Coordination Sequence:
#
# PCOD9444389 Si02
#       6
#     8   8   8   8   8   8
#     4  11  21  39  64  88 123 168 209 265 320 377
#     4  10  21  40  59  90 124 162 214 259 310 382
#     4  10  21  37  60  88 124 163 204 260 314 370
#     4  10  24  43  67  97 129 166 216 269 324 381
#     4  11  24  43  66  93 127 168 214 262 319 381
#     4  10  21  39  56  92 124 158 207 256 317 383
#
# _framework density 19.214713
#
# number of rings (size 3 to 8) (size 9 to 14) (size 15 to 20)
#    1.000    0.667    3.333    1.000    2.333    3.333 
#    0.000    1.667    0.000    0.000    0.000    0.000 
#    0.000    0.000    0.000    0.000    0.000    0.000 
#
# Total GULP energy -267259.635198 kJ/mol
# GULP energy per Si atom -5567.909067 kJ/mol
# Density = 1.917098 g / cm^3
# Si number density = 19.214713 Si / 1000 Ang^3
#
#
#
# Elastic Constant Matrix: (Units=GPa)
#
#
# Indices 1 2 3 4 5 6 
#
# 1 83.8706 28.2970 56.0856 0.0000 0.0000 0.0000
# 2 28.2970 108.1199 42.7231 0.0000 0.0000 0.0000
# 3 56.0856 42.7231 107.8504 0.0000 0.0000 0.0000
# 4 0.0000 0.0000 0.0000 -20.6935 0.0000 0.0000
# 5 0.0000 0.0000 0.0000 0.0000 33.3140 0.0000
# 6 0.0000 0.0000 0.0000 0.0000 0.0000 27.9762
#
#
#
# Elastic Compliance Matrix: (Units=1/GPa)
#
#
# Indices 1 2 3 4 5 6 
#
# 1 0.018417 -0.001228 -0.009091 0.000000 0.000000 0.000000
# 2 -0.001228 0.011047 -0.003738 0.000000 0.000000 0.000000
# 3 -0.009091 -0.003738 0.015480 0.000000 0.000000 0.000000
# 4 0.000000 0.000000 0.000000 -0.048324 0.000000 0.000000
# 5 0.000000 0.000000 0.000000 0.000000 0.030017 0.000000
# 6 0.000000 0.000000 0.000000 0.000000 0.000000 0.035745
#
#
# Mechanical properties :
#
#
# Convention : Reuss Voigt Hill
#
# Bulk Modulus (GPa) = 59.41254 61.56137 60.48696
# Shear Modulus (GPa) = 52.02652 19.63503 35.83078
#
# Velocity S-wave (km/s) = 5.20914 3.20015 4.32297
# Velocity P-wave (km/s) = 8.19559 6.76482 7.51434
#
# Compressibility (1/GPa) = 0.01683146
#
# Stress axis : x y z
#
# Youngs Moduli (GPa) = 54.29898 90.52018 64.59840
#
# Poissons Ratio (x) = 0.11114 0.58725
# Poissons Ratio (y) = 0.06667 0.24145
# Poissons Ratio (z) = 0.49362 0.33834
#
# Static dielectric constant tensor:
#      x y z
#    x 1.642820 0.000000 0.000000 
#    y 0.000000 1.685610 0.000000 
#    z 0.000000 0.000000 1.690590 
# 
# From -- ./inp_files/13165.got.cif
#   From: 2010.05.17/outbox.cif.g08.bks.cpg/sg58_7_cif.got.tgz:13165.got - 2010.06.03 14:20:14.
