data_PCOD9444375
_publ_section_title
;
Structure prediction by ZEFSAII (Michael W. Deem and Ramdas Pophale) SiO2 
 PCOD9444375
Probable space group: P N N M
;
_chemical_formula_sum "Si O2"
_cell_formula_units_Z 64
_cell_length_a 25.183195
_cell_length_b 14.963730
_cell_length_c 8.518637
_cell_angle_alpha 90.000000
_cell_angle_beta 90.000000
_cell_angle_gamma 90.000000
_cell_volume 3210.116575
_symmetry_space_group_name_H-M "P N N M"
_symmetry_group_IT_number 58
_symmetry_cell_setting 'orthorhombic'
loop_
_space_group_symop_operation_xyz
x,y,z
-x,-y,z
1/2+x,1/2-y,1/2-z
1/2-x,1/2+y,1/2-z
-x,-y,-z
x,y,-z
1/2-x,1/2+y,1/2+z
1/2+x,1/2-y,1/2+z
loop_
_atom_site_type_symbol
_atom_site_label
_atom_site_fract_x
_atom_site_fract_y
_atom_site_fract_z
Si Si1 0.236314 0.174421 0.683943
Si Si2 0.125769 0.431621 0.319494
Si Si3 0.935207 0.256344 0.685744
Si Si4 0.052371 0.948090 0.308547
Si Si5 0.830903 0.992466 0.308325
Si Si6 0.644448 0.885005 0.320763
Si Si7 0.983711 0.601134 0.815166
Si Si8 0.238447 0.371218 0.186258
O O1 0.226095 0.195635 0.500000
O O2 0.192097 0.104066 0.740414
O O3 0.292562 0.123668 0.691397
O O4 0.242573 0.266518 0.775715
O O5 0.117400 0.409040 0.500000
O O6 0.123306 0.537967 0.291747
O O7 0.078550 0.388739 0.219530
O O8 0.184163 0.403796 0.265297
O O9 0.924248 0.255914 0.500000
O O10 0.949454 0.156125 0.734567
O O11 0.883707 0.293076 0.775627
O O12 0.981940 0.325657 0.724815
O O13 0.052299 0.952350 0.500000
O O14 0.109054 0.988220 0.256649
O O15 0.000000 0.000000 0.253383
O O16 0.830687 0.992426 0.500000
O O17 0.789314 0.070286 0.260056
O O18 0.630861 0.909804 0.500000
O O19 0.000000 0.500000 0.767825
O O20 0.994617 0.609933 0.000000
O O21 0.233714 0.384935 0.000000
#
# Coordination Sequence:
#
# PCOD9444375 Si02
#       8
#     8   8   8   8   8   8   8   8
#     4  10  21  37  59  87 119 161 210 253 300 362
#     4  12  24  38  60  88 120 156 200 254 304 362
#     4  11  22  36  60  93 121 156 209 261 305 364
#     4   9  19  36  59  88 120 157 203 254 304 352
#     4   9  18  36  59  82 119 163 203 249 304 364
#     4  11  21  37  59  86 122 163 203 250 310 368
#     4  11  23  39  60  85 121 165 199 241 306 371
#     4  11  22  39  60  87 124 164 202 248 311 374
#
# _framework density 19.936969000000001
#
# number of rings (size 3 to 8) (size 9 to 14) (size 15 to 20)
#    0.000    1.500    2.500    3.375    0.000    3.500 
#    0.000    2.500    0.000    3.000    0.000    0.000 
#    0.000    0.000    0.000    0.000    0.000    0.000 
#
# Total GULP energy -357598.099798 kJ/mol
# GULP energy per Si atom -5587.470309 kJ/mol
# Density = 1.989159 g / cm^3
# Si number density = 19.936969 Si / 1000 Ang^3
#
#
#
# Elastic Constant Matrix: (Units=GPa)
#
#
# Indices 1 2 3 4 5 6 
#
# 1 127.3121 32.7734 2.3160 0.0000 0.0000 0.0000
# 2 32.7734 69.2600 -1.8279 0.0000 0.0000 0.0000
# 3 2.3160 -1.8279 16.6914 0.0000 0.0000 0.0000
# 4 0.0000 0.0000 0.0000 24.1708 0.0000 0.0000
# 5 0.0000 0.0000 0.0000 0.0000 19.8922 0.0000
# 6 0.0000 0.0000 0.0000 0.0000 0.0000 30.8203
#
#
#
# Elastic Compliance Matrix: (Units=1/GPa)
#
#
# Indices 1 2 3 4 5 6 
#
# 1 0.008993 -0.004301 -0.001719 0.000000 0.000000 0.000000
# 2 -0.004301 0.016537 0.002408 0.000000 0.000000 0.000000
# 3 -0.001719 0.002408 0.060413 0.000000 0.000000 0.000000
# 4 0.000000 0.000000 0.000000 0.041372 0.000000 0.000000
# 5 0.000000 0.000000 0.000000 0.000000 0.050271 0.000000
# 6 0.000000 0.000000 0.000000 0.000000 0.000000 0.032446
#
#
# Mechanical properties :
#
#
# Convention : Reuss Voigt Hill
#
# Bulk Modulus (GPa) = 12.70331 31.08740 21.89536
# Shear Modulus (GPa) = 20.53417 26.97679 23.75548
#
# Velocity S-wave (km/s) = 3.21277 3.68245 3.45560
# Velocity P-wave (km/s) = 4.48866 5.80579 5.18919
#
# Compressibility (1/GPa) = 0.07871962
#
# Stress axis : x y z
#
# Youngs Moduli (GPa) = 111.19592 60.47037 16.55264
#
# Poissons Ratio (x) = 0.26007 0.02845
# Poissons Ratio (y) = 0.47824 -0.03986
# Poissons Ratio (z) = 0.19113 -0.14560
#
# Static dielectric constant tensor:
#      x y z
#    x 1.704390 0.000000 0.000000 
#    y 0.000000 1.707890 0.000000 
#    z 0.000000 0.000000 1.681510 
# 
# From -- ./inp_files/9980.got.cif
#   From: 2010.05.17/outbox.cif.g08.bks.cpg/sg58_5_cif.got.tgz:9980.got - 2010.06.03 14:20:14.
