data_PCOD9444502
_publ_section_title
;
Structure prediction by ZEFSAII (Michael W. Deem and Ramdas Pophale) SiO2 
 PCOD9444502
Probable space group: P N N M
;
_chemical_formula_sum "Si O2"
_cell_formula_units_Z 64
_cell_length_a 22.650386
_cell_length_b 17.086000
_cell_length_c 7.859028
_cell_angle_alpha 90.000000
_cell_angle_beta 90.000000
_cell_angle_gamma 90.000000
_cell_volume 3041.479164
_symmetry_space_group_name_H-M "P N N M"
_symmetry_group_IT_number 58
_symmetry_cell_setting 'orthorhombic'
loop_
_space_group_symop_operation_xyz
x,y,z
-x,-y,z
1/2+x,1/2-y,1/2-z
1/2-x,1/2+y,1/2-z
-x,-y,-z
x,y,-z
1/2-x,1/2+y,1/2+z
1/2+x,1/2-y,1/2+z
loop_
_atom_site_type_symbol
_atom_site_label
_atom_site_fract_x
_atom_site_fract_y
_atom_site_fract_z
Si Si1 0.356318 0.354229 0.208514
Si Si2 0.119266 0.681773 0.299179
Si Si3 0.994240 0.412682 0.802930
Si Si4 0.354802 0.652317 0.793544
Si Si5 0.567818 0.496295 0.207977
Si Si6 0.270073 0.082686 0.798081
Si Si7 0.772182 0.595597 0.198142
Si Si8 0.109484 0.324543 0.302677
O O1 0.380152 0.270405 0.267616
O O2 0.395690 0.427572 0.264539
O O3 0.288483 0.365866 0.261869
O O4 0.356776 0.356745 0.000000
O O5 0.131294 0.689171 0.500000
O O6 0.173119 0.629604 0.230267
O O7 0.057565 0.638278 0.277656
O O8 0.056419 0.368765 0.788845
O O9 0.000000 0.500000 0.727868
O O10 0.977456 0.421672 0.000000
O O11 0.398484 0.582555 0.739262
O O12 0.289237 0.631852 0.732078
O O13 0.376917 0.737368 0.736512
O O14 0.353190 0.653170 0.000000
O O15 0.500000 0.500000 0.263546
O O16 0.567772 0.496379 0.000000
O O17 0.265165 0.997615 0.714422
O O18 0.277122 0.069391 0.000000
O O19 0.830400 0.626071 0.290008
O O20 0.779175 0.616324 0.000000
O O21 0.091723 0.317753 0.500000
#
# Coordination Sequence:
#
# PCOD9444502 Si02
#       8
#     8   8   8   8   8   8   8   8
#     4   9  18  34  58  86 116 154 198 242 292 353
#     4  10  22  38  60  88 116 152 198 247 298 353
#     4  11  25  44  63  86 117 158 201 242 299 364
#     4  10  21  38  60  90 121 158 203 247 297 358
#     4   9  17  31  57  88 117 151 195 240 285 349
#     4  11  22  37  59  89 125 160 200 251 304 355
#     4  11  21  38  62  87 120 160 205 249 303 365
#     4  11  24  39  61  91 122 156 202 254 304 359
#
# _framework density 21.042394000000002
#
# number of rings (size 3 to 8) (size 9 to 14) (size 15 to 20)
#    0.000    1.750    1.250    3.000    1.750    6.000 
#    0.000    1.250    0.000    0.375    0.000    0.000 
#    0.000    0.000    0.000    0.000    0.000    0.000 
#
# Total GULP energy -357770.214295 kJ/mol
# GULP energy per Si atom -5590.159598 kJ/mol
# Density = 2.099450 g / cm^3
# Si number density = 21.042394 Si / 1000 Ang^3
#
#
#
# Elastic Constant Matrix: (Units=GPa)
#
#
# Indices 1 2 3 4 5 6 
#
# 1 144.4253 64.9853 -13.0303 0.0000 0.0000 0.0000
# 2 64.9853 156.8364 -8.0226 0.0000 0.0000 0.0000
# 3 -13.0303 -8.0226 23.7495 0.0000 0.0000 0.0000
# 4 0.0000 0.0000 0.0000 14.8963 0.0000 0.0000
# 5 0.0000 0.0000 0.0000 0.0000 12.0291 0.0000
# 6 0.0000 0.0000 0.0000 0.0000 0.0000 20.9076
#
#
#
# Elastic Compliance Matrix: (Units=1/GPa)
#
#
# Indices 1 2 3 4 5 6 
#
# 1 0.008814 -0.003464 0.003665 0.000000 0.000000 0.000000
# 2 -0.003464 0.007850 0.000751 0.000000 0.000000 0.000000
# 3 0.003665 0.000751 0.044371 0.000000 0.000000 0.000000
# 4 0.000000 0.000000 0.000000 0.067131 0.000000 0.000000
# 5 0.000000 0.000000 0.000000 0.000000 0.083132 0.000000
# 6 0.000000 0.000000 0.000000 0.000000 0.000000 0.047829
#
#
# Mechanical properties :
#
#
# Convention : Reuss Voigt Hill
#
# Bulk Modulus (GPa) = 15.88862 45.87511 30.88187
# Shear Modulus (GPa) = 17.97257 28.30520 23.13888
#
# Velocity S-wave (km/s) = 2.92569 3.67161 3.31967
# Velocity P-wave (km/s) = 4.35661 6.31054 5.42231
#
# Compressibility (1/GPa) = 0.06293812
#
# Stress axis : x y z
#
# Youngs Moduli (GPa) = 113.46198 127.38914 22.53731
#
# Poissons Ratio (x) = 0.44133 -0.08261
# Poissons Ratio (y) = 0.39308 -0.01692
# Poissons Ratio (z) = -0.41588 -0.09566
#
# Static dielectric constant tensor:
#      x y z
#    x 1.697100 0.000000 0.000000 
#    y 0.000000 1.741600 0.000000 
#    z 0.000000 0.000000 1.764610 
# 
# From -- ./inp_files/10102.got.cif
#   From: 2010.05.17/outbox.cif.g08.bks.cpg/sg58_6_cif.got.tgz:10102.got - 2010.06.03 14:20:14.
