data_PCOD9444106
_publ_section_title
;
Structure prediction by ZEFSAII (Michael W. Deem and Ramdas Pophale) SiO2 
 PCOD9444106
Probable space group: P N N M
;
_chemical_formula_sum "Si O2"
_cell_formula_units_Z 64
_cell_length_a 24.447099
_cell_length_b 15.571366
_cell_length_c 7.392960
_cell_angle_alpha 90.000000
_cell_angle_beta 90.000000
_cell_angle_gamma 90.000000
_cell_volume 2814.313024
_symmetry_space_group_name_H-M "P N N M"
_symmetry_group_IT_number 58
_symmetry_cell_setting 'orthorhombic'
loop_
_space_group_symop_operation_xyz
x,y,z
-x,-y,z
1/2+x,1/2-y,1/2-z
1/2-x,1/2+y,1/2-z
-x,-y,-z
x,y,-z
1/2-x,1/2+y,1/2+z
1/2+x,1/2-y,1/2+z
loop_
_atom_site_type_symbol
_atom_site_label
_atom_site_fract_x
_atom_site_fract_y
_atom_site_fract_z
Si Si1 0.577533 0.249546 0.713975
Si Si2 0.692738 0.310049 0.712302
Si Si3 0.548690 0.064130 0.278852
Si Si4 0.122169 0.848559 0.720599
Si Si5 0.830853 0.511056 0.205625
Si Si6 0.290372 0.489573 0.780720
Si Si7 0.686663 0.814895 0.779840
Si Si8 0.003903 0.902555 0.717782
O O1 0.583496 0.236239 0.500000
O O2 0.638778 0.264873 0.789182
O O3 0.545573 0.164394 0.778606
O O4 0.544437 0.337436 0.737824
O O5 0.693435 0.289272 0.500000
O O6 0.691894 0.413852 0.729542
O O7 0.752805 0.286690 0.782300
O O8 0.547442 0.059655 0.500000
O O9 0.500000 0.000000 0.218091
O O10 0.610063 0.036782 0.218656
O O11 0.122334 0.850798 0.500000
O O12 0.143750 0.756193 0.774828
O O13 0.061240 0.865296 0.782832
O O14 0.164425 0.921902 0.778718
O O15 0.771042 0.533593 0.285207
O O16 0.827944 0.407888 0.206411
O O17 0.830705 0.545104 0.000000
O O18 0.287759 0.488707 0.000000
O O19 0.687751 0.821634 0.000000
O O20 0.005483 0.906597 0.500000
O O21 0.000000 0.000000 0.783992
#
# Coordination Sequence:
#
# PCOD9444106 Si02
#       8
#     8   8   8   8   8   8   8   8
#     4  10  21  35  55  80 105 138 178 216 257 309
#     4   9  18  32  50  74 103 131 163 205 256 305
#     4   9  19  34  52  75 105 139 174 215 261 307
#     4   9  18  31  51  75  98 130 170 206 248 305
#     4   9  18  32  53  77 101 130 170 212 252 302
#     4   9  17  31  53  78 101 130 168 209 252 304
#     4   9  18  32  51  73 101 132 162 205 256 307
#     4  10  21  37  55  76 105 140 174 213 261 309
#
# _framework density 22.740894999999998
#
# number of rings (size 3 to 8) (size 9 to 14) (size 15 to 20)
#    0.000    2.750    0.000    0.750    3.500    1.750 
#    0.000    1.875    0.000    0.750    0.000    0.000 
#    0.000    0.000    0.000    0.000    0.000    0.000 
#
# Total GULP energy -357280.086046 kJ/mol
# GULP energy per Si atom -5582.501344 kJ/mol
# Density = 2.268914 g / cm^3
# Si number density = 22.740895 Si / 1000 Ang^3
#
#
#
# Elastic Constant Matrix: (Units=GPa)
#
#
# Indices 1 2 3 4 5 6 
#
# 1 112.2788 42.5304 1.4723 0.0000 0.0000 0.0000
# 2 42.5304 74.9629 -3.3928 0.0000 0.0000 0.0000
# 3 1.4723 -3.3928 79.5755 0.0000 0.0000 0.0000
# 4 0.0000 0.0000 0.0000 10.8943 0.0000 0.0000
# 5 0.0000 0.0000 0.0000 0.0000 3.8590 0.0000
# 6 0.0000 0.0000 0.0000 0.0000 0.0000 39.3677
#
#
#
# Elastic Compliance Matrix: (Units=1/GPa)
#
#
# Indices 1 2 3 4 5 6 
#
# 1 0.011363 -0.006469 -0.000486 0.000000 0.000000 0.000000
# 2 -0.006469 0.017048 0.000847 0.000000 0.000000 0.000000
# 3 -0.000486 0.000847 0.012612 0.000000 0.000000 0.000000
# 4 0.000000 0.000000 0.000000 0.091791 0.000000 0.000000
# 5 0.000000 0.000000 0.000000 0.000000 0.259135 0.000000
# 6 0.000000 0.000000 0.000000 0.000000 0.000000 0.025402
#
#
# Mechanical properties :
#
#
# Convention : Reuss Voigt Hill
#
# Bulk Modulus (GPa) = 34.71435 38.67078 36.69257
# Shear Modulus (GPa) = 11.38511 25.90469 18.64490
#
# Velocity S-wave (km/s) = 2.23994 3.37875 2.86647
# Velocity P-wave (km/s) = 4.68914 5.68007 5.20822
#
# Compressibility (1/GPa) = 0.02880653
#
# Stress axis : x y z
#
# Youngs Moduli (GPa) = 88.00378 58.65656 79.29105
#
# Poissons Ratio (x) = 0.37944 0.03854
# Poissons Ratio (y) = 0.56929 -0.06713
# Poissons Ratio (z) = 0.04277 -0.04966
#
# Static dielectric constant tensor:
#      x y z
#    x 1.826660 0.000000 0.000000 
#    y 0.000000 1.792820 0.000000 
#    z 0.000000 0.000000 1.881110 
# 
# From -- ./inp_files/10047.got.cif
#   From: 2010.05.17/outbox.cif.g08.bks.cpg/sg58_6_cif.got.tgz:10047.got - 2010.06.03 14:20:14.
