data_PCOD9444989
_publ_section_title
;
Structure prediction by ZEFSAII (Michael W. Deem and Ramdas Pophale) SiO2 
 PCOD9444989
Probable space group: P N N M
;
_chemical_formula_sum "Si O2"
_cell_formula_units_Z 58
_cell_length_a 20.139617
_cell_length_b 16.833714
_cell_length_c 7.658023
_cell_angle_alpha 90.000000
_cell_angle_beta 90.000000
_cell_angle_gamma 90.000000
_cell_volume 2596.257822
_symmetry_space_group_name_H-M "P N N M"
_symmetry_group_IT_number 58
_symmetry_cell_setting 'orthorhombic'
loop_
_space_group_symop_operation_xyz
x,y,z
-x,-y,z
1/2+x,1/2-y,1/2-z
1/2-x,1/2+y,1/2-z
-x,-y,-z
x,y,-z
1/2-x,1/2+y,1/2+z
1/2+x,1/2-y,1/2+z
loop_
_atom_site_type_symbol
_atom_site_label
_atom_site_fract_x
_atom_site_fract_y
_atom_site_fract_z
Si Si1 0.558563 0.680680 0.796708
Si Si2 0.000000 0.500000 0.000000
Si Si3 0.589057 0.353644 0.711694
Si Si4 0.134515 0.975591 0.798734
Si Si5 0.773685 0.773945 0.212697
Si Si6 0.273326 0.906562 0.297887
Si Si7 0.093347 0.488531 0.701247
Si Si8 0.365314 0.162492 0.787050
O O1 0.479554 0.681715 0.779411
O O2 0.587364 0.600961 0.711799
O O3 0.592759 0.760992 0.728950
O O4 0.577616 0.674650 0.000000
O O5 0.956923 0.545564 0.156747
O O6 0.585092 0.351610 0.500000
O O7 0.598930 0.445198 0.769282
O O8 0.655011 0.306678 0.767490
O O9 0.204676 0.954110 0.714067
O O10 0.150593 0.992316 0.000000
O O11 0.762414 0.683138 0.268254
O O12 0.710846 0.826161 0.269561
O O13 0.772811 0.775671 0.000000
O O14 0.292330 0.900587 0.500000
O O15 0.334696 0.947940 0.205336
O O16 0.071008 0.486880 0.500000
O O17 0.104725 0.578930 0.768690
O O18 0.366353 0.160600 0.000000
#
# Coordination Sequence:
#
# PCOD9444989 Si02
#       8
#     8   2   8   8   8   8   8   8
#     4  11  22  39  62  91 128 167 214 269 328 391
#     4  12  26  48  64 102 132 172 234 284 336 406
#     4  10  22  39  59  88 124 166 212 259 323 398
#     4  11  22  38  62  91 127 172 216 261 324 399
#     4   9  18  37  64  91 126 168 214 273 331 389
#     4  11  21  39  66  99 130 164 219 278 329 388
#     4  11  24  45  71  96 136 180 224 281 337 400
#     4   9  19  40  66  91 122 172 219 263 332 401
#
# _framework density 22.339846999999999
#
# number of rings (size 3 to 8) (size 9 to 14) (size 15 to 20)
#    0.000    1.655    2.069    2.690    0.000    6.069 
#    4.966    2.759    0.000    0.000    0.000    0.000 
#    0.000    0.000    0.000    0.000    0.000    0.000 
#
# Total GULP energy -323782.388835 kJ/mol
# GULP energy per Si atom -5582.454980 kJ/mol
# Density = 2.228900 g / cm^3
# Si number density = 22.339847 Si / 1000 Ang^3
#
#
#
# Elastic Constant Matrix: (Units=GPa)
#
#
# Indices 1 2 3 4 5 6 
#
# 1 117.8886 0.9263 3.6037 0.0000 0.0000 0.0000
# 2 0.9263 34.3031 0.6865 0.0000 0.0000 0.0000
# 3 3.6037 0.6865 75.9294 0.0000 0.0000 0.0000
# 4 0.0000 0.0000 0.0000 26.1956 0.0000 0.0000
# 5 0.0000 0.0000 0.0000 0.0000 31.6903 0.0000
# 6 0.0000 0.0000 0.0000 0.0000 0.0000 17.0401
#
#
#
# Elastic Compliance Matrix: (Units=1/GPa)
#
#
# Indices 1 2 3 4 5 6 
#
# 1 0.008497 -0.000221 -0.000401 0.000000 0.000000 0.000000
# 2 -0.000221 0.029163 -0.000253 0.000000 0.000000 0.000000
# 3 -0.000401 -0.000253 0.013191 0.000000 0.000000 0.000000
# 4 0.000000 0.000000 0.000000 0.038174 0.000000 0.000000
# 5 0.000000 0.000000 0.000000 0.000000 0.031555 0.000000
# 6 0.000000 0.000000 0.000000 0.000000 0.000000 0.058685
#
#
# Mechanical properties :
#
#
# Convention : Reuss Voigt Hill
#
# Bulk Modulus (GPa) = 20.36687 26.50600 23.43643
# Shear Modulus (GPa) = 25.33135 29.84551 27.58843
#
# Velocity S-wave (km/s) = 3.37101 3.65907 3.51799
# Velocity P-wave (km/s) = 4.92831 5.45365 5.19762
#
# Compressibility (1/GPa) = 0.04909934
#
# Stress axis : x y z
#
# Youngs Moduli (GPa) = 117.69428 34.29014 75.80658
#
# Poissons Ratio (x) = 0.00759 0.03042
# Poissons Ratio (y) = 0.02606 0.01919
# Poissons Ratio (z) = 0.04723 0.00868
#
# Static dielectric constant tensor:
#      x y z
#    x 1.810690 0.000000 0.000000 
#    y 0.000000 1.821290 0.000000 
#    z 0.000000 0.000000 1.976110 
# 
# From -- ./inp_files/8000.got.cif
#   From: 2010.05.17/outbox.cif.g08.bks.cpg/sg58_4_cif.got.tgz:8000.got - 2010.06.03 14:20:14.
