data_PCOD9444546
_publ_section_title
;
Structure prediction by ZEFSAII (Michael W. Deem and Ramdas Pophale) SiO2 
 PCOD9444546
Probable space group: P N N M
;
_chemical_formula_sum "Si O2"
_cell_formula_units_Z 32
_cell_length_a 28.763406
_cell_length_b 5.058484
_cell_length_c 8.328261
_cell_angle_alpha 90.000000
_cell_angle_beta 90.000000
_cell_angle_gamma 90.000000
_cell_volume 1211.755555
_symmetry_space_group_name_H-M "P N N M"
_symmetry_group_IT_number 58
_symmetry_cell_setting 'orthorhombic'
loop_
_space_group_symop_operation_xyz
x,y,z
-x,-y,z
1/2+x,1/2-y,1/2-z
1/2-x,1/2+y,1/2-z
-x,-y,-z
x,y,-z
1/2-x,1/2+y,1/2+z
1/2+x,1/2-y,1/2+z
loop_
_atom_site_type_symbol
_atom_site_label
_atom_site_fract_x
_atom_site_fract_y
_atom_site_fract_z
Si Si1 0.220115 0.577395 0.306498
Si Si2 0.570150 0.926546 0.000000
Si Si3 0.456812 0.300271 0.326235
Si Si4 0.367369 0.584661 0.000000
Si Si5 0.650004 0.545406 0.675517
O O1 0.253345 0.830354 0.269586
O O2 0.214112 0.557536 0.500000
O O3 0.173208 0.670795 0.213389
O O4 0.544039 0.870233 0.834566
O O5 0.612306 0.712728 0.000000
O O6 0.589840 0.218119 0.000000
O O7 0.500000 0.500000 0.319209
O O8 0.458091 0.158954 0.500000
O O9 0.406170 0.441040 0.326701
O O10 0.339626 0.619819 0.163977
O O11 0.665797 0.455781 0.500000
#
# Coordination Sequence:
#
# PCOD9444546 Si02
#       5
#     8   4   8   4   8
#     4  12  26  47  73 105 142 183 237 294 360 432
#     4  10  21  38  62  90 130 172 222 272 330 390
#     4   9  19  38  66  99 137 182 231 283 342 411
#     4  10  22  40  63  94 128 172 218 274 329 402
#     4  10  21  42  67  98 137 178 227 283 346 412
#
# _framework density 26.407965999999998
#
# number of rings (size 3 to 8) (size 9 to 14) (size 15 to 20)
#    0.000    1.750    1.250    2.625    0.000    5.000 
#    0.000   15.000    0.000   13.500    0.000    0.000 
#    0.000    0.000    0.000    0.000    0.000    0.000 
#
# Total GULP energy -179162.844633 kJ/mol
# GULP energy per Si atom -5598.838895 kJ/mol
# Density = 2.634786 g / cm^3
# Si number density = 26.407966 Si / 1000 Ang^3
#
#
#
# Elastic Constant Matrix: (Units=GPa)
#
#
# Indices 1 2 3 4 5 6 
#
# 1 138.0940 25.6498 16.4791 0.0000 0.0000 0.0000
# 2 25.6498 65.3851 38.6007 0.0000 0.0000 0.0000
# 3 16.4791 38.6007 315.5079 0.0000 0.0000 0.0000
# 4 0.0000 0.0000 0.0000 92.5483 0.0000 0.0000
# 5 0.0000 0.0000 0.0000 0.0000 47.3667 0.0000
# 6 0.0000 0.0000 0.0000 0.0000 0.0000 50.3389
#
#
#
# Elastic Compliance Matrix: (Units=1/GPa)
#
#
# Indices 1 2 3 4 5 6 
#
# 1 0.007811 -0.003043 -0.000036 0.000000 0.000000 0.000000
# 2 -0.003043 0.017670 -0.002003 0.000000 0.000000 0.000000
# 3 -0.000036 -0.002003 0.003416 0.000000 0.000000 0.000000
# 4 0.000000 0.000000 0.000000 0.010805 0.000000 0.000000
# 5 0.000000 0.000000 0.000000 0.000000 0.021112 0.000000
# 6 0.000000 0.000000 0.000000 0.000000 0.000000 0.019865
#
#
# Mechanical properties :
#
#
# Convention : Reuss Voigt Hill
#
# Bulk Modulus (GPa) = 53.37828 75.60515 64.49172
# Shear Modulus (GPa) = 51.49968 67.26793 59.38380
#
# Velocity S-wave (km/s) = 4.42085 5.05251 4.74720
# Velocity P-wave (km/s) = 6.80554 7.92016 7.38391
#
# Compressibility (1/GPa) = 0.01873421
#
# Stress axis : x y z
#
# Youngs Moduli (GPa) = 128.02577 56.59247 292.70561
#
# Poissons Ratio (x) = 0.17222 0.01044
# Poissons Ratio (y) = 0.38959 0.58626
# Poissons Ratio (z) = 0.00457 0.11335
#
# Static dielectric constant tensor:
#      x y z
#    x 2.091280 0.000000 0.000000 
#    y 0.000000 2.052740 0.000000 
#    z 0.000000 0.000000 2.092840 
# 
# From -- ./inp_files/1389.got.cif
#   From: 2010.05.17/outbox.cif.g08.bks.cpg/sg58_1_cif.got.tgz:1389.got - 2010.06.03 14:20:14.
