data_PCOD9444597
_publ_section_title
;
Structure prediction by ZEFSAII (Michael W. Deem and Ramdas Pophale) SiO2 
 PCOD9444597
Probable space group: P N N M
;
_chemical_formula_sum "Si O2"
_cell_formula_units_Z 64
_cell_length_a 11.592193
_cell_length_b 9.171799
_cell_length_c 27.400147
_cell_angle_alpha 90.000000
_cell_angle_beta 90.000000
_cell_angle_gamma 90.000000
_cell_volume 2913.218267
_symmetry_space_group_name_H-M "P N N M"
_symmetry_group_IT_number 58
_symmetry_cell_setting 'orthorhombic'
loop_
_space_group_symop_operation_xyz
x,y,z
-x,-y,z
1/2+x,1/2-y,1/2-z
1/2-x,1/2+y,1/2-z
-x,-y,-z
x,y,-z
1/2-x,1/2+y,1/2+z
1/2+x,1/2-y,1/2+z
loop_
_atom_site_type_symbol
_atom_site_label
_atom_site_fract_x
_atom_site_fract_y
_atom_site_fract_z
Si Si1 0.065145 0.274522 0.879440
Si Si2 0.028729 0.166474 0.772477
Si Si3 0.201188 0.831151 0.646642
Si Si4 0.807190 0.287802 0.895992
Si Si5 0.862925 0.025345 0.445326
Si Si6 0.639051 0.481219 0.555775
Si Si7 0.722954 0.405061 0.794689
Si Si8 0.890337 0.404683 0.284354
O O1 0.034100 0.189514 0.830203
O O2 0.164304 0.380378 0.859406
O O3 0.139351 0.169902 0.914794
O O4 0.944315 0.328876 0.901322
O O5 0.144279 0.189809 0.741161
O O6 0.938387 0.274663 0.749148
O O7 0.000000 0.000000 0.765668
O O8 0.177163 0.677162 0.672171
O O9 0.149619 0.845318 0.593328
O O10 0.153349 0.964933 0.678709
O O11 0.717035 0.390496 0.925673
O O12 0.773064 0.307562 0.839040
O O13 0.807306 0.120306 0.915792
O O14 0.823130 0.059824 0.500000
O O15 0.000000 0.000000 0.446752
O O16 0.500000 0.500000 0.553453
O O17 0.682127 0.474172 0.500000
O O18 0.809212 0.480816 0.755713
O O19 0.000000 0.500000 0.300574
#
# Coordination Sequence:
#
# PCOD9444597 Si02
#       8
#     8   8   8   8   8   8   8   8
#     4  11  22  39  61  98 135 172 217 282 351 408
#     4  12  23  40  64  88 134 181 227 267 336 400
#     4  11  25  43  63  93 133 176 223 284 334 409
#     4  10  21  38  67  96 129 169 224 279 340 408
#     4  10  24  46  70  93 125 172 227 280 332 402
#     4   9  19  36  60  92 128 167 216 277 345 412
#     4  11  24  38  61  93 130 177 224 273 338 404
#     4  12  26  40  63  96 135 180 227 281 335 414
#
# _framework density 21.968830000000001
#
# number of rings (size 3 to 8) (size 9 to 14) (size 15 to 20)
#    0.000    1.250    3.750    2.250    3.500    3.500 
#    0.000    0.625    0.000    0.375    0.000    0.000 
#    0.000    0.000    0.000    0.000    0.000    0.000 
#
# Total GULP energy -356790.019885 kJ/mol
# GULP energy per Si atom -5574.844061 kJ/mol
# Density = 2.191883 g / cm^3
# Si number density = 21.968830 Si / 1000 Ang^3
#
#
#
# Elastic Constant Matrix: (Units=GPa)
#
#
# Indices 1 2 3 4 5 6 
#
# 1 66.7121 12.7526 50.7910 0.0000 0.0000 0.0000
# 2 12.7526 72.3826 48.5879 0.0000 0.0000 0.0000
# 3 50.7910 48.5879 140.2636 0.0000 0.0000 0.0000
# 4 0.0000 0.0000 0.0000 20.3498 0.0000 0.0000
# 5 0.0000 0.0000 0.0000 0.0000 31.3746 0.0000
# 6 0.0000 0.0000 0.0000 0.0000 0.0000 33.7581
#
#
#
# Elastic Compliance Matrix: (Units=1/GPa)
#
#
# Indices 1 2 3 4 5 6 
#
# 1 0.020878 0.001820 -0.008190 0.000000 0.000000 0.000000
# 2 0.001820 0.018160 -0.006950 0.000000 0.000000 0.000000
# 3 -0.008190 -0.006950 0.012503 0.000000 0.000000 0.000000
# 4 0.000000 0.000000 0.000000 0.049141 0.000000 0.000000
# 5 0.000000 0.000000 0.000000 0.000000 0.031873 0.000000
# 6 0.000000 0.000000 0.000000 0.000000 0.000000 0.029622
#
#
# Mechanical properties :
#
#
# Convention : Reuss Voigt Hill
#
# Bulk Modulus (GPa) = 40.16141 55.95792 48.05966
# Shear Modulus (GPa) = 25.36571 28.24497 26.80534
#
# Velocity S-wave (km/s) = 3.40166 3.58953 3.49686
# Velocity P-wave (km/s) = 5.80940 6.53502 6.18286
#
# Compressibility (1/GPa) = 0.02489953
#
# Stress axis : x y z
#
# Youngs Moduli (GPa) = 47.89820 55.06641 79.98341
#
# Poissons Ratio (x) = -0.10020 0.65509
# Poissons Ratio (y) = -0.08716 0.55585
# Poissons Ratio (z) = 0.39230 0.38269
#
# Static dielectric constant tensor:
#      x y z
#    x 1.914870 0.000000 0.000000 
#    y 0.000000 1.871520 0.000000 
#    z 0.000000 0.000000 1.807500 
# 
# From -- ./inp_files/34940.got.cif
#   From: 2010.05.17/outbox.cif.g08.bks.cpg/sg58_18_cif.got.tgz:34940.got - 2010.06.03 14:20:14.
