data_PCOD9444499
_publ_section_title
;
Structure prediction by ZEFSAII (Michael W. Deem and Ramdas Pophale) SiO2 
 PCOD9444499
Probable space group: P N N M
;
_chemical_formula_sum "Si O2"
_cell_formula_units_Z 32
_cell_length_a 5.035588
_cell_length_b 11.841372
_cell_length_c 26.773097
_cell_angle_alpha 90.000000
_cell_angle_beta 90.000000
_cell_angle_gamma 90.000000
_cell_volume 1596.433477
_symmetry_space_group_name_H-M "P N N M"
_symmetry_group_IT_number 58
_symmetry_cell_setting 'orthorhombic'
loop_
_space_group_symop_operation_xyz
x,y,z
-x,-y,z
1/2+x,1/2-y,1/2-z
1/2-x,1/2+y,1/2-z
-x,-y,-z
x,y,-z
1/2-x,1/2+y,1/2+z
1/2+x,1/2-y,1/2+z
loop_
_atom_site_type_symbol
_atom_site_label
_atom_site_fract_x
_atom_site_fract_y
_atom_site_fract_z
Si Si1 0.724362 0.735093 0.361261
Si Si2 0.757313 0.921947 0.556973
Si Si3 0.214239 0.602039 0.660248
Si Si4 0.252235 0.078421 0.720876
O O1 0.689472 0.817009 0.408016
O O2 0.511570 0.631310 0.359884
O O3 0.704553 0.808477 0.310622
O O4 0.032449 0.701209 0.360981
O O5 0.824384 0.886696 0.500000
O O6 0.500000 0.000000 0.555516
O O7 0.000000 0.000000 0.575991
O O8 0.251588 0.603850 0.720032
O O9 0.000000 0.500000 0.651092
O O10 0.500000 0.000000 0.709918
O O11 0.000000 0.000000 0.708466
#
# Coordination Sequence:
#
# PCOD9444499 Si02
#       4
#     8   8   8   8
#     4  12  21  36  59  81 109 150 191 226 280 340
#     4  10  21  38  60  88 116 139 174 231 295 351
#     4  11  23  37  53  78 114 153 193 232 269 321
#     4  11  21  35  54  82 115 144 183 231 281 335
#
# _framework density 20.044681000000001
#
# number of rings (size 3 to 8) (size 9 to 14) (size 15 to 20)
#    0.000    1.000    0.000    9.750    0.000    0.000 
#    0.000    0.000    0.000    4.500    0.000    0.000 
#    0.000    0.000    0.000    0.000    0.000    0.000 
#
# Total GULP energy -178399.079917 kJ/mol
# GULP energy per Si atom -5574.971247 kJ/mol
# Density = 1.999906 g / cm^3
# Si number density = 20.044681 Si / 1000 Ang^3
#
#
#
# Elastic Constant Matrix: (Units=GPa)
#
#
# Indices 1 2 3 4 5 6 
#
# 1 153.6724 22.1207 19.0881 0.0000 0.0000 0.0000
# 2 22.1207 52.5005 30.8920 0.0000 0.0000 0.0000
# 3 19.0881 30.8920 33.8702 0.0000 0.0000 0.0000
# 4 0.0000 0.0000 0.0000 85.7806 0.0000 0.0000
# 5 0.0000 0.0000 0.0000 0.0000 0.7517 0.0000
# 6 0.0000 0.0000 0.0000 0.0000 0.0000 43.9177
#
#
#
# Elastic Compliance Matrix: (Units=1/GPa)
#
#
# Indices 1 2 3 4 5 6 
#
# 1 0.007042 -0.001364 -0.002725 0.000000 0.000000 0.000000
# 2 -0.001364 0.041374 -0.036968 0.000000 0.000000 0.000000
# 3 -0.002725 -0.036968 0.064777 0.000000 0.000000 0.000000
# 4 0.000000 0.000000 0.000000 0.011658 0.000000 0.000000
# 5 0.000000 0.000000 0.000000 0.000000 1.330284 0.000000
# 6 0.000000 0.000000 0.000000 0.000000 0.000000 0.022770
#
#
# Mechanical properties :
#
#
# Convention : Reuss Voigt Hill
#
# Bulk Modulus (GPa) = 32.17400 42.69388 37.43394
# Shear Modulus (GPa) = 3.18395 37.28616 20.23505
#
# Velocity S-wave (km/s) = 1.26169 4.31763 3.18071
# Velocity P-wave (km/s) = 4.26714 6.79717 5.67494
#
# Compressibility (1/GPa) = 0.03108100
#
# Stress axis : x y z
#
# Youngs Moduli (GPa) = 142.00256 24.16955 15.43754
#
# Poissons Ratio (x) = 0.03296 0.04206
# Poissons Ratio (y) = 0.19367 0.57069
# Poissons Ratio (z) = 0.38693 0.89349
#
# Static dielectric constant tensor:
#      x y z
#    x 1.697360 0.000000 0.000000 
#    y 0.000000 1.527940 0.000000 
#    z 0.000000 0.000000 1.717450 
# 
# From -- ./inp_files/32633.got.cif
#   From: 2010.05.17/outbox.cif.g08.bks.cpg/sg58_17_cif.got.tgz:32633.got - 2010.06.03 14:20:14.
