data_PCOD9444603
_publ_section_title
;
Structure prediction by ZEFSAII (Michael W. Deem and Ramdas Pophale) SiO2 
 PCOD9444603
Probable space group: P N N M
;
_chemical_formula_sum "Si O2"
_cell_formula_units_Z 48
_cell_length_a 7.303199
_cell_length_b 31.530930
_cell_length_c 9.240513
_cell_angle_alpha 90.000000
_cell_angle_beta 90.000000
_cell_angle_gamma 90.000000
_cell_volume 2127.874437
_symmetry_space_group_name_H-M "P N N M"
_symmetry_group_IT_number 58
_symmetry_cell_setting 'orthorhombic'
loop_
_space_group_symop_operation_xyz
x,y,z
-x,-y,z
1/2+x,1/2-y,1/2-z
1/2-x,1/2+y,1/2-z
-x,-y,-z
x,y,-z
1/2-x,1/2+y,1/2+z
1/2+x,1/2-y,1/2+z
loop_
_atom_site_type_symbol
_atom_site_label
_atom_site_fract_x
_atom_site_fract_y
_atom_site_fract_z
Si Si1 0.862820 0.737319 0.156397
Si Si2 0.958688 0.916568 0.168908
Si Si3 0.063592 0.606315 0.743239
Si Si4 0.249283 0.191519 0.346424
Si Si5 0.279463 0.339118 0.342229
Si Si6 0.464623 0.549744 0.000000
Si Si7 0.533414 0.950010 0.500000
O O1 0.863815 0.783014 0.229853
O O2 0.760878 0.698265 0.232163
O O3 0.069019 0.720519 0.147918
O O4 0.778756 0.743473 0.000000
O O5 0.735895 0.916578 0.167064
O O6 0.016513 0.935473 0.331065
O O7 0.046789 0.869602 0.178639
O O8 0.012978 0.931446 0.000000
O O9 0.171431 0.645115 0.819096
O O10 0.897844 0.629255 0.661206
O O11 0.969370 0.574275 0.856820
O O12 0.151470 0.191418 0.500000
O O13 0.290427 0.319002 0.500000
O O14 0.500000 0.500000 0.000000
O O15 0.249396 0.558119 0.000000
O O16 0.500000 0.000000 0.500000
#
# Coordination Sequence:
#
# PCOD9444603 Si02
#       7
#     8   8   8   8   8   4   4
#     4  10  23  37  56  88 118 162 211 260 311 379
#     4  10  23  41  65  97 129 166 216 267 321 397
#     4  10  21  40  65  91 127 169 211 269 331 387
#     4  10  21  39  58  83 125 162 207 263 322 379
#     4  10  22  39  63  91 123 168 213 259 327 380
#     4  10  24  42  66 102 128 170 216 259 347 402
#     4  10  22  40  68 100 128 168 220 271 339 400
#
# _framework density 22.557721000000001
#
# number of rings (size 3 to 8) (size 9 to 14) (size 15 to 20)
#    0.000    2.000    0.833    1.000    7.000    4.333 
#    0.000    0.000    0.000    2.500    0.000    0.000 
#    0.000    0.000    0.000    0.000    0.000    0.000 
#
# Total GULP energy -267213.972406 kJ/mol
# GULP energy per Si atom -5566.957758 kJ/mol
# Density = 2.250638 g / cm^3
# Si number density = 22.557721 Si / 1000 Ang^3
#
#
#
# Elastic Constant Matrix: (Units=GPa)
#
#
# Indices 1 2 3 4 5 6 
#
# 1 71.9187 -5.5556 -1.5150 0.0000 0.0000 0.0000
# 2 -5.5556 110.6548 60.9958 0.0000 0.0000 0.0000
# 3 -1.5150 60.9958 163.4731 0.0000 0.0000 0.0000
# 4 0.0000 0.0000 0.0000 139.2324 0.0000 0.0000
# 5 0.0000 0.0000 0.0000 0.0000 11.3506 0.0000
# 6 0.0000 0.0000 0.0000 0.0000 0.0000 28.5720
#
#
#
# Elastic Compliance Matrix: (Units=1/GPa)
#
#
# Indices 1 2 3 4 5 6 
#
# 1 0.013962 0.000793 -0.000166 0.000000 0.000000 0.000000
# 2 0.000793 0.011422 -0.004255 0.000000 0.000000 0.000000
# 3 -0.000166 -0.004255 0.007703 0.000000 0.000000 0.000000
# 4 0.000000 0.000000 0.000000 0.007182 0.000000 0.000000
# 5 0.000000 0.000000 0.000000 0.000000 0.088101 0.000000
# 6 0.000000 0.000000 0.000000 0.000000 0.000000 0.034999
#
#
# Mechanical properties :
#
#
# Convention : Reuss Voigt Hill
#
# Bulk Modulus (GPa) = 38.71290 50.43302 44.57296
# Shear Modulus (GPa) = 27.89604 55.30576 41.60090
#
# Velocity S-wave (km/s) = 3.52042 4.95688 4.29907
# Velocity P-wave (km/s) = 5.80719 7.42743 6.66672
#
# Compressibility (1/GPa) = 0.02583118
#
# Stress axis : x y z
#
# Youngs Moduli (GPa) = 71.62132 87.54950 129.81725
#
# Poissons Ratio (x) = -0.06940 0.02160
# Poissons Ratio (y) = -0.05678 0.55231
# Poissons Ratio (z) = 0.01192 0.37248
#
# Static dielectric constant tensor:
#      x y z
#    x 2.040750 0.000000 0.000000 
#    y 0.000000 1.848010 0.000000 
#    z 0.000000 0.000000 2.192750 
# 
# From -- ./inp_files/3092.got.cif
#   From: 2010.05.17/outbox.cif.g08.bks.cpg/sg58_2_cif.got.tgz:3092.got - 2010.06.03 14:20:14.
