data_PCOD9444212
_publ_section_title
;
Structure prediction by ZEFSAII (Michael W. Deem and Ramdas Pophale) SiO2 
 PCOD9444212
Probable space group: P N N M
;
_chemical_formula_sum "Si O2"
_cell_formula_units_Z 48
_cell_length_a 15.386213
_cell_length_b 10.972280
_cell_length_c 14.021292
_cell_angle_alpha 90.000000
_cell_angle_beta 90.000000
_cell_angle_gamma 90.000000
_cell_volume 2367.100275
_symmetry_space_group_name_H-M "P N N M"
_symmetry_group_IT_number 58
_symmetry_cell_setting 'orthorhombic'
loop_
_space_group_symop_operation_xyz
x,y,z
-x,-y,z
1/2+x,1/2-y,1/2-z
1/2-x,1/2+y,1/2-z
-x,-y,-z
x,y,-z
1/2-x,1/2+y,1/2+z
1/2+x,1/2-y,1/2+z
loop_
_atom_site_type_symbol
_atom_site_label
_atom_site_fract_x
_atom_site_fract_y
_atom_site_fract_z
Si Si1 0.061875 0.388114 0.681166
Si Si2 0.230386 0.513400 0.614145
Si Si3 0.581691 0.429823 0.646018
Si Si4 0.808409 0.208292 0.386126
Si Si5 0.613483 0.154531 0.393828
Si Si6 0.993899 0.130159 0.346109
O O1 0.160212 0.420261 0.653710
O O2 0.061681 0.380334 0.797720
O O3 0.030756 0.264281 0.628612
O O4 0.000000 0.500000 0.652224
O O5 0.227143 0.511124 0.500000
O O6 0.329941 0.494001 0.643639
O O7 0.205018 0.651343 0.644875
O O8 0.500000 0.500000 0.603214
O O9 0.601892 0.300456 0.599283
O O10 0.550292 0.396815 0.751956
O O11 0.828181 0.208012 0.500000
O O12 0.716978 0.138211 0.375268
O O13 0.891404 0.153700 0.333650
O O14 0.591919 0.103554 0.500000
O O15 0.000000 0.000000 0.399627
#
# Coordination Sequence:
#
# PCOD9444212 Si02
#       6
#     8   8   8   8   8   8
#     4  11  22  38  61  92 118 157 205 253 299 353
#     4  10  21  37  61  90 121 161 207 253 301 358
#     4   9  19  35  60  88 119 160 204 250 296 361
#     4   9  18  36  60  84 119 162 203 244 303 369
#     4   9  20  36  57  87 122 163 201 242 302 371
#     4  10  21  36  57  91 120 158 196 250 303 362
#
# _framework density 20.277974
#
# number of rings (size 3 to 8) (size 9 to 14) (size 15 to 20)
#    0.000    2.333    1.667    1.500    4.667    3.000 
#    0.000    0.000    0.000    0.000    0.000    0.000 
#    0.000    0.000    0.000    0.000    0.000    0.000 
#
# Total GULP energy -267242.189556 kJ/mol
# GULP energy per Si atom -5567.545616 kJ/mol
# Density = 2.023182 g / cm^3
# Si number density = 20.277974 Si / 1000 Ang^3
#
#
#
# Elastic Constant Matrix: (Units=GPa)
#
#
# Indices 1 2 3 4 5 6 
#
# 1 130.5620 54.2318 16.5677 0.0000 0.0000 0.0000
# 2 54.2318 107.8972 12.2340 0.0000 0.0000 0.0000
# 3 16.5677 12.2340 65.4466 0.0000 0.0000 0.0000
# 4 0.0000 0.0000 0.0000 1.5972 0.0000 0.0000
# 5 0.0000 0.0000 0.0000 0.0000 125.4693 0.0000
# 6 0.0000 0.0000 0.0000 0.0000 0.0000 31.9435
#
#
#
# Elastic Compliance Matrix: (Units=1/GPa)
#
#
# Indices 1 2 3 4 5 6 
#
# 1 0.009842 -0.004765 -0.001601 0.000000 0.000000 0.000000
# 2 -0.004765 0.011776 -0.000995 0.000000 0.000000 0.000000
# 3 -0.001601 -0.000995 0.015871 0.000000 0.000000 0.000000
# 4 0.000000 0.000000 0.000000 0.626103 0.000000 0.000000
# 5 0.000000 0.000000 0.000000 0.000000 0.007970 0.000000
# 6 0.000000 0.000000 0.000000 0.000000 0.000000 0.031305
#
#
# Mechanical properties :
#
#
# Convention : Reuss Voigt Hill
#
# Bulk Modulus (GPa) = 43.92354 52.21921 48.07137
# Shear Modulus (GPa) = 6.89486 46.52682 26.71084
#
# Velocity S-wave (km/s) = 1.84596 4.79524 3.63331
# Velocity P-wave (km/s) = 5.12359 7.51443 6.43109
#
# Compressibility (1/GPa) = 0.02276683
#
# Stress axis : x y z
#
# Youngs Moduli (GPa) = 101.60927 84.91860 63.00870
#
# Poissons Ratio (x) = 0.40465 0.10085
# Poissons Ratio (y) = 0.48418 0.06269
# Poissons Ratio (z) = 0.16264 0.08449
#
# Static dielectric constant tensor:
#      x y z
#    x 1.713450 0.000000 0.000000 
#    y 0.000000 1.761750 0.000000 
#    z 0.000000 0.000000 1.742120 
# 
# From -- ./inp_files/22090.got.cif
#   From: 2010.05.17/outbox.cif.g08.bks.cpg/sg58_12_cif.got.tgz:22090.got - 2010.06.03 14:20:14.
