data_PCOD9444435
_publ_section_title
;
Structure prediction by ZEFSAII (Michael W. Deem and Ramdas Pophale) SiO2 
 PCOD9444435
Probable space group: P N N M
;
_chemical_formula_sum "Si O2"
_cell_formula_units_Z 60
_cell_length_a 12.298596
_cell_length_b 10.738262
_cell_length_c 20.394363
_cell_angle_alpha 90.000000
_cell_angle_beta 90.000000
_cell_angle_gamma 90.000000
_cell_volume 2693.392687
_symmetry_space_group_name_H-M "P N N M"
_symmetry_group_IT_number 58
_symmetry_cell_setting 'orthorhombic'
loop_
_space_group_symop_operation_xyz
x,y,z
-x,-y,z
1/2+x,1/2-y,1/2-z
1/2-x,1/2+y,1/2-z
-x,-y,-z
x,y,-z
1/2-x,1/2+y,1/2+z
1/2+x,1/2-y,1/2+z
loop_
_atom_site_type_symbol
_atom_site_label
_atom_site_fract_x
_atom_site_fract_y
_atom_site_fract_z
Si Si1 0.727307 0.889254 0.000000
Si Si2 0.385737 0.065010 0.245542
Si Si3 0.122341 0.987521 0.612219
Si Si4 0.916949 0.292817 0.388114
Si Si5 0.080252 0.117336 0.891554
Si Si6 0.331792 0.750770 0.074582
Si Si7 0.342925 0.491528 0.264773
Si Si8 0.882511 0.234443 0.149856
O O1 0.632337 0.882843 0.057509
O O2 0.823037 0.881239 0.057249
O O3 0.391809 0.156829 0.183745
O O4 0.362573 0.139097 0.312020
O O5 0.500000 0.000000 0.250546
O O6 0.286198 0.972060 0.235397
O O7 0.143816 0.841295 0.601846
O O8 0.123304 0.015285 0.690251
O O9 0.184726 0.100346 0.578030
O O10 0.000000 0.000000 0.586565
O O11 0.048301 0.277159 0.395726
O O12 0.994433 0.231084 0.890669
O O13 0.129903 0.097099 0.818384
O O14 0.000000 0.000000 0.905501
O O15 0.225237 0.804167 0.110117
O O16 0.331991 0.795986 0.000000
O O17 0.398115 0.369045 0.293545
#
# Coordination Sequence:
#
# PCOD9444435 Si02
#       8
#     4   8   8   8   8   8   8   8
#     4  12  23  44  66  97 132 177 232 263 335 400
#     4  12  25  41  65 102 138 166 216 281 346 382
#     4  10  21  37  68  92 123 167 223 272 319 390
#     4  11  24  43  67  98 132 176 217 280 330 395
#     4  10  24  42  69  95 128 181 231 272 324 408
#     4  11  24  42  65  96 136 178 222 268 333 402
#     4  11  21  43  65  97 124 170 224 273 326 390
#     4  11  24  43  68  96 135 175 219 277 335 396
#
# _framework density 22.276734999999999
#
# number of rings (size 3 to 8) (size 9 to 14) (size 15 to 20)
#    0.000    1.067    4.667    2.200    3.733    2.933 
#    1.200    0.333    0.000    1.200    0.000    0.000 
#    0.000    0.000    0.000    0.000    0.000    0.000 
#
# Total GULP energy -334083.638367 kJ/mol
# GULP energy per Si atom -5568.060639 kJ/mol
# Density = 2.222603 g / cm^3
# Si number density = 22.276735 Si / 1000 Ang^3
#
#
#
# Elastic Constant Matrix: (Units=GPa)
#
#
# Indices 1 2 3 4 5 6 
#
# 1 128.1431 -5.6040 19.9122 0.0000 0.0000 0.0000
# 2 -5.6040 3.6080 -3.8527 0.0000 0.0000 0.0000
# 3 19.9122 -3.8527 71.6136 0.0000 0.0000 0.0000
# 4 0.0000 0.0000 0.0000 10.6543 0.0000 0.0000
# 5 0.0000 0.0000 0.0000 0.0000 44.5910 0.0000
# 6 0.0000 0.0000 0.0000 0.0000 0.0000 -469.6911
#
#
#
# Elastic Compliance Matrix: (Units=1/GPa)
#
#
# Indices 1 2 3 4 5 6 
#
# 1 0.008579 0.011435 -0.001770 0.000000 0.000000 0.000000
# 2 0.011435 0.309297 0.013460 0.000000 0.000000 0.000000
# 3 -0.001770 0.013460 0.015180 0.000000 0.000000 0.000000
# 4 0.000000 0.000000 0.000000 0.093859 0.000000 0.000000
# 5 0.000000 0.000000 0.000000 0.000000 0.022426 0.000000
# 6 0.000000 0.000000 0.000000 0.000000 0.000000 -0.002129
#
#
# Mechanical properties :
#
#
# Convention : Reuss Voigt Hill
#
# Bulk Modulus (GPa) = 2.63640 24.91953 13.77796
# Shear Modulus (GPa) = 9.48051 -70.02854 -30.27401
#
# Velocity S-wave (km/s) = 2.06519 -5.61284 -3.69046
# Velocity P-wave (km/s) = 2.62159 5.54929 3.45846
#
# Compressibility (1/GPa) = 0.37930551
#
# Stress axis : x y z
#
# Youngs Moduli (GPa) = 116.56471 3.23314 65.87546
#
# Poissons Ratio (x) = -0.03697 0.11661
# Poissons Ratio (y) = -1.33290 -0.88669
# Poissons Ratio (z) = 0.20634 -0.04352
#
# Static dielectric constant tensor:
#      x y z
#    x 1.823450 0.000000 0.000000 
#    y 0.000000 1.902320 0.000000 
#    z 0.000000 0.000000 1.796980 
# 
# From -- ./inp_files/29673.got.cif
#   From: 2010.05.17/outbox.cif.g08.bks.cpg/sg58_15_cif.got.tgz:29673.got - 2010.06.03 14:20:14.
