data_PCOD9444236
_publ_section_title
;
Structure prediction by ZEFSAII (Michael W. Deem and Ramdas Pophale) SiO2 
 PCOD9444236
Probable space group: P N N M
;
_chemical_formula_sum "Si O2"
_cell_formula_units_Z 64
_cell_length_a 11.409124
_cell_length_b 33.200772
_cell_length_c 8.216237
_cell_angle_alpha 90.000000
_cell_angle_beta 90.000000
_cell_angle_gamma 90.000000
_cell_volume 3112.242583
_symmetry_space_group_name_H-M "P N N M"
_symmetry_group_IT_number 58
_symmetry_cell_setting 'orthorhombic'
loop_
_space_group_symop_operation_xyz
x,y,z
-x,-y,z
1/2+x,1/2-y,1/2-z
1/2-x,1/2+y,1/2-z
-x,-y,-z
x,y,-z
1/2-x,1/2+y,1/2+z
1/2+x,1/2-y,1/2+z
loop_
_atom_site_type_symbol
_atom_site_label
_atom_site_fract_x
_atom_site_fract_y
_atom_site_fract_z
Si Si1 0.710549 0.275657 0.303859
Si Si2 0.510395 0.335897 0.688623
Si Si3 0.764096 0.186695 0.310057
Si Si4 0.631495 0.491974 0.311758
Si Si5 0.115738 0.474574 0.698778
Si Si6 0.136300 0.654466 0.190966
Si Si7 0.598598 0.118640 0.811529
Si Si8 0.145511 0.094554 0.686695
O O1 0.713079 0.277044 0.500000
O O2 0.597437 0.301015 0.248997
O O3 0.707995 0.229094 0.255887
O O4 0.821209 0.300919 0.238745
O O5 0.538698 0.343820 0.500000
O O6 0.380029 0.321023 0.708486
O O7 0.533638 0.377174 0.783575
O O8 0.795618 0.190673 0.500000
O O9 0.680837 0.148656 0.287115
O O10 0.500000 0.500000 0.240320
O O11 0.625527 0.505712 0.500000
O O12 0.754501 0.510458 0.245037
O O13 0.647570 0.444075 0.299503
O O14 0.116295 0.477388 0.500000
O O15 0.100240 0.427734 0.743864
O O16 0.000000 0.500000 0.752598
O O17 0.245685 0.624391 0.217000
O O18 0.030148 0.637253 0.293871
O O19 0.105459 0.653793 0.000000
O O20 0.636120 0.119116 0.000000
O O21 0.150164 0.080815 0.500000
#
# Coordination Sequence:
#
# PCOD9444236 Si02
#       8
#     8   8   8   8   8   8   8   8
#     4   9  21  40  61  86 116 155 201 245 293 354
#     4  10  21  39  62  86 115 156 203 246 291 355
#     4  11  24  40  58  87 124 158 195 247 306 356
#     4  10  21  36  59  88 117 154 200 252 302 360
#     4   9  19  37  60  87 119 155 199 249 301 361
#     4  10  21  38  61  88 120 155 197 248 297 350
#     4  11  23  38  61  90 121 159 202 244 300 365
#     4  10  21  38  60  88 119 155 195 243 304 361
#
# _framework density 20.563950999999999
#
# number of rings (size 3 to 8) (size 9 to 14) (size 15 to 20)
#    0.000    2.000    0.000    2.625    3.500    4.250 
#    0.000    1.250    0.000    3.375    0.000    0.000 
#    0.000    0.000    0.000    0.000    0.000    0.000 
#
# Total GULP energy -357166.498792 kJ/mol
# GULP energy per Si atom -5580.726544 kJ/mol
# Density = 2.051715 g / cm^3
# Si number density = 20.563951 Si / 1000 Ang^3
#
#
#
# Elastic Constant Matrix: (Units=GPa)
#
#
# Indices 1 2 3 4 5 6 
#
# 1 98.3780 44.4890 6.9501 0.0000 0.0000 0.0000
# 2 44.4890 127.9428 7.1444 0.0000 0.0000 0.0000
# 3 6.9501 7.1444 8.4430 0.0000 0.0000 0.0000
# 4 0.0000 0.0000 0.0000 21.0085 0.0000 0.0000
# 5 0.0000 0.0000 0.0000 0.0000 2.3338 0.0000
# 6 0.0000 0.0000 0.0000 0.0000 0.0000 20.4055
#
#
#
# Elastic Compliance Matrix: (Units=1/GPa)
#
#
# Indices 1 2 3 4 5 6 
#
# 1 0.012433 -0.003938 -0.006903 0.000000 0.000000 0.000000
# 2 -0.003938 0.009451 -0.004756 0.000000 0.000000 0.000000
# 3 -0.006903 -0.004756 0.128148 0.000000 0.000000 0.000000
# 4 0.000000 0.000000 0.000000 0.047600 0.000000 0.000000
# 5 0.000000 0.000000 0.000000 0.000000 0.428495 0.000000
# 6 0.000000 0.000000 0.000000 0.000000 0.000000 0.049007
#
#
# Mechanical properties :
#
#
# Convention : Reuss Voigt Hill
#
# Bulk Modulus (GPa) = 8.41468 39.10341 23.75905
# Shear Modulus (GPa) = 6.70296 20.49490 13.59893
#
# Velocity S-wave (km/s) = 1.80739 3.16039 2.57436
# Velocity P-wave (km/s) = 2.90798 5.68983 4.51833
#
# Compressibility (1/GPa) = 0.11883987
#
# Stress axis : x y z
#
# Youngs Moduli (GPa) = 80.42876 105.81028 7.80348
#
# Poissons Ratio (x) = 0.41668 0.05386
# Poissons Ratio (y) = 0.31672 0.03711
# Poissons Ratio (z) = 0.55517 0.50320
#
# Static dielectric constant tensor:
#      x y z
#    x 1.754170 0.000000 0.000000 
#    y 0.000000 1.707710 0.000000 
#    z 0.000000 0.000000 1.738420 
# 
# From -- ./inp_files/4830.got.cif
#   From: 2010.05.17/outbox.cif.g08.bks.cpg/sg58_3_cif.got.tgz:4830.got - 2010.06.03 14:20:14.
