data_PCOD9444501
_publ_section_title
;
Structure prediction by ZEFSAII (Michael W. Deem and Ramdas Pophale) SiO2 
 PCOD9444501
Probable space group: P N N M
;
_chemical_formula_sum "Si O2"
_cell_formula_units_Z 32
_cell_length_a 11.660900
_cell_length_b 11.263468
_cell_length_c 11.458672
_cell_angle_alpha 90.000000
_cell_angle_beta 90.000000
_cell_angle_gamma 90.000000
_cell_volume 1505.006892
_symmetry_space_group_name_H-M "P N N M"
_symmetry_group_IT_number 58
_symmetry_cell_setting 'orthorhombic'
loop_
_space_group_symop_operation_xyz
x,y,z
-x,-y,z
1/2+x,1/2-y,1/2-z
1/2-x,1/2+y,1/2-z
-x,-y,-z
x,y,-z
1/2-x,1/2+y,1/2+z
1/2+x,1/2-y,1/2+z
loop_
_atom_site_type_symbol
_atom_site_label
_atom_site_fract_x
_atom_site_fract_y
_atom_site_fract_z
Si Si1 0.345504 0.949735 0.636221
Si Si2 0.417878 0.386335 0.177285
Si Si3 0.657270 0.776877 0.370968
Si Si4 0.588174 0.182126 0.126952
O O1 0.384297 0.931531 0.500000
O O2 0.210011 0.916042 0.634329
O O3 0.403660 0.882636 0.746652
O O4 0.357349 0.088187 0.669424
O O5 0.500000 0.500000 0.168510
O O6 0.397179 0.334248 0.305735
O O7 0.482719 0.273329 0.123125
O O8 0.610656 0.774242 0.500000
O O9 0.793707 0.756143 0.372098
O O10 0.588874 0.115561 0.000000
#
# Coordination Sequence:
#
# PCOD9444501 Si02
#       4
#     8   8   8   8
#     4  10  21  40  64  89 120 159 204 250 300 358
#     4  11  21  36  64  93 117 158 208 249 296 359
#     4   9  20  38  59  87 124 160 197 250 305 357
#     4  10  21  38  60  89 123 157 199 252 304 353
#
# _framework density 21.262360999999999
#
# number of rings (size 3 to 8) (size 9 to 14) (size 15 to 20)
#    0.000    2.000    2.500    0.750    0.000    3.500 
#    0.000   10.000    0.000    0.000    0.000    0.000 
#    0.000    0.000    0.000    0.000    0.000    0.000 
#
# Total GULP energy -178152.965801 kJ/mol
# GULP energy per Si atom -5567.280181 kJ/mol
# Density = 2.121397 g / cm^3
# Si number density = 21.262361 Si / 1000 Ang^3
#
#
#
# Elastic Constant Matrix: (Units=GPa)
#
#
# Indices 1 2 3 4 5 6 
#
# 1 106.6575 10.2730 47.0127 0.0000 0.0000 0.0000
# 2 10.2730 70.6919 69.3077 0.0000 0.0000 0.0000
# 3 47.0127 69.3077 118.7593 0.0000 0.0000 0.0000
# 4 0.0000 0.0000 0.0000 18.9065 0.0000 0.0000
# 5 0.0000 0.0000 0.0000 0.0000 -26.4570 0.0000
# 6 0.0000 0.0000 0.0000 0.0000 0.0000 19.6620
#
#
#
# Elastic Compliance Matrix: (Units=1/GPa)
#
#
# Indices 1 2 3 4 5 6 
#
# 1 0.012770 0.007247 -0.009285 0.000000 0.000000 0.000000
# 2 0.007247 0.037177 -0.024565 0.000000 0.000000 0.000000
# 3 -0.009285 -0.024565 0.026432 0.000000 0.000000 0.000000
# 4 0.000000 0.000000 0.000000 0.052892 0.000000 0.000000
# 5 0.000000 0.000000 0.000000 0.000000 -0.037797 0.000000
# 6 0.000000 0.000000 0.000000 0.000000 0.000000 0.050859
#
#
# Mechanical properties :
#
#
# Convention : Reuss Voigt Hill
#
# Bulk Modulus (GPa) = 43.15236 61.03284 52.09260
# Shear Modulus (GPa) = 24.59849 13.72333 19.16091
#
# Velocity S-wave (km/s) = 3.40502 2.54328 3.00520
# Velocity P-wave (km/s) = 5.98315 6.11485 6.04936
#
# Compressibility (1/GPa) = 0.02317371
#
# Stress axis : x y z
#
# Youngs Moduli (GPa) = 78.30643 26.89826 37.83259
#
# Poissons Ratio (x) = -0.19494 0.35127
# Poissons Ratio (y) = -0.56750 0.92937
# Poissons Ratio (z) = 0.72706 0.66077
#
# Static dielectric constant tensor:
#      x y z
#    x 1.799340 0.000000 0.000000 
#    y 0.000000 1.730640 0.000000 
#    z 0.000000 0.000000 1.968710 
# 
# From -- ./inp_files/12352.got.cif
#   From: 2010.05.17/outbox.cif.g08.bks.cpg/sg58_7_cif.got.tgz:12352.got - 2010.06.03 14:20:14.
