data_PCOD9444671
_publ_section_title
;
Structure prediction by ZEFSAII (Michael W. Deem and Ramdas Pophale) SiO2 
 PCOD9444671
Probable space group: P N N M
;
_chemical_formula_sum "Si O2"
_cell_formula_units_Z 36
_cell_length_a 12.584930
_cell_length_b 5.102328
_cell_length_c 22.526341
_cell_angle_alpha 90.000000
_cell_angle_beta 90.000000
_cell_angle_gamma 90.000000
_cell_volume 1446.471336
_symmetry_space_group_name_H-M "P N N M"
_symmetry_group_IT_number 58
_symmetry_cell_setting 'orthorhombic'
loop_
_space_group_symop_operation_xyz
x,y,z
-x,-y,z
1/2+x,1/2-y,1/2-z
1/2-x,1/2+y,1/2-z
-x,-y,-z
x,y,-z
1/2-x,1/2+y,1/2+z
1/2+x,1/2-y,1/2+z
loop_
_atom_site_type_symbol
_atom_site_label
_atom_site_fract_x
_atom_site_fract_y
_atom_site_fract_z
Si Si1 0.881259 0.954826 0.069376
Si Si2 0.770480 0.920108 0.785491
Si Si3 0.739428 0.478409 0.930777
Si Si4 0.000000 0.000000 0.245073
Si Si5 0.415978 0.818873 0.146057
O O1 0.813035 0.712153 0.093936
O O2 0.813186 0.219756 0.070704
O O3 0.895162 0.879514 0.000000
O O4 0.000000 0.000000 0.091796
O O5 0.740178 0.113433 0.729607
O O6 0.684238 0.013382 0.832203
O O7 0.892709 0.007638 0.793229
O O8 0.634659 0.413407 0.892601
O O9 0.711372 0.530601 0.000000
O O10 0.025936 0.225152 0.293507
O O11 0.500000 0.000000 0.112229
#
# Coordination Sequence:
#
# PCOD9444671 Si02
#       5
#     8   8   8   4   8
#     4   9  18  37  63  86 121 171 217 269 319 362
#     4  10  21  39  64  92 116 156 215 266 324 386
#     4  10  22  37  60  95 132 169 219 263 315 400
#     4  10  22  42  67  90 123 162 214 282 330 384
#     4  11  23  40  65  93 129 178 211 266 336 400
#
# _framework density 24.88815
#
# number of rings (size 3 to 8) (size 9 to 14) (size 15 to 20)
#    0.000    2.000    2.222    0.667    3.111    3.111 
#    2.000    0.556   19.556    0.000    0.000    0.000 
#    0.000    0.000    0.000    0.000    0.000    0.000 
#
# Total GULP energy -201248.855024 kJ/mol
# GULP energy per Si atom -5590.245973 kJ/mol
# Density = 2.483150 g / cm^3
# Si number density = 24.888150 Si / 1000 Ang^3
#
#
#
# Elastic Constant Matrix: (Units=GPa)
#
#
# Indices 1 2 3 4 5 6 
#
# 1 187.4293 52.5782 46.1811 0.0000 0.0000 0.0000
# 2 52.5782 116.7284 21.9885 0.0000 0.0000 0.0000
# 3 46.1811 21.9885 63.9271 0.0000 0.0000 0.0000
# 4 0.0000 0.0000 0.0000 28.1913 0.0000 0.0000
# 5 0.0000 0.0000 0.0000 0.0000 24.0560 0.0000
# 6 0.0000 0.0000 0.0000 0.0000 0.0000 46.2705
#
#
#
# Elastic Compliance Matrix: (Units=1/GPa)
#
#
# Indices 1 2 3 4 5 6 
#
# 1 0.007055 -0.002372 -0.004281 0.000000 0.000000 0.000000
# 2 -0.002372 0.009958 -0.001712 0.000000 0.000000 0.000000
# 3 -0.004281 -0.001712 0.019324 0.000000 0.000000 0.000000
# 4 0.000000 0.000000 0.000000 0.035472 0.000000 0.000000
# 5 0.000000 0.000000 0.000000 0.000000 0.041570 0.000000
# 6 0.000000 0.000000 0.000000 0.000000 0.000000 0.021612
#
#
# Mechanical properties :
#
#
# Convention : Reuss Voigt Hill
#
# Bulk Modulus (GPa) = 50.99878 67.73117 59.36497
# Shear Modulus (GPa) = 31.59435 36.19270 33.89353
#
# Velocity S-wave (km/s) = 3.56680 3.81755 3.69431
# Velocity P-wave (km/s) = 6.12360 6.83410 6.48858
#
# Compressibility (1/GPa) = 0.01960831
#
# Stress axis : x y z
#
# Youngs Moduli (GPa) = 141.73419 100.42602 51.74827
#
# Poissons Ratio (x) = 0.23817 0.22154
# Poissons Ratio (y) = 0.33613 0.08858
# Poissons Ratio (z) = 0.60679 0.17191
#
# Static dielectric constant tensor:
#      x y z
#    x 1.960740 0.000000 0.000000 
#    y 0.000000 1.957380 0.000000 
#    z 0.000000 0.000000 2.057420 
# 
# From -- ./inp_files/31791.got.cif
#   From: 2010.05.17/outbox.cif.g08.bks.cpg/sg58_16_cif.got.tgz:31791.got - 2010.06.03 14:20:14.
