data_PCOD9444981
_publ_section_title
;
Structure prediction by ZEFSAII (Michael W. Deem and Ramdas Pophale) SiO2 
 PCOD9444981
Probable space group: P N N M
;
_chemical_formula_sum "Si O2"
_cell_formula_units_Z 64
_cell_length_a 21.131177
_cell_length_b 20.314308
_cell_length_c 8.648194
_cell_angle_alpha 90.000000
_cell_angle_beta 90.000000
_cell_angle_gamma 90.000000
_cell_volume 3712.369056
_symmetry_space_group_name_H-M "P N N M"
_symmetry_group_IT_number 58
_symmetry_cell_setting 'orthorhombic'
loop_
_space_group_symop_operation_xyz
x,y,z
-x,-y,z
1/2+x,1/2-y,1/2-z
1/2-x,1/2+y,1/2-z
-x,-y,-z
x,y,-z
1/2-x,1/2+y,1/2+z
1/2+x,1/2-y,1/2+z
loop_
_atom_site_type_symbol
_atom_site_label
_atom_site_fract_x
_atom_site_fract_y
_atom_site_fract_z
Si Si1 0.267279 0.074811 0.186967
Si Si2 0.881260 0.069127 0.316228
Si Si3 0.068532 0.213195 0.813452
Si Si4 0.761309 0.570049 0.312911
Si Si5 0.927396 0.203948 0.185074
Si Si6 0.687262 0.209664 0.814894
Si Si7 0.809652 0.285274 0.685907
Si Si8 0.381231 0.571172 0.686028
O O1 0.304920 0.138823 0.241099
O O2 0.192929 0.081240 0.227644
O O3 0.287385 0.001519 0.236009
O O4 0.270156 0.076115 0.000000
O O5 0.883007 0.073479 0.500000
O O6 0.808720 0.077005 0.257745
O O7 0.919506 0.129219 0.243011
O O8 0.903106 0.996965 0.261208
O O9 0.121881 0.259459 0.742073
O O10 0.082585 0.137321 0.768670
O O11 0.996751 0.229767 0.769473
O O12 0.074229 0.216210 0.000000
O O13 0.753987 0.569347 0.500000
O O14 0.803051 0.633065 0.271634
O O15 0.870443 0.247138 0.251742
O O16 0.923110 0.203791 0.000000
O O17 0.745956 0.249252 0.742044
O O18 0.691382 0.214847 0.000000
O O19 0.810745 0.283867 0.500000
O O20 0.384606 0.563840 0.500000
#
# Coordination Sequence:
#
# PCOD9444981 Si02
#       8
#     8   8   8   8   8   8   8   8
#     4   8  15  30  54  78 103 135 175 217 260 316
#     4  11  21  32  50  78 109 143 178 222 267 317
#     4  10  22  39  57  75 105 148 189 223 269 328
#     4   9  18  34  54  78 107 140 176 217 265 322
#     4  11  23  38  54  76 107 147 187 225 271 325
#     4  11  21  33  56  84 111 139 175 227 275 320
#     4  11  20  34  57  82 108 141 182 226 270 320
#     4   9  17  34  54  73 102 143 183 220 261 320
#
# _framework density 17.239666
#
# number of rings (size 3 to 8) (size 9 to 14) (size 15 to 20)
#    0.000    2.000    2.500    3.000    0.000    2.500 
#    0.000    3.125    0.000    0.750    0.000    5.250 
#    0.000    0.000    0.000    0.000    0.000    0.000 
#
# Total GULP energy -357144.098379 kJ/mol
# GULP energy per Si atom -5580.376537 kJ/mol
# Density = 1.720043 g / cm^3
# Si number density = 17.239666 Si / 1000 Ang^3
#
#
#
# Elastic Constant Matrix: (Units=GPa)
#
#
# Indices 1 2 3 4 5 6 
#
# 1 76.2902 44.4798 27.7515 0.0000 0.0000 0.0000
# 2 44.4798 112.0749 29.9438 0.0000 0.0000 0.0000
# 3 27.7515 29.9438 36.2805 0.0000 0.0000 0.0000
# 4 0.0000 0.0000 0.0000 23.1401 0.0000 0.0000
# 5 0.0000 0.0000 0.0000 0.0000 22.1913 0.0000
# 6 0.0000 0.0000 0.0000 0.0000 0.0000 21.4593
#
#
#
# Elastic Compliance Matrix: (Units=1/GPa)
#
#
# Indices 1 2 3 4 5 6 
#
# 1 0.020107 -0.004966 -0.011282 0.000000 0.000000 0.000000
# 2 -0.004966 0.012673 -0.006661 0.000000 0.000000 0.000000
# 3 -0.011282 -0.006661 0.041690 0.000000 0.000000 0.000000
# 4 0.000000 0.000000 0.000000 0.043215 0.000000 0.000000
# 5 0.000000 0.000000 0.000000 0.000000 0.045063 0.000000
# 6 0.000000 0.000000 0.000000 0.000000 0.000000 0.046600
#
#
# Mechanical properties :
#
#
# Convention : Reuss Voigt Hill
#
# Bulk Modulus (GPa) = 34.90032 47.66620 41.28326
# Shear Modulus (GPa) = 18.88817 21.52285 20.20551
#
# Velocity S-wave (km/s) = 3.31361 3.53717 3.42722
# Velocity P-wave (km/s) = 5.91001 6.66268 6.29760
#
# Compressibility (1/GPa) = 0.02865303
#
# Stress axis : x y z
#
# Youngs Moduli (GPa) = 49.73434 78.90711 23.98643
#
# Poissons Ratio (x) = 0.39183 0.27060
# Poissons Ratio (y) = 0.24697 0.15978
# Poissons Ratio (z) = 0.56108 0.52562
#
# Static dielectric constant tensor:
#      x y z
#    x 1.562680 0.000000 0.000000 
#    y 0.000000 1.607130 0.000000 
#    z 0.000000 0.000000 1.584870 
# 
# From -- ./inp_files/8247.got.cif
#   From: 2010.05.17/outbox.cif.g08.bks.cpg/sg58_5_cif.got.tgz:8247.got - 2010.06.03 14:20:14.
