data_PCOD9444444
_publ_section_title
;
Structure prediction by ZEFSAII (Michael W. Deem and Ramdas Pophale) SiO2 
 PCOD9444444
Probable space group: P N N M
;
_chemical_formula_sum "Si O2"
_cell_formula_units_Z 56
_cell_length_a 18.147141
_cell_length_b 13.030127
_cell_length_c 13.009465
_cell_angle_alpha 90.000000
_cell_angle_beta 90.000000
_cell_angle_gamma 90.000000
_cell_volume 3076.212265
_symmetry_space_group_name_H-M "P N N M"
_symmetry_group_IT_number 58
_symmetry_cell_setting 'orthorhombic'
loop_
_space_group_symop_operation_xyz
x,y,z
-x,-y,z
1/2+x,1/2-y,1/2-z
1/2-x,1/2+y,1/2-z
-x,-y,-z
x,y,-z
1/2-x,1/2+y,1/2+z
1/2+x,1/2-y,1/2+z
loop_
_atom_site_type_symbol
_atom_site_label
_atom_site_fract_x
_atom_site_fract_y
_atom_site_fract_z
Si Si1 0.548343 0.248817 0.213258
Si Si2 0.581206 0.018145 0.270315
Si Si3 0.696822 0.284169 0.115900
Si Si4 0.033156 0.885326 0.877424
Si Si5 0.267347 0.993395 0.385007
Si Si6 0.683937 0.662801 0.742078
Si Si7 0.401182 0.175383 0.120652
O O1 0.578306 0.134403 0.232001
O O2 0.618147 0.306330 0.167121
O O3 0.517540 0.304427 0.315043
O O4 0.479068 0.234082 0.137393
O O5 0.648847 0.007843 0.346867
O O6 0.500000 0.000000 0.317075
O O7 0.591371 0.934026 0.179372
O O8 0.741361 0.389755 0.113976
O O9 0.748139 0.204160 0.175177
O O10 0.683747 0.247461 0.000000
O O11 0.114562 0.871560 0.827989
O O12 0.035029 0.865583 0.000000
O O13 0.000000 0.000000 0.861774
O O14 0.261807 0.950531 0.500000
O O15 0.215119 0.929368 0.310093
O O16 0.656799 0.754689 0.817096
O O17 0.385005 0.164008 0.000000
#
# Coordination Sequence:
#
# PCOD9444444 Si02
#       7
#     8   8   8   8   8   8   8
#     4  10  21  38  60  87 119 152 200 246 292 356
#     4  10  21  38  57  86 120 159 197 246 289 353
#     4  11  22  37  59  86 117 156 198 243 299 356
#     4  10  22  41  64  89 119 158 204 254 305 358
#     4  11  23  39  59  87 122 158 196 247 301 353
#     4  11  21  40  62  85 122 157 199 250 303 362
#     4  10  21  38  61  87 117 156 199 247 300 350
#
# _framework density 18.204205000000002
#
# number of rings (size 3 to 8) (size 9 to 14) (size 15 to 20)
#    0.000    1.571    2.857    2.143    0.000    4.000 
#    0.000    0.000    0.000    6.857    0.000    0.000 
#    0.000    0.000    0.000    0.000    0.000    0.000 
#
# Total GULP energy -312460.655619 kJ/mol
# GULP energy per Si atom -5579.654565 kJ/mol
# Density = 1.816277 g / cm^3
# Si number density = 18.204205 Si / 1000 Ang^3
#
#
#
# Elastic Constant Matrix: (Units=GPa)
#
#
# Indices 1 2 3 4 5 6 
#
# 1 83.2696 -12.2913 41.4765 0.0000 0.0000 0.0000
# 2 -12.2913 39.9939 21.8566 0.0000 0.0000 0.0000
# 3 41.4765 21.8566 125.9256 0.0000 0.0000 0.0000
# 4 0.0000 0.0000 0.0000 22.9994 0.0000 0.0000
# 5 0.0000 0.0000 0.0000 0.0000 17.6236 0.0000
# 6 0.0000 0.0000 0.0000 0.0000 0.0000 15.4993
#
#
#
# Elastic Compliance Matrix: (Units=1/GPa)
#
#
# Indices 1 2 3 4 5 6 
#
# 1 0.016916 0.009108 -0.007153 0.000000 0.000000 0.000000
# 2 0.009108 0.032528 -0.008646 0.000000 0.000000 0.000000
# 3 -0.007153 -0.008646 0.011798 0.000000 0.000000 0.000000
# 4 0.000000 0.000000 0.000000 0.043479 0.000000 0.000000
# 5 0.000000 0.000000 0.000000 0.000000 0.056742 0.000000
# 6 0.000000 0.000000 0.000000 0.000000 0.000000 0.064519
#
#
# Mechanical properties :
#
#
# Convention : Reuss Voigt Hill
#
# Bulk Modulus (GPa) = 20.89393 39.03027 29.96210
# Shear Modulus (GPa) = 19.58353 24.43428 22.00891
#
# Velocity S-wave (km/s) = 3.28345 3.66762 3.48084
# Velocity P-wave (km/s) = 5.08696 6.27870 5.71399
#
# Compressibility (1/GPa) = 0.04786078
#
# Stress axis : x y z
#
# Youngs Moduli (GPa) = 59.11478 30.74302 84.76271
#
# Poissons Ratio (x) = -0.28000 0.60627
# Poissons Ratio (y) = -0.53840 0.73282
# Poissons Ratio (z) = 0.42282 0.26579
#
# Static dielectric constant tensor:
#      x y z
#    x 1.641510 0.000000 0.000000 
#    y 0.000000 1.620740 0.000000 
#    z 0.000000 0.000000 1.610340 
# 
# From -- ./inp_files/15697.got.cif
#   From: 2010.05.17/outbox.cif.g08.bks.cpg/sg58_8_cif.got.tgz:15697.got - 2010.06.03 14:20:14.
