data_PCOD9444392
_publ_section_title
;
Structure prediction by ZEFSAII (Michael W. Deem and Ramdas Pophale) SiO2 
 PCOD9444392
Probable space group: P N N M
;
_chemical_formula_sum "Si O2"
_cell_formula_units_Z 48
_cell_length_a 9.664022
_cell_length_b 28.831600
_cell_length_c 8.094279
_cell_angle_alpha 90.000000
_cell_angle_beta 90.000000
_cell_angle_gamma 90.000000
_cell_volume 2255.302617
_symmetry_space_group_name_H-M "P N N M"
_symmetry_group_IT_number 58
_symmetry_cell_setting 'orthorhombic'
loop_
_space_group_symop_operation_xyz
x,y,z
-x,-y,z
1/2+x,1/2-y,1/2-z
1/2-x,1/2+y,1/2-z
-x,-y,-z
x,y,-z
1/2-x,1/2+y,1/2+z
1/2+x,1/2-y,1/2+z
loop_
_atom_site_type_symbol
_atom_site_label
_atom_site_fract_x
_atom_site_fract_y
_atom_site_fract_z
Si Si1 0.088666 0.455691 0.306947
Si Si2 0.195206 0.115747 0.701741
Si Si3 0.996569 0.357203 0.807976
Si Si4 0.339892 0.510269 0.802202
Si Si5 0.200024 0.279325 0.307907
Si Si6 0.491652 0.696720 0.198527
O O1 0.057328 0.447709 0.500000
O O2 0.052091 0.409508 0.209581
O O3 0.245134 0.472115 0.283370
O O4 0.000000 0.500000 0.248314
O O5 0.195690 0.113921 0.500000
O O6 0.337785 0.140871 0.751268
O O7 0.193814 0.062436 0.757299
O O8 0.064251 0.146492 0.754783
O O9 0.097072 0.322704 0.713047
O O10 0.997292 0.343210 0.000000
O O11 0.500000 0.500000 0.775166
O O12 0.313472 0.508096 0.000000
O O13 0.223405 0.269712 0.500000
O O14 0.350604 0.290863 0.237419
O O15 0.115767 0.235483 0.236436
O O16 0.481236 0.696853 0.000000
#
# Coordination Sequence:
#
# PCOD9444392 Si02
#       6
#     8   8   8   8   8   8
#     4  11  23  39  59  88 126 162 201 251 305 358
#     4   9  19  37  60  88 118 155 205 252 295 355
#     4  11  22  39  65  89 118 161 209 251 301 363
#     4  10  21  37  60  89 120 159 208 253 297 355
#     4  11  24  41  62  93 127 156 199 253 304 360
#     4  10  22  41  64  89 122 161 201 246 301 365
#
# _framework density 21.283176000000001
#
# number of rings (size 3 to 8) (size 9 to 14) (size 15 to 20)
#    0.000    1.667    1.667    2.500    2.333    3.667 
#    0.000    2.500    0.000    0.000    0.000    0.000 
#    0.000    0.000    0.000    0.000    0.000    0.000 
#
# Total GULP energy -268256.215521 kJ/mol
# GULP energy per Si atom -5588.671157 kJ/mol
# Density = 2.123473 g / cm^3
# Si number density = 21.283176 Si / 1000 Ang^3
#
#
#
# Elastic Constant Matrix: (Units=GPa)
#
#
# Indices 1 2 3 4 5 6 
#
# 1 92.5151 12.3587 8.3884 0.0000 0.0000 0.0000
# 2 12.3587 54.0330 -5.5493 0.0000 0.0000 0.0000
# 3 8.3884 -5.5493 12.3461 0.0000 0.0000 0.0000
# 4 0.0000 0.0000 0.0000 54.6399 0.0000 0.0000
# 5 0.0000 0.0000 0.0000 0.0000 17.0365 0.0000
# 6 0.0000 0.0000 0.0000 0.0000 0.0000 36.1190
#
#
#
# Elastic Compliance Matrix: (Units=1/GPa)
#
#
# Indices 1 2 3 4 5 6 
#
# 1 0.012230 -0.003827 -0.010030 0.000000 0.000000 0.000000
# 2 -0.003827 0.020601 0.011860 0.000000 0.000000 0.000000
# 3 -0.010030 0.011860 0.093142 0.000000 0.000000 0.000000
# 4 0.000000 0.000000 0.000000 0.018302 0.000000 0.000000
# 5 0.000000 0.000000 0.000000 0.000000 0.058697 0.000000
# 6 0.000000 0.000000 0.000000 0.000000 0.000000 0.027686
#
#
# Mechanical properties :
#
#
# Convention : Reuss Voigt Hill
#
# Bulk Modulus (GPa) = 8.19815 21.03220 14.61517
# Shear Modulus (GPa) = 18.16124 31.13883 24.65004
#
# Velocity S-wave (km/s) = 2.92432 3.82916 3.40692
# Velocity P-wave (km/s) = 3.90673 5.42711 4.72843
#
# Compressibility (1/GPa) = 0.12197877
#
# Stress axis : x y z
#
# Youngs Moduli (GPa) = 81.76815 48.54223 10.73625
#
# Poissons Ratio (x) = 0.18578 0.10768
# Poissons Ratio (y) = 0.31295 -0.12733
# Poissons Ratio (z) = 0.82010 -0.57570
#
# Static dielectric constant tensor:
#      x y z
#    x 1.758000 0.000000 0.000000 
#    y 0.000000 1.760860 0.000000 
#    z 0.000000 0.000000 1.771310 
# 
# From -- ./inp_files/2979.got.cif
#   From: 2010.05.17/outbox.cif.g08.bks.cpg/sg58_2_cif.got.tgz:2979.got - 2010.06.03 14:20:14.
