data_PCOD9444331
_publ_section_title
;
Structure prediction by ZEFSAII (Michael W. Deem and Ramdas Pophale) SiO2 
 PCOD9444331
Probable space group: P N N M
;
_chemical_formula_sum "Si O2"
_cell_formula_units_Z 58
_cell_length_a 10.943023
_cell_length_b 29.131018
_cell_length_c 7.309250
_cell_angle_alpha 90.000000
_cell_angle_beta 90.000000
_cell_angle_gamma 90.000000
_cell_volume 2330.052948
_symmetry_space_group_name_H-M "P N N M"
_symmetry_group_IT_number 58
_symmetry_cell_setting 'orthorhombic'
loop_
_space_group_symop_operation_xyz
x,y,z
-x,-y,z
1/2+x,1/2-y,1/2-z
1/2-x,1/2+y,1/2-z
-x,-y,-z
x,y,-z
1/2-x,1/2+y,1/2+z
1/2+x,1/2-y,1/2+z
loop_
_atom_site_type_symbol
_atom_site_label
_atom_site_fract_x
_atom_site_fract_y
_atom_site_fract_z
Si Si1 0.634694 0.105886 0.208646
Si Si2 0.774669 0.480235 0.277451
Si Si3 0.500000 0.000000 0.500000
Si Si4 0.753926 0.196307 0.278413
Si Si5 0.008414 0.150696 0.288632
Si Si6 0.252195 0.200843 0.793569
Si Si7 0.127183 0.613054 0.277246
Si Si8 0.884447 0.059921 0.780294
O O1 0.653008 0.160638 0.210178
O O2 0.503928 0.096072 0.293828
O O3 0.758537 0.084857 0.285756
O O4 0.630720 0.089260 0.000000
O O5 0.793292 0.484595 0.500000
O O6 0.775124 0.426083 0.234706
O O7 0.649207 0.507454 0.232019
O O8 0.889725 0.498998 0.161520
O O9 0.747332 0.194475 0.500000
O O10 0.884526 0.175293 0.220304
O O11 0.738965 0.248471 0.214513
O O12 0.021332 0.162859 0.500000
O O13 0.987978 0.095882 0.276765
O O14 0.125379 0.173174 0.197237
O O15 0.341429 0.163352 0.707039
O O16 0.297425 0.209149 0.000000
O O17 0.120361 0.615824 0.500000
O O18 0.892554 0.060690 0.000000
#
# Coordination Sequence:
#
# PCOD9444331 Si02
#       8
#     8   8   2   8   8   8   8   8
#     4   9  17  31  55  83 110 143 186 231 290 346
#     4  10  21  38  58  87 125 161 204 244 303 364
#     4  12  22  32  60  94 122 168 194 252 300 356
#     4   9  20  36  54  80 111 146 188 239 291 351
#     4  10  21  37  58  83 113 146 191 245 296 347
#     4  10  21  38  59  79 110 154 199 238 292 355
#     4   9  19  37  58  82 115 156 193 242 290 353
#     4   9  18  35  60  84 112 151 193 240 287 354
#
# _framework density 24.892137999999999
#
# number of rings (size 3 to 8) (size 9 to 14) (size 15 to 20)
#    0.000    2.483    0.000    1.448    2.897    3.310 
#    7.448    0.690    0.000    4.138    0.000    0.000 
#    0.000    0.000    0.000    0.000    0.000    0.000 
#
# Total GULP energy -323296.598973 kJ/mol
# GULP energy per Si atom -5574.079293 kJ/mol
# Density = 2.483548 g / cm^3
# Si number density = 24.892138 Si / 1000 Ang^3
#
#
#
# Elastic Constant Matrix: (Units=GPa)
#
#
# Indices 1 2 3 4 5 6 
#
# 1 52.7556 -23.4006 -11.6638 0.0000 0.0000 0.0000
# 2 -23.4006 96.4943 -19.5718 0.0000 0.0000 0.0000
# 3 -11.6638 -19.5718 118.4448 0.0000 0.0000 0.0000
# 4 0.0000 0.0000 0.0000 -67.3584 0.0000 0.0000
# 5 0.0000 0.0000 0.0000 0.0000 -7.5277 0.0000
# 6 0.0000 0.0000 0.0000 0.0000 0.0000 24.1611
#
#
#
# Elastic Compliance Matrix: (Units=1/GPa)
#
#
# Indices 1 2 3 4 5 6 
#
# 1 0.022357 0.006072 0.003205 0.000000 0.000000 0.000000
# 2 0.006072 0.012372 0.002642 0.000000 0.000000 0.000000
# 3 0.003205 0.002642 0.009195 0.000000 0.000000 0.000000
# 4 0.000000 0.000000 0.000000 -0.014846 0.000000 0.000000
# 5 0.000000 0.000000 0.000000 0.000000 -0.132843 0.000000
# 6 0.000000 0.000000 0.000000 0.000000 0.000000 0.041389
#
#
# Mechanical properties :
#
#
# Convention : Reuss Voigt Hill
#
# Bulk Modulus (GPa) = 14.75758 17.60247 16.18002
# Shear Modulus (GPa) = -78.58246 11.34373 -33.61937
#
# Velocity S-wave (km/s) = -5.62474 2.13707 -3.67904
# Velocity P-wave (km/s) = 6.02015 3.62991 3.39602
#
# Compressibility (1/GPa) = 0.06776180
#
# Stress axis : x y z
#
# Youngs Moduli (GPa) = 44.72833 80.82969 108.75528
#
# Poissons Ratio (x) = -0.49078 -0.34855
# Poissons Ratio (y) = -0.27158 -0.28736
# Poissons Ratio (z) = -0.14335 -0.21357
#
# Static dielectric constant tensor:
#      x y z
#    x 1.965280 0.000000 0.000000 
#    y 0.000000 2.016250 0.000000 
#    z 0.000000 0.000000 1.966480 
# 
# From -- ./inp_files/4615.got.cif
#   From: 2010.05.17/outbox.cif.g08.bks.cpg/sg58_3_cif.got.tgz:4615.got - 2010.06.03 14:20:14.
