data_PCOD9444005
_publ_section_title
;
Structure prediction by ZEFSAII (Michael W. Deem and Ramdas Pophale) SiO2 
 PCOD9444005
Probable space group: P N N M
;
_chemical_formula_sum "Si O2"
_cell_formula_units_Z 44
_cell_length_a 15.972397
_cell_length_b 14.830324
_cell_length_c 7.411026
_cell_angle_alpha 90.000000
_cell_angle_beta 90.000000
_cell_angle_gamma 90.000000
_cell_volume 1755.492880
_symmetry_space_group_name_H-M "P N N M"
_symmetry_group_IT_number 58
_symmetry_cell_setting 'orthorhombic'
loop_
_space_group_symop_operation_xyz
x,y,z
-x,-y,z
1/2+x,1/2-y,1/2-z
1/2-x,1/2+y,1/2-z
-x,-y,-z
x,y,-z
1/2-x,1/2+y,1/2+z
1/2+x,1/2-y,1/2+z
loop_
_atom_site_type_symbol
_atom_site_label
_atom_site_fract_x
_atom_site_fract_y
_atom_site_fract_z
Si Si1 0.220840 0.195830 0.716910
Si Si2 0.868693 0.437948 0.793347
Si Si3 0.457070 0.736281 0.706068
Si Si4 0.502470 0.121580 0.000000
Si Si5 0.432693 0.427300 0.280681
Si Si6 0.752909 0.597933 0.281745
O O1 0.218191 0.192143 0.500000
O O2 0.294298 0.128881 0.771854
O O3 0.127716 0.177030 0.786533
O O4 0.241318 0.298042 0.773353
O O5 0.943874 0.425989 0.656683
O O6 0.827275 0.536135 0.787520
O O7 0.890614 0.415856 0.000000
O O8 0.469857 0.764246 0.500000
O O9 0.533862 0.672514 0.765618
O O10 0.450266 0.817782 0.843326
O O11 0.500000 0.500000 0.215735
O O12 0.433035 0.430461 0.500000
O O13 0.337422 0.440024 0.221881
O O14 0.755841 0.594820 0.500000
#
# Coordination Sequence:
#
# PCOD9444005 Si02
#       6
#     8   8   8   4   8   8
#     4  10  22  42  67  97 139 180 225 280 338 406
#     4  11  24  43  68  99 133 177 227 279 339 408
#     4  11  23  41  67  98 132 180 233 276 341 412
#     4  12  24  44  66  94 133 172 220 282 339 392
#     4   9  18  35  63  97 136 174 214 278 351 407
#     4  10  20  40  66  96 133 174 222 277 340 406
#
# _framework density 25.064187
#
# number of rings (size 3 to 8) (size 9 to 14) (size 15 to 20)
#    0.000    1.636    1.818    2.727    1.273    5.091 
#    4.909    2.273    0.000    2.182    0.000    0.000 
#    0.000    0.000    0.000    0.000    0.000    0.000 
#
# Total GULP energy -245654.608623 kJ/mol
# GULP energy per Si atom -5583.059287 kJ/mol
# Density = 2.500714 g / cm^3
# Si number density = 25.064187 Si / 1000 Ang^3
#
#
#
# Elastic Constant Matrix: (Units=GPa)
#
#
# Indices 1 2 3 4 5 6 
#
# 1 81.2824 32.3998 33.6544 0.0000 0.0000 0.0000
# 2 32.3998 88.1270 24.8496 0.0000 0.0000 0.0000
# 3 33.6544 24.8496 139.1614 0.0000 0.0000 0.0000
# 4 0.0000 0.0000 0.0000 -4.3178 0.0000 0.0000
# 5 0.0000 0.0000 0.0000 0.0000 49.6336 0.0000
# 6 0.0000 0.0000 0.0000 0.0000 0.0000 59.2682
#
#
#
# Elastic Compliance Matrix: (Units=1/GPa)
#
#
# Indices 1 2 3 4 5 6 
#
# 1 0.015427 -0.004865 -0.002862 0.000000 0.000000 0.000000
# 2 -0.004865 0.013483 -0.001231 0.000000 0.000000 0.000000
# 3 -0.002862 -0.001231 0.008098 0.000000 0.000000 0.000000
# 4 0.000000 0.000000 0.000000 -0.231600 0.000000 0.000000
# 5 0.000000 0.000000 0.000000 0.000000 0.020148 0.000000
# 6 0.000000 0.000000 0.000000 0.000000 0.000000 0.016872
#
#
# Mechanical properties :
#
#
# Convention : Reuss Voigt Hill
#
# Bulk Modulus (GPa) = 52.37830 54.48649 53.43239
# Shear Modulus (GPa) = -37.51152 35.42794 -1.04179
#
# Velocity S-wave (km/s) = -3.87281 3.76372 -0.64541
# Velocity P-wave (km/s) = 0.97201 6.37757 4.56170
#
# Compressibility (1/GPa) = 0.01909188
#
# Stress axis : x y z
#
# Youngs Moduli (GPa) = 64.82180 74.16812 123.48852
#
# Poissons Ratio (x) = 0.36080 0.35344
# Poissons Ratio (y) = 0.31533 0.15203
# Poissons Ratio (z) = 0.18553 0.09131
#
# Static dielectric constant tensor:
#      x y z
#    x 1.995600 0.000000 0.000000 
#    y 0.000000 2.002290 0.000000 
#    z 0.000000 0.000000 1.957440 
# 
# From -- ./inp_files/7668.got.cif
#   From: 2010.05.17/outbox.cif.g08.bks.cpg/sg58_4_cif.got.tgz:7668.got - 2010.06.03 14:20:14.
