data_PCOD9444623
_publ_section_title
;
Structure prediction by ZEFSAII (Michael W. Deem and Ramdas Pophale) SiO2 
 PCOD9444623
Probable space group: P N N M
;
_chemical_formula_sum "Si O2"
_cell_formula_units_Z 48
_cell_length_a 9.585755
_cell_length_b 28.930849
_cell_length_c 8.767149
_cell_angle_alpha 90.000000
_cell_angle_beta 90.000000
_cell_angle_gamma 90.000000
_cell_volume 2431.341096
_symmetry_space_group_name_H-M "P N N M"
_symmetry_group_IT_number 58
_symmetry_cell_setting 'orthorhombic'
loop_
_space_group_symop_operation_xyz
x,y,z
-x,-y,z
1/2+x,1/2-y,1/2-z
1/2-x,1/2+y,1/2-z
-x,-y,-z
x,y,-z
1/2-x,1/2+y,1/2+z
1/2+x,1/2-y,1/2+z
loop_
_atom_site_type_symbol
_atom_site_label
_atom_site_fract_x
_atom_site_fract_y
_atom_site_fract_z
Si Si1 0.851625 0.983419 0.817559
Si Si2 0.997587 0.803285 0.317555
Si Si3 0.302090 0.783787 0.182673
Si Si4 0.693918 0.378334 0.316472
Si Si5 0.613974 0.040497 0.324335
Si Si6 0.990251 0.360241 0.183373
O O1 0.811884 0.931912 0.763640
O O2 0.740025 0.021943 0.774796
O O3 0.860151 0.980068 0.000000
O O4 0.000000 0.000000 0.756362
O O5 0.007589 0.808167 0.500000
O O6 0.147989 0.788322 0.253146
O O7 0.881440 0.764187 0.282823
O O8 0.939431 0.850282 0.243800
O O9 0.402730 0.823306 0.249389
O O10 0.291797 0.788159 0.000000
O O11 0.697477 0.376745 0.500000
O O12 0.835192 0.356013 0.250561
O O13 0.659832 0.045858 0.500000
O O14 0.546995 0.088729 0.275452
O O15 0.500000 0.000000 0.319215
O O16 0.984001 0.356323 0.000000
#
# Coordination Sequence:
#
# PCOD9444623 Si02
#       6
#     8   8   8   8   8   8
#     4  10  23  40  59  88 125 165 208 256 308 364
#     4  11  25  44  67  94 126 163 204 253 310 369
#     4  11  25  44  67  95 126 162 203 253 309 370
#     4  11  23  40  63  92 126 167 210 257 312 367
#     4  10  21  39  61  89 123 163 208 254 304 363
#     4  11  23  40  64  93 126 164 209 258 311 369
#
# _framework density 19.742190000000001
#
# number of rings (size 3 to 8) (size 9 to 14) (size 15 to 20)
#    0.000    1.333    1.667    3.000    2.333    8.000 
#    0.000    0.000    0.000    0.000    0.000    0.000 
#    0.000    0.000    0.000    0.000    0.000    0.000 
#
# Total GULP energy -268330.667330 kJ/mol
# GULP energy per Si atom -5590.222236 kJ/mol
# Density = 1.969726 g / cm^3
# Si number density = 19.742190 Si / 1000 Ang^3
#
#
#
# Elastic Constant Matrix: (Units=GPa)
#
#
# Indices 1 2 3 4 5 6 
#
# 1 128.8620 20.2353 35.0525 0.0000 0.0000 0.0000
# 2 20.2353 64.3173 23.0790 0.0000 0.0000 0.0000
# 3 35.0525 23.0790 37.6678 0.0000 0.0000 0.0000
# 4 0.0000 0.0000 0.0000 26.9147 0.0000 0.0000
# 5 0.0000 0.0000 0.0000 0.0000 34.8034 0.0000
# 6 0.0000 0.0000 0.0000 0.0000 0.0000 34.5053
#
#
#
# Elastic Compliance Matrix: (Units=1/GPa)
#
#
# Indices 1 2 3 4 5 6 
#
# 1 0.010394 0.000257 -0.009830 0.000000 0.000000 0.000000
# 2 0.000257 0.019936 -0.012454 0.000000 0.000000 0.000000
# 3 -0.009830 -0.012454 0.043325 0.000000 0.000000 0.000000
# 4 0.000000 0.000000 0.000000 0.037154 0.000000 0.000000
# 5 0.000000 0.000000 0.000000 0.000000 0.028733 0.000000
# 6 0.000000 0.000000 0.000000 0.000000 0.000000 0.028981
#
#
# Mechanical properties :
#
#
# Convention : Reuss Voigt Hill
#
# Bulk Modulus (GPa) = 33.78121 43.06450 38.42286
# Shear Modulus (GPa) = 22.47761 29.41002 25.94382
#
# Velocity S-wave (km/s) = 3.37791 3.86386 3.62903
# Velocity P-wave (km/s) = 5.68876 6.46271 6.08805
#
# Compressibility (1/GPa) = 0.02960225
#
# Stress axis : x y z
#
# Youngs Moduli (GPa) = 96.21253 50.16079 23.08111
#
# Poissons Ratio (x) = -0.01290 0.22688
# Poissons Ratio (y) = -0.02474 0.28745
# Poissons Ratio (z) = 0.94573 0.62470
#
# Static dielectric constant tensor:
#      x y z
#    x 1.684400 0.000000 0.000000 
#    y 0.000000 1.697540 0.000000 
#    z 0.000000 0.000000 1.669000 
# 
# From -- ./inp_files/2865.got.cif
#   From: 2010.05.17/outbox.cif.g08.bks.cpg/sg58_2_cif.got.tgz:2865.got - 2010.06.03 14:20:14.
