data_PCOD9444489
_publ_section_title
;
Structure prediction by ZEFSAII (Michael W. Deem and Ramdas Pophale) SiO2 
 PCOD9444489
Probable space group: P N N M
;
_chemical_formula_sum "Si O2"
_cell_formula_units_Z 56
_cell_length_a 8.840302
_cell_length_b 14.331536
_cell_length_c 22.914031
_cell_angle_alpha 90.000000
_cell_angle_beta 90.000000
_cell_angle_gamma 90.000000
_cell_volume 2903.095595
_symmetry_space_group_name_H-M "P N N M"
_symmetry_group_IT_number 58
_symmetry_cell_setting 'orthorhombic'
loop_
_space_group_symop_operation_xyz
x,y,z
-x,-y,z
1/2+x,1/2-y,1/2-z
1/2-x,1/2+y,1/2-z
-x,-y,-z
x,y,-z
1/2-x,1/2+y,1/2+z
1/2+x,1/2-y,1/2+z
loop_
_atom_site_type_symbol
_atom_site_label
_atom_site_fract_x
_atom_site_fract_y
_atom_site_fract_z
Si Si1 0.638932 0.191333 0.876616
Si Si2 0.591195 0.674137 0.933891
Si Si3 0.556772 0.213197 0.565270
Si Si4 0.569930 0.103788 0.753919
Si Si5 0.146638 0.635938 0.845542
Si Si6 0.086888 0.908061 0.070251
Si Si7 0.847797 0.044082 0.677418
O O1 0.513326 0.237390 0.918136
O O2 0.576675 0.150318 0.816671
O O3 0.743431 0.279568 0.860273
O O4 0.746219 0.113365 0.905726
O O5 0.764929 0.705085 0.935739
O O6 0.592366 0.602211 0.878994
O O7 0.551650 0.639168 0.000000
O O8 0.495057 0.202988 0.500000
O O9 0.480920 0.135028 0.604807
O O10 0.509666 0.316086 0.585975
O O11 0.448371 0.154615 0.712799
O O12 0.734870 0.099247 0.721671
O O13 0.500000 0.000000 0.758808
O O14 0.241606 0.541549 0.842671
O O15 0.095129 0.913978 0.000000
O O16 0.000000 0.000000 0.091764
O O17 0.000000 0.000000 0.705634
#
# Coordination Sequence:
#
# PCOD9444489 Si02
#       7
#     8   8   8   8   8   8   8
#     4  11  23  38  61  90 118 162 203 259 306 359
#     4  11  23  39  61  93 128 162 202 252 310 366
#     4   9  19  36  59  86 120 160 199 243 297 371
#     4  10  24  41  60  85 121 160 207 252 301 364
#     4  10  21  38  60  85 120 160 204 249 300 366
#     4   9  19  38  61  86 118 157 203 252 306 365
#     4  11  22  41  60  88 125 158 201 255 304 364
#
# _framework density 19.289753999999999
#
# number of rings (size 3 to 8) (size 9 to 14) (size 15 to 20)
#    0.000    1.857    2.857    0.429    2.000    3.143 
#    0.000    7.143    0.000    4.286    0.000    0.000 
#    0.000    0.000    0.000    0.000    0.000    0.000 
#
# Total GULP energy -312179.794024 kJ/mol
# GULP energy per Si atom -5574.639179 kJ/mol
# Density = 1.924585 g / cm^3
# Si number density = 19.289754 Si / 1000 Ang^3
#
#
#
# Elastic Constant Matrix: (Units=GPa)
#
#
# Indices 1 2 3 4 5 6 
#
# 1 92.8459 17.3871 21.2210 0.0000 0.0000 0.0000
# 2 17.3871 38.0086 13.5936 0.0000 0.0000 0.0000
# 3 21.2210 13.5936 47.1113 0.0000 0.0000 0.0000
# 4 0.0000 0.0000 0.0000 -10.7778 0.0000 0.0000
# 5 0.0000 0.0000 0.0000 0.0000 192.3027 0.0000
# 6 0.0000 0.0000 0.0000 0.0000 0.0000 22.2605
#
#
#
# Elastic Compliance Matrix: (Units=1/GPa)
#
#
# Indices 1 2 3 4 5 6 
#
# 1 0.012568 -0.004153 -0.004463 0.000000 0.000000 0.000000
# 2 -0.004153 0.030710 -0.006990 0.000000 0.000000 0.000000
# 3 -0.004463 -0.006990 0.025254 0.000000 0.000000 0.000000
# 4 0.000000 0.000000 0.000000 -0.092783 0.000000 0.000000
# 5 0.000000 0.000000 0.000000 0.000000 0.005200 0.000000
# 6 0.000000 0.000000 0.000000 0.000000 0.000000 0.044923
#
#
# Mechanical properties :
#
#
# Convention : Reuss Voigt Hill
#
# Bulk Modulus (GPa) = 26.79611 31.37435 29.08523
# Shear Modulus (GPa) = 71.91769 49.14136 60.52953
#
# Velocity S-wave (km/s) = 6.11259 5.05279 5.60778
# Velocity P-wave (km/s) = 7.98373 7.09514 7.55251
#
# Compressibility (1/GPa) = 0.03731885
#
# Stress axis : x y z
#
# Youngs Moduli (GPa) = 79.56485 32.56290 39.59834
#
# Poissons Ratio (x) = 0.13524 0.17673
# Poissons Ratio (y) = 0.33045 0.27680
# Poissons Ratio (z) = 0.35509 0.22762
#
# Static dielectric constant tensor:
#      x y z
#    x 1.688910 0.000000 0.000000 
#    y 0.000000 1.680290 0.000000 
#    z 0.000000 0.000000 1.696990 
# 
# From -- ./inp_files/28963.got.cif
#   From: 2010.05.17/outbox.cif.g08.bks.cpg/sg58_15_cif.got.tgz:28963.got - 2010.06.03 14:20:14.
