data_PCOD9444698
_publ_section_title
;
Structure prediction by ZEFSAII (Michael W. Deem and Ramdas Pophale) SiO2 
 PCOD9444698
Probable space group: P N N M
;
_chemical_formula_sum "Si O2"
_cell_formula_units_Z 40
_cell_length_a 8.360857
_cell_length_b 24.766281
_cell_length_c 9.705069
_cell_angle_alpha 90.000000
_cell_angle_beta 90.000000
_cell_angle_gamma 90.000000
_cell_volume 2009.602763
_symmetry_space_group_name_H-M "P N N M"
_symmetry_group_IT_number 58
_symmetry_cell_setting 'orthorhombic'
loop_
_space_group_symop_operation_xyz
x,y,z
-x,-y,z
1/2+x,1/2-y,1/2-z
1/2-x,1/2+y,1/2-z
-x,-y,-z
x,y,-z
1/2-x,1/2+y,1/2+z
1/2+x,1/2-y,1/2+z
loop_
_atom_site_type_symbol
_atom_site_label
_atom_site_fract_x
_atom_site_fract_y
_atom_site_fract_z
Si Si1 0.500374 0.659806 0.761710
Si Si2 0.808749 0.407478 0.765130
Si Si3 0.289321 0.383609 0.000000
Si Si4 0.983963 0.564700 0.500000
Si Si5 0.810360 0.492776 0.000000
Si Si6 0.726456 0.656533 0.500000
Si Si7 0.043808 0.665934 0.000000
Si Si8 0.855861 0.766191 0.500000
O O1 0.348049 0.624529 0.718355
O O2 0.615148 0.668544 0.632319
O O3 0.604557 0.625438 0.867102
O O4 0.435805 0.708405 0.861359
O O5 0.765239 0.458684 0.862995
O O6 0.921269 0.419544 0.637729
O O7 0.904160 0.368313 0.867631
O O8 0.147948 0.338266 0.000000
O O9 0.242852 0.445810 0.000000
O O10 0.814390 0.597727 0.500000
O O11 0.000000 0.500000 0.500000
O O12 0.000000 0.500000 0.000000
O O13 0.864585 0.701974 0.500000
O O14 0.167008 0.716120 0.000000
#
# Coordination Sequence:
#
# PCOD9444698 Si02
#       8
#     8   8   4   4   4   4   4   4
#     4  10  24  42  64  98 130 163 211 276 333 384
#     4  10  21  40  59  87 130 170 211 266 324 376
#     4  11  20  37  63  98 130 163 225 267 309 382
#     4  12  27  41  60  89 134 175 216 261 321 398
#     4  11  20  34  66  94 119 178 233 262 305 376
#     4  12  26  44  69  97 127 174 222 262 331 406
#     4   9  18  37  67  90 121 161 215 270 317 378
#     4   9  23  46  67  95 128 167 212 272 335 385
#
# _framework density 19.904430000000001
#
# number of rings (size 3 to 8) (size 9 to 14) (size 15 to 20)
#    0.000    1.600    2.000    4.200    2.800    6.400 
#    0.000    4.000    0.000    0.000    0.000    0.000 
#    0.000    0.000    0.000    0.000    0.000    0.000 
#
# Total GULP energy -223027.236329 kJ/mol
# GULP energy per Si atom -5575.680908 kJ/mol
# Density = 1.985913 g / cm^3
# Si number density = 19.904430 Si / 1000 Ang^3
#
#
#
# Elastic Constant Matrix: (Units=GPa)
#
#
# Indices 1 2 3 4 5 6 
#
# 1 73.1121 21.6480 23.2344 0.0000 0.0000 0.0000
# 2 21.6480 82.1698 30.2963 0.0000 0.0000 0.0000
# 3 23.2344 30.2963 131.7834 0.0000 0.0000 0.0000
# 4 0.0000 0.0000 0.0000 21.5169 0.0000 0.0000
# 5 0.0000 0.0000 0.0000 0.0000 34.8927 0.0000
# 6 0.0000 0.0000 0.0000 0.0000 0.0000 25.0583
#
#
#
# Elastic Compliance Matrix: (Units=1/GPa)
#
#
# Indices 1 2 3 4 5 6 
#
# 1 0.015272 -0.003311 -0.001931 0.000000 0.000000 0.000000
# 2 -0.003311 0.014015 -0.002638 0.000000 0.000000 0.000000
# 3 -0.001931 -0.002638 0.008535 0.000000 0.000000 0.000000
# 4 0.000000 0.000000 0.000000 0.046475 0.000000 0.000000
# 5 0.000000 0.000000 0.000000 0.000000 0.028659 0.000000
# 6 0.000000 0.000000 0.000000 0.000000 0.000000 0.039907
#
#
# Mechanical properties :
#
#
# Convention : Reuss Voigt Hill
#
# Bulk Modulus (GPa) = 45.32996 48.60251 46.96623
# Shear Modulus (GPa) = 28.41259 30.41938 29.41599
#
# Velocity S-wave (km/s) = 3.78226 3.91355 3.84847
# Velocity P-wave (km/s) = 6.47281 6.70016 6.58746
#
# Compressibility (1/GPa) = 0.02206047
#
# Stress axis : x y z
#
# Youngs Moduli (GPa) = 65.47997 71.35209 117.16185
#
# Poissons Ratio (x) = 0.23627 0.22627
# Poissons Ratio (y) = 0.21683 0.30909
# Poissons Ratio (z) = 0.12646 0.18824
#
# Static dielectric constant tensor:
#      x y z
#    x 1.749990 0.000000 0.000000 
#    y 0.000000 1.867180 0.000000 
#    z 0.000000 0.000000 1.676380 
# 
# From -- ./inp_files/2708.got.cif
#   From: 2010.05.17/outbox.cif.g08.bks.cpg/sg58_2_cif.got.tgz:2708.got - 2010.06.03 14:20:14.
