data_PCOD9444371
_publ_section_title
;
Structure prediction by ZEFSAII (Michael W. Deem and Ramdas Pophale) SiO2 
 PCOD9444371
Probable space group: P N N M
;
_chemical_formula_sum "Si O2"
_cell_formula_units_Z 64
_cell_length_a 13.268882
_cell_length_b 29.023057
_cell_length_c 8.947009
_cell_angle_alpha 90.000000
_cell_angle_beta 90.000000
_cell_angle_gamma 90.000000
_cell_volume 3445.524647
_symmetry_space_group_name_H-M "P N N M"
_symmetry_group_IT_number 58
_symmetry_cell_setting 'orthorhombic'
loop_
_space_group_symop_operation_xyz
x,y,z
-x,-y,z
1/2+x,1/2-y,1/2-z
1/2-x,1/2+y,1/2-z
-x,-y,-z
x,y,-z
1/2-x,1/2+y,1/2+z
1/2+x,1/2-y,1/2+z
loop_
_atom_site_type_symbol
_atom_site_label
_atom_site_fract_x
_atom_site_fract_y
_atom_site_fract_z
Si Si1 0.388322 0.056326 0.180815
Si Si2 0.994170 0.245853 0.671712
Si Si3 0.721230 0.791251 0.164231
Si Si4 0.150943 0.299066 0.830317
Si Si5 0.282053 0.620139 0.824387
Si Si6 0.885628 0.551501 0.319117
Si Si7 0.490385 0.645435 0.320512
Si Si8 0.216799 0.876550 0.180486
O O1 0.299060 0.085297 0.253841
O O2 0.503274 0.069743 0.227487
O O3 0.377458 0.002243 0.220941
O O4 0.382536 0.060366 0.000000
O O5 0.025022 0.237542 0.500000
O O6 0.879135 0.261623 0.677299
O O7 0.051859 0.290615 0.734465
O O8 0.006229 0.198024 0.760264
O O9 0.806569 0.752777 0.165905
O O10 0.738504 0.829012 0.288910
O O11 0.721522 0.814604 0.000000
O O12 0.230925 0.332006 0.752345
O O13 0.131990 0.314265 0.000000
O O14 0.392643 0.620459 0.748109
O O15 0.291955 0.612418 0.000000
O O16 0.886987 0.552915 0.500000
O O17 0.789344 0.581348 0.270982
O O18 0.481635 0.646250 0.500000
O O19 0.598397 0.622479 0.279677
O O20 0.221433 0.873203 0.000000
#
# Coordination Sequence:
#
# PCOD9444371 Si02
#       8
#     8   8   8   8   8   8   8   8
#     4   9  18  38  66  89 115 146 183 230 289 349
#     4  11  22  37  55  76 108 150 193 238 281 329
#     4  10  22  38  55  77 111 153 195 235 279 333
#     4  11  22  36  54  81 116 152 192 230 280 339
#     4  12  25  38  57  84 116 152 196 238 284 342
#     4   8  17  37  65  92 113 144 184 230 287 350
#     4  11  22  37  57  80 113 153 192 237 284 333
#     4  10  21  37  59  87 115 147 194 239 283 339
#
# _framework density 18.574819999999999
#
# number of rings (size 3 to 8) (size 9 to 14) (size 15 to 20)
#    0.000    1.750    2.500    3.000    1.750    2.000 
#    0.000    2.500    0.000    3.750    0.000    0.000 
#    0.000    0.000    0.000    0.000    0.000    0.000 
#
# Total GULP energy -356947.497674 kJ/mol
# GULP energy per Si atom -5577.304651 kJ/mol
# Density = 1.853254 g / cm^3
# Si number density = 18.574820 Si / 1000 Ang^3
#
#
#
# Elastic Constant Matrix: (Units=GPa)
#
#
# Indices 1 2 3 4 5 6 
#
# 1 67.3231 36.4411 5.0807 0.0000 0.0000 0.0000
# 2 36.4411 62.8163 14.6280 0.0000 0.0000 0.0000
# 3 5.0807 14.6280 42.3651 0.0000 0.0000 0.0000
# 4 0.0000 0.0000 0.0000 20.6268 0.0000 0.0000
# 5 0.0000 0.0000 0.0000 0.0000 17.3267 0.0000
# 6 0.0000 0.0000 0.0000 0.0000 0.0000 33.8349
#
#
#
# Elastic Compliance Matrix: (Units=1/GPa)
#
#
# Indices 1 2 3 4 5 6 
#
# 1 0.021793 -0.013086 0.001905 0.000000 0.000000 0.000000
# 2 -0.013086 0.025169 -0.007121 0.000000 0.000000 0.000000
# 3 0.001905 -0.007121 0.025835 0.000000 0.000000 0.000000
# 4 0.000000 0.000000 0.000000 0.048481 0.000000 0.000000
# 5 0.000000 0.000000 0.000000 0.000000 0.057714 0.000000
# 6 0.000000 0.000000 0.000000 0.000000 0.000000 0.029555
#
#
# Mechanical properties :
#
#
# Convention : Reuss Voigt Hill
#
# Bulk Modulus (GPa) = 27.63028 31.64491 29.63759
# Shear Modulus (GPa) = 19.43881 22.11467 20.77674
#
# Velocity S-wave (km/s) = 3.23850 3.45421 3.34809
# Velocity P-wave (km/s) = 5.37506 5.74301 5.56208
#
# Compressibility (1/GPa) = 0.03619218
#
# Stress axis : x y z
#
# Youngs Moduli (GPa) = 45.88524 39.73067 38.70763
#
# Poissons Ratio (x) = 0.51993 -0.07373
# Poissons Ratio (y) = 0.60048 0.27564
# Poissons Ratio (z) = -0.08741 0.28293
#
# Static dielectric constant tensor:
#      x y z
#    x 1.673980 0.000000 0.000000 
#    y 0.000000 1.623310 0.000000 
#    z 0.000000 0.000000 1.655370 
# 
# From -- ./inp_files/4814.got.cif
#   From: 2010.05.17/outbox.cif.g08.bks.cpg/sg58_3_cif.got.tgz:4814.got - 2010.06.03 14:20:14.
