data_PCOD9444652
_publ_section_title
;
Structure prediction by ZEFSAII (Michael W. Deem and Ramdas Pophale) SiO2 
 PCOD9444652
Probable space group: P N N M
;
_chemical_formula_sum "Si O2"
_cell_formula_units_Z 32
_cell_length_a 13.919555
_cell_length_b 5.072433
_cell_length_c 18.965755
_cell_angle_alpha 90.000000
_cell_angle_beta 90.000000
_cell_angle_gamma 90.000000
_cell_volume 1339.096290
_symmetry_space_group_name_H-M "P N N M"
_symmetry_group_IT_number 58
_symmetry_cell_setting 'orthorhombic'
loop_
_space_group_symop_operation_xyz
x,y,z
-x,-y,z
1/2+x,1/2-y,1/2-z
1/2-x,1/2+y,1/2-z
-x,-y,-z
x,y,-z
1/2-x,1/2+y,1/2+z
1/2+x,1/2-y,1/2+z
loop_
_atom_site_type_symbol
_atom_site_label
_atom_site_fract_x
_atom_site_fract_y
_atom_site_fract_z
Si Si1 0.598338 0.126118 0.274712
Si Si2 0.811386 0.011853 0.680762
Si Si3 0.199199 0.489919 0.581751
Si Si4 0.588798 0.306365 0.572935
O O1 0.613858 0.413097 0.239642
O O2 0.583662 0.140990 0.357758
O O3 0.500000 0.000000 0.244922
O O4 0.707626 0.006584 0.278166
O O5 0.817349 0.785070 0.620836
O O6 0.831545 0.278137 0.636518
O O7 0.162951 0.505908 0.500000
O O8 0.313484 0.529178 0.577233
O O9 0.500000 0.500000 0.571884
O O10 0.594353 0.148143 0.500000
#
# Coordination Sequence:
#
# PCOD9444652 Si02
#       4
#     8   8   8   8
#     4  11  23  39  63  94 134 175 212 265 325 381
#     4  11  23  40  62  95 129 165 218 263 316 393
#     4  10  21  39  63  88 123 168 211 267 326 374
#     4   9  18  32  54  89 128 165 206 250 310 392
#
# _framework density 23.896713999999999
#
# number of rings (size 3 to 8) (size 9 to 14) (size 15 to 20)
#    0.000    1.750    0.000    5.250    0.000    3.500 
#    0.000    0.000    0.000    4.500    0.000    0.000 
#    0.000    0.000    0.000    0.000    0.000    0.000 
#
# Total GULP energy -178564.956951 kJ/mol
# GULP energy per Si atom -5580.154905 kJ/mol
# Density = 2.384232 g / cm^3
# Si number density = 23.896714 Si / 1000 Ang^3
#
#
#
# Elastic Constant Matrix: (Units=GPa)
#
#
# Indices 1 2 3 4 5 6 
#
# 1 68.8021 14.5255 21.3419 0.0000 0.0000 0.0000
# 2 14.5255 90.0838 28.6665 0.0000 0.0000 0.0000
# 3 21.3419 28.6665 134.7210 0.0000 0.0000 0.0000
# 4 0.0000 0.0000 0.0000 -163.8546 0.0000 0.0000
# 5 0.0000 0.0000 0.0000 0.0000 58.1397 0.0000
# 6 0.0000 0.0000 0.0000 0.0000 0.0000 40.4420
#
#
#
# Elastic Compliance Matrix: (Units=1/GPa)
#
#
# Indices 1 2 3 4 5 6 
#
# 1 0.015568 -0.001851 -0.002072 0.000000 0.000000 0.000000
# 2 -0.001851 0.012127 -0.002287 0.000000 0.000000 0.000000
# 3 -0.002072 -0.002287 0.008238 0.000000 0.000000 0.000000
# 4 0.000000 0.000000 0.000000 -0.006103 0.000000 0.000000
# 5 0.000000 0.000000 0.000000 0.000000 0.017200 0.000000
# 6 0.000000 0.000000 0.000000 0.000000 0.000000 0.024727
#
#
# Mechanical properties :
#
#
# Convention : Reuss Voigt Hill
#
# Bulk Modulus (GPa) = 42.53157 46.96387 44.74772
# Shear Modulus (GPa) = 54.33910 2.21694 28.27802
#
# Velocity S-wave (km/s) = 4.77373 0.96423 3.44371
# Velocity P-wave (km/s) = 6.94416 4.57550 5.88033
#
# Compressibility (1/GPa) = 0.02351195
#
# Stress axis : x y z
#
# Youngs Moduli (GPa) = 64.23427 82.46023 121.39248
#
# Poissons Ratio (x) = 0.15262 0.25157
# Poissons Ratio (y) = 0.11888 0.27766
# Poissons Ratio (z) = 0.13312 0.18861
#
# Static dielectric constant tensor:
#      x y z
#    x 1.801580 0.000000 0.000000 
#    y 0.000000 1.960910 0.000000 
#    z 0.000000 0.000000 2.000930 
# 
# From -- ./inp_files/24044.got.cif
#   From: 2010.05.17/outbox.cif.g08.bks.cpg/sg58_13_cif.got.tgz:24044.got - 2010.06.03 14:20:14.
