data_PCOD9444779
_publ_section_title
;
Structure prediction by ZEFSAII (Michael W. Deem and Ramdas Pophale) SiO2 
 PCOD9444779
Probable space group: P N N M
;
_chemical_formula_sum "Si O2"
_cell_formula_units_Z 58
_cell_length_a 10.684548
_cell_length_b 9.159199
_cell_length_c 26.134662
_cell_angle_alpha 90.000000
_cell_angle_beta 90.000000
_cell_angle_gamma 90.000000
_cell_volume 2557.587715
_symmetry_space_group_name_H-M "P N N M"
_symmetry_group_IT_number 58
_symmetry_cell_setting 'orthorhombic'
loop_
_space_group_symop_operation_xyz
x,y,z
-x,-y,z
1/2+x,1/2-y,1/2-z
1/2-x,1/2+y,1/2-z
-x,-y,-z
x,y,-z
1/2-x,1/2+y,1/2+z
1/2+x,1/2-y,1/2+z
loop_
_atom_site_type_symbol
_atom_site_label
_atom_site_fract_x
_atom_site_fract_y
_atom_site_fract_z
Si Si1 0.141378 0.545756 0.797282
Si Si2 0.196610 0.567822 0.557881
Si Si3 0.215779 0.769587 0.720310
Si Si4 0.585208 0.879105 0.408053
Si Si5 0.000000 0.000000 0.500000
Si Si6 0.484458 0.170266 0.144125
Si Si7 0.154030 0.229677 0.430442
Si Si8 0.090991 0.128570 0.860404
O O1 0.180361 0.698476 0.773825
O O2 0.234453 0.430382 0.773046
O O3 0.145131 0.541610 0.858403
O O4 0.000000 0.500000 0.783357
O O5 0.212609 0.625415 0.500000
O O6 0.098259 0.659572 0.591781
O O7 0.149139 0.400865 0.553477
O O8 0.320327 0.572378 0.593110
O O9 0.092224 0.755578 0.686078
O O10 0.322177 0.687960 0.685635
O O11 0.702482 0.816262 0.437790
O O12 0.495987 0.754861 0.384524
O O13 0.500000 0.000000 0.435261
O O14 0.933152 0.891657 0.456509
O O15 0.611208 0.250596 0.128529
O O16 0.500000 0.000000 0.159482
O O17 0.000000 0.000000 0.842854
#
# Coordination Sequence:
#
# PCOD9444779 Si02
#       8
#     8   8   8   8   2   8   8   8
#     4  11  25  43  66  96 137 172 221 283 328 408
#     4  10  21  40  69 100 129 168 228 281 333 402
#     4  11  24  42  67  98 132 173 223 273 342 398
#     4  11  24  48  68  94 139 183 220 283 346 399
#     4  12  28  40  68  98 144 182 226 288 346 422
#     4   9  22  41  67  97 130 172 219 280 336 404
#     4  11  24  43  66  97 138 178 225 278 344 407
#     4  11  22  42  71  98 131 179 223 276 342 405
#
# _framework density 22.677620000000001
#
# number of rings (size 3 to 8) (size 9 to 14) (size 15 to 20)
#    0.000    1.379    4.828    0.414    4.828    2.207 
#    1.241    1.724    0.000    0.000    0.000    0.000 
#    0.000    0.000    0.000    0.000    0.000    0.000 
#
# Total GULP energy -323542.989982 kJ/mol
# GULP energy per Si atom -5578.327413 kJ/mol
# Density = 2.262600 g / cm^3
# Si number density = 22.677620 Si / 1000 Ang^3
#
#
#
# Elastic Constant Matrix: (Units=GPa)
#
#
# Indices 1 2 3 4 5 6 
#
# 1 62.0570 11.0923 -1.2129 0.0000 0.0000 0.0000
# 2 11.0923 59.4376 -9.9206 0.0000 0.0000 0.0000
# 3 -1.2129 -9.9206 50.7612 0.0000 0.0000 0.0000
# 4 0.0000 0.0000 0.0000 4.9541 0.0000 0.0000
# 5 0.0000 0.0000 0.0000 0.0000 -0.4627 0.0000
# 6 0.0000 0.0000 0.0000 0.0000 0.0000 47.8926
#
#
#
# Elastic Compliance Matrix: (Units=1/GPa)
#
#
# Indices 1 2 3 4 5 6 
#
# 1 0.016673 -0.003148 -0.000217 0.000000 0.000000 0.000000
# 2 -0.003148 0.017986 0.003440 0.000000 0.000000 0.000000
# 3 -0.000217 0.003440 0.020367 0.000000 0.000000 0.000000
# 4 0.000000 0.000000 0.000000 0.201854 0.000000 0.000000
# 5 0.000000 0.000000 0.000000 0.000000 -2.161103 0.000000
# 6 0.000000 0.000000 0.000000 0.000000 0.000000 0.020880
#
#
# Mechanical properties :
#
#
# Convention : Reuss Voigt Hill
#
# Bulk Modulus (GPa) = 18.12357 19.13035 18.62696
# Shear Modulus (GPa) = -2.68082 21.96325 9.64122
#
# Velocity S-wave (km/s) = -1.08844 3.11545 2.06413
# Velocity P-wave (km/s) = 2.53566 4.62552 3.72995
#
# Compressibility (1/GPa) = 0.05517676
#
# Stress axis : x y z
#
# Youngs Moduli (GPa) = 59.97866 55.59901 49.09855
#
# Poissons Ratio (x) = 0.17500 0.01064
# Poissons Ratio (y) = 0.18879 -0.16889
# Poissons Ratio (z) = 0.01300 -0.19126
#
# Static dielectric constant tensor:
#      x y z
#    x 1.850220 0.000000 0.000000 
#    y 0.000000 1.843710 0.000000 
#    z 0.000000 0.000000 1.864000 
# 
# From -- ./inp_files/33571.got.cif
#   From: 2010.05.17/outbox.cif.g08.bks.cpg/sg58_17_cif.got.tgz:33571.got - 2010.06.03 14:20:14.
