data_PCOD9444008
_publ_section_title
;
Structure prediction by ZEFSAII (Michael W. Deem and Ramdas Pophale) SiO2 
 PCOD9444008
Probable space group: P N N M
;
_chemical_formula_sum "Si O2"
_cell_formula_units_Z 48
_cell_length_a 15.340755
_cell_length_b 19.246437
_cell_length_c 8.799947
_cell_angle_alpha 90.000000
_cell_angle_beta 90.000000
_cell_angle_gamma 90.000000
_cell_volume 2598.227248
_symmetry_space_group_name_H-M "P N N M"
_symmetry_group_IT_number 58
_symmetry_cell_setting 'orthorhombic'
loop_
_space_group_symop_operation_xyz
x,y,z
-x,-y,z
1/2+x,1/2-y,1/2-z
1/2-x,1/2+y,1/2-z
-x,-y,-z
x,y,-z
1/2-x,1/2+y,1/2+z
1/2+x,1/2-y,1/2+z
loop_
_atom_site_type_symbol
_atom_site_label
_atom_site_fract_x
_atom_site_fract_y
_atom_site_fract_z
Si Si1 0.874865 0.678072 0.681808
Si Si2 0.529960 0.579351 0.818387
Si Si3 0.874626 0.830181 0.180855
Si Si4 0.464194 0.076894 0.818129
Si Si5 0.280487 0.427877 0.682185
Si Si6 0.276055 0.076042 0.680967
O O1 0.873915 0.691355 0.500000
O O2 0.874891 0.750244 0.769175
O O3 0.790755 0.630986 0.718137
O O4 0.960717 0.632544 0.715562
O O5 0.500000 0.500000 0.787319
O O6 0.458556 0.630792 0.749541
O O7 0.624514 0.590264 0.745531
O O8 0.534358 0.588017 0.000000
O O9 0.789901 0.868359 0.248161
O O10 0.875114 0.836861 0.000000
O O11 0.374840 0.090536 0.731208
O O12 0.500000 0.000000 0.780811
O O13 0.447263 0.077770 0.000000
O O14 0.283394 0.436045 0.500000
O O15 0.250332 0.500486 0.754906
O O16 0.267295 0.076147 0.500000
#
# Coordination Sequence:
#
# PCOD9444008 Si02
#       6
#     8   8   8   8   8   8
#     4  10  23  43  66  93 130 166 205 261 317 371
#     4  11  23  40  65  96 127 164 207 260 316 374
#     4  12  26  43  65  92 127 169 212 260 315 376
#     4  10  20  40  67  95 125 166 211 255 311 374
#     4  11  22  40  67  96 125 166 213 259 312 375
#     4  12  24  39  63  95 129 166 211 262 312 371
#
# _framework density 18.474133999999999
#
# number of rings (size 3 to 8) (size 9 to 14) (size 15 to 20)
#    0.000    1.000    3.333    4.000    0.000    4.333 
#    0.000    0.000    0.000    0.000    0.000    0.000 
#    0.000    0.000    0.000    0.000    0.000    0.000 
#
# Total GULP energy -268539.679768 kJ/mol
# GULP energy per Si atom -5594.576662 kJ/mol
# Density = 1.843209 g / cm^3
# Si number density = 18.474134 Si / 1000 Ang^3
#
#
#
# Elastic Constant Matrix: (Units=GPa)
#
#
# Indices 1 2 3 4 5 6 
#
# 1 161.9952 71.5174 72.8849 0.0000 0.0000 0.0000
# 2 71.5174 135.0724 77.6228 0.0000 0.0000 0.0000
# 3 72.8849 77.6228 96.6117 0.0000 0.0000 0.0000
# 4 0.0000 0.0000 0.0000 31.5011 0.0000 0.0000
# 5 0.0000 0.0000 0.0000 0.0000 70.3882 0.0000
# 6 0.0000 0.0000 0.0000 0.0000 0.0000 28.5688
#
#
#
# Elastic Compliance Matrix: (Units=1/GPa)
#
#
# Indices 1 2 3 4 5 6 
#
# 1 0.009551 -0.001702 -0.005838 0.000000 0.000000 0.000000
# 2 -0.001702 0.014057 -0.010010 0.000000 0.000000 0.000000
# 3 -0.005838 -0.010010 0.022798 0.000000 0.000000 0.000000
# 4 0.000000 0.000000 0.000000 0.031745 0.000000 0.000000
# 5 0.000000 0.000000 0.000000 0.000000 0.014207 0.000000
# 6 0.000000 0.000000 0.000000 0.000000 0.000000 0.035003
#
#
# Mechanical properties :
#
#
# Convention : Reuss Voigt Hill
#
# Bulk Modulus (GPa) = 88.45255 93.08107 90.76681
# Shear Modulus (GPa) = 30.07882 37.53524 33.80703
#
# Velocity S-wave (km/s) = 4.03942 4.51241 4.28245
# Velocity P-wave (km/s) = 8.35099 8.81153 8.58435
#
# Compressibility (1/GPa) = 0.01130550
#
# Stress axis : x y z
#
# Youngs Moduli (GPa) = 104.70058 71.13711 43.86437
#
# Poissons Ratio (x) = 0.12109 0.25607
# Poissons Ratio (y) = 0.17822 0.43909
# Poissons Ratio (z) = 0.61122 0.71210
#
# Static dielectric constant tensor:
#      x y z
#    x 1.613660 0.000000 0.000000 
#    y 0.000000 1.602540 0.000000 
#    z 0.000000 0.000000 1.615860 
# 
# From -- ./inp_files/5906.got.cif
#   From: 2010.05.17/outbox.cif.g08.bks.cpg/sg58_3_cif.got.tgz:5906.got - 2010.06.03 14:20:14.
