data_PCOD9444360
_publ_section_title
;
Structure prediction by ZEFSAII (Michael W. Deem and Ramdas Pophale) SiO2 
 PCOD9444360
Probable space group: P N N M
;
_chemical_formula_sum "Si O2"
_cell_formula_units_Z 56
_cell_length_a 9.348577
_cell_length_b 13.835526
_cell_length_c 22.346866
_cell_angle_alpha 90.000000
_cell_angle_beta 90.000000
_cell_angle_gamma 90.000000
_cell_volume 2890.399072
_symmetry_space_group_name_H-M "P N N M"
_symmetry_group_IT_number 58
_symmetry_cell_setting 'orthorhombic'
loop_
_space_group_symop_operation_xyz
x,y,z
-x,-y,z
1/2+x,1/2-y,1/2-z
1/2-x,1/2+y,1/2-z
-x,-y,-z
x,y,-z
1/2-x,1/2+y,1/2+z
1/2+x,1/2-y,1/2+z
loop_
_atom_site_type_symbol
_atom_site_label
_atom_site_fract_x
_atom_site_fract_y
_atom_site_fract_z
Si Si1 0.132009 0.694805 0.827334
Si Si2 0.434800 0.244955 0.809136
Si Si3 0.782184 0.078183 0.000000
Si Si4 0.653989 0.465930 0.684051
Si Si5 0.119122 0.066266 0.317080
Si Si6 0.114991 0.143270 0.000000
Si Si7 0.839045 0.757815 0.126590
Si Si8 0.672824 0.128121 0.871905
O O1 0.112501 0.703628 0.755350
O O2 0.233026 0.604431 0.844633
O O3 0.212051 0.792285 0.848981
O O4 0.976823 0.694975 0.857225
O O5 0.541655 0.333819 0.798493
O O6 0.307378 0.287365 0.849727
O O7 0.521579 0.165894 0.847819
O O8 0.696191 0.114141 0.942147
O O9 0.943771 0.121965 0.000000
O O10 0.807236 0.961812 0.000000
O O11 0.500000 0.500000 0.659246
O O12 0.655579 0.485523 0.754615
O O13 0.659107 0.354794 0.667035
O O14 0.780730 0.526458 0.655796
O O15 0.000000 0.000000 0.349130
O O16 0.155355 0.203755 0.059036
#
# Coordination Sequence:
#
# PCOD9444360 Si02
#       8
#     8   8   4   8   8   4   8   8
#     4  11  19  37  58  83 114 161 209 249 302 359
#     4  11  23  38  54  86 126 158 203 252 310 360
#     4  11  20  37  59  87 116 167 214 236 276 376
#     4  11  17  32  56  83 118 159 200 231 286 352
#     4  10  21  37  59  84 115 154 202 259 306 358
#     4  11  22  35  59  87 122 160 206 238 284 377
#     4  12  21  36  57  86 122 164 195 240 298 359
#     4  11  22  35  59  86 123 167 203 242 295 364
#
# _framework density 19.374486999999998
#
# number of rings (size 3 to 8) (size 9 to 14) (size 15 to 20)
#    0.000    1.000    7.143    1.714    0.000    1.143 
#    0.000    2.857    0.000    0.000    0.000   19.000 
#    0.000    0.000    0.000    0.000    0.000    0.000 
#
# Total GULP energy -312563.906533 kJ/mol
# GULP energy per Si atom -5581.498331 kJ/mol
# Density = 1.933039 g / cm^3
# Si number density = 19.374487 Si / 1000 Ang^3
#
#
#
# Elastic Constant Matrix: (Units=GPa)
#
#
# Indices 1 2 3 4 5 6 
#
# 1 104.5143 28.1251 48.5777 0.0000 0.0000 0.0000
# 2 28.1251 42.4430 20.4045 0.0000 0.0000 0.0000
# 3 48.5777 20.4045 126.2193 0.0000 0.0000 0.0000
# 4 0.0000 0.0000 0.0000 21.2129 0.0000 0.0000
# 5 0.0000 0.0000 0.0000 0.0000 19.9240 0.0000
# 6 0.0000 0.0000 0.0000 0.0000 0.0000 37.8063
#
#
#
# Elastic Compliance Matrix: (Units=1/GPa)
#
#
# Indices 1 2 3 4 5 6 
#
# 1 0.013277 -0.006876 -0.003998 0.000000 0.000000 0.000000
# 2 -0.006876 0.029107 -0.002059 0.000000 0.000000 0.000000
# 3 -0.003998 -0.002059 0.009794 0.000000 0.000000 0.000000
# 4 0.000000 0.000000 0.000000 0.047141 0.000000 0.000000
# 5 0.000000 0.000000 0.000000 0.000000 0.050191 0.000000
# 6 0.000000 0.000000 0.000000 0.000000 0.000000 0.026451
#
#
# Mechanical properties :
#
#
# Convention : Reuss Voigt Hill
#
# Bulk Modulus (GPa) = 38.00552 51.93235 44.96894
# Shear Modulus (GPa) = 23.74196 27.52662 25.63429
#
# Velocity S-wave (km/s) = 3.50440 3.77339 3.64138
# Velocity P-wave (km/s) = 6.00278 6.77107 6.39846
#
# Compressibility (1/GPa) = 0.02631196
#
# Stress axis : x y z
#
# Youngs Moduli (GPa) = 75.31982 34.35576 102.09918
#
# Poissons Ratio (x) = 0.23622 0.40822
# Poissons Ratio (y) = 0.51788 0.21024
# Poissons Ratio (z) = 0.30115 0.07075
#
# Static dielectric constant tensor:
#      x y z
#    x 1.796810 0.000000 0.000000 
#    y 0.000000 1.690030 0.000000 
#    z 0.000000 0.000000 1.653660 
# 
# From -- ./inp_files/28995.got.cif
#   From: 2010.05.17/outbox.cif.g08.bks.cpg/sg58_15_cif.got.tgz:28995.got - 2010.06.03 14:20:14.
