data_PCOD9444140
_publ_section_title
;
Structure prediction by ZEFSAII (Michael W. Deem and Ramdas Pophale) SiO2 
 PCOD9444140
Probable space group: P N N M
;
_chemical_formula_sum "Si O2"
_cell_formula_units_Z 64
_cell_length_a 16.486944
_cell_length_b 14.695892
_cell_length_c 12.651253
_cell_angle_alpha 90.000000
_cell_angle_beta 90.000000
_cell_angle_gamma 90.000000
_cell_volume 3065.276497
_symmetry_space_group_name_H-M "P N N M"
_symmetry_group_IT_number 58
_symmetry_cell_setting 'orthorhombic'
loop_
_space_group_symop_operation_xyz
x,y,z
-x,-y,z
1/2+x,1/2-y,1/2-z
1/2-x,1/2+y,1/2-z
-x,-y,-z
x,y,-z
1/2-x,1/2+y,1/2+z
1/2+x,1/2-y,1/2+z
loop_
_atom_site_type_symbol
_atom_site_label
_atom_site_fract_x
_atom_site_fract_y
_atom_site_fract_z
Si Si1 0.919621 0.112201 0.382020
Si Si2 0.109054 0.343164 0.885945
Si Si3 0.133317 0.725945 0.874840
Si Si4 0.091487 0.019765 0.181974
Si Si5 0.477738 0.702815 0.729049
Si Si6 0.591237 0.975620 0.709868
Si Si7 0.272534 0.038466 0.117686
Si Si8 0.724238 0.747950 0.170499
O O1 0.924283 0.076265 0.500000
O O2 0.849722 0.187752 0.372970
O O3 0.998109 0.168941 0.344383
O O4 0.908951 0.032996 0.294650
O O5 0.059046 0.300755 0.789515
O O6 0.106508 0.450613 0.880762
O O7 0.197704 0.304838 0.868583
O O8 0.076024 0.311334 0.000000
O O9 0.103312 0.625485 0.837282
O O10 0.208939 0.747742 0.797516
O O11 0.061084 0.794885 0.839572
O O12 0.147684 0.729348 0.000000
O O13 0.086270 0.128928 0.189579
O O14 0.180191 0.001698 0.133488
O O15 0.000000 0.000000 0.135944
O O16 0.661371 0.992369 0.796476
O O17 0.500000 0.000000 0.748128
O O18 0.273314 0.148655 0.129700
O O19 0.298628 0.014009 0.000000
#
# Coordination Sequence:
#
# PCOD9444140 Si02
#       8
#     8   8   8   8   8   8   8   8
#     4  10  21  41  64  88 123 168 208 260 325 376
#     4  12  22  38  64  89 123 164 209 265 324 376
#     4  10  21  41  65  93 132 167 205 272 335 377
#     4  10  22  40  63  95 127 160 218 271 312 393
#     4  10  21  35  60  93 120 155 208 258 308 389
#     4  11  24  40  63  99 131 165 223 271 313 399
#     4  11  23  41  63  89 130 174 211 269 330 379
#     4  10  22  39  63  94 124 164 222 263 312 404
#
# _framework density 20.87903
#
# number of rings (size 3 to 8) (size 9 to 14) (size 15 to 20)
#    0.000    1.500    2.500    2.625    0.000    3.750 
#    0.000   15.000    0.000    0.000    0.000    0.000 
#    0.000    0.000    0.000    0.000    0.000    0.000 
#
# Total GULP energy -356722.619690 kJ/mol
# GULP energy per Si atom -5573.790933 kJ/mol
# Density = 2.083151 g / cm^3
# Si number density = 20.879030 Si / 1000 Ang^3
#
#
#
# Elastic Constant Matrix: (Units=GPa)
#
#
# Indices 1 2 3 4 5 6 
#
# 1 73.3633 10.3355 18.9767 0.0000 0.0000 0.0000
# 2 10.3355 72.2258 17.9125 0.0000 0.0000 0.0000
# 3 18.9767 17.9125 120.9107 0.0000 0.0000 0.0000
# 4 0.0000 0.0000 0.0000 6.9773 0.0000 0.0000
# 5 0.0000 0.0000 0.0000 0.0000 11.3852 0.0000
# 6 0.0000 0.0000 0.0000 0.0000 0.0000 34.4945
#
#
#
# Elastic Compliance Matrix: (Units=1/GPa)
#
#
# Indices 1 2 3 4 5 6 
#
# 1 0.014374 -0.001555 -0.002026 0.000000 0.000000 0.000000
# 2 -0.001555 0.014542 -0.001910 0.000000 0.000000 0.000000
# 3 -0.002026 -0.001910 0.008871 0.000000 0.000000 0.000000
# 4 0.000000 0.000000 0.000000 0.143321 0.000000 0.000000
# 5 0.000000 0.000000 0.000000 0.000000 0.087834 0.000000
# 6 0.000000 0.000000 0.000000 0.000000 0.000000 0.028990
#
#
# Mechanical properties :
#
#
# Convention : Reuss Voigt Hill
#
# Bulk Modulus (GPa) = 37.30509 40.10547 38.70528
# Shear Modulus (GPa) = 15.73079 25.18974 20.46027
#
# Velocity S-wave (km/s) = 2.74784 3.47718 3.13380
# Velocity P-wave (km/s) = 5.28900 5.94737 5.62782
#
# Compressibility (1/GPa) = 0.02680599
#
# Stress axis : x y z
#
# Youngs Moduli (GPa) = 69.57118 68.76781 112.72058
#
# Poissons Ratio (x) = 0.10690 0.22833
# Poissons Ratio (y) = 0.10815 0.21533
# Poissons Ratio (z) = 0.14093 0.13137
#
# Static dielectric constant tensor:
#      x y z
#    x 1.784900 0.000000 0.000000 
#    y 0.000000 1.754620 0.000000 
#    z 0.000000 0.000000 1.741700 
# 
# From -- ./inp_files/16551.got.cif
#   From: 2010.05.17/outbox.cif.g08.bks.cpg/sg58_9_cif.got.tgz:16551.got - 2010.06.03 14:20:14.
