data_PCOD9444403
_publ_section_title
;
Structure prediction by ZEFSAII (Michael W. Deem and Ramdas Pophale) SiO2 
 PCOD9444403
Probable space group: P N N M
;
_chemical_formula_sum "Si O2"
_cell_formula_units_Z 60
_cell_length_a 5.587411
_cell_length_b 16.059062
_cell_length_c 26.639807
_cell_angle_alpha 90.000000
_cell_angle_beta 90.000000
_cell_angle_gamma 90.000000
_cell_volume 2390.352045
_symmetry_space_group_name_H-M "P N N M"
_symmetry_group_IT_number 58
_symmetry_cell_setting 'orthorhombic'
loop_
_space_group_symop_operation_xyz
x,y,z
-x,-y,z
1/2+x,1/2-y,1/2-z
1/2-x,1/2+y,1/2-z
-x,-y,-z
x,y,-z
1/2-x,1/2+y,1/2+z
1/2+x,1/2-y,1/2+z
loop_
_atom_site_type_symbol
_atom_site_label
_atom_site_fract_x
_atom_site_fract_y
_atom_site_fract_z
Si Si1 0.328045 0.621492 0.717859
Si Si2 0.532936 0.841180 0.873600
Si Si3 0.957676 0.621909 0.861640
Si Si4 0.500000 0.000000 0.721531
Si Si5 0.790497 0.240010 0.800082
Si Si6 0.200036 0.072581 0.444878
Si Si7 0.752994 0.051453 0.943246
Si Si8 0.663391 0.708503 0.944583
O O1 0.605449 0.648214 0.712062
O O2 0.213920 0.610641 0.662519
O O3 0.210086 0.545781 0.748040
O O4 0.247618 0.702611 0.751439
O O5 0.303403 0.886210 0.897688
O O6 0.661643 0.799015 0.920623
O O7 0.439836 0.770930 0.835075
O O8 0.876771 0.567018 0.815132
O O9 0.034635 0.708430 0.836116
O O10 0.787786 0.646285 0.906519
O O11 0.163201 0.572756 0.892244
O O12 0.319651 0.061709 0.500000
O O13 0.097015 0.166697 0.447005
O O14 0.000000 0.000000 0.443822
O O15 0.500000 0.000000 0.943169
O O16 0.769964 0.088428 0.000000
O O17 0.000000 0.000000 0.936103
O O18 0.767696 0.708089 0.000000
#
# Coordination Sequence:
#
# PCOD9444403 Si02
#       8
#     8   8   8   4   8   8   8   8
#     4  11  24  45  66 100 133 181 235 301 360 439
#     4  12  24  41  72  98 136 186 236 300 364 435
#     4  11  21  42  64  97 134 189 222 286 353 424
#     4  10  26  42  67  96 135 168 242 288 358 440
#     4  11  23  42  70  95 136 179 229 292 364 424
#     4  10  21  37  60  94 138 179 225 277 333 411
#     4  10  25  48  72 105 149 193 241 304 378 452
#     4  11  23  39  64 101 136 179 233 282 341 429
#
# _framework density 25.100902999999999
#
# number of rings (size 3 to 8) (size 9 to 14) (size 15 to 20)
#    0.000    1.200    4.000    1.600    2.800    0.000 
#    0.000    5.333    0.000    0.000    0.000    0.000 
#    0.000    0.000    0.000    0.000    0.000    0.000 
#
# Total GULP energy -334980.803923 kJ/mol
# GULP energy per Si atom -5583.013399 kJ/mol
# Density = 2.504377 g / cm^3
# Si number density = 25.100903 Si / 1000 Ang^3
#
#
#
# Elastic Constant Matrix: (Units=GPa)
#
#
# Indices 1 2 3 4 5 6 
#
# 1 42.7659 8.5075 27.5173 0.0000 0.0000 0.0000
# 2 8.5075 58.9752 41.7980 0.0000 0.0000 0.0000
# 3 27.5173 41.7980 149.5008 0.0000 0.0000 0.0000
# 4 0.0000 0.0000 0.0000 41.7074 0.0000 0.0000
# 5 0.0000 0.0000 0.0000 0.0000 33.6924 0.0000
# 6 0.0000 0.0000 0.0000 0.0000 0.0000 31.6485
#
#
#
# Elastic Compliance Matrix: (Units=1/GPa)
#
#
# Indices 1 2 3 4 5 6 
#
# 1 0.026534 -0.000457 -0.004756 0.000000 0.000000 0.000000
# 2 -0.000457 0.021154 -0.005830 0.000000 0.000000 0.000000
# 3 -0.004756 -0.005830 0.009194 0.000000 0.000000 0.000000
# 4 0.000000 0.000000 0.000000 0.023977 0.000000 0.000000
# 5 0.000000 0.000000 0.000000 0.000000 0.029680 0.000000
# 6 0.000000 0.000000 0.000000 0.000000 0.000000 0.031597
#
#
# Mechanical properties :
#
#
# Convention : Reuss Voigt Hill
#
# Bulk Modulus (GPa) = 28.73862 45.20971 36.97416
# Shear Modulus (GPa) = 28.43778 32.97096 30.70437
#
# Velocity S-wave (km/s) = 3.36957 3.62821 3.50128
# Velocity P-wave (km/s) = 5.15875 5.96675 5.57740
#
# Compressibility (1/GPa) = 0.03479639
#
# Stress axis : x y z
#
# Youngs Moduli (GPa) = 37.68703 47.27164 108.76160
#
# Poissons Ratio (x) = 0.02159 0.51729
# Poissons Ratio (y) = 0.01722 0.63411
# Poissons Ratio (z) = 0.17925 0.27561
#
# Static dielectric constant tensor:
#      x y z
#    x 2.126510 0.000000 0.000000 
#    y 0.000000 2.052600 0.000000 
#    z 0.000000 0.000000 1.966280 
# 
# From -- ./inp_files/32940.got.cif
#   From: 2010.05.17/outbox.cif.g08.bks.cpg/sg58_17_cif.got.tgz:32940.got - 2010.06.03 14:20:14.
