data_PCOD9444149
_publ_section_title
;
Structure prediction by ZEFSAII (Michael W. Deem and Ramdas Pophale) SiO2 
 PCOD9444149
Probable space group: P N N M
;
_chemical_formula_sum "Si O2"
_cell_formula_units_Z 48
_cell_length_a 32.275366
_cell_length_b 9.559885
_cell_length_c 7.609742
_cell_angle_alpha 90.000000
_cell_angle_beta 90.000000
_cell_angle_gamma 90.000000
_cell_volume 2347.976666
_symmetry_space_group_name_H-M "P N N M"
_symmetry_group_IT_number 58
_symmetry_cell_setting 'orthorhombic'
loop_
_space_group_symop_operation_xyz
x,y,z
-x,-y,z
1/2+x,1/2-y,1/2-z
1/2-x,1/2+y,1/2-z
-x,-y,-z
x,y,-z
1/2-x,1/2+y,1/2+z
1/2+x,1/2-y,1/2+z
loop_
_atom_site_type_symbol
_atom_site_label
_atom_site_fract_x
_atom_site_fract_y
_atom_site_fract_z
Si Si1 0.711349 0.589780 0.292330
Si Si2 0.039107 0.087752 0.285674
Si Si3 0.868921 0.909438 0.711214
Si Si4 0.131547 0.413126 0.715020
Si Si5 0.960919 0.587835 0.714108
Si Si6 0.210418 0.584038 0.291124
O O1 0.716654 0.595939 0.500000
O O2 0.668104 0.512190 0.257811
O O3 0.749164 0.496114 0.218828
O O4 0.712120 0.749847 0.231932
O O5 0.038870 0.080144 0.500000
O O6 0.085278 0.043802 0.227803
O O7 0.034330 0.249982 0.238139
O O8 0.000000 0.000000 0.221893
O O9 0.870638 0.903724 0.500000
O O10 0.861501 0.748712 0.769823
O O11 0.131435 0.413745 0.500000
O O12 0.085212 0.457281 0.770211
O O13 0.168232 0.513259 0.777526
O O14 0.961148 0.581066 0.500000
O O15 0.000000 0.500000 0.777916
O O16 0.209917 0.559742 0.500000
#
# Coordination Sequence:
#
# PCOD9444149 Si02
#       6
#     8   8   8   8   8   8
#     4  11  23  36  52  76 102 127 163 208 249 298
#     4   8  14  24  41  69 100 129 164 203 242 286
#     4   9  17  32  53  74 102 137 168 204 250 297
#     4   8  15  29  48  70  96 128 165 200 240 293
#     4   8  13  21  36  62  96 126 151 191 244 288
#     4  10  21  36  53  72  96 129 165 201 245 295
#
# _framework density 20.443131999999999
#
# number of rings (size 3 to 8) (size 9 to 14) (size 15 to 20)
#    0.000    3.000    0.000    3.500    0.000    4.000 
#    0.000    5.833    0.000    0.500    0.000    0.000 
#    0.000    6.000    0.000    0.000    0.000    0.000 
#
# Total GULP energy -267733.214770 kJ/mol
# GULP energy per Si atom -5577.775308 kJ/mol
# Density = 2.039660 g / cm^3
# Si number density = 20.443132 Si / 1000 Ang^3
#
#
#
# Elastic Constant Matrix: (Units=GPa)
#
#
# Indices 1 2 3 4 5 6 
#
# 1 242.8461 137.5431 7.5472 0.0000 0.0000 0.0000
# 2 137.5431 127.7221 -0.6041 0.0000 0.0000 0.0000
# 3 7.5472 -0.6041 39.7196 0.0000 0.0000 0.0000
# 4 0.0000 0.0000 0.0000 9.5988 0.0000 0.0000
# 5 0.0000 0.0000 0.0000 0.0000 8.0950 0.0000
# 6 0.0000 0.0000 0.0000 0.0000 0.0000 121.0027
#
#
#
# Elastic Compliance Matrix: (Units=1/GPa)
#
#
# Indices 1 2 3 4 5 6 
#
# 1 0.010749 -0.011586 -0.002219 0.000000 0.000000 0.000000
# 2 -0.011586 0.020318 0.002510 0.000000 0.000000 0.000000
# 3 -0.002219 0.002510 0.025636 0.000000 0.000000 0.000000
# 4 0.000000 0.000000 0.000000 0.104179 0.000000 0.000000
# 5 0.000000 0.000000 0.000000 0.000000 0.123533 0.000000
# 6 0.000000 0.000000 0.000000 0.000000 0.000000 0.008264
#
#
# Mechanical properties :
#
#
# Convention : Reuss Voigt Hill
#
# Bulk Modulus (GPa) = 29.31245 77.69557 53.50401
# Shear Modulus (GPa) = 15.30743 45.45941 30.38342
#
# Velocity S-wave (km/s) = 2.73936 4.72073 3.85936
# Velocity P-wave (km/s) = 4.93711 8.23419 6.78885
#
# Compressibility (1/GPa) = 0.03411520
#
# Stress axis : x y z
#
# Youngs Moduli (GPa) = 93.03460 49.21760 39.00728
#
# Poissons Ratio (x) = 0.57022 0.08654
# Poissons Ratio (y) = 1.07787 -0.09793
# Poissons Ratio (z) = 0.20641 -0.12356
#
# Static dielectric constant tensor:
#      x y z
#    x 1.734860 0.000000 0.000000 
#    y 0.000000 1.670720 0.000000 
#    z 0.000000 0.000000 1.788520 
# 
# From -- ./inp_files/2990.got.cif
#   From: 2010.05.17/outbox.cif.g08.bks.cpg/sg58_2_cif.got.tgz:2990.got - 2010.06.03 14:20:14.
