data_PCOD9444518
_publ_section_title
;
Structure prediction by ZEFSAII (Michael W. Deem and Ramdas Pophale) SiO2 
 PCOD9444518
Probable space group: P N N M
;
_chemical_formula_sum "Si O2"
_cell_formula_units_Z 32
_cell_length_a 4.979212
_cell_length_b 34.541886
_cell_length_c 8.545986
_cell_angle_alpha 90.000000
_cell_angle_beta 90.000000
_cell_angle_gamma 90.000000
_cell_volume 1469.835868
_symmetry_space_group_name_H-M "P N N M"
_symmetry_group_IT_number 58
_symmetry_cell_setting 'orthorhombic'
loop_
_space_group_symop_operation_xyz
x,y,z
-x,-y,z
1/2+x,1/2-y,1/2-z
1/2-x,1/2+y,1/2-z
-x,-y,-z
x,y,-z
1/2-x,1/2+y,1/2+z
1/2+x,1/2-y,1/2+z
loop_
_atom_site_type_symbol
_atom_site_label
_atom_site_fract_x
_atom_site_fract_y
_atom_site_fract_z
Si Si1 0.915360 0.607329 0.318034
Si Si2 0.261185 0.473192 0.180899
Si Si3 0.142171 0.729225 0.814275
Si Si4 0.589966 0.352061 0.184599
O O1 0.982280 0.610126 0.500000
O O2 0.797518 0.565409 0.275920
O O3 0.682857 0.637644 0.272617
O O4 0.183265 0.615897 0.219617
O O5 0.500000 0.500000 0.242976
O O6 0.000000 0.500000 0.179332
O O7 0.326428 0.462231 0.000000
O O8 0.366040 0.761124 0.772020
O O9 0.274781 0.688440 0.766953
O O10 0.091357 0.728263 0.000000
O O11 0.531211 0.350244 0.000000
#
# Coordination Sequence:
#
# PCOD9444518 Si02
#       4
#     8   8   8   8
#     4  12  25  40  63  95 126 158 201 258 311 351
#     4  10  21  38  61  87 118 160 203 242 295 365
#     4  11  24  41  64  92 123 161 204 253 306 361
#     4  11  24  43  64  88 123 167 208 245 298 371
#
# _framework density 21.771141
#
# number of rings (size 3 to 8) (size 9 to 14) (size 15 to 20)
#    0.000    1.000    0.000    6.750    0.000   13.000 
#    0.000    0.000    0.000    0.000    0.000    0.000 
#    0.000    0.000    0.000    0.000    0.000    0.000 
#
# Total GULP energy -179232.895857 kJ/mol
# GULP energy per Si atom -5601.027996 kJ/mol
# Density = 2.172159 g / cm^3
# Si number density = 21.771141 Si / 1000 Ang^3
#
#
#
# Elastic Constant Matrix: (Units=GPa)
#
#
# Indices 1 2 3 4 5 6 
#
# 1 66.7282 -10.8004 -15.7592 0.0000 0.0000 0.0000
# 2 -10.8004 60.7181 7.0058 0.0000 0.0000 0.0000
# 3 -15.7592 7.0058 23.7764 0.0000 0.0000 0.0000
# 4 0.0000 0.0000 0.0000 6.7339 0.0000 0.0000
# 5 0.0000 0.0000 0.0000 0.0000 160.0532 0.0000
# 6 0.0000 0.0000 0.0000 0.0000 0.0000 36.8055
#
#
#
# Elastic Compliance Matrix: (Units=1/GPa)
#
#
# Indices 1 2 3 4 5 6 
#
# 1 0.017974 0.001887 0.011357 0.000000 0.000000 0.000000
# 2 0.001887 0.017247 -0.003831 0.000000 0.000000 0.000000
# 3 0.011357 -0.003831 0.050715 0.000000 0.000000 0.000000
# 4 0.000000 0.000000 0.000000 0.148502 0.000000 0.000000
# 5 0.000000 0.000000 0.000000 0.000000 0.006248 0.000000
# 6 0.000000 0.000000 0.000000 0.000000 0.000000 0.027170
#
#
# Mechanical properties :
#
#
# Convention : Reuss Voigt Hill
#
# Bulk Modulus (GPa) = 9.54553 12.45724 11.00138
# Shear Modulus (GPa) = 17.60863 52.10361 34.85612
#
# Velocity S-wave (km/s) = 2.84704 4.89738 4.00562
# Velocity P-wave (km/s) = 3.89891 6.14113 5.14369
#
# Compressibility (1/GPa) = 0.10476111
#
# Stress axis : x y z
#
# Youngs Moduli (GPa) = 55.63657 57.98028 19.71799
#
# Poissons Ratio (x) = -0.10939 -0.22394
# Poissons Ratio (y) = -0.10497 0.07555
# Poissons Ratio (z) = -0.63188 0.22215
#
# Static dielectric constant tensor:
#      x y z
#    x 1.752590 0.000000 0.000000 
#    y 0.000000 1.804340 0.000000 
#    z 0.000000 0.000000 1.747460 
# 
# From -- ./inp_files/1335.got.cif
#   From: 2010.05.17/outbox.cif.g08.bks.cpg/sg58_1_cif.got.tgz:1335.got - 2010.06.03 14:20:14.
