data_PCOD9444581
_publ_section_title
;
Structure prediction by ZEFSAII (Michael W. Deem and Ramdas Pophale) SiO2 
 PCOD9444581
Probable space group: P N N M
;
_chemical_formula_sum "Si O2"
_cell_formula_units_Z 64
_cell_length_a 8.833782
_cell_length_b 15.073193
_cell_length_c 24.517321
_cell_angle_alpha 90.000000
_cell_angle_beta 90.000000
_cell_angle_gamma 90.000000
_cell_volume 3264.562223
_symmetry_space_group_name_H-M "P N N M"
_symmetry_group_IT_number 58
_symmetry_cell_setting 'orthorhombic'
loop_
_space_group_symop_operation_xyz
x,y,z
-x,-y,z
1/2+x,1/2-y,1/2-z
1/2-x,1/2+y,1/2-z
-x,-y,-z
x,y,-z
1/2-x,1/2+y,1/2+z
1/2+x,1/2-y,1/2+z
loop_
_atom_site_type_symbol
_atom_site_label
_atom_site_fract_x
_atom_site_fract_y
_atom_site_fract_z
Si Si1 0.702337 0.663070 0.660085
Si Si2 0.287295 0.611147 0.062425
Si Si3 0.823342 0.026727 0.938077
Si Si4 0.717107 0.829907 0.938458
Si Si5 0.117549 0.919369 0.274609
Si Si6 0.662602 0.043784 0.367034
Si Si7 0.005569 0.225979 0.358636
Si Si8 0.010468 0.282547 0.904960
O O1 0.712202 0.598724 0.607652
O O2 0.659285 0.611276 0.714341
O O3 0.861764 0.712611 0.665416
O O4 0.571060 0.734203 0.645683
O O5 0.256625 0.516837 0.091195
O O6 0.412056 0.662847 0.097172
O O7 0.129972 0.668273 0.065407
O O8 0.330977 0.600320 0.000000
O O9 0.730489 0.935590 0.930477
O O10 0.796500 0.059768 0.000000
O O11 0.000000 0.000000 0.933755
O O12 0.616269 0.784546 0.891713
O O13 0.887895 0.790022 0.935538
O O14 0.658284 0.812743 0.000000
O O15 0.259373 0.954365 0.308865
O O16 0.058544 0.836666 0.310981
O O17 0.000000 0.000000 0.272715
O O18 0.629898 0.141831 0.388654
O O19 0.500000 0.000000 0.362417
#
# Coordination Sequence:
#
# PCOD9444581 Si02
#       8
#     8   8   8   8   8   8   8   8
#     4  11  26  44  68  93 124 177 218 267 333 384
#     4  10  21  40  64  94 137 177 210 257 327 392
#     4  10  21  41  67  99 130 164 213 269 321 385
#     4  11  22  38  66  98 133 168 210 266 325 383
#     4  12  25  46  67  92 131 171 219 273 322 380
#     4  10  22  42  63  96 132 168 213 272 317 380
#     4  11  25  44  63  98 131 169 219 269 322 384
#     4  10  21  38  64  95 128 165 224 260 312 387
#
# _framework density 19.604465000000001
#
# number of rings (size 3 to 8) (size 9 to 14) (size 15 to 20)
#    0.000    1.375    3.750    1.125    1.750    5.750 
#    2.250    1.875    0.000    0.000    0.000    0.000 
#    0.000    0.000    0.000    0.000    0.000    0.000 
#
# Total GULP energy -357556.424821 kJ/mol
# GULP energy per Si atom -5586.819138 kJ/mol
# Density = 1.955984 g / cm^3
# Si number density = 19.604465 Si / 1000 Ang^3
#
#
#
# Elastic Constant Matrix: (Units=GPa)
#
#
# Indices 1 2 3 4 5 6 
#
# 1 34.3618 8.2211 15.6190 0.0000 0.0000 0.0000
# 2 8.2211 78.7454 40.3461 0.0000 0.0000 0.0000
# 3 15.6190 40.3461 118.7951 0.0000 0.0000 0.0000
# 4 0.0000 0.0000 0.0000 33.1022 0.0000 0.0000
# 5 0.0000 0.0000 0.0000 0.0000 12.7870 0.0000
# 6 0.0000 0.0000 0.0000 0.0000 0.0000 25.8425
#
#
#
# Elastic Compliance Matrix: (Units=1/GPa)
#
#
# Indices 1 2 3 4 5 6 
#
# 1 0.031078 -0.001394 -0.003613 0.000000 0.000000 0.000000
# 2 -0.001394 0.015437 -0.005060 0.000000 0.000000 0.000000
# 3 -0.003613 -0.005060 0.010611 0.000000 0.000000 0.000000
# 4 0.000000 0.000000 0.000000 0.030209 0.000000 0.000000
# 5 0.000000 0.000000 0.000000 0.000000 0.078205 0.000000
# 6 0.000000 0.000000 0.000000 0.000000 0.000000 0.038696
#
#
# Mechanical properties :
#
#
# Convention : Reuss Voigt Hill
#
# Bulk Modulus (GPa) = 27.03135 40.03055 33.53095
# Shear Modulus (GPa) = 21.12387 25.52741 23.32564
#
# Velocity S-wave (km/s) = 3.28610 3.61241 3.45311
# Velocity P-wave (km/s) = 5.31189 6.15327 5.74800
#
# Compressibility (1/GPa) = 0.03699408
#
# Stress axis : x y z
#
# Youngs Moduli (GPa) = 32.17748 64.77947 94.23965
#
# Poissons Ratio (x) = 0.09027 0.34047
# Poissons Ratio (y) = 0.04484 0.47682
# Poissons Ratio (z) = 0.11625 0.32776
#
# Static dielectric constant tensor:
#      x y z
#    x 1.688720 0.000000 0.000000 
#    y 0.000000 1.720070 0.000000 
#    z 0.000000 0.000000 1.640180 
# 
# From -- ./inp_files/31640.got.cif
#   From: 2010.05.17/outbox.cif.g08.bks.cpg/sg58_16_cif.got.tgz:31640.got - 2010.06.03 14:20:14.
