data_PCOD9444822
_publ_section_title
;
Structure prediction by ZEFSAII (Michael W. Deem and Ramdas Pophale) SiO2 
 PCOD9444822
Probable space group: P N N M
;
_chemical_formula_sum "Si O2"
_cell_formula_units_Z 56
_cell_length_a 14.174276
_cell_length_b 12.633515
_cell_length_c 13.437028
_cell_angle_alpha 90.000000
_cell_angle_beta 90.000000
_cell_angle_gamma 90.000000
_cell_volume 2406.181080
_symmetry_space_group_name_H-M "P N N M"
_symmetry_group_IT_number 58
_symmetry_cell_setting 'orthorhombic'
loop_
_space_group_symop_operation_xyz
x,y,z
-x,-y,z
1/2+x,1/2-y,1/2-z
1/2-x,1/2+y,1/2-z
-x,-y,-z
x,y,-z
1/2-x,1/2+y,1/2+z
1/2+x,1/2-y,1/2+z
loop_
_atom_site_type_symbol
_atom_site_label
_atom_site_fract_x
_atom_site_fract_y
_atom_site_fract_z
Si Si1 0.384629 0.436381 0.888440
Si Si2 0.886261 0.310464 0.804149
Si Si3 0.240796 0.046489 0.767949
Si Si4 0.219089 0.263973 0.113890
Si Si5 0.051578 0.400059 0.112518
Si Si6 0.511101 0.252227 0.884079
Si Si7 0.221838 0.336373 0.617804
O O1 0.345846 0.506347 0.798611
O O2 0.312986 0.334770 0.889290
O O3 0.484879 0.377258 0.875190
O O4 0.377484 0.483448 0.000000
O O5 0.823141 0.416285 0.806537
O O6 0.967979 0.313976 0.885519
O O7 0.945326 0.302117 0.700411
O O8 0.809305 0.220640 0.826837
O O9 0.222436 0.153770 0.829257
O O10 0.277350 0.955534 0.841054
O O11 0.141201 0.343225 0.158122
O O12 0.192479 0.240750 0.000000
O O13 0.000000 0.500000 0.161609
O O14 0.078143 0.431622 0.000000
O O15 0.620714 0.222392 0.869132
O O16 0.488327 0.222770 0.000000
O O17 0.240355 0.335244 0.500000
#
# Coordination Sequence:
#
# PCOD9444822 Si02
#       7
#     8   8   8   8   8   8   8
#     4  10  21  43  66  96 138 187 238 291 354 431
#     4  12  25  40  71  98 139 177 237 290 354 422
#     4  12  23  40  68 109 136 185 229 301 362 426
#     4  10  21  41  67  98 141 182 230 291 359 426
#     4  10  23  42  69 101 135 179 231 289 350 420
#     4  10  23  44  70  96 136 188 238 289 351 433
#     4  11  26  47  68 101 145 185 232 296 363 428
#
# _framework density 23.273392000000001
#
# number of rings (size 3 to 8) (size 9 to 14) (size 15 to 20)
#    0.000    1.286    2.857    1.714    6.000    2.857 
#    0.000    4.286    0.000    5.143    0.000    0.000 
#    0.000    0.000    0.000    0.000    0.000    0.000 
#
# Total GULP energy -312876.168042 kJ/mol
# GULP energy per Si atom -5587.074429 kJ/mol
# Density = 2.322042 g / cm^3
# Si number density = 23.273392 Si / 1000 Ang^3
#
#
#
# Elastic Constant Matrix: (Units=GPa)
#
#
# Indices 1 2 3 4 5 6 
#
# 1 131.1371 35.3507 28.5982 0.0000 0.0000 0.0000
# 2 35.3507 81.0979 27.0292 0.0000 0.0000 0.0000
# 3 28.5982 27.0292 136.7359 0.0000 0.0000 0.0000
# 4 0.0000 0.0000 0.0000 37.1649 0.0000 0.0000
# 5 0.0000 0.0000 0.0000 0.0000 37.4521 0.0000
# 6 0.0000 0.0000 0.0000 0.0000 0.0000 41.1973
#
#
#
# Elastic Compliance Matrix: (Units=1/GPa)
#
#
# Indices 1 2 3 4 5 6 
#
# 1 0.008810 -0.003454 -0.001160 0.000000 0.000000 0.000000
# 2 -0.003454 0.014554 -0.002155 0.000000 0.000000 0.000000
# 3 -0.001160 -0.002155 0.007982 0.000000 0.000000 0.000000
# 4 0.000000 0.000000 0.000000 0.026907 0.000000 0.000000
# 5 0.000000 0.000000 0.000000 0.000000 0.026701 0.000000
# 6 0.000000 0.000000 0.000000 0.000000 0.000000 0.024273
#
#
# Mechanical properties :
#
#
# Convention : Reuss Voigt Hill
#
# Bulk Modulus (GPa) = 56.14956 58.99189 57.57072
# Shear Modulus (GPa) = 38.85016 40.36240 39.60628
#
# Velocity S-wave (km/s) = 4.09013 4.16898 4.12974
# Velocity P-wave (km/s) = 6.81792 6.96966 6.89421
#
# Compressibility (1/GPa) = 0.01780958
#
# Stress axis : x y z
#
# Youngs Moduli (GPa) = 113.51376 68.70814 125.28373
#
# Poissons Ratio (x) = 0.23728 0.14531
# Poissons Ratio (y) = 0.39202 0.26995
# Poissons Ratio (z) = 0.13166 0.14805
#
# Static dielectric constant tensor:
#      x y z
#    x 1.943480 0.000000 0.000000 
#    y 0.000000 1.926670 0.000000 
#    z 0.000000 0.000000 1.908690 
# 
# From -- ./inp_files/22231.got.cif
#   From: 2010.05.17/outbox.cif.g08.bks.cpg/sg58_12_cif.got.tgz:22231.got - 2010.06.03 14:20:14.
