data_PCOD9444308
_publ_section_title
;
Structure prediction by ZEFSAII (Michael W. Deem and Ramdas Pophale) SiO2 
 PCOD9444308
Probable space group: P N N M
;
_chemical_formula_sum "Si O2"
_cell_formula_units_Z 32
_cell_length_a 5.318230
_cell_length_b 8.504687
_cell_length_c 33.140201
_cell_angle_alpha 90.000000
_cell_angle_beta 90.000000
_cell_angle_gamma 90.000000
_cell_volume 1498.927366
_symmetry_space_group_name_H-M "P N N M"
_symmetry_group_IT_number 58
_symmetry_cell_setting 'orthorhombic'
loop_
_space_group_symop_operation_xyz
x,y,z
-x,-y,z
1/2+x,1/2-y,1/2-z
1/2-x,1/2+y,1/2-z
-x,-y,-z
x,y,-z
1/2-x,1/2+y,1/2+z
1/2+x,1/2-y,1/2+z
loop_
_atom_site_type_symbol
_atom_site_label
_atom_site_fract_x
_atom_site_fract_y
_atom_site_fract_z
Si Si1 0.983774 0.307580 0.408186
Si Si2 0.250860 0.104761 0.262960
Si Si3 0.032608 0.685867 0.682464
Si Si4 0.985864 0.191834 0.046336
O O1 0.922959 0.253809 0.362516
O O2 0.754695 0.256497 0.436532
O O3 0.000000 0.500000 0.408608
O O4 0.253682 0.256944 0.425557
O O5 0.272444 0.191866 0.219704
O O6 0.209041 0.228116 0.298826
O O7 0.500000 0.000000 0.267339
O O8 0.000000 0.000000 0.263090
O O9 0.000000 0.500000 0.677570
O O10 0.945724 0.239013 0.000000
O O11 0.000000 0.000000 0.046981
#
# Coordination Sequence:
#
# PCOD9444308 Si02
#       4
#     8   8   8   8
#     4   9  18  28  45  70  97 133 176 217 261 325
#     4  11  24  39  57  82 115 153 193 239 288 337
#     4  10  21  37  57  80 110 148 191 231 277 333
#     4   9  16  27  42  65 100 135 164 207 272 332
#
# _framework density 21.348597999999999
#
# number of rings (size 3 to 8) (size 9 to 14) (size 15 to 20)
#    0.000    2.250    0.000    3.750    0.000   14.000 
#    0.000    0.000    0.000    0.000    0.000    0.000 
#    0.000   20.000    0.000    0.000    0.000    0.000 
#
# Total GULP energy -178445.597847 kJ/mol
# GULP energy per Si atom -5576.424933 kJ/mol
# Density = 2.130001 g / cm^3
# Si number density = 21.348598 Si / 1000 Ang^3
#
#
#
# Elastic Constant Matrix: (Units=GPa)
#
#
# Indices 1 2 3 4 5 6 
#
# 1 143.6941 39.5042 31.4663 0.0000 0.0000 0.0000
# 2 39.5042 32.3843 23.4754 0.0000 0.0000 0.0000
# 3 31.4663 23.4754 128.4980 0.0000 0.0000 0.0000
# 4 0.0000 0.0000 0.0000 7.7205 0.0000 0.0000
# 5 0.0000 0.0000 0.0000 0.0000 34.5543 0.0000
# 6 0.0000 0.0000 0.0000 0.0000 0.0000 25.6772
#
#
#
# Elastic Compliance Matrix: (Units=1/GPa)
#
#
# Indices 1 2 3 4 5 6 
#
# 1 0.010479 -0.012590 -0.000266 0.000000 0.000000 0.000000
# 2 -0.012590 0.050719 -0.006183 0.000000 0.000000 0.000000
# 3 -0.000266 -0.006183 0.008977 0.000000 0.000000 0.000000
# 4 0.000000 0.000000 0.000000 0.129526 0.000000 0.000000
# 5 0.000000 0.000000 0.000000 0.000000 0.028940 0.000000
# 6 0.000000 0.000000 0.000000 0.000000 0.000000 0.038945
#
#
# Mechanical properties :
#
#
# Convention : Reuss Voigt Hill
#
# Bulk Modulus (GPa) = 31.15539 54.82979 42.99259
# Shear Modulus (GPa) = 15.80474 27.59911 21.70192
#
# Velocity S-wave (km/s) = 2.72383 3.59943 3.19180
# Velocity P-wave (km/s) = 4.95153 6.55846 5.81081
#
# Compressibility (1/GPa) = 0.03209717
#
# Stress axis : x y z
#
# Youngs Moduli (GPa) = 95.43284 19.71667 111.39685
#
# Poissons Ratio (x) = 0.24822 0.02963
# Poissons Ratio (y) = 1.20145 0.68876
# Poissons Ratio (z) = 0.02538 0.12191
#
# Static dielectric constant tensor:
#      x y z
#    x 1.767250 0.000000 0.000000 
#    y 0.000000 1.835720 0.000000 
#    z 0.000000 0.000000 1.757510 
# 
# From -- ./inp_files/33922.got.cif
#   From: 2010.05.17/outbox.cif.g08.bks.cpg/sg58_17_cif.got.tgz:33922.got - 2010.06.03 14:20:14.
