data_PCOD9444664
_publ_section_title
;
Structure prediction by ZEFSAII (Michael W. Deem and Ramdas Pophale) SiO2 
 PCOD9444664
Probable space group: P N N M
;
_chemical_formula_sum "Si O2"
_cell_formula_units_Z 48
_cell_length_a 15.154556
_cell_length_b 18.848015
_cell_length_c 8.863797
_cell_angle_alpha 90.000000
_cell_angle_beta 90.000000
_cell_angle_gamma 90.000000
_cell_volume 2531.795577
_symmetry_space_group_name_H-M "P N N M"
_symmetry_group_IT_number 58
_symmetry_cell_setting 'orthorhombic'
loop_
_space_group_symop_operation_xyz
x,y,z
-x,-y,z
1/2+x,1/2-y,1/2-z
1/2-x,1/2+y,1/2-z
-x,-y,-z
x,y,-z
1/2-x,1/2+y,1/2+z
1/2+x,1/2-y,1/2+z
loop_
_atom_site_type_symbol
_atom_site_label
_atom_site_fract_x
_atom_site_fract_y
_atom_site_fract_z
Si Si1 0.898364 0.513623 0.319270
Si Si2 0.998169 0.786388 0.681107
Si Si3 0.343521 0.824944 0.179924
Si Si4 0.437583 0.565908 0.319219
Si Si5 0.305401 0.237162 0.820365
Si Si6 0.748150 0.912580 0.679512
O O1 0.890475 0.501149 0.500000
O O2 0.873019 0.595014 0.288950
O O3 0.831582 0.461878 0.235056
O O4 0.000000 0.500000 0.277653
O O5 0.995903 0.797814 0.500000
O O6 0.093699 0.754713 0.719829
O O7 0.922146 0.729608 0.718031
O O8 0.979051 0.860331 0.762283
O O9 0.257358 0.801228 0.269665
O O10 0.326873 0.818962 0.000000
O O11 0.500000 0.500000 0.276122
O O12 0.429846 0.567028 0.500000
O O13 0.340342 0.560617 0.248544
O O14 0.270700 0.166675 0.738946
O O15 0.300392 0.226402 0.000000
O O16 0.754512 0.911850 0.500000
#
# Coordination Sequence:
#
# PCOD9444664 Si02
#       6
#     8   8   8   8   8   8
#     4  10  22  42  67  93 127 170 211 257 316 378
#     4  10  22  41  65  93 125 163 205 254 313 375
#     4  10  21  39  63  92 124 161 206 257 311 372
#     4  11  25  43  64  92 125 166 214 263 319 380
#     4  11  23  40  64  93 125 165 209 254 315 378
#     4  12  25  42  65  94 130 170 213 261 316 373
#
# _framework density 18.958876
#
# number of rings (size 3 to 8) (size 9 to 14) (size 15 to 20)
#    0.000    1.333    1.667    3.500    2.333    6.333 
#    0.000    1.667    0.000    0.000    0.000    0.000 
#    0.000    0.000    0.000    0.000    0.000    0.000 
#
# Total GULP energy -268467.821762 kJ/mol
# GULP energy per Si atom -5593.079620 kJ/mol
# Density = 1.891573 g / cm^3
# Si number density = 18.958876 Si / 1000 Ang^3
#
#
#
# Elastic Constant Matrix: (Units=GPa)
#
#
# Indices 1 2 3 4 5 6 
#
# 1 114.6247 18.8321 38.5660 0.0000 0.0000 0.0000
# 2 18.8321 68.3582 30.0834 0.0000 0.0000 0.0000
# 3 38.5660 30.0834 45.0076 0.0000 0.0000 0.0000
# 4 0.0000 0.0000 0.0000 2174.5256 0.0000 0.0000
# 5 0.0000 0.0000 0.0000 0.0000 31.9451 0.0000
# 6 0.0000 0.0000 0.0000 0.0000 0.0000 36.0226
#
#
#
# Elastic Compliance Matrix: (Units=1/GPa)
#
#
# Indices 1 2 3 4 5 6 
#
# 1 0.012410 0.001786 -0.011828 0.000000 0.000000 0.000000
# 2 0.001786 0.020982 -0.015556 0.000000 0.000000 0.000000
# 3 -0.011828 -0.015556 0.042751 0.000000 0.000000 0.000000
# 4 0.000000 0.000000 0.000000 0.000460 0.000000 0.000000
# 5 0.000000 0.000000 0.000000 0.000000 0.031304 0.000000
# 6 0.000000 0.000000 0.000000 0.000000 0.000000 0.027760
#
#
# Mechanical properties :
#
#
# Convention : Reuss Voigt Hill
#
# Bulk Modulus (GPa) = 40.08122 44.77260 42.42691
# Shear Modulus (GPa) = 25.61753 457.86592 241.74173
#
# Velocity S-wave (km/s) = 3.67988 15.55728 11.30422
# Velocity P-wave (km/s) = 6.26437 18.61108 13.88551
#
# Compressibility (1/GPa) = 0.02494934
#
# Stress axis : x y z
#
# Youngs Moduli (GPa) = 80.57851 47.65888 23.39116
#
# Poissons Ratio (x) = -0.08514 0.27667
# Poissons Ratio (y) = -0.14395 0.36386
# Poissons Ratio (z) = 0.95310 0.74136
#
# Static dielectric constant tensor:
#      x y z
#    x 1.634980 0.000000 0.000000 
#    y 0.000000 1.626520 0.000000 
#    z 0.000000 0.000000 1.638080 
# 
# From -- ./inp_files/5872.got.cif
#   From: 2010.05.17/outbox.cif.g08.bks.cpg/sg58_3_cif.got.tgz:5872.got - 2010.06.03 14:20:14.
