data_PCOD9444482
_publ_section_title
;
Structure prediction by ZEFSAII (Michael W. Deem and Ramdas Pophale) SiO2 
 PCOD9444482
Probable space group: P N N M
;
_chemical_formula_sum "Si O2"
_cell_formula_units_Z 40
_cell_length_a 14.972169
_cell_length_b 10.018315
_cell_length_c 13.803746
_cell_angle_alpha 90.000000
_cell_angle_beta 90.000000
_cell_angle_gamma 90.000000
_cell_volume 2070.505377
_symmetry_space_group_name_H-M "P N N M"
_symmetry_group_IT_number 58
_symmetry_cell_setting 'orthorhombic'
loop_
_space_group_symop_operation_xyz
x,y,z
-x,-y,z
1/2+x,1/2-y,1/2-z
1/2-x,1/2+y,1/2-z
-x,-y,-z
x,y,-z
1/2-x,1/2+y,1/2+z
1/2+x,1/2-y,1/2+z
loop_
_atom_site_type_symbol
_atom_site_label
_atom_site_fract_x
_atom_site_fract_y
_atom_site_fract_z
Si Si1 0.093793 0.245607 0.301741
Si Si2 0.908285 0.917589 0.111407
Si Si3 0.771375 0.521125 0.304798
Si Si4 0.091192 0.693482 0.613606
Si Si5 0.172455 0.988745 0.610597
O O1 0.091663 0.200608 0.189836
O O2 0.177610 0.340849 0.320853
O O3 0.003215 0.317188 0.333050
O O4 0.106056 0.109930 0.363251
O O5 0.823112 0.008063 0.140299
O O6 0.899533 0.873951 0.000000
O O7 0.000000 0.000000 0.121931
O O8 0.834788 0.402973 0.341577
O O9 0.749176 0.504646 0.191334
O O10 0.080565 0.662656 0.500000
O O11 0.124300 0.846301 0.622440
O O12 0.202957 0.000479 0.500000
#
# Coordination Sequence:
#
# PCOD9444482 Si02
#       5
#     8   8   8   8   8
#     4  11  22  38  61  90 118 149 195 246 290 340
#     4  10  22  40  61  85 118 161 202 238 287 354
#     4  11  23  38  59  87 120 152 188 239 296 349
#     4  11  23  40  61  86 119 156 192 237 296 352
#     4  10  21  38  60  83 112 153 197 239 283 339
#
# _framework density 19.318954999999999
#
# number of rings (size 3 to 8) (size 9 to 14) (size 15 to 20)
#    0.000    1.400    0.000    7.200    0.000    8.000 
#    0.000    3.000    0.000    2.400    0.000    0.000 
#    0.000    0.000    0.000    0.000    0.000    0.000 
#
# Total GULP energy -223620.950982 kJ/mol
# GULP energy per Si atom -5590.523775 kJ/mol
# Density = 1.927498 g / cm^3
# Si number density = 19.318955 Si / 1000 Ang^3
#
#
#
# Elastic Constant Matrix: (Units=GPa)
#
#
# Indices 1 2 3 4 5 6 
#
# 1 124.0036 34.5744 63.7530 0.0000 0.0000 0.0000
# 2 34.5744 55.4776 32.5137 0.0000 0.0000 0.0000
# 3 63.7530 32.5137 137.8468 0.0000 0.0000 0.0000
# 4 0.0000 0.0000 0.0000 18.9503 0.0000 0.0000
# 5 0.0000 0.0000 0.0000 0.0000 -14.7511 0.0000
# 6 0.0000 0.0000 0.0000 0.0000 0.0000 8.0665
#
#
#
# Elastic Compliance Matrix: (Units=1/GPa)
#
#
# Indices 1 2 3 4 5 6 
#
# 1 0.011556 -0.004722 -0.004231 0.000000 0.000000 0.000000
# 2 -0.004722 0.022847 -0.003205 0.000000 0.000000 0.000000
# 3 -0.004231 -0.003205 0.009967 0.000000 0.000000 0.000000
# 4 0.000000 0.000000 0.000000 0.052770 0.000000 0.000000
# 5 0.000000 0.000000 0.000000 0.000000 -0.067791 0.000000
# 6 0.000000 0.000000 0.000000 0.000000 0.000000 0.123970
#
#
# Mechanical properties :
#
#
# Convention : Reuss Voigt Hill
#
# Bulk Modulus (GPa) = 49.86551 64.33447 57.09999
# Shear Modulus (GPa) = 27.12698 14.88558 21.00628
#
# Velocity S-wave (km/s) = 3.75128 2.77883 3.30106
# Velocity P-wave (km/s) = 6.68061 6.60828 6.64454
#
# Compressibility (1/GPa) = 0.02005394
#
# Stress axis : x y z
#
# Youngs Moduli (GPa) = 86.53447 43.77030 100.33117
#
# Poissons Ratio (x) = 0.20670 0.42447
# Poissons Ratio (y) = 0.40865 0.32153
# Poissons Ratio (z) = 0.36610 0.14027
#
# Static dielectric constant tensor:
#      x y z
#    x 1.659970 0.000000 0.000000 
#    y 0.000000 1.669920 0.000000 
#    z 0.000000 0.000000 1.667520 
# 
# From -- ./inp_files/19503.got.cif
#   From: 2010.05.17/outbox.cif.g08.bks.cpg/sg58_10_cif.got.tgz:19503.got - 2010.06.03 14:20:14.
