data_PCOD9444550
_publ_section_title
;
Structure prediction by ZEFSAII (Michael W. Deem and Ramdas Pophale) SiO2 
 PCOD9444550
Probable space group: P N N M
;
_chemical_formula_sum "Si O2"
_cell_formula_units_Z 40
_cell_length_a 8.787625
_cell_length_b 29.479757
_cell_length_c 8.088226
_cell_angle_alpha 90.000000
_cell_angle_beta 90.000000
_cell_angle_gamma 90.000000
_cell_volume 2095.311964
_symmetry_space_group_name_H-M "P N N M"
_symmetry_group_IT_number 58
_symmetry_cell_setting 'orthorhombic'
loop_
_space_group_symop_operation_xyz
x,y,z
-x,-y,z
1/2+x,1/2-y,1/2-z
1/2-x,1/2+y,1/2-z
-x,-y,-z
x,y,-z
1/2-x,1/2+y,1/2+z
1/2+x,1/2-y,1/2+z
loop_
_atom_site_type_symbol
_atom_site_label
_atom_site_fract_x
_atom_site_fract_y
_atom_site_fract_z
Si Si1 0.568195 0.050353 0.500000
Si Si2 0.931937 0.050186 0.500000
Si Si3 0.944799 0.393640 0.312198
Si Si4 0.085233 0.294681 0.697363
Si Si5 0.068780 0.797118 0.194244
Si Si6 0.876258 0.881287 0.682965
O O1 0.751082 0.049471 0.500000
O O2 0.511127 0.075370 0.333482
O O3 0.500000 0.000000 0.500000
O O4 0.000657 0.078796 0.654684
O O5 0.000000 0.000000 0.500000
O O6 0.992656 0.405975 0.500000
O O7 0.000405 0.342225 0.279505
O O8 0.761639 0.393543 0.301263
O O9 0.090046 0.285567 0.500000
O O10 0.999712 0.252585 0.778308
O O11 0.258581 0.298491 0.759407
O O12 0.962611 0.835274 0.273645
O O13 0.074610 0.807260 0.000000
O O14 0.804452 0.875757 0.500000
#
# Coordination Sequence:
#
# PCOD9444550 Si02
#       6
#     4   4   8   8   8   8
#     4  12  24  44  72  98 132 168 220 270 331 394
#     4  10  22  42  68  96 126 170 216 268 327 392
#     4  11  23  42  67  96 131 171 216 270 326 391
#     4  10  23  38  55  85 124 167 220 264 319 383
#     4  11  22  36  56  85 123 168 216 267 316 382
#     4  10  21  38  62  91 124 164 210 262 322 383
#
# _framework density 19.090236000000001
#
# number of rings (size 3 to 8) (size 9 to 14) (size 15 to 20)
#    0.600    0.800    1.000    4.800    1.400    5.200 
#    0.000    1.000    0.000    4.200    0.000    0.000 
#    0.000    0.000    0.000    0.000    0.000    0.000 
#
# Total GULP energy -223318.688915 kJ/mol
# GULP energy per Si atom -5582.967223 kJ/mol
# Density = 1.904679 g / cm^3
# Si number density = 19.090236 Si / 1000 Ang^3
#
#
#
# Elastic Constant Matrix: (Units=GPa)
#
#
# Indices 1 2 3 4 5 6 
#
# 1 145.6610 53.0667 29.8600 0.0000 0.0000 0.0000
# 2 53.0667 119.9100 50.8470 0.0000 0.0000 0.0000
# 3 29.8600 50.8470 79.4732 0.0000 0.0000 0.0000
# 4 0.0000 0.0000 0.0000 29.9025 0.0000 0.0000
# 5 0.0000 0.0000 0.0000 0.0000 18.3728 0.0000
# 6 0.0000 0.0000 0.0000 0.0000 0.0000 35.7474
#
#
#
# Elastic Compliance Matrix: (Units=1/GPa)
#
#
# Indices 1 2 3 4 5 6 
#
# 1 0.008248 -0.003206 -0.001048 0.000000 0.000000 0.000000
# 2 -0.003206 0.012691 -0.006915 0.000000 0.000000 0.000000
# 3 -0.001048 -0.006915 0.017401 0.000000 0.000000 0.000000
# 4 0.000000 0.000000 0.000000 0.033442 0.000000 0.000000
# 5 0.000000 0.000000 0.000000 0.000000 0.054428 0.000000
# 6 0.000000 0.000000 0.000000 0.000000 0.000000 0.027974
#
#
# Mechanical properties :
#
#
# Convention : Reuss Voigt Hill
#
# Bulk Modulus (GPa) = 62.49204 68.06573 65.27888
# Shear Modulus (GPa) = 27.49443 30.88924 29.19183
#
# Velocity S-wave (km/s) = 3.79916 4.02688 3.91468
# Velocity P-wave (km/s) = 7.21464 7.57319 7.39608
#
# Compressibility (1/GPa) = 0.01600204
#
# Stress axis : x y z
#
# Youngs Moduli (GPa) = 121.24137 78.79862 57.46880
#
# Poissons Ratio (x) = 0.25262 0.06022
# Poissons Ratio (y) = 0.38868 0.39739
# Poissons Ratio (z) = 0.12705 0.54489
#
# Static dielectric constant tensor:
#      x y z
#    x 1.663930 0.000000 0.000000 
#    y 0.000000 1.615810 0.000000 
#    z 0.000000 0.000000 1.594520 
# 
# From -- ./inp_files/2662.got.cif
#   From: 2010.05.17/outbox.cif.g08.bks.cpg/sg58_2_cif.got.tgz:2662.got - 2010.06.03 14:20:14.
