data_PCOD9444879
_publ_section_title
;
Structure prediction by ZEFSAII (Michael W. Deem and Ramdas Pophale) SiO2 
 PCOD9444879
Probable space group: P N N M
;
_chemical_formula_sum "Si O2"
_cell_formula_units_Z 36
_cell_length_a 11.460671
_cell_length_b 5.454443
_cell_length_c 30.356000
_cell_angle_alpha 90.000000
_cell_angle_beta 90.000000
_cell_angle_gamma 90.000000
_cell_volume 1897.601423
_symmetry_space_group_name_H-M "P N N M"
_symmetry_group_IT_number 58
_symmetry_cell_setting 'orthorhombic'
loop_
_space_group_symop_operation_xyz
x,y,z
-x,-y,z
1/2+x,1/2-y,1/2-z
1/2-x,1/2+y,1/2-z
-x,-y,-z
x,y,-z
1/2-x,1/2+y,1/2+z
1/2+x,1/2-y,1/2+z
loop_
_atom_site_type_symbol
_atom_site_label
_atom_site_fract_x
_atom_site_fract_y
_atom_site_fract_z
Si Si1 0.294668 0.683355 0.178969
Si Si2 0.140138 0.994136 0.950106
Si Si3 0.858538 0.507591 0.897190
Si Si4 0.621923 0.618520 0.261497
Si Si5 0.500000 0.000000 0.800258
O O1 0.232067 0.515735 0.143174
O O2 0.315345 0.543167 0.224773
O O3 0.194885 0.870211 0.194058
O O4 0.418311 0.818120 0.171182
O O5 0.168198 0.240796 0.923058
O O6 0.166715 0.737331 0.926034
O O7 0.187551 0.000720 0.000000
O O8 0.000000 0.000000 0.953362
O O9 0.000000 0.500000 0.886234
O O10 0.500000 0.500000 0.273749
O O11 0.584986 0.857288 0.233311
#
# Coordination Sequence:
#
# PCOD9444879 Si02
#       5
#     8   8   8   8   4
#     4  11  22  36  57  80 116 150 204 243 287 346
#     4   9  18  36  56  83 120 153 182 230 301 369
#     4  10  22  33  57  91 118 150 193 240 292 350
#     4  10  22  36  55  76 108 154 193 241 294 336
#     4  10  22  40  52  76 107 160 195 234 300 342
#
# _framework density 18.971318
#
# number of rings (size 3 to 8) (size 9 to 14) (size 15 to 20)
#    0.000    2.000    2.222    0.667    4.667    5.333 
#    0.000    0.000    0.000    0.000    0.000    4.667 
#    0.000    0.000    0.000    0.000    0.000    0.000 
#
# Total GULP energy -200482.997695 kJ/mol
# GULP energy per Si atom -5568.972158 kJ/mol
# Density = 1.892814 g / cm^3
# Si number density = 18.971318 Si / 1000 Ang^3
#
#
#
# Elastic Constant Matrix: (Units=GPa)
#
#
# Indices 1 2 3 4 5 6 
#
# 1 79.2843 25.6964 38.3772 0.0000 0.0000 0.0000
# 2 25.6964 90.7336 25.4303 0.0000 0.0000 0.0000
# 3 38.3772 25.4303 57.1575 0.0000 0.0000 0.0000
# 4 0.0000 0.0000 0.0000 7.8034 0.0000 0.0000
# 5 0.0000 0.0000 0.0000 0.0000 -20.9358 0.0000
# 6 0.0000 0.0000 0.0000 0.0000 0.0000 -4.3046
#
#
#
# Elastic Compliance Matrix: (Units=1/GPa)
#
#
# Indices 1 2 3 4 5 6 
#
# 1 0.019018 -0.002065 -0.011851 0.000000 0.000000 0.000000
# 2 -0.002065 0.012816 -0.004316 0.000000 0.000000 0.000000
# 3 -0.011851 -0.004316 0.027373 0.000000 0.000000 0.000000
# 4 0.000000 0.000000 0.000000 0.128149 0.000000 0.000000
# 5 0.000000 0.000000 0.000000 0.000000 -0.047765 0.000000
# 6 0.000000 0.000000 0.000000 0.000000 0.000000 -0.232310
#
#
# Mechanical properties :
#
#
# Convention : Reuss Voigt Hill
#
# Bulk Modulus (GPa) = 43.96703 45.13144 44.54923
# Shear Modulus (GPa) = -102.72139 5.69070 -48.51534
#
# Velocity S-wave (km/s) = -7.36635 1.73382 -5.06246
# Velocity P-wave (km/s) = 7.00893 5.27723 3.26159
#
# Compressibility (1/GPa) = 0.02274432
#
# Stress axis : x y z
#
# Youngs Moduli (GPa) = 52.58074 78.03022 36.53287
#
# Poissons Ratio (x) = 0.16111 0.43295
# Poissons Ratio (y) = 0.10856 0.15766
# Poissons Ratio (z) = 0.62313 0.33675
#
# Static dielectric constant tensor:
#      x y z
#    x 3.705800 0.000000 0.000000 
#    y 0.000000 0.463240 0.000000 
#    z 0.000000 0.000000 1.651790 
# 
# From -- ./inp_files/34849.got.cif
#   From: 2010.05.17/outbox.cif.g08.bks.cpg/sg58_18_cif.got.tgz:34849.got - 2010.06.03 14:20:14.
