data_PCOD9444593
_publ_section_title
;
Structure prediction by ZEFSAII (Michael W. Deem and Ramdas Pophale) SiO2 
 PCOD9444593
Probable space group: P N N M
;
_chemical_formula_sum "Si O2"
_cell_formula_units_Z 64
_cell_length_a 20.490621
_cell_length_b 10.123313
_cell_length_c 14.111112
_cell_angle_alpha 90.000000
_cell_angle_beta 90.000000
_cell_angle_gamma 90.000000
_cell_volume 2927.109871
_symmetry_space_group_name_H-M "P N N M"
_symmetry_group_IT_number 58
_symmetry_cell_setting 'orthorhombic'
loop_
_space_group_symop_operation_xyz
x,y,z
-x,-y,z
1/2+x,1/2-y,1/2-z
1/2-x,1/2+y,1/2-z
-x,-y,-z
x,y,-z
1/2-x,1/2+y,1/2+z
1/2+x,1/2-y,1/2+z
loop_
_atom_site_type_symbol
_atom_site_label
_atom_site_fract_x
_atom_site_fract_y
_atom_site_fract_z
Si Si1 0.494531 0.656041 0.223062
Si Si2 0.630940 0.707600 0.745543
Si Si3 0.839264 0.971571 0.109382
Si Si4 0.864105 0.822373 0.608534
Si Si5 0.071654 0.273608 0.110737
Si Si6 0.688502 0.040429 0.892490
Si Si7 0.220952 0.914205 0.388140
Si Si8 0.641352 0.985880 0.308721
O O1 0.500000 0.500000 0.211137
O O2 0.564061 0.715339 0.194568
O O3 0.428315 0.699080 0.171041
O O4 0.484585 0.701073 0.331211
O O5 0.629771 0.574244 0.682755
O O6 0.691053 0.695565 0.818604
O O7 0.635994 0.830537 0.674672
O O8 0.761632 0.986974 0.119838
O O9 0.865673 0.823716 0.125948
O O10 0.855545 0.004271 0.000000
O O11 0.886622 0.825933 0.500000
O O12 0.814446 0.699948 0.617591
O O13 0.826521 0.958872 0.626092
O O14 0.085987 0.418058 0.151966
O O15 0.059000 0.281246 0.000000
O O16 0.645280 0.992891 0.805361
O O17 0.666937 0.008742 0.000000
O O18 0.221991 0.879379 0.500000
O O19 0.292001 0.958142 0.353521
#
# Coordination Sequence:
#
# PCOD9444593 Si02
#       8
#     8   8   8   8   8   8   8   8
#     4  12  23  43  69  94 130 174 234 275 325 390
#     4  12  26  41  67 101 133 175 220 278 327 396
#     4  10  21  39  67  98 128 166 216 268 326 391
#     4  10  21  41  68  98 133 175 220 274 333 395
#     4  11  25  45  69  97 134 179 221 272 332 396
#     4  10  21  38  66  98 130 168 213 266 332 400
#     4  11  24  41  67 102 136 172 218 273 337 402
#     4  12  26  42  67  96 141 173 214 274 345 400
#
# _framework density 21.864570000000001
#
# number of rings (size 3 to 8) (size 9 to 14) (size 15 to 20)
#    0.000    1.000    5.000    1.125    1.750    4.500 
#    0.000    0.625    0.000    1.500    0.000    0.000 
#    0.000    0.000    0.000    0.000    0.000    0.000 
#
# Total GULP energy -357789.467258 kJ/mol
# GULP energy per Si atom -5590.460426 kJ/mol
# Density = 2.181481 g / cm^3
# Si number density = 21.864570 Si / 1000 Ang^3
#
#
#
# Elastic Constant Matrix: (Units=GPa)
#
#
# Indices 1 2 3 4 5 6 
#
# 1 49.7816 -2.5307 -2.3550 0.0000 0.0000 0.0000
# 2 -2.5307 74.2116 13.4874 0.0000 0.0000 0.0000
# 3 -2.3550 13.4874 72.2569 0.0000 0.0000 0.0000
# 4 0.0000 0.0000 0.0000 24.0434 0.0000 0.0000
# 5 0.0000 0.0000 0.0000 0.0000 12.5863 0.0000
# 6 0.0000 0.0000 0.0000 0.0000 0.0000 -4.0897
#
#
#
# Elastic Compliance Matrix: (Units=1/GPa)
#
#
# Indices 1 2 3 4 5 6 
#
# 1 0.020143 0.000588 0.000547 0.000000 0.000000 0.000000
# 2 0.000588 0.013965 -0.002588 0.000000 0.000000 0.000000
# 3 0.000547 -0.002588 0.014340 0.000000 0.000000 0.000000
# 4 0.000000 0.000000 0.000000 0.041591 0.000000 0.000000
# 5 0.000000 0.000000 0.000000 0.000000 0.079451 0.000000
# 6 0.000000 0.000000 0.000000 0.000000 0.000000 -0.244517
#
#
# Mechanical properties :
#
#
# Convention : Reuss Voigt Hill
#
# Bulk Modulus (GPa) = 21.95741 23.71704 22.83723
# Shear Modulus (GPa) = -87.81570 19.01791 -34.39890
#
# Velocity S-wave (km/s) = -6.34434 2.95244 -3.97075
# Velocity P-wave (km/s) = 6.60328 4.74272 3.24884
#
# Compressibility (1/GPa) = 0.04554270
#
# Stress axis : x y z
#
# Youngs Moduli (GPa) = 49.64382 71.60607 69.73341
#
# Poissons Ratio (x) = -0.04207 -0.03813
# Poissons Ratio (y) = -0.02917 0.18044
# Poissons Ratio (z) = -0.02715 0.18529
#
# Static dielectric constant tensor:
#      x y z
#    x 1.791610 0.000000 0.000000 
#    y 0.000000 1.830500 0.000000 
#    z 0.000000 0.000000 1.805560 
# 
# From -- ./inp_files/23566.got.cif
#   From: 2010.05.17/outbox.cif.g08.bks.cpg/sg58_12_cif.got.tgz:23566.got - 2010.06.03 14:20:14.
