data_PCOD9444520
_publ_section_title
;
Structure prediction by ZEFSAII (Michael W. Deem and Ramdas Pophale) SiO2 
 PCOD9444520
Probable space group: P N N M
;
_chemical_formula_sum "Si O2"
_cell_formula_units_Z 48
_cell_length_a 19.095305
_cell_length_b 15.027917
_cell_length_c 8.924557
_cell_angle_alpha 90.000000
_cell_angle_beta 90.000000
_cell_angle_gamma 90.000000
_cell_volume 2561.014604
_symmetry_space_group_name_H-M "P N N M"
_symmetry_group_IT_number 58
_symmetry_cell_setting 'orthorhombic'
loop_
_space_group_symop_operation_xyz
x,y,z
-x,-y,z
1/2+x,1/2-y,1/2-z
1/2-x,1/2+y,1/2-z
-x,-y,-z
x,y,-z
1/2-x,1/2+y,1/2+z
1/2+x,1/2-y,1/2+z
loop_
_atom_site_type_symbol
_atom_site_label
_atom_site_fract_x
_atom_site_fract_y
_atom_site_fract_z
Si Si1 0.085136 0.844061 0.322075
Si Si2 0.826549 0.506761 0.822096
Si Si3 0.564925 0.354815 0.320906
Si Si4 0.910362 0.664618 0.679114
Si Si5 0.428030 0.134194 0.823724
Si Si6 0.822927 0.009366 0.178670
O O1 0.084066 0.860298 0.500000
O O2 0.091071 0.737791 0.299528
O O3 0.146482 0.899371 0.245311
O O4 0.010944 0.872669 0.250948
O O5 0.854951 0.598196 0.750632
O O6 0.881150 0.430577 0.773915
O O7 0.750648 0.486663 0.753955
O O8 0.822782 0.514404 0.000000
O O9 0.557128 0.346186 0.500000
O O10 0.591664 0.262195 0.251374
O O11 0.619482 0.433339 0.289689
O O12 0.901889 0.670861 0.500000
O O13 0.988991 0.627174 0.707340
O O14 0.417248 0.113123 0.000000
O O15 0.814545 0.016168 0.000000
#
# Coordination Sequence:
#
# PCOD9444520 Si02
#       6
#     8   8   8   8   8   8
#     4  10  21  38  62  89 117 150 190 237 286 339
#     4  12  25  38  57  85 116 152 192 236 286 343
#     4  10  21  38  61  88 116 149 193 240 285 336
#     4  10  21  39  63  87 114 150 190 236 289 342
#     4   9  20  39  61  85 114 149 187 231 284 338
#     4  11  24  40  58  82 117 157 192 234 286 339
#
# _framework density 18.742573
#
# number of rings (size 3 to 8) (size 9 to 14) (size 15 to 20)
#    0.000    1.667    0.000    5.500    0.000   12.000 
#    0.000    1.667    0.000    0.000    0.000    0.000 
#    0.000    0.000    0.000    0.000    0.000    0.000 
#
# Total GULP energy -268380.497723 kJ/mol
# GULP energy per Si atom -5591.260369 kJ/mol
# Density = 1.869991 g / cm^3
# Si number density = 18.742573 Si / 1000 Ang^3
#
#
#
# Elastic Constant Matrix: (Units=GPa)
#
#
# Indices 1 2 3 4 5 6 
#
# 1 26.0867 10.4045 19.2640 0.0000 0.0000 0.0000
# 2 10.4045 28.0990 22.6391 0.0000 0.0000 0.0000
# 3 19.2640 22.6391 60.6092 0.0000 0.0000 0.0000
# 4 0.0000 0.0000 0.0000 10.3598 0.0000 0.0000
# 5 0.0000 0.0000 0.0000 0.0000 46.3001 0.0000
# 6 0.0000 0.0000 0.0000 0.0000 0.0000 3.6339
#
#
#
# Elastic Compliance Matrix: (Units=1/GPa)
#
#
# Indices 1 2 3 4 5 6 
#
# 1 0.051441 -0.008404 -0.013211 0.000000 0.000000 0.000000
# 2 -0.008404 0.052282 -0.016858 0.000000 0.000000 0.000000
# 3 -0.013211 -0.016858 0.026995 0.000000 0.000000 0.000000
# 4 0.000000 0.000000 0.000000 0.096527 0.000000 0.000000
# 5 0.000000 0.000000 0.000000 0.000000 0.021598 0.000000
# 6 0.000000 0.000000 0.000000 0.000000 0.000000 0.275184
#
#
# Mechanical properties :
#
#
# Convention : Reuss Voigt Hill
#
# Bulk Modulus (GPa) = 18.59649 24.37890 21.48770
# Shear Modulus (GPa) = 8.07888 16.22458 12.15173
#
# Velocity S-wave (km/s) = 2.07841 2.94539 2.54903
# Velocity P-wave (km/s) = 3.96274 4.96010 4.48920
#
# Compressibility (1/GPa) = 0.05377359
#
# Stress axis : x y z
#
# Youngs Moduli (GPa) = 19.43964 19.12691 37.04392
#
# Poissons Ratio (x) = 0.16073 0.48939
# Poissons Ratio (y) = 0.16336 0.62448
# Poissons Ratio (z) = 0.25682 0.32244
#
# Static dielectric constant tensor:
#      x y z
#    x 1.626460 0.000000 0.000000 
#    y 0.000000 1.635700 0.000000 
#    z 0.000000 0.000000 1.618210 
# 
# From -- ./inp_files/7731.got.cif
#   From: 2010.05.17/outbox.cif.g08.bks.cpg/sg58_4_cif.got.tgz:7731.got - 2010.06.03 14:20:14.
