data_PCOD9444605
_publ_section_title
;
Structure prediction by ZEFSAII (Michael W. Deem and Ramdas Pophale) SiO2 
 PCOD9444605
Probable space group: P N N M
;
_chemical_formula_sum "Si O2"
_cell_formula_units_Z 58
_cell_length_a 21.348010
_cell_length_b 14.950010
_cell_length_c 9.175141
_cell_angle_alpha 90.000000
_cell_angle_beta 90.000000
_cell_angle_gamma 90.000000
_cell_volume 2928.273436
_symmetry_space_group_name_H-M "P N N M"
_symmetry_group_IT_number 58
_symmetry_cell_setting 'orthorhombic'
loop_
_space_group_symop_operation_xyz
x,y,z
-x,-y,z
1/2+x,1/2-y,1/2-z
1/2-x,1/2+y,1/2-z
-x,-y,-z
x,y,-z
1/2-x,1/2+y,1/2+z
1/2+x,1/2-y,1/2+z
loop_
_atom_site_type_symbol
_atom_site_label
_atom_site_fract_x
_atom_site_fract_y
_atom_site_fract_z
Si Si1 0.381177 0.717692 0.167193
Si Si2 0.013755 0.366844 0.667347
Si Si3 0.603239 0.813499 0.328981
Si Si4 0.151625 0.047310 0.173591
Si Si5 0.360116 0.362678 0.170134
Si Si6 0.285586 0.050340 0.673792
Si Si7 0.000000 0.500000 0.500000
Si Si8 0.210648 0.344645 0.832216
O O1 0.440748 0.783577 0.172454
O O2 0.387851 0.630755 0.266594
O O3 0.323519 0.776590 0.226074
O O4 0.370960 0.690599 0.000000
O O5 0.981096 0.376573 0.500000
O O6 0.962406 0.359249 0.789138
O O7 0.047396 0.460081 0.635923
O O8 0.607537 0.794054 0.500000
O O9 0.605574 0.722263 0.237623
O O10 0.661377 0.877681 0.290218
O O11 0.128799 0.954007 0.242505
O O12 0.222093 0.062909 0.235172
O O13 0.151963 0.043238 0.000000
O O14 0.285677 0.342336 0.181494
O O15 0.375281 0.374483 0.000000
O O16 0.270809 0.057686 0.500000
O O17 0.307311 0.947860 0.695624
O O18 0.193947 0.322292 0.000000
#
# Coordination Sequence:
#
# PCOD9444605 Si02
#       8
#     8   8   8   8   8   8   2   8
#     4  11  22  36  56  82 112 152 190 233 284 339
#     4   9  22  39  60  81 113 151 192 231 276 337
#     4  11  22  36  58  87 117 148 194 241 286 336
#     4  11  22  37  58  84 113 148 190 239 287 336
#     4  10  21  39  59  82 115 154 188 234 288 345
#     4   9  20  36  55  83 118 153 187 230 285 347
#     4   8  20  44  62  80 118 148 206 228 272 342
#     4   9  19  34  55  84 116 148 189 230 282 337
#
# _framework density 19.806894
#
# number of rings (size 3 to 8) (size 9 to 14) (size 15 to 20)
#    0.414    1.655    0.000    4.138    1.931    7.172 
#    0.000    1.034    0.000    4.138    0.000    0.000 
#    0.000    0.000    0.000    0.000    0.000    0.000 
#
# Total GULP energy -323089.948985 kJ/mol
# GULP energy per Si atom -5570.516362 kJ/mol
# Density = 1.976181 g / cm^3
# Si number density = 19.806894 Si / 1000 Ang^3
#
#
#
# Elastic Constant Matrix: (Units=GPa)
#
#
# Indices 1 2 3 4 5 6 
#
# 1 14.9451 20.0493 16.3824 0.0000 0.0000 0.0000
# 2 20.0493 110.6095 53.8268 0.0000 0.0000 0.0000
# 3 16.3824 53.8268 97.6335 0.0000 0.0000 0.0000
# 4 0.0000 0.0000 0.0000 39.4624 0.0000 0.0000
# 5 0.0000 0.0000 0.0000 0.0000 22.5574 0.0000
# 6 0.0000 0.0000 0.0000 0.0000 0.0000 19.2976
#
#
#
# Elastic Compliance Matrix: (Units=1/GPa)
#
#
# Indices 1 2 3 4 5 6 
#
# 1 0.093489 -0.012727 -0.008671 0.000000 0.000000 0.000000
# 2 -0.012727 0.014088 -0.005632 0.000000 0.000000 0.000000
# 3 -0.008671 -0.005632 0.014802 0.000000 0.000000 0.000000
# 4 0.000000 0.000000 0.000000 0.025341 0.000000 0.000000
# 5 0.000000 0.000000 0.000000 0.000000 0.044331 0.000000
# 6 0.000000 0.000000 0.000000 0.000000 0.000000 0.051820
#
#
# Mechanical properties :
#
#
# Convention : Reuss Voigt Hill
#
# Bulk Modulus (GPa) = 14.63665 44.85612 29.74639
# Shear Modulus (GPa) = 15.59078 25.12544 20.35811
#
# Velocity S-wave (km/s) = 2.80864 3.56549 3.20946
# Velocity P-wave (km/s) = 4.23364 6.29652 5.36516
#
# Compressibility (1/GPa) = 0.06832165
#
# Stress axis : x y z
#
# Youngs Moduli (GPa) = 10.69646 70.98138 67.55831
#
# Poissons Ratio (x) = 0.90335 0.58577
# Poissons Ratio (y) = 0.13613 0.38046
# Poissons Ratio (z) = 0.09274 0.39974
#
# Static dielectric constant tensor:
#      x y z
#    x 1.695610 0.000000 0.000000 
#    y 0.000000 1.771570 0.000000 
#    z 0.000000 0.000000 1.685210 
# 
# From -- ./inp_files/9904.got.cif
#   From: 2010.05.17/outbox.cif.g08.bks.cpg/sg58_5_cif.got.tgz:9904.got - 2010.06.03 14:20:14.
