data_PCOD9444506
_publ_section_title
;
Structure prediction by ZEFSAII (Michael W. Deem and Ramdas Pophale) SiO2 
 PCOD9444506
Probable space group: P N N M
;
_chemical_formula_sum "Si O2"
_cell_formula_units_Z 64
_cell_length_a 22.530288
_cell_length_b 8.214631
_cell_length_c 14.474575
_cell_angle_alpha 90.000000
_cell_angle_beta 90.000000
_cell_angle_gamma 90.000000
_cell_volume 2678.925424
_symmetry_space_group_name_H-M "P N N M"
_symmetry_group_IT_number 58
_symmetry_cell_setting 'orthorhombic'
loop_
_space_group_symop_operation_xyz
x,y,z
-x,-y,z
1/2+x,1/2-y,1/2-z
1/2-x,1/2+y,1/2-z
-x,-y,-z
x,y,-z
1/2-x,1/2+y,1/2+z
1/2+x,1/2-y,1/2+z
loop_
_atom_site_type_symbol
_atom_site_label
_atom_site_fract_x
_atom_site_fract_y
_atom_site_fract_z
Si Si1 0.575843 0.333098 0.389060
Si Si2 0.205416 0.670656 0.399310
Si Si3 0.842234 0.698245 0.605685
Si Si4 0.729384 0.811023 0.696234
Si Si5 0.183063 0.369502 0.105328
Si Si6 0.126897 0.825007 0.107363
Si Si7 0.529153 0.820763 0.710205
Si Si8 0.983204 0.691001 0.601332
O O1 0.575958 0.334764 0.500000
O O2 0.619809 0.188873 0.359959
O O3 0.602606 0.503450 0.357529
O O4 0.511323 0.293707 0.353181
O O5 0.184042 0.740607 0.500000
O O6 0.178984 0.489915 0.396362
O O7 0.198443 0.731836 0.294002
O O8 0.276122 0.707522 0.402881
O O9 0.832921 0.762013 0.500000
O O10 0.799319 0.785185 0.679479
O O11 0.912958 0.706274 0.624021
O O12 0.696476 0.695718 0.622776
O O13 0.713880 0.995470 0.667952
O O14 0.177969 0.435076 0.000000
O O15 0.093593 0.686447 0.165864
O O16 0.112384 0.808142 0.000000
O O17 0.523353 0.751862 0.813835
O O18 0.500000 0.000000 0.708940
O O19 0.994020 0.764313 0.500000
O O20 0.000000 0.500000 0.593991
#
# Coordination Sequence:
#
# PCOD9444506 Si02
#       8
#     8   8   8   8   8   8   8   8
#     4  10  22  40  63  88 128 173 212 257 320 395
#     4  10  23  39  58  88 128 172 216 258 320 396
#     4  10  21  40  66  95 129 173 221 270 330 404
#     4  12  23  37  66  97 132 168 212 270 327 388
#     4  10  21  38  60  92 129 165 210 268 322 378
#     4  11  24  42  63  94 131 174 217 262 326 402
#     4  11  23  37  65  95 127 162 217 272 327 382
#     4   9  21  41  67  96 129 171 224 277 327 389
#
# _framework density 23.890176
#
# number of rings (size 3 to 8) (size 9 to 14) (size 15 to 20)
#    0.000    1.625    0.000    4.125    7.000    5.000 
#    0.000    0.000    0.000    1.500    0.000    0.000 
#    0.000    0.000    0.000    0.000    0.000    0.000 
#
# Total GULP energy -357314.795489 kJ/mol
# GULP energy per Si atom -5583.043680 kJ/mol
# Density = 2.383580 g / cm^3
# Si number density = 23.890176 Si / 1000 Ang^3
#
#
#
# Elastic Constant Matrix: (Units=GPa)
#
#
# Indices 1 2 3 4 5 6 
#
# 1 65.9122 2.6865 34.7550 0.0000 0.0000 0.0000
# 2 2.6865 56.8095 19.1356 0.0000 0.0000 0.0000
# 3 34.7550 19.1356 115.2919 0.0000 0.0000 0.0000
# 4 0.0000 0.0000 0.0000 -5.1502 0.0000 0.0000
# 5 0.0000 0.0000 0.0000 0.0000 9.4529 0.0000
# 6 0.0000 0.0000 0.0000 0.0000 0.0000 30.3987
#
#
#
# Elastic Compliance Matrix: (Units=1/GPa)
#
#
# Indices 1 2 3 4 5 6 
#
# 1 0.018097 0.001040 -0.005628 0.000000 0.000000 0.000000
# 2 0.001040 0.018705 -0.003418 0.000000 0.000000 0.000000
# 3 -0.005628 -0.003418 0.010937 0.000000 0.000000 0.000000
# 4 0.000000 0.000000 0.000000 -0.194168 0.000000 0.000000
# 5 0.000000 0.000000 0.000000 0.000000 0.105788 0.000000
# 6 0.000000 0.000000 0.000000 0.000000 0.000000 0.032896
#
#
# Mechanical properties :
#
#
# Convention : Reuss Voigt Hill
#
# Bulk Modulus (GPa) = 31.51879 39.01865 35.26872
# Shear Modulus (GPa) = 265.34274 19.03604 142.18939
#
# Velocity S-wave (km/s) = 10.55030 2.82585 7.72316
# Velocity P-wave (km/s) = 12.71352 5.19762 9.71208
#
# Compressibility (1/GPa) = 0.03172710
#
# Stress axis : x y z
#
# Youngs Moduli (GPa) = 55.25816 53.46210 91.42858
#
# Poissons Ratio (x) = -0.05560 0.51456
# Poissons Ratio (y) = -0.05746 0.31250
# Poissons Ratio (z) = 0.31099 0.18273
#
# Static dielectric constant tensor:
#      x y z
#    x 1.856450 0.000000 0.000000 
#    y 0.000000 1.917460 0.000000 
#    z 0.000000 0.000000 1.985090 
# 
# From -- ./inp_files/23570.got.cif
#   From: 2010.05.17/outbox.cif.g08.bks.cpg/sg58_12_cif.got.tgz:23570.got - 2010.06.03 14:20:14.
