data_PCOD9444713
_publ_section_title
;
Structure prediction by ZEFSAII (Michael W. Deem and Ramdas Pophale) SiO2 
 PCOD9444713
Probable space group: P N N M
;
_chemical_formula_sum "Si O2"
_cell_formula_units_Z 58
_cell_length_a 14.252070
_cell_length_b 12.207555
_cell_length_c 17.974743
_cell_angle_alpha 90.000000
_cell_angle_beta 90.000000
_cell_angle_gamma 90.000000
_cell_volume 3127.298424
_symmetry_space_group_name_H-M "P N N M"
_symmetry_group_IT_number 58
_symmetry_cell_setting 'orthorhombic'
loop_
_space_group_symop_operation_xyz
x,y,z
-x,-y,z
1/2+x,1/2-y,1/2-z
1/2-x,1/2+y,1/2-z
-x,-y,-z
x,y,-z
1/2-x,1/2+y,1/2+z
1/2+x,1/2-y,1/2+z
loop_
_atom_site_type_symbol
_atom_site_label
_atom_site_fract_x
_atom_site_fract_y
_atom_site_fract_z
Si Si1 0.000000 0.500000 0.000000
Si Si2 0.463111 0.123776 0.920322
Si Si3 0.595216 0.562453 0.411592
Si Si4 0.739568 0.371715 0.584965
Si Si5 0.671652 0.761832 0.321274
Si Si6 0.697032 0.172625 0.692143
Si Si7 0.499747 0.131396 0.237657
Si Si8 0.194977 0.530249 0.916296
O O1 0.916799 0.481014 0.064161
O O2 0.351145 0.115136 0.910842
O O3 0.506080 0.175818 0.846789
O O4 0.500000 0.000000 0.924069
O O5 0.483414 0.177737 0.000000
O O6 0.500000 0.500000 0.389084
O O7 0.588461 0.584012 0.500000
O O8 0.683225 0.482198 0.398270
O O9 0.613723 0.673849 0.368853
O O10 0.714531 0.341287 0.500000
O O11 0.710107 0.276409 0.639365
O O12 0.741777 0.696910 0.266157
O O13 0.597429 0.827885 0.271339
O O14 0.714278 0.852710 0.377376
O O15 0.589139 0.165585 0.715598
O O16 0.721313 0.065305 0.642438
O O17 0.500000 0.000000 0.234130
O O18 0.238525 0.519607 0.000000
#
# Coordination Sequence:
#
# PCOD9444713 Si02
#       8
#     2   8   8   8   8   8   8   8
#     4   8  20  40  76  88 130 162 234 288 320 402
#     4   9  19  36  60  84 113 159 208 259 302 363
#     4  10  23  41  59  89 131 170 202 254 329 406
#     4  10  21  40  62  91 125 162 209 258 320 389
#     4  12  24  39  64  97 134 169 216 274 329 397
#     4  12  24  38  66  95 130 169 212 272 333 391
#     4  11  22  40  61  92 123 161 218 268 320 380
#     4  10  22  42  63  98 126 176 221 271 337 398
#
# _framework density 18.54636
#
# number of rings (size 3 to 8) (size 9 to 14) (size 15 to 20)
#    0.414    1.103    2.759    2.483    5.793    0.000 
#    2.483    0.690    0.000    0.000    0.000    0.966 
#    0.000    0.000    0.000    0.000    0.000    0.000 
#
# Total GULP energy -322911.554051 kJ/mol
# GULP energy per Si atom -5567.440587 kJ/mol
# Density = 1.850415 g / cm^3
# Si number density = 18.546360 Si / 1000 Ang^3
#
#
#
# Elastic Constant Matrix: (Units=GPa)
#
#
# Indices 1 2 3 4 5 6 
#
# 1 34.1649 -0.0403 16.3578 0.0000 0.0000 0.0000
# 2 -0.0403 26.0133 39.4594 0.0000 0.0000 0.0000
# 3 16.3578 39.4594 94.9558 0.0000 0.0000 0.0000
# 4 0.0000 0.0000 0.0000 27.3749 0.0000 0.0000
# 5 0.0000 0.0000 0.0000 0.0000 33.1254 0.0000
# 6 0.0000 0.0000 0.0000 0.0000 0.0000 22.8639
#
#
#
# Elastic Compliance Matrix: (Units=1/GPa)
#
#
# Indices 1 2 3 4 5 6 
#
# 1 0.037758 0.026850 -0.017662 0.000000 0.000000 0.000000
# 2 0.026850 0.123090 -0.055776 0.000000 0.000000 0.000000
# 3 -0.017662 -0.055776 0.036752 0.000000 0.000000 0.000000
# 4 0.000000 0.000000 0.000000 0.036530 0.000000 0.000000
# 5 0.000000 0.000000 0.000000 0.000000 0.030188 0.000000
# 6 0.000000 0.000000 0.000000 0.000000 0.000000 0.043737
#
#
# Mechanical properties :
#
#
# Convention : Reuss Voigt Hill
#
# Bulk Modulus (GPa) = 9.57638 29.63197 19.60417
# Shear Modulus (GPa) = 11.46687 23.29664 17.38176
#
# Velocity S-wave (km/s) = 2.48922 3.54804 3.06470
# Velocity P-wave (km/s) = 3.66556 5.72684 4.80796
#
# Compressibility (1/GPa) = 0.10442363
#
# Stress axis : x y z
#
# Youngs Moduli (GPa) = 26.48444 8.12415 27.20952
#
# Poissons Ratio (x) = -0.21814 0.48058
# Poissons Ratio (y) = -0.71111 1.51764
# Poissons Ratio (z) = 0.46777 0.45313
#
# Static dielectric constant tensor:
#      x y z
#    x 1.619940 0.000000 0.000000 
#    y 0.000000 1.624380 0.000000 
#    z 0.000000 0.000000 1.701200 
# 
# From -- ./inp_files/26976.got.cif
#   From: 2010.05.17/outbox.cif.g08.bks.cpg/sg58_14_cif.got.tgz:26976.got - 2010.06.03 14:20:14.
