data_PCOD9444362
_publ_section_title
;
Structure prediction by ZEFSAII (Michael W. Deem and Ramdas Pophale) SiO2 
 PCOD9444362
Probable space group: P N N M
;
_chemical_formula_sum "Si O2"
_cell_formula_units_Z 40
_cell_length_a 18.458893
_cell_length_b 13.715130
_cell_length_c 8.668514
_cell_angle_alpha 90.000000
_cell_angle_beta 90.000000
_cell_angle_gamma 90.000000
_cell_volume 2194.574031
_symmetry_space_group_name_H-M "P N N M"
_symmetry_group_IT_number 58
_symmetry_cell_setting 'orthorhombic'
loop_
_space_group_symop_operation_xyz
x,y,z
-x,-y,z
1/2+x,1/2-y,1/2-z
1/2-x,1/2+y,1/2-z
-x,-y,-z
x,y,-z
1/2-x,1/2+y,1/2+z
1/2+x,1/2-y,1/2+z
loop_
_atom_site_type_symbol
_atom_site_label
_atom_site_fract_x
_atom_site_fract_y
_atom_site_fract_z
Si Si1 0.328829 0.910461 0.815083
Si Si2 0.182796 0.818675 0.315831
Si Si3 0.964153 0.103406 0.185127
Si Si4 0.521698 0.197562 0.184928
Si Si5 0.374763 0.117506 0.315585
O O1 0.257978 0.863106 0.741013
O O2 0.400471 0.847450 0.777727
O O3 0.342124 0.018810 0.752163
O O4 0.321038 0.912984 0.000000
O O5 0.180568 0.812182 0.500000
O O6 0.115489 0.883810 0.256859
O O7 0.168770 0.711890 0.244343
O O8 0.010585 0.193973 0.249360
O O9 0.958898 0.112122 0.000000
O O10 0.000000 0.000000 0.223261
O O11 0.456818 0.133229 0.255689
O O12 0.512908 0.199295 0.000000
O O13 0.374212 0.115546 0.500000
#
# Coordination Sequence:
#
# PCOD9444362 Si02
#       5
#     8   8   8   8   8
#     4  11  23  39  59  85 117 150 190 237 285 338
#     4  11  23  39  59  84 116 151 189 235 286 337
#     4  10  21  38  60  84 114 152 191 234 283 337
#     4  10  21  37  59  85 113 148 189 234 282 336
#     4  11  22  38  60  84 114 150 188 232 284 340
#
# _framework density 18.226772
#
# number of rings (size 3 to 8) (size 9 to 14) (size 15 to 20)
#    0.000    1.400    0.000    8.400    0.000    8.800 
#    0.000    4.000    0.000    0.000    0.000    0.000 
#    0.000    0.000    0.000    0.000    0.000    0.000 
#
# Total GULP energy -223664.251904 kJ/mol
# GULP energy per Si atom -5591.606298 kJ/mol
# Density = 1.818529 g / cm^3
# Si number density = 18.226772 Si / 1000 Ang^3
#
#
#
# Elastic Constant Matrix: (Units=GPa)
#
#
# Indices 1 2 3 4 5 6 
#
# 1 144.8765 99.2508 60.5258 0.0000 0.0000 0.0000
# 2 99.2508 99.3781 45.8522 0.0000 0.0000 0.0000
# 3 60.5258 45.8522 95.0710 0.0000 0.0000 0.0000
# 4 0.0000 0.0000 0.0000 80.7420 0.0000 0.0000
# 5 0.0000 0.0000 0.0000 0.0000 41.4463 0.0000
# 6 0.0000 0.0000 0.0000 0.0000 0.0000 19.2214
#
#
#
# Elastic Compliance Matrix: (Units=1/GPa)
#
#
# Indices 1 2 3 4 5 6 
#
# 1 0.023355 -0.021178 -0.004655 0.000000 0.000000 0.000000
# 2 -0.021178 0.032146 -0.002021 0.000000 0.000000 0.000000
# 3 -0.004655 -0.002021 0.014457 0.000000 0.000000 0.000000
# 4 0.000000 0.000000 0.000000 0.012385 0.000000 0.000000
# 5 0.000000 0.000000 0.000000 0.000000 0.024128 0.000000
# 6 0.000000 0.000000 0.000000 0.000000 0.000000 0.052025
#
#
# Mechanical properties :
#
#
# Convention : Reuss Voigt Hill
#
# Bulk Modulus (GPa) = 70.17489 83.39815 76.78652
# Shear Modulus (GPa) = 22.83583 37.19506 30.01545
#
# Velocity S-wave (km/s) = 3.54343 4.52229 4.06245
# Velocity P-wave (km/s) = 7.43813 8.55122 8.01402
#
# Compressibility (1/GPa) = 0.01425011
#
# Stress axis : x y z
#
# Youngs Moduli (GPa) = 42.81649 31.10834 69.17136
#
# Poissons Ratio (x) = 0.65880 0.32200
# Poissons Ratio (y) = 0.90676 0.13980
# Poissons Ratio (z) = 0.19931 0.06287
#
# Static dielectric constant tensor:
#      x y z
#    x 1.599640 0.000000 0.000000 
#    y 0.000000 1.601440 0.000000 
#    z 0.000000 0.000000 1.609190 
# 
# From -- ./inp_files/5386.got.cif
#   From: 2010.05.17/outbox.cif.g08.bks.cpg/sg58_3_cif.got.tgz:5386.got - 2010.06.03 14:20:14.
