data_PCOD9444479
_publ_section_title
;
Structure prediction by ZEFSAII (Michael W. Deem and Ramdas Pophale) SiO2 
 PCOD9444479
Probable space group: P N N M
;
_chemical_formula_sum "Si O2"
_cell_formula_units_Z 32
_cell_length_a 7.257380
_cell_length_b 7.130038
_cell_length_c 29.054040
_cell_angle_alpha 90.000000
_cell_angle_beta 90.000000
_cell_angle_gamma 90.000000
_cell_volume 1503.412781
_symmetry_space_group_name_H-M "P N N M"
_symmetry_group_IT_number 58
_symmetry_cell_setting 'orthorhombic'
loop_
_space_group_symop_operation_xyz
x,y,z
-x,-y,z
1/2+x,1/2-y,1/2-z
1/2-x,1/2+y,1/2-z
-x,-y,-z
x,y,-z
1/2-x,1/2+y,1/2+z
1/2+x,1/2-y,1/2+z
loop_
_atom_site_type_symbol
_atom_site_label
_atom_site_fract_x
_atom_site_fract_y
_atom_site_fract_z
Si Si1 0.000000 0.000000 0.733693
Si Si2 0.629910 0.301175 0.500000
Si Si3 0.000000 0.000000 0.577005
Si Si4 0.746827 0.364581 0.000000
Si Si5 0.318786 0.129375 0.197737
Si Si6 0.179074 0.631700 0.403913
O O1 0.158841 0.090510 0.765647
O O2 0.898335 0.161412 0.704709
O O3 0.590636 0.716185 0.500000
O O4 0.707330 0.378069 0.451547
O O5 0.685475 0.080412 0.500000
O O6 0.880943 0.861685 0.544519
O O7 0.127914 0.852350 0.601865
O O8 0.241474 0.084883 0.146404
O O9 0.500000 0.000000 0.204597
O O10 0.000000 0.500000 0.408605
#
# Coordination Sequence:
#
# PCOD9444479 Si02
#       6
#     4   4   4   4   8   8
#     4  12  23  46  71  96 130 174 211 284 331 392
#     4   9  17  35  55  85 126 161 203 256 305 369
#     4   9  17  36  57  78 116 166 203 256 313 357
#     4   8  16  31  56  80 111 164 218 248 293 367
#     4  11  24  43  69  99 131 167 220 269 334 393
#     4  10  21  38  59  89 124 163 204 255 311 388
#
# _framework density 21.284907
#
# number of rings (size 3 to 8) (size 9 to 14) (size 15 to 20)
#    0.000    2.000    2.500    1.875    0.000    0.000 
#    9.000    8.750    0.000    0.000    0.000    0.000 
#    0.000    0.000    0.000    0.000    0.000    0.000 
#
# Total GULP energy -178422.864580 kJ/mol
# GULP energy per Si atom -5575.714518 kJ/mol
# Density = 2.123646 g / cm^3
# Si number density = 21.284907 Si / 1000 Ang^3
#
#
#
# Elastic Constant Matrix: (Units=GPa)
#
#
# Indices 1 2 3 4 5 6 
#
# 1 90.0437 20.4617 64.0342 0.0000 0.0000 0.0000
# 2 20.4617 91.1268 35.9824 0.0000 0.0000 0.0000
# 3 64.0342 35.9824 163.9277 0.0000 0.0000 0.0000
# 4 0.0000 0.0000 0.0000 -56.1355 0.0000 0.0000
# 5 0.0000 0.0000 0.0000 0.0000 -6.2919 0.0000
# 6 0.0000 0.0000 0.0000 0.0000 0.0000 43.4257
#
#
#
# Elastic Compliance Matrix: (Units=1/GPa)
#
#
# Indices 1 2 3 4 5 6 
#
# 1 0.015495 -0.001193 -0.005791 0.000000 0.000000 0.000000
# 2 -0.001193 0.012107 -0.002192 0.000000 0.000000 0.000000
# 3 -0.005791 -0.002192 0.008843 0.000000 0.000000 0.000000
# 4 0.000000 0.000000 0.000000 -0.017814 0.000000 0.000000
# 5 0.000000 0.000000 0.000000 0.000000 -0.158935 0.000000
# 6 0.000000 0.000000 0.000000 0.000000 0.000000 0.023028
#
#
# Mechanical properties :
#
#
# Convention : Reuss Voigt Hill
#
# Bulk Modulus (GPa) = 55.26425 65.11720 60.19072
# Shear Modulus (GPa) = -53.82474 11.17432 -21.32521
#
# Velocity S-wave (km/s) = -5.03415 2.29375 -3.16870
# Velocity P-wave (km/s) = 2.78743 6.13796 3.86683
#
# Compressibility (1/GPa) = 0.01809488
#
# Stress axis : x y z
#
# Youngs Moduli (GPa) = 64.53729 82.59750 113.07891
#
# Poissons Ratio (x) = 0.09851 0.65483
# Poissons Ratio (y) = 0.07697 0.24782
# Poissons Ratio (z) = 0.37373 0.18102
#
# Static dielectric constant tensor:
#      x y z
#    x 1.777100 0.000000 0.000000 
#    y 0.000000 1.809960 0.000000 
#    z 0.000000 0.000000 1.756970 
# 
# From -- ./inp_files/34056.got.cif
#   From: 2010.05.17/outbox.cif.g08.bks.cpg/sg58_18_cif.got.tgz:34056.got - 2010.06.03 14:20:14.
