data_PCOD9444572
_publ_section_title
;
Structure prediction by ZEFSAII (Michael W. Deem and Ramdas Pophale) SiO2 
 PCOD9444572
Probable space group: P N N M
;
_chemical_formula_sum "Si O2"
_cell_formula_units_Z 48
_cell_length_a 9.992816
_cell_length_b 16.255696
_cell_length_c 14.587975
_cell_angle_alpha 90.000000
_cell_angle_beta 90.000000
_cell_angle_gamma 90.000000
_cell_volume 2369.673271
_symmetry_space_group_name_H-M "P N N M"
_symmetry_group_IT_number 58
_symmetry_cell_setting 'orthorhombic'
loop_
_space_group_symop_operation_xyz
x,y,z
-x,-y,z
1/2+x,1/2-y,1/2-z
1/2-x,1/2+y,1/2-z
-x,-y,-z
x,y,-z
1/2-x,1/2+y,1/2+z
1/2+x,1/2-y,1/2+z
loop_
_atom_site_type_symbol
_atom_site_label
_atom_site_fract_x
_atom_site_fract_y
_atom_site_fract_z
Si Si1 0.342166 0.716409 0.712815
Si Si2 0.545845 0.595130 0.391123
Si Si3 0.597437 0.881325 0.823568
Si Si4 0.484669 0.731867 0.904165
Si Si5 0.256977 0.375203 0.894828
Si Si6 0.304577 0.945857 0.786649
O O1 0.438501 0.654451 0.657352
O O2 0.198846 0.674559 0.733994
O O3 0.404612 0.733769 0.810949
O O4 0.319740 0.797173 0.650616
O O5 0.500000 0.500000 0.378424
O O6 0.554355 0.611094 0.500000
O O7 0.690388 0.603123 0.341664
O O8 0.565259 0.818406 0.904927
O O9 0.453137 0.907954 0.786691
O O10 0.676244 0.966441 0.836469
O O11 0.590696 0.657607 0.897919
O O12 0.408359 0.724630 0.000000
O O13 0.239988 0.447408 0.819979
O O14 0.216041 0.392302 0.000000
#
# Coordination Sequence:
#
# PCOD9444572 Si02
#       6
#     8   8   8   8   8   8
#     4  11  20  41  64  88 127 162 209 268 307 374
#     4  11  23  39  63  95 125 164 213 257 308 371
#     4  10  23  38  62  88 129 164 199 254 325 372
#     4  10  21  38  64  93 123 163 209 258 317 380
#     4  10  21  38  64  90 121 168 209 253 318 379
#     4  11  21  41  61  90 130 163 202 261 318 370
#
# _framework density 20.255956000000001
#
# number of rings (size 3 to 8) (size 9 to 14) (size 15 to 20)
#    0.000    1.500    5.000    0.500    0.000    2.000 
#    0.000    5.000    0.000    3.000    0.000    0.000 
#    0.000    0.000    0.000    0.000    0.000    0.000 
#
# Total GULP energy -267390.528828 kJ/mol
# GULP energy per Si atom -5570.636017 kJ/mol
# Density = 2.020985 g / cm^3
# Si number density = 20.255956 Si / 1000 Ang^3
#
#
#
# Elastic Constant Matrix: (Units=GPa)
#
#
# Indices 1 2 3 4 5 6 
#
# 1 86.3643 14.5326 45.1972 0.0000 0.0000 0.0000
# 2 14.5326 33.1529 6.6500 0.0000 0.0000 0.0000
# 3 45.1972 6.6500 147.7574 0.0000 0.0000 0.0000
# 4 0.0000 0.0000 0.0000 -22.7717 0.0000 0.0000
# 5 0.0000 0.0000 0.0000 0.0000 33.9012 0.0000
# 6 0.0000 0.0000 0.0000 0.0000 0.0000 10.7086
#
#
#
# Elastic Compliance Matrix: (Units=1/GPa)
#
#
# Indices 1 2 3 4 5 6 
#
# 1 0.014753 -0.005612 -0.004260 0.000000 0.000000 0.000000
# 2 -0.005612 0.032573 0.000251 0.000000 0.000000 0.000000
# 3 -0.004260 0.000251 0.008060 0.000000 0.000000 0.000000
# 4 0.000000 0.000000 0.000000 -0.043914 0.000000 0.000000
# 5 0.000000 0.000000 0.000000 0.000000 0.029497 0.000000
# 6 0.000000 0.000000 0.000000 0.000000 0.000000 0.093383
#
#
# Mechanical properties :
#
#
# Convention : Reuss Voigt Hill
#
# Bulk Modulus (GPa) = 27.66852 44.44825 36.05838
# Shear Modulus (GPa) = 30.18544 17.76060 23.97302
#
# Velocity S-wave (km/s) = 3.86450 2.96431 3.44394
# Velocity P-wave (km/s) = 5.79669 5.80578 5.80124
#
# Compressibility (1/GPa) = 0.03614216
#
# Stress axis : x y z
#
# Youngs Moduli (GPa) = 67.78419 30.70013 124.07446
#
# Poissons Ratio (x) = 0.17230 0.52857
# Poissons Ratio (y) = 0.38043 -0.03111
# Poissons Ratio (z) = 0.28877 -0.00770
#
# Static dielectric constant tensor:
#      x y z
#    x 1.746200 0.000000 0.000000 
#    y 0.000000 1.789710 0.000000 
#    z 0.000000 0.000000 1.706510 
# 
# From -- ./inp_files/19826.got.cif
#   From: 2010.05.17/outbox.cif.g08.bks.cpg/sg58_10_cif.got.tgz:19826.got - 2010.06.03 14:20:14.
