data_PCOD9444582
_publ_section_title
;
Structure prediction by ZEFSAII (Michael W. Deem and Ramdas Pophale) SiO2 
 PCOD9444582
Probable space group: P N N M
;
_chemical_formula_sum "Si O2"
_cell_formula_units_Z 48
_cell_length_a 10.420399
_cell_length_b 9.811542
_cell_length_c 23.037149
_cell_angle_alpha 90.000000
_cell_angle_beta 90.000000
_cell_angle_gamma 90.000000
_cell_volume 2355.322317
_symmetry_space_group_name_H-M "P N N M"
_symmetry_group_IT_number 58
_symmetry_cell_setting 'orthorhombic'
loop_
_space_group_symop_operation_xyz
x,y,z
-x,-y,z
1/2+x,1/2-y,1/2-z
1/2-x,1/2+y,1/2-z
-x,-y,-z
x,y,-z
1/2-x,1/2+y,1/2+z
1/2+x,1/2-y,1/2+z
loop_
_atom_site_type_symbol
_atom_site_label
_atom_site_fract_x
_atom_site_fract_y
_atom_site_fract_z
Si Si1 0.463695 0.352452 0.648845
Si Si2 0.425965 0.861759 0.266634
Si Si3 0.693220 0.582278 0.145782
Si Si4 0.714069 0.098190 0.930761
Si Si5 0.917778 0.788100 0.650090
Si Si6 0.206000 0.198427 0.933060
O O1 0.500000 0.500000 0.675744
O O2 0.478014 0.236634 0.697245
O O3 0.335034 0.359405 0.610359
O O4 0.578303 0.325974 0.603658
O O5 0.304109 0.893356 0.307233
O O6 0.378282 0.789072 0.208553
O O7 0.500000 0.000000 0.251848
O O8 0.665549 0.423203 0.138862
O O9 0.561294 0.658321 0.161471
O O10 0.735864 0.659616 0.087580
O O11 0.598801 0.185789 0.903898
O O12 0.704901 0.934639 0.922969
O O13 0.732988 0.123205 0.000000
O O14 0.173196 0.200313 0.000000
#
# Coordination Sequence:
#
# PCOD9444582 Si02
#       6
#     8   8   8   8   8   8
#     4   9  19  37  63  96 127 165 210 263 318 365
#     4  11  25  40  66  91 122 161 213 263 313 374
#     4  10  25  43  59  89 124 163 205 253 318 381
#     4  10  21  38  64  95 129 168 213 261 311 374
#     4  11  26  41  61  88 126 165 205 253 320 380
#     4   9  19  38  64  92 125 166 214 263 307 364
#
# _framework density 20.379377000000002
#
# number of rings (size 3 to 8) (size 9 to 14) (size 15 to 20)
#    0.000    2.000    0.000    1.500    9.333    4.667 
#    0.000    3.333    0.000    5.500    0.000    0.000 
#    0.000    0.000    0.000    0.000    0.000    0.000 
#
# Total GULP energy -268038.691546 kJ/mol
# GULP energy per Si atom -5584.139407 kJ/mol
# Density = 2.033299 g / cm^3
# Si number density = 20.379377 Si / 1000 Ang^3
#
#
#
# Elastic Constant Matrix: (Units=GPa)
#
#
# Indices 1 2 3 4 5 6 
#
# 1 48.1983 25.2629 0.2152 0.0000 0.0000 0.0000
# 2 25.2629 125.8607 54.0647 0.0000 0.0000 0.0000
# 3 0.2152 54.0647 81.0862 0.0000 0.0000 0.0000
# 4 0.0000 0.0000 0.0000 29.1064 0.0000 0.0000
# 5 0.0000 0.0000 0.0000 0.0000 9.7743 0.0000
# 6 0.0000 0.0000 0.0000 0.0000 0.0000 18.1201
#
#
#
# Elastic Compliance Matrix: (Units=1/GPa)
#
#
# Indices 1 2 3 4 5 6 
#
# 1 0.024288 -0.006793 0.004465 0.000000 0.000000 0.000000
# 2 -0.006793 0.013034 -0.008673 0.000000 0.000000 0.000000
# 3 0.004465 -0.008673 0.018103 0.000000 0.000000 0.000000
# 4 0.000000 0.000000 0.000000 0.034357 0.000000 0.000000
# 5 0.000000 0.000000 0.000000 0.000000 0.102309 0.000000
# 6 0.000000 0.000000 0.000000 0.000000 0.000000 0.055187
#
#
# Mechanical properties :
#
#
# Convention : Reuss Voigt Hill
#
# Bulk Modulus (GPa) = 29.91859 46.02566 37.97212
# Shear Modulus (GPa) = 17.83028 23.10699 20.46863
#
# Velocity S-wave (km/s) = 2.96111 3.37091 3.17263
# Velocity P-wave (km/s) = 5.13844 6.14688 5.66515
#
# Compressibility (1/GPa) = 0.03342403
#
# Stress axis : x y z
#
# Youngs Moduli (GPa) = 41.17212 76.72118 55.23883
#
# Poissons Ratio (x) = 0.52118 -0.24663
# Poissons Ratio (y) = 0.27969 0.47906
# Poissons Ratio (z) = -0.18383 0.66537
#
# Static dielectric constant tensor:
#      x y z
#    x 1.753130 0.000000 0.000000 
#    y 0.000000 1.720680 0.000000 
#    z 0.000000 0.000000 1.678280 
# 
# From -- ./inp_files/31483.got.cif
#   From: 2010.05.17/outbox.cif.g08.bks.cpg/sg58_16_cif.got.tgz:31483.got - 2010.06.03 14:20:14.
