data_PCOD9444975
_publ_section_title
;
Structure prediction by ZEFSAII (Michael W. Deem and Ramdas Pophale) SiO2 
 PCOD9444975
Probable space group: P N N M
;
_chemical_formula_sum "Si O2"
_cell_formula_units_Z 58
_cell_length_a 9.674968
_cell_length_b 17.582592
_cell_length_c 16.758444
_cell_angle_alpha 90.000000
_cell_angle_beta 90.000000
_cell_angle_gamma 90.000000
_cell_volume 2850.795918
_symmetry_space_group_name_H-M "P N N M"
_symmetry_group_IT_number 58
_symmetry_cell_setting 'orthorhombic'
loop_
_space_group_symop_operation_xyz
x,y,z
-x,-y,z
1/2+x,1/2-y,1/2-z
1/2-x,1/2+y,1/2-z
-x,-y,-z
x,y,-z
1/2-x,1/2+y,1/2+z
1/2+x,1/2-y,1/2+z
loop_
_atom_site_type_symbol
_atom_site_label
_atom_site_fract_x
_atom_site_fract_y
_atom_site_fract_z
Si Si1 0.437556 0.122512 0.359780
Si Si2 0.392201 0.619422 0.324618
Si Si3 0.332603 0.385962 0.758509
Si Si4 0.500000 0.000000 0.500000
Si Si5 0.642739 0.978492 0.791572
Si Si6 0.934719 0.200986 0.407499
Si Si7 0.868304 0.743071 0.088311
Si Si8 0.204941 0.232863 0.317377
O O1 0.455879 0.062086 0.429814
O O2 0.406725 0.077968 0.278552
O O3 0.570435 0.177912 0.355154
O O4 0.311183 0.181972 0.368780
O O5 0.532006 0.585999 0.289136
O O6 0.265574 0.563014 0.338983
O O7 0.429665 0.674457 0.397141
O O8 0.340562 0.680496 0.257521
O O9 0.216025 0.449537 0.750481
O O10 0.388745 0.367334 0.847777
O O11 0.279246 0.308069 0.716273
O O12 0.500000 0.000000 0.835341
O O13 0.958994 0.178586 0.500000
O O14 0.796383 0.251249 0.405626
O O15 0.065762 0.242857 0.368900
O O16 0.900039 0.714436 0.000000
#
# Coordination Sequence:
#
# PCOD9444975 Si02
#       8
#     8   8   8   2   8   8   8   8
#     4  11  23  39  59  95 127 175 210 261 315 406
#     4  10  22  39  62  89 124 168 222 279 315 396
#     4  11  21  40  64  89 127 174 219 272 323 397
#     4  12  24  36  64  90 148 162 202 254 328 392
#     4  11  24  37  62  93 129 161 221 269 337 383
#     4  10  23  36  59  93 130 164 211 270 328 386
#     4  11  21  38  64  91 128 168 221 263 334 393
#     4  10  22  38  65  88 124 172 227 263 315 392
#
# _framework density 20.345195
#
# number of rings (size 3 to 8) (size 9 to 14) (size 15 to 20)
#    0.000    1.379    4.138    1.241    2.897    0.000 
#    0.000    0.000    0.000    6.207    0.000    0.000 
#    0.000    0.000    0.000    0.000    0.000    0.000 
#
# Total GULP energy -322965.815354 kJ/mol
# GULP energy per Si atom -5568.376127 kJ/mol
# Density = 2.029889 g / cm^3
# Si number density = 20.345195 Si / 1000 Ang^3
#
#
#
# Elastic Constant Matrix: (Units=GPa)
#
#
# Indices 1 2 3 4 5 6 
#
# 1 123.1593 40.1206 26.6068 0.0000 0.0000 0.0000
# 2 40.1206 88.2472 27.3339 0.0000 0.0000 0.0000
# 3 26.6068 27.3339 41.4385 0.0000 0.0000 0.0000
# 4 0.0000 0.0000 0.0000 24.2007 0.0000 0.0000
# 5 0.0000 0.0000 0.0000 0.0000 15.8184 0.0000
# 6 0.0000 0.0000 0.0000 0.0000 0.0000 37.6602
#
#
#
# Elastic Compliance Matrix: (Units=1/GPa)
#
#
# Indices 1 2 3 4 5 6 
#
# 1 0.010119 -0.003253 -0.004352 0.000000 0.000000 0.000000
# 2 -0.003253 0.015287 -0.007995 0.000000 0.000000 0.000000
# 3 -0.004352 -0.007995 0.032200 0.000000 0.000000 0.000000
# 4 0.000000 0.000000 0.000000 0.041321 0.000000 0.000000
# 5 0.000000 0.000000 0.000000 0.000000 0.063218 0.000000
# 6 0.000000 0.000000 0.000000 0.000000 0.000000 0.026553
#
#
# Mechanical properties :
#
#
# Convention : Reuss Voigt Hill
#
# Bulk Modulus (GPa) = 37.86866 48.99641 43.43254
# Shear Modulus (GPa) = 21.86266 26.12144 23.99205
#
# Velocity S-wave (km/s) = 3.28164 3.58706 3.43774
# Velocity P-wave (km/s) = 5.74564 6.42579 6.09521
#
# Compressibility (1/GPa) = 0.02640706
#
# Stress axis : x y z
#
# Youngs Moduli (GPa) = 98.82079 65.41478 31.05565
#
# Poissons Ratio (x) = 0.21277 0.13515
# Poissons Ratio (y) = 0.32143 0.24830
# Poissons Ratio (z) = 0.43005 0.52301
#
# Static dielectric constant tensor:
#      x y z
#    x 1.778080 0.000000 0.000000 
#    y 0.000000 1.737090 0.000000 
#    z 0.000000 0.000000 1.745000 
# 
# From -- ./inp_files/25548.got.cif
#   From: 2010.05.17/outbox.cif.g08.bks.cpg/sg58_13_cif.got.tgz:25548.got - 2010.06.03 14:20:14.
