data_PCOD9444735
_publ_section_title
;
Structure prediction by ZEFSAII (Michael W. Deem and Ramdas Pophale) SiO2 
 PCOD9444735
Probable space group: P N N M
;
_chemical_formula_sum "Si O2"
_cell_formula_units_Z 56
_cell_length_a 5.128045
_cell_length_b 33.210333
_cell_length_c 14.745218
_cell_angle_alpha 90.000000
_cell_angle_beta 90.000000
_cell_angle_gamma 90.000000
_cell_volume 2511.170817
_symmetry_space_group_name_H-M "P N N M"
_symmetry_group_IT_number 58
_symmetry_cell_setting 'orthorhombic'
loop_
_space_group_symop_operation_xyz
x,y,z
-x,-y,z
1/2+x,1/2-y,1/2-z
1/2-x,1/2+y,1/2-z
-x,-y,-z
x,y,-z
1/2-x,1/2+y,1/2+z
1/2+x,1/2-y,1/2+z
loop_
_atom_site_type_symbol
_atom_site_label
_atom_site_fract_x
_atom_site_fract_y
_atom_site_fract_z
Si Si1 0.754724 0.975251 0.368515
Si Si2 0.560341 0.153753 0.763120
Si Si3 0.679195 0.085983 0.105497
Si Si4 0.826167 0.384683 0.902785
Si Si5 0.839503 0.962169 0.158206
Si Si6 0.588025 0.687823 0.100671
Si Si7 0.162512 0.737721 0.297376
O O1 0.788702 0.929300 0.399596
O O2 0.758603 0.974712 0.258926
O O3 0.500000 0.000000 0.396726
O O4 0.000000 0.000000 0.399583
O O5 0.635349 0.129994 0.852804
O O6 0.459787 0.119280 0.694602
O O7 0.373458 0.189889 0.794934
O O8 0.760316 0.174307 0.691769
O O9 0.421497 0.057441 0.115653
O O10 0.928707 0.070086 0.160593
O O11 0.747971 0.087114 0.000000
O O12 0.644984 0.344753 0.903161
O O13 0.973916 0.383847 0.000000
O O14 0.000000 0.000000 0.114543
O O15 0.547330 0.735265 0.120662
O O16 0.711638 0.686090 0.000000
O O17 0.966697 0.752507 0.216911
#
# Coordination Sequence:
#
# PCOD9444735 Si02
#       7
#     8   8   8   8   8   8   8
#     4  11  24  42  67  96 130 177 220 271 338 399
#     4  11  23  41  67  93 139 173 221 271 338 386
#     4  12  26  41  65  96 130 171 219 270 336 403
#     4  11  23  40  67  97 130 179 226 275 326 396
#     4  11  23  43  67  94 124 168 222 275 335 393
#     4  10  22  41  68 102 133 176 229 271 328 401
#     4  10  21  40  64  94 127 169 211 267 326 377
#
# _framework density 22.300353000000001
#
# number of rings (size 3 to 8) (size 9 to 14) (size 15 to 20)
#    0.000    1.143    2.857    3.857    2.000    2.857 
#    0.000    0.000    0.000    0.857    0.000    0.000 
#    0.000    0.000    0.000    0.000    0.000    0.000 
#
# Total GULP energy -311837.460371 kJ/mol
# GULP energy per Si atom -5568.526078 kJ/mol
# Density = 2.224960 g / cm^3
# Si number density = 22.300353 Si / 1000 Ang^3
#
#
#
# Elastic Constant Matrix: (Units=GPa)
#
#
# Indices 1 2 3 4 5 6 
#
# 1 85.4998 15.4476 15.5466 0.0000 0.0000 0.0000
# 2 15.4476 94.8950 29.2198 0.0000 0.0000 0.0000
# 3 15.5466 29.2198 75.5361 0.0000 0.0000 0.0000
# 4 0.0000 0.0000 0.0000 136.7344 0.0000 0.0000
# 5 0.0000 0.0000 0.0000 0.0000 -13.9596 0.0000
# 6 0.0000 0.0000 0.0000 0.0000 0.0000 28.3822
#
#
#
# Elastic Compliance Matrix: (Units=1/GPa)
#
#
# Indices 1 2 3 4 5 6 
#
# 1 0.012310 -0.001389 -0.001996 0.000000 0.000000 0.000000
# 2 -0.001389 0.012120 -0.004402 0.000000 0.000000 0.000000
# 3 -0.001996 -0.004402 0.015353 0.000000 0.000000 0.000000
# 4 0.000000 0.000000 0.000000 0.007313 0.000000 0.000000
# 5 0.000000 0.000000 0.000000 0.000000 -0.071635 0.000000
# 6 0.000000 0.000000 0.000000 0.000000 0.000000 0.035233
#
#
# Mechanical properties :
#
#
# Convention : Reuss Voigt Hill
#
# Bulk Modulus (GPa) = 41.31112 41.81767 41.56440
# Shear Modulus (GPa) = 145.61161 43.27919 94.44540
#
# Velocity S-wave (km/s) = 8.08934 4.41016 6.51487
# Velocity P-wave (km/s) = 10.28664 6.68771 8.67584
#
# Compressibility (1/GPa) = 0.02420656
#
# Stress axis : x y z
#
# Youngs Moduli (GPa) = 81.23545 82.51042 65.13585
#
# Poissons Ratio (x) = 0.11463 0.13002
# Poissons Ratio (y) = 0.11285 0.28675
# Poissons Ratio (z) = 0.16216 0.36324
#
# Static dielectric constant tensor:
#      x y z
#    x 1.865430 0.000000 0.000000 
#    y 0.000000 1.870270 0.000000 
#    z 0.000000 0.000000 1.845660 
# 
# From -- ./inp_files/18734.got.cif
#   From: 2010.05.17/outbox.cif.g08.bks.cpg/sg58_10_cif.got.tgz:18734.got - 2010.06.03 14:20:14.
