data_PCOD9444047
_publ_section_title
;
Structure prediction by ZEFSAII (Michael W. Deem and Ramdas Pophale) SiO2 
 PCOD9444047
Probable space group: P N N M
;
_chemical_formula_sum "Si O2"
_cell_formula_units_Z 64
_cell_length_a 22.409692
_cell_length_b 5.588352
_cell_length_c 21.829710
_cell_angle_alpha 90.000000
_cell_angle_beta 90.000000
_cell_angle_gamma 90.000000
_cell_volume 2733.805467
_symmetry_space_group_name_H-M "P N N M"
_symmetry_group_IT_number 58
_symmetry_cell_setting 'orthorhombic'
loop_
_space_group_symop_operation_xyz
x,y,z
-x,-y,z
1/2+x,1/2-y,1/2-z
1/2-x,1/2+y,1/2-z
-x,-y,-z
x,y,-z
1/2-x,1/2+y,1/2+z
1/2+x,1/2-y,1/2+z
loop_
_atom_site_type_symbol
_atom_site_label
_atom_site_fract_x
_atom_site_fract_y
_atom_site_fract_z
Si Si1 0.062049 0.998834 0.815195
Si Si2 0.350531 0.124923 0.360860
Si Si3 0.301094 0.077270 0.775394
Si Si4 0.238318 0.320826 0.573743
Si Si5 0.968237 0.249086 0.574591
Si Si6 0.670149 0.410021 0.767709
Si Si7 0.941109 0.669607 0.068778
Si Si8 0.329172 0.315024 0.925821
O O1 0.112249 0.111491 0.773265
O O2 0.051577 0.142969 0.877163
O O3 0.089625 0.748376 0.834989
O O4 0.000000 0.000000 0.780487
O O5 0.318363 0.052159 0.297369
O O6 0.302734 0.292305 0.394433
O O7 0.377984 0.951111 0.411998
O O8 0.327859 0.327630 0.797516
O O9 0.229816 0.081351 0.774084
O O10 0.324153 0.833737 0.804490
O O11 0.244770 0.322161 0.500000
O O12 0.209906 0.579477 0.590520
O O13 0.201496 0.073437 0.588257
O O14 0.971370 0.253610 0.500000
O O15 0.898573 0.226013 0.592108
O O16 0.000000 0.500000 0.595023
O O17 0.000000 0.000000 0.594319
O O18 0.000000 0.500000 0.069371
O O19 0.936956 0.769403 0.000000
O O20 0.331213 0.314069 0.000000
#
# Coordination Sequence:
#
# PCOD9444047 Si02
#       8
#     8   8   8   8   8   8   8   8
#     4  11  22  37  56  81 115 153 197 258 306 358
#     4  11  22  36  54  77 108 152 204 251 302 359
#     4   9  18  33  57  82 112 136 178 239 298 354
#     4  10  21  33  47  67 100 146 191 234 278 329
#     4   9  15  24  43  67  89 115 149 199 264 328
#     4   9  18  34  56  85 109 141 176 234 300 365
#     4  11  23  37  53  76 114 164 216 261 301 350
#     4   9  18  32  45  66  99 132 175 229 278 326
#
# _framework density 23.410591
#
# number of rings (size 3 to 8) (size 9 to 14) (size 15 to 20)
#    0.000    2.125    2.500    1.125    1.750    4.250 
#    0.000    0.000    0.000    0.000    0.000    2.625 
#    0.000    6.000    0.000    0.000    0.000    0.125 
#
# Total GULP energy -357293.065437 kJ/mol
# GULP energy per Si atom -5582.704147 kJ/mol
# Density = 2.335731 g / cm^3
# Si number density = 23.410591 Si / 1000 Ang^3
#
#
#
# Elastic Constant Matrix: (Units=GPa)
#
#
# Indices 1 2 3 4 5 6 
#
# 1 156.5735 43.6967 34.8159 0.0000 0.0000 0.0000
# 2 43.6967 148.3311 38.3258 0.0000 0.0000 0.0000
# 3 34.8159 38.3258 76.1078 0.0000 0.0000 0.0000
# 4 0.0000 0.0000 0.0000 43.8503 0.0000 0.0000
# 5 0.0000 0.0000 0.0000 0.0000 32.4281 0.0000
# 6 0.0000 0.0000 0.0000 0.0000 0.0000 41.1179
#
#
#
# Elastic Compliance Matrix: (Units=1/GPa)
#
#
# Indices 1 2 3 4 5 6 
#
# 1 0.007389 -0.001498 -0.002626 0.000000 0.000000 0.000000
# 2 -0.001498 0.008054 -0.003370 0.000000 0.000000 0.000000
# 3 -0.002626 -0.003370 0.016038 0.000000 0.000000 0.000000
# 4 0.000000 0.000000 0.000000 0.022805 0.000000 0.000000
# 5 0.000000 0.000000 0.000000 0.000000 0.030837 0.000000
# 6 0.000000 0.000000 0.000000 0.000000 0.000000 0.024320
#
#
# Mechanical properties :
#
#
# Convention : Reuss Voigt Hill
#
# Bulk Modulus (GPa) = 60.63580 68.29879 64.46729
# Shear Modulus (GPa) = 38.48279 41.09087 39.78683
#
# Velocity S-wave (km/s) = 4.05880 4.19409 4.12700
# Velocity P-wave (km/s) = 6.92260 7.25889 7.09274
#
# Compressibility (1/GPa) = 0.01649191
#
# Stress axis : x y z
#
# Youngs Moduli (GPa) = 135.34135 124.16394 62.35377
#
# Poissons Ratio (x) = 0.18603 0.16371
# Poissons Ratio (y) = 0.20278 0.21015
# Poissons Ratio (z) = 0.35534 0.41847
#
# Static dielectric constant tensor:
#      x y z
#    x 1.837700 0.000000 0.000000 
#    y 0.000000 1.982030 0.000000 
#    z 0.000000 0.000000 1.913800 
# 
# From -- ./inp_files/35145.got.cif
#   From: 2010.05.17/outbox.cif.g08.bks.cpg/sg58_18_cif.got.tgz:35145.got - 2010.06.03 14:20:14.
