data_PCOD9444039
_publ_section_title
;
Structure prediction by ZEFSAII (Michael W. Deem and Ramdas Pophale) SiO2 
 PCOD9444039
Probable space group: P N N M
;
_chemical_formula_sum "Si O2"
_cell_formula_units_Z 32
_cell_length_a 5.679153
_cell_length_b 7.471628
_cell_length_c 33.784043
_cell_angle_alpha 90.000000
_cell_angle_beta 90.000000
_cell_angle_gamma 90.000000
_cell_volume 1433.542032
_symmetry_space_group_name_H-M "P N N M"
_symmetry_group_IT_number 58
_symmetry_cell_setting 'orthorhombic'
loop_
_space_group_symop_operation_xyz
x,y,z
-x,-y,z
1/2+x,1/2-y,1/2-z
1/2-x,1/2+y,1/2-z
-x,-y,-z
x,y,-z
1/2-x,1/2+y,1/2+z
1/2+x,1/2-y,1/2+z
loop_
_atom_site_type_symbol
_atom_site_label
_atom_site_fract_x
_atom_site_fract_y
_atom_site_fract_z
Si Si1 0.500000 0.500000 0.674171
Si Si2 0.500000 0.000000 0.741541
Si Si3 0.249657 0.106588 0.456435
Si Si4 0.125279 0.312463 0.622677
Si Si5 0.139970 0.786528 0.699774
O O1 0.350820 0.368783 0.647280
O O2 0.339567 0.632181 0.698335
O O3 0.731414 0.031526 0.713762
O O4 0.521424 0.177237 0.769183
O O5 0.268944 0.197474 0.500000
O O6 0.208525 0.220234 0.417159
O O7 0.500000 0.000000 0.452193
O O8 0.000000 0.000000 0.458218
O O9 0.000000 0.500000 0.612690
O O10 0.962631 0.209954 0.655044
#
# Coordination Sequence:
#
# PCOD9444039 Si02
#       5
#     4   4   8   8   8
#     4  10  20  44  63  96 136 178 226 298 343 430
#     4  12  24  44  66  88 140 182 232 296 350 414
#     4  10  24  46  71 106 148 186 232 291 355 433
#     4  10  23  43  69  99 135 180 233 289 354 425
#     4  11  24  43  63  97 133 181 232 289 357 414
#
# _framework density 22.322334000000001
#
# number of rings (size 3 to 8) (size 9 to 14) (size 15 to 20)
#    0.000    1.500    3.750    1.500    7.000    2.500 
#    0.000    0.625    0.000    0.000    0.000    0.000 
#    0.000    0.000    0.000    0.000    0.000    0.000 
#
# Total GULP energy -178429.129918 kJ/mol
# GULP energy per Si atom -5575.910310 kJ/mol
# Density = 2.227153 g / cm^3
# Si number density = 22.322334 Si / 1000 Ang^3
#
#
#
# Elastic Constant Matrix: (Units=GPa)
#
#
# Indices 1 2 3 4 5 6 
#
# 1 91.7714 25.4548 45.1281 0.0000 0.0000 0.0000
# 2 25.4548 90.7880 80.6411 0.0000 0.0000 0.0000
# 3 45.1281 80.6411 186.7050 0.0000 0.0000 0.0000
# 4 0.0000 0.0000 0.0000 32.5151 0.0000 0.0000
# 5 0.0000 0.0000 0.0000 0.0000 -0.8391 0.0000
# 6 0.0000 0.0000 0.0000 0.0000 0.0000 32.6056
#
#
#
# Elastic Compliance Matrix: (Units=1/GPa)
#
#
# Indices 1 2 3 4 5 6 
#
# 1 0.012464 -0.001328 -0.002439 0.000000 0.000000 0.000000
# 2 -0.001328 0.018012 -0.007459 0.000000 0.000000 0.000000
# 3 -0.002439 -0.007459 0.009167 0.000000 0.000000 0.000000
# 4 0.000000 0.000000 0.000000 0.030755 0.000000 0.000000
# 5 0.000000 0.000000 0.000000 0.000000 -1.191770 0.000000
# 6 0.000000 0.000000 0.000000 0.000000 0.000000 0.030670
#
#
# Mechanical properties :
#
#
# Convention : Reuss Voigt Hill
#
# Bulk Modulus (GPa) = 58.16770 74.63471 66.40120
# Shear Modulus (GPa) = -4.70580 27.39235 11.34327
#
# Velocity S-wave (km/s) = -1.45351 3.50684 2.25668
# Velocity P-wave (km/s) = 4.82677 7.06433 6.04990
#
# Compressibility (1/GPa) = 0.01719167
#
# Stress axis : x y z
#
# Youngs Moduli (GPa) = 80.22810 55.51799 109.08546
#
# Poissons Ratio (x) = 0.07374 0.26606
# Poissons Ratio (y) = 0.10657 0.81364
# Poissons Ratio (z) = 0.19568 0.41409
#
# Static dielectric constant tensor:
#      x y z
#    x 2.063680 0.000000 0.000000 
#    y 0.000000 1.897830 0.000000 
#    z 0.000000 0.000000 1.817790 
# 
# From -- ./inp_files/33973.got.cif
#   From: 2010.05.17/outbox.cif.g08.bks.cpg/sg58_17_cif.got.tgz:33973.got - 2010.06.03 14:20:14.
