data_PCOD9444665
_publ_section_title
;
Structure prediction by ZEFSAII (Michael W. Deem and Ramdas Pophale) SiO2 
 PCOD9444665
Probable space group: P N N M
;
_chemical_formula_sum "Si O2"
_cell_formula_units_Z 40
_cell_length_a 8.128804
_cell_length_b 8.077201
_cell_length_c 27.589667
_cell_angle_alpha 90.000000
_cell_angle_beta 90.000000
_cell_angle_gamma 90.000000
_cell_volume 1811.481909
_symmetry_space_group_name_H-M "P N N M"
_symmetry_group_IT_number 58
_symmetry_cell_setting 'orthorhombic'
loop_
_space_group_symop_operation_xyz
x,y,z
-x,-y,z
1/2+x,1/2-y,1/2-z
1/2-x,1/2+y,1/2-z
-x,-y,-z
x,y,-z
1/2-x,1/2+y,1/2+z
1/2+x,1/2-y,1/2+z
loop_
_atom_site_type_symbol
_atom_site_label
_atom_site_fract_x
_atom_site_fract_y
_atom_site_fract_z
Si Si1 0.630189 0.881320 0.698920
Si Si2 0.815051 0.708779 0.387489
Si Si3 0.813787 0.310786 0.378339
Si Si4 0.633554 0.631721 0.221783
Si Si5 0.993782 0.798421 0.054821
O O1 0.753841 0.801829 0.660661
O O2 0.568518 0.734358 0.732884
O O3 0.500000 0.000000 0.673023
O O4 0.715461 0.012630 0.735219
O O5 0.806742 0.510676 0.378356
O O6 0.674482 0.752782 0.426474
O O7 0.006523 0.742263 0.399031
O O8 0.813684 0.242454 0.323672
O O9 0.656364 0.252436 0.409365
O O10 0.500000 0.500000 0.205469
O O11 0.962969 0.742174 0.000000
O O12 0.000000 0.000000 0.054516
#
# Coordination Sequence:
#
# PCOD9444665 Si02
#       5
#     8   8   8   8   8
#     4  12  25  39  61  91 127 170 215 266 316 378
#     4  10  21  39  63  93 126 168 212 261 317 376
#     4  10  21  39  64  89 127 167 210 264 316 378
#     4  12  24  40  60  89 125 170 215 264 314 380
#     4   9  19  37  63  96 126 157 206 266 323 377
#
# _framework density 22.081368000000001
#
# number of rings (size 3 to 8) (size 9 to 14) (size 15 to 20)
#    0.000    1.400    2.000    3.600    2.800    3.200 
#    0.000    4.000    0.000    6.000    0.000    0.000 
#    0.000    0.000    0.000    0.000    0.000    0.000 
#
# Total GULP energy -223230.803426 kJ/mol
# GULP energy per Si atom -5580.770086 kJ/mol
# Density = 2.203111 g / cm^3
# Si number density = 22.081368 Si / 1000 Ang^3
#
#
#
# Elastic Constant Matrix: (Units=GPa)
#
#
# Indices 1 2 3 4 5 6 
#
# 1 148.6752 40.2530 55.7198 0.0000 0.0000 0.0000
# 2 40.2530 40.6401 28.9065 0.0000 0.0000 0.0000
# 3 55.7198 28.9065 80.7759 0.0000 0.0000 0.0000
# 4 0.0000 0.0000 0.0000 18.1628 0.0000 0.0000
# 5 0.0000 0.0000 0.0000 0.0000 25.7171 0.0000
# 6 0.0000 0.0000 0.0000 0.0000 0.0000 38.0124
#
#
#
# Elastic Compliance Matrix: (Units=1/GPa)
#
#
# Indices 1 2 3 4 5 6 
#
# 1 0.010350 -0.006940 -0.004656 0.000000 0.000000 0.000000
# 2 -0.006940 0.037661 -0.008690 0.000000 0.000000 0.000000
# 3 -0.004656 -0.008690 0.018702 0.000000 0.000000 0.000000
# 4 0.000000 0.000000 0.000000 0.055058 0.000000 0.000000
# 5 0.000000 0.000000 0.000000 0.000000 0.038885 0.000000
# 6 0.000000 0.000000 0.000000 0.000000 0.000000 0.026307
#
#
# Mechanical properties :
#
#
# Convention : Reuss Voigt Hill
#
# Bulk Modulus (GPa) = 38.25480 57.76110 48.00795
# Shear Modulus (GPa) = 21.16423 26.05924 23.61174
#
# Velocity S-wave (km/s) = 3.09927 3.43905 3.27357
# Velocity P-wave (km/s) = 5.49266 6.47955 6.00641
#
# Compressibility (1/GPa) = 0.02614051
#
# Stress axis : x y z
#
# Youngs Moduli (GPa) = 96.61939 26.55267 53.47124
#
# Poissons Ratio (x) = 0.18426 0.24896
# Poissons Ratio (y) = 0.67050 0.46469
# Poissons Ratio (z) = 0.44986 0.23075
#
# Static dielectric constant tensor:
#      x y z
#    x 1.979300 0.000000 0.000000 
#    y 0.000000 1.827120 0.000000 
#    z 0.000000 0.000000 1.749760 
# 
# From -- ./inp_files/33140.got.cif
#   From: 2010.05.17/outbox.cif.g08.bks.cpg/sg58_17_cif.got.tgz:33140.got - 2010.06.03 14:20:14.
