data_PCOD9444467
_publ_section_title
;
Structure prediction by ZEFSAII (Michael W. Deem and Ramdas Pophale) SiO2 
 PCOD9444467
Probable space group: P N N M
;
_chemical_formula_sum "Si O2"
_cell_formula_units_Z 64
_cell_length_a 15.039961
_cell_length_b 25.149060
_cell_length_c 8.822295
_cell_angle_alpha 90.000000
_cell_angle_beta 90.000000
_cell_angle_gamma 90.000000
_cell_volume 3336.952638
_symmetry_space_group_name_H-M "P N N M"
_symmetry_group_IT_number 58
_symmetry_cell_setting 'orthorhombic'
loop_
_space_group_symop_operation_xyz
x,y,z
-x,-y,z
1/2+x,1/2-y,1/2-z
1/2-x,1/2+y,1/2-z
-x,-y,-z
x,y,-z
1/2-x,1/2+y,1/2+z
1/2+x,1/2-y,1/2+z
loop_
_atom_site_type_symbol
_atom_site_label
_atom_site_fract_x
_atom_site_fract_y
_atom_site_fract_z
Si Si1 0.499412 0.831261 0.815623
Si Si2 0.752227 0.061589 0.681173
Si Si3 0.939064 0.867142 0.824197
Si Si4 0.864902 0.761455 0.319010
Si Si5 0.096139 0.023925 0.681861
Si Si6 0.168656 0.735176 0.319369
Si Si7 0.940095 0.550838 0.316801
Si Si8 0.639955 0.653729 0.323816
O O1 0.421279 0.790352 0.766259
O O2 0.595225 0.807908 0.767016
O O3 0.481188 0.891985 0.769984
O O4 0.499338 0.830083 0.000000
O O5 0.751710 0.068247 0.500000
O O6 0.656188 0.046112 0.742142
O O7 0.783936 0.116034 0.759138
O O8 0.825458 0.016877 0.719667
O O9 0.915354 0.814596 0.731740
O O10 0.892251 0.919336 0.760258
O O11 0.045187 0.875435 0.813365
O O12 0.916382 0.858449 0.000000
O O13 0.859612 0.758584 0.500000
O O14 0.766160 0.766705 0.252658
O O15 0.094994 0.031259 0.500000
O O16 0.000000 0.000000 0.725587
O O17 0.176671 0.730937 0.500000
O O18 0.132500 0.792810 0.272128
O O19 0.930970 0.551626 0.500000
O O20 0.000000 0.500000 0.276584
O O21 0.657066 0.666661 0.500000
#
# Coordination Sequence:
#
# PCOD9444467 Si02
#       8
#     8   8   8   8   8   8   8   8
#     4   9  20  39  62  87 120 161 203 245 300 366
#     4  11  23  39  63  92 121 161 209 257 306 366
#     4  11  23  37  58  88 122 158 203 255 303 360
#     4  11  22  39  61  88 125 166 204 250 309 368
#     4  10  21  38  59  85 123 164 200 240 303 374
#     4  11  22  38  61  89 121 162 209 254 302 363
#     4  10  22  42  66  90 120 161 205 255 310 364
#     4  11  22  37  59  89 123 158 203 254 307 366
#
# _framework density 19.179175999999998
#
# number of rings (size 3 to 8) (size 9 to 14) (size 15 to 20)
#    0.000    1.500    2.500    2.625    0.000    4.500 
#    0.000    3.125    0.000    0.000    0.000    0.000 
#    0.000    0.000    0.000    0.000    0.000    0.000 
#
# Total GULP energy -357538.838570 kJ/mol
# GULP energy per Si atom -5586.544353 kJ/mol
# Density = 1.913552 g / cm^3
# Si number density = 19.179176 Si / 1000 Ang^3
#
#
#
# Elastic Constant Matrix: (Units=GPa)
#
#
# Indices 1 2 3 4 5 6 
#
# 1 124.3701 63.3555 33.3717 0.0000 0.0000 0.0000
# 2 63.3555 123.5998 32.4840 0.0000 0.0000 0.0000
# 3 33.3717 32.4840 35.6303 0.0000 0.0000 0.0000
# 4 0.0000 0.0000 0.0000 19.4401 0.0000 0.0000
# 5 0.0000 0.0000 0.0000 0.0000 33.9126 0.0000
# 6 0.0000 0.0000 0.0000 0.0000 0.0000 32.3211
#
#
#
# Elastic Compliance Matrix: (Units=1/GPa)
#
#
# Indices 1 2 3 4 5 6 
#
# 1 0.012259 -0.004295 -0.007566 0.000000 0.000000 0.000000
# 2 -0.004295 0.012145 -0.007050 0.000000 0.000000 0.000000
# 3 -0.007566 -0.007050 0.041579 0.000000 0.000000 0.000000
# 4 0.000000 0.000000 0.000000 0.051440 0.000000 0.000000
# 5 0.000000 0.000000 0.000000 0.000000 0.029488 0.000000
# 6 0.000000 0.000000 0.000000 0.000000 0.000000 0.030940
#
#
# Mechanical properties :
#
#
# Convention : Reuss Voigt Hill
#
# Bulk Modulus (GPa) = 35.50897 60.22474 47.86686
# Shear Modulus (GPa) = 22.21645 27.42735 24.82190
#
# Velocity S-wave (km/s) = 3.40717 3.78571 3.60142
# Velocity P-wave (km/s) = 5.83377 7.11183 6.50427
#
# Compressibility (1/GPa) = 0.02816190
#
# Stress axis : x y z
#
# Youngs Moduli (GPa) = 81.57535 82.33791 24.05047
#
# Poissons Ratio (x) = 0.35366 0.18196
# Poissons Ratio (y) = 0.35038 0.16955
# Poissons Ratio (z) = 0.61717 0.58046
#
# Static dielectric constant tensor:
#      x y z
#    x 1.703070 0.000000 0.000000 
#    y 0.000000 1.657260 0.000000 
#    z 0.000000 0.000000 1.646360 
# 
# From -- ./inp_files/6771.got.cif
#   From: 2010.05.17/outbox.cif.g08.bks.cpg/sg58_4_cif.got.tgz:6771.got - 2010.06.03 14:20:14.
