data_PCOD9444695
_publ_section_title
;
Structure prediction by ZEFSAII (Michael W. Deem and Ramdas Pophale) SiO2 
 PCOD9444695
Probable space group: P N N M
;
_chemical_formula_sum "Si O2"
_cell_formula_units_Z 48
_cell_length_a 12.164579
_cell_length_b 12.553865
_cell_length_c 13.154183
_cell_angle_alpha 90.000000
_cell_angle_beta 90.000000
_cell_angle_gamma 90.000000
_cell_volume 2008.807942
_symmetry_space_group_name_H-M "P N N M"
_symmetry_group_IT_number 58
_symmetry_cell_setting 'orthorhombic'
loop_
_space_group_symop_operation_xyz
x,y,z
-x,-y,z
1/2+x,1/2-y,1/2-z
1/2-x,1/2+y,1/2-z
-x,-y,-z
x,y,-z
1/2-x,1/2+y,1/2+z
1/2+x,1/2-y,1/2+z
loop_
_atom_site_type_symbol
_atom_site_label
_atom_site_fract_x
_atom_site_fract_y
_atom_site_fract_z
Si Si1 0.675938 0.042342 0.676706
Si Si2 0.308374 0.726873 0.387191
Si Si3 0.907016 0.589829 0.389537
Si Si4 0.436483 0.280351 0.821768
Si Si5 0.136770 0.688712 0.114438
Si Si6 0.141293 0.107118 0.680179
O O1 0.641970 0.153864 0.627748
O O2 0.670143 0.058495 0.797092
O O3 0.611002 0.935589 0.643731
O O4 0.801462 0.005852 0.656718
O O5 0.331077 0.686759 0.500000
O O6 0.342661 0.646852 0.297399
O O7 0.178268 0.752595 0.374838
O O8 0.854051 0.599235 0.500000
O O9 0.977060 0.691029 0.356710
O O10 0.000000 0.500000 0.395001
O O11 0.410492 0.263920 0.701926
O O12 0.514191 0.380552 0.843868
O O13 0.270508 0.685564 0.123576
O O14 0.103522 0.712819 0.000000
#
# Coordination Sequence:
#
# PCOD9444695 Si02
#       6
#     8   8   8   8   8   8
#     4  10  21  40  57  89 122 154 204 247 301 366
#     4  11  22  39  64  92 123 159 203 255 307 356
#     4  11  20  36  61  85 115 156 202 253 305 354
#     4  11  21  39  57  92 119 155 205 249 295 365
#     4   9  20  38  59  84 121 158 196 247 302 356
#     4   9  22  39  59  83 128 155 196 248 303 363
#
# _framework density 23.894769
#
# number of rings (size 3 to 8) (size 9 to 14) (size 15 to 20)
#    1.000    0.833    3.333    1.000    0.000    4.667 
#    0.000    1.667    0.000    0.000    0.000    4.667 
#    0.000    0.000    0.000    0.000    0.000    0.000 
#
# Total GULP energy -267888.926428 kJ/mol
# GULP energy per Si atom -5581.019301 kJ/mol
# Density = 2.384038 g / cm^3
# Si number density = 23.894769 Si / 1000 Ang^3
#
#
#
# Elastic Constant Matrix: (Units=GPa)
#
#
# Indices 1 2 3 4 5 6 
#
# 1 82.5828 -6.3978 -27.1920 0.0000 0.0000 0.0000
# 2 -6.3978 44.0700 -14.3069 0.0000 0.0000 0.0000
# 3 -27.1920 -14.3069 117.3873 0.0000 0.0000 0.0000
# 4 0.0000 0.0000 0.0000 9.0801 0.0000 0.0000
# 5 0.0000 0.0000 0.0000 0.0000 9.3831 0.0000
# 6 0.0000 0.0000 0.0000 0.0000 0.0000 36.5610
#
#
#
# Elastic Compliance Matrix: (Units=1/GPa)
#
#
# Indices 1 2 3 4 5 6 
#
# 1 0.013503 0.003098 0.003506 0.000000 0.000000 0.000000
# 2 0.003098 0.024337 0.003684 0.000000 0.000000 0.000000
# 3 0.003506 0.003684 0.009780 0.000000 0.000000 0.000000
# 4 0.000000 0.000000 0.000000 0.110131 0.000000 0.000000
# 5 0.000000 0.000000 0.000000 0.000000 0.106574 0.000000
# 6 0.000000 0.000000 0.000000 0.000000 0.000000 0.027352
#
#
# Mechanical properties :
#
#
# Convention : Reuss Voigt Hill
#
# Bulk Modulus (GPa) = 14.66366 16.47186 15.56776
# Shear Modulus (GPa) = 17.01644 30.46729 23.74186
#
# Velocity S-wave (km/s) = 2.67149 3.57467 3.15556
# Velocity P-wave (km/s) = 3.95802 4.89348 4.45040
#
# Compressibility (1/GPa) = 0.06819578
#
# Stress axis : x y z
#
# Youngs Moduli (GPa) = 74.05557 41.08984 102.25121
#
# Poissons Ratio (x) = -0.12731 -0.35845
# Poissons Ratio (y) = -0.22945 -0.37668
# Poissons Ratio (z) = -0.25961 -0.15137
#
# Static dielectric constant tensor:
#      x y z
#    x 1.941570 0.000000 0.000000 
#    y 0.000000 1.757290 0.000000 
#    z 0.000000 0.000000 1.884460 
# 
# From -- ./inp_files/15601.got.cif
#   From: 2010.05.17/outbox.cif.g08.bks.cpg/sg58_8_cif.got.tgz:15601.got - 2010.06.03 14:20:14.
