data_PCOD9444191
_publ_section_title
;
Structure prediction by ZEFSAII (Michael W. Deem and Ramdas Pophale) SiO2 
 PCOD9444191
Probable space group: P N N M
;
_chemical_formula_sum "Si O2"
_cell_formula_units_Z 32
_cell_length_a 7.201960
_cell_length_b 7.181128
_cell_length_c 22.979915
_cell_angle_alpha 90.000000
_cell_angle_beta 90.000000
_cell_angle_gamma 90.000000
_cell_volume 1188.479762
_symmetry_space_group_name_H-M "P N N M"
_symmetry_group_IT_number 58
_symmetry_cell_setting 'orthorhombic'
loop_
_space_group_symop_operation_xyz
x,y,z
-x,-y,z
1/2+x,1/2-y,1/2-z
1/2-x,1/2+y,1/2-z
-x,-y,-z
x,y,-z
1/2-x,1/2+y,1/2+z
1/2+x,1/2-y,1/2+z
loop_
_atom_site_type_symbol
_atom_site_label
_atom_site_fract_x
_atom_site_fract_y
_atom_site_fract_z
Si Si1 0.446680 0.277281 0.064036
Si Si2 0.102158 0.802839 0.311586
Si Si3 0.019098 0.778541 0.814831
Si Si4 0.006040 0.279127 0.939077
O O1 0.500000 0.500000 0.065184
O O2 0.485980 0.210834 0.130521
O O3 0.225140 0.236248 0.061989
O O4 0.517160 0.214056 0.000000
O O5 0.321455 0.822992 0.321708
O O6 0.096146 0.711039 0.247314
O O7 0.000000 0.000000 0.307995
O O8 0.101060 0.766053 0.879802
O O9 0.000000 0.000000 0.808168
O O10 0.000000 0.500000 0.941961
O O11 0.929049 0.203433 0.000000
#
# Coordination Sequence:
#
# PCOD9444191 Si02
#       4
#     8   8   8   8
#     4   8  14  27  48  73 101 136 182 232 277 330
#     4   9  19  35  54  81 117 154 193 240 298 360
#     4  10  21  36  56  84 117 154 198 250 300 348
#     4   9  18  32  52  79 111 150 194 239 292 357
#
# _framework density 26.925153999999999
#
# number of rings (size 3 to 8) (size 9 to 14) (size 15 to 20)
#    0.000    3.000    0.000    0.000    0.000   10.500 
#    0.000    0.000    0.000    0.000    0.000    0.000 
#    0.000   91.000    0.000    0.000    0.000    0.000 
#
# Total GULP energy -178179.915373 kJ/mol
# GULP energy per Si atom -5568.122355 kJ/mol
# Density = 2.686387 g / cm^3
# Si number density = 26.925154 Si / 1000 Ang^3
#
#
#
# Elastic Constant Matrix: (Units=GPa)
#
#
# Indices 1 2 3 4 5 6 
#
# 1 108.9304 -26.2401 9.9266 0.0000 0.0000 0.0000
# 2 -26.2401 78.7619 11.5971 0.0000 0.0000 0.0000
# 3 9.9266 11.5971 406.9572 0.0000 0.0000 0.0000
# 4 0.0000 0.0000 0.0000 32.3426 0.0000 0.0000
# 5 0.0000 0.0000 0.0000 0.0000 8.6258 0.0000
# 6 0.0000 0.0000 0.0000 0.0000 0.0000 15.5057
#
#
#
# Elastic Compliance Matrix: (Units=1/GPa)
#
#
# Indices 1 2 3 4 5 6 
#
# 1 0.010028 0.003391 -0.000341 0.000000 0.000000 0.000000
# 2 0.003391 0.013897 -0.000479 0.000000 0.000000 0.000000
# 3 -0.000341 -0.000479 0.002479 0.000000 0.000000 0.000000
# 4 0.000000 0.000000 0.000000 0.030919 0.000000 0.000000
# 5 0.000000 0.000000 0.000000 0.000000 0.115932 0.000000
# 6 0.000000 0.000000 0.000000 0.000000 0.000000 0.064492
#
#
# Mechanical properties :
#
#
# Convention : Reuss Voigt Hill
#
# Bulk Modulus (GPa) = 31.69911 65.02408 48.36160
# Shear Modulus (GPa) = 20.56595 51.25254 35.90925
#
# Velocity S-wave (km/s) = 2.76673 4.36767 3.65591
# Velocity P-wave (km/s) = 4.69095 7.04540 5.98509
#
# Compressibility (1/GPa) = 0.03154662
#
# Stress axis : x y z
#
# Youngs Moduli (GPa) = 99.71906 71.95908 403.35145
#
# Poissons Ratio (x) = -0.24403 0.13764
# Poissons Ratio (y) = -0.33817 0.19310
# Poissons Ratio (z) = 0.03403 0.03445
#
# Static dielectric constant tensor:
#      x y z
#    x 3.326740 0.000000 0.000000 
#    y 0.000000 2.041710 0.000000 
#    z 0.000000 0.000000 2.292860 
# 
# From -- ./inp_files/31225.got.cif
#   From: 2010.05.17/outbox.cif.g08.bks.cpg/sg58_16_cif.got.tgz:31225.got - 2010.06.03 14:20:14.
