data_PCOD9444507
_publ_section_title
;
Structure prediction by ZEFSAII (Michael W. Deem and Ramdas Pophale) SiO2 
 PCOD9444507
Probable space group: P N N M
;
_chemical_formula_sum "Si O2"
_cell_formula_units_Z 48
_cell_length_a 18.852474
_cell_length_b 14.967313
_cell_length_c 9.025681
_cell_angle_alpha 90.000000
_cell_angle_beta 90.000000
_cell_angle_gamma 90.000000
_cell_volume 2546.784343
_symmetry_space_group_name_H-M "P N N M"
_symmetry_group_IT_number 58
_symmetry_cell_setting 'orthorhombic'
loop_
_space_group_symop_operation_xyz
x,y,z
-x,-y,z
1/2+x,1/2-y,1/2-z
1/2-x,1/2+y,1/2-z
-x,-y,-z
x,y,-z
1/2-x,1/2+y,1/2+z
1/2+x,1/2-y,1/2+z
loop_
_atom_site_type_symbol
_atom_site_label
_atom_site_fract_x
_atom_site_fract_y
_atom_site_fract_z
Si Si1 0.692789 0.105687 0.326780
Si Si2 0.647553 0.400633 0.323604
Si Si3 0.919532 0.732540 0.676409
Si Si4 0.579781 0.777591 0.823500
Si Si5 0.200410 0.605434 0.173909
Si Si6 0.143893 0.910520 0.323738
O O1 0.682991 0.129702 0.500000
O O2 0.639508 0.162674 0.229365
O O3 0.775520 0.120516 0.288803
O O4 0.681479 0.999481 0.310459
O O5 0.647255 0.398245 0.500000
O O6 0.596605 0.325825 0.256312
O O7 0.726722 0.379729 0.262738
O O8 0.628664 0.499305 0.264483
O O9 0.916048 0.745406 0.500000
O O10 0.998760 0.699673 0.713469
O O11 0.637158 0.834785 0.735649
O O12 0.592988 0.672536 0.794353
O O13 0.590982 0.791092 0.000000
O O14 0.213262 0.622710 0.000000
O O15 0.143004 0.931319 0.500000
#
# Coordination Sequence:
#
# PCOD9444507 Si02
#       6
#     8   8   8   8   8   8
#     4   9  19  36  58  83 109 143 186 232 281 329
#     4  11  22  37  59  84 111 144 185 233 280 329
#     4  11  23  37  55  82 116 153 189 226 274 331
#     4  10  22  38  57  83 116 152 186 226 277 331
#     4  10  21  38  61  85 110 143 185 232 280 332
#     4   9  19  38  60  81 108 143 185 231 280 332
#
# _framework density 18.847296
#
# number of rings (size 3 to 8) (size 9 to 14) (size 15 to 20)
#    0.000    2.000    0.000    4.500    0.000    8.000 
#    0.000    6.667    0.000    0.000    0.000    0.000 
#    0.000    0.000    0.000    0.000    0.000    0.000 
#
# Total GULP energy -268214.026835 kJ/mol
# GULP energy per Si atom -5587.792226 kJ/mol
# Density = 1.880440 g / cm^3
# Si number density = 18.847296 Si / 1000 Ang^3
#
#
#
# Elastic Constant Matrix: (Units=GPa)
#
#
# Indices 1 2 3 4 5 6 
#
# 1 18.5733 9.3882 15.6312 0.0000 0.0000 0.0000
# 2 9.3882 18.7765 17.2673 0.0000 0.0000 0.0000
# 3 15.6312 17.2673 61.1881 0.0000 0.0000 0.0000
# 4 0.0000 0.0000 0.0000 41.8571 0.0000 0.0000
# 5 0.0000 0.0000 0.0000 0.0000 23.1347 0.0000
# 6 0.0000 0.0000 0.0000 0.0000 0.0000 -5.3115
#
#
#
# Elastic Compliance Matrix: (Units=1/GPa)
#
#
# Indices 1 2 3 4 5 6 
#
# 1 0.078134 -0.027970 -0.012067 0.000000 0.000000 0.000000
# 2 -0.027970 0.081936 -0.015977 0.000000 0.000000 0.000000
# 3 -0.012067 -0.015977 0.023935 0.000000 0.000000 0.000000
# 4 0.000000 0.000000 0.000000 0.023891 0.000000 0.000000
# 5 0.000000 0.000000 0.000000 0.000000 0.043225 0.000000
# 6 0.000000 0.000000 0.000000 0.000000 0.000000 -0.188271
#
#
# Mechanical properties :
#
#
# Convention : Reuss Voigt Hill
#
# Bulk Modulus (GPa) = 13.89340 20.34569 17.11954
# Shear Modulus (GPa) = 25.14193 15.68613 20.41403
#
# Velocity S-wave (km/s) = 3.65633 2.88805 3.29466
# Velocity P-wave (km/s) = 5.02121 4.68397 4.85552
#
# Compressibility (1/GPa) = 0.07197663
#
# Stress axis : x y z
#
# Youngs Moduli (GPa) = 12.79845 12.20462 41.78065
#
# Poissons Ratio (x) = 0.34136 0.50417
# Poissons Ratio (y) = 0.35797 0.66754
# Poissons Ratio (z) = 0.15444 0.19500
#
# Static dielectric constant tensor:
#      x y z
#    x 1.635690 0.000000 0.000000 
#    y 0.000000 1.641450 0.000000 
#    z 0.000000 0.000000 1.629750 
# 
# From -- ./inp_files/5785.got.cif
#   From: 2010.05.17/outbox.cif.g08.bks.cpg/sg58_3_cif.got.tgz:5785.got - 2010.06.03 14:20:14.
