data_PCOD9444558
_publ_section_title
;
Structure prediction by ZEFSAII (Michael W. Deem and Ramdas Pophale) SiO2 
 PCOD9444558
Probable space group: P N N M
;
_chemical_formula_sum "Si O2"
_cell_formula_units_Z 34
_cell_length_a 10.520125
_cell_length_b 18.259373
_cell_length_c 7.333158
_cell_angle_alpha 90.000000
_cell_angle_beta 90.000000
_cell_angle_gamma 90.000000
_cell_volume 1408.632820
_symmetry_space_group_name_H-M "P N N M"
_symmetry_group_IT_number 58
_symmetry_cell_setting 'orthorhombic'
loop_
_space_group_symop_operation_xyz
x,y,z
-x,-y,z
1/2+x,1/2-y,1/2-z
1/2-x,1/2+y,1/2-z
-x,-y,-z
x,y,-z
1/2-x,1/2+y,1/2+z
1/2+x,1/2-y,1/2+z
loop_
_atom_site_type_symbol
_atom_site_label
_atom_site_fract_x
_atom_site_fract_y
_atom_site_fract_z
Si Si1 0.678850 0.362783 0.208429
Si Si2 0.950207 0.419113 0.776740
Si Si3 0.667639 0.193742 0.718612
Si Si4 0.500000 0.500000 0.500000
Si Si5 0.596294 0.590624 0.782874
O O1 0.685424 0.274777 0.206848
O O2 0.538974 0.378055 0.287919
O O3 0.808672 0.396640 0.284455
O O4 0.671160 0.389480 0.000000
O O5 0.047456 0.354688 0.720272
O O6 0.000000 0.500000 0.722547
O O7 0.949812 0.419309 0.000000
O O8 0.657313 0.201433 0.500000
O O9 0.792795 0.146823 0.757759
O O10 0.605655 0.519331 0.661226
O O11 0.597633 0.577216 0.000000
#
# Coordination Sequence:
#
# PCOD9444558 Si02
#       5
#     8   8   8   2   8
#     4  10  21  38  63  91 126 164 210 259 315 382
#     4   9  19  36  60  88 119 160 203 255 316 369
#     4  10  21  38  63  91 126 164 210 259 315 382
#     4  12  26  40  68  92 132 164 216 262 320 386
#     4  10  24  42  64  95 126 168 215 263 315 380
#
# _framework density 24.136882
#
# number of rings (size 3 to 8) (size 9 to 14) (size 15 to 20)
#    0.000    2.118    0.000    1.765    6.588    0.000 
#    0.000    0.000    0.000    2.824    0.000    0.000 
#    0.000    0.000    0.000    0.000    0.000    0.000 
#
# Total GULP energy -189542.489724 kJ/mol
# GULP energy per Si atom -5574.779110 kJ/mol
# Density = 2.408195 g / cm^3
# Si number density = 24.136882 Si / 1000 Ang^3
#
#
#
# Elastic Constant Matrix: (Units=GPa)
#
#
# Indices 1 2 3 4 5 6 
#
# 1 212.9420 64.7963 16.2705 0.0000 0.0000 0.0000
# 2 64.7963 86.8833 -7.9310 0.0000 0.0000 0.0000
# 3 16.2705 -7.9310 93.7319 0.0000 0.0000 0.0000
# 4 0.0000 0.0000 0.0000 -61.6835 0.0000 0.0000
# 5 0.0000 0.0000 0.0000 0.0000 -25.9836 0.0000
# 6 0.0000 0.0000 0.0000 0.0000 0.0000 51.8806
#
#
#
# Elastic Compliance Matrix: (Units=1/GPa)
#
#
# Indices 1 2 3 4 5 6 
#
# 1 0.006276 -0.004818 -0.001497 0.000000 0.000000 0.000000
# 2 -0.004818 0.015297 0.002131 0.000000 0.000000 0.000000
# 3 -0.001497 0.002131 0.011109 0.000000 0.000000 0.000000
# 4 0.000000 0.000000 0.000000 -0.016212 0.000000 0.000000
# 5 0.000000 0.000000 0.000000 0.000000 -0.038486 0.000000
# 6 0.000000 0.000000 0.000000 0.000000 0.000000 0.019275
#
#
# Mechanical properties :
#
#
# Convention : Reuss Voigt Hill
#
# Bulk Modulus (GPa) = 41.12821 59.98098 50.55459
# Shear Modulus (GPa) = 364.09431 14.20412 189.14922
#
# Velocity S-wave (km/s) = 12.29525 2.42850 8.86202
# Velocity P-wave (km/s) = 14.78650 5.72431 11.21179
#
# Compressibility (1/GPa) = 0.02431421
#
# Stress axis : x y z
#
# Youngs Moduli (GPa) = 159.32595 65.37217 90.01802
#
# Poissons Ratio (x) = 0.31493 0.13477
# Poissons Ratio (y) = 0.76756 -0.19179
# Poissons Ratio (z) = 0.23853 -0.13928
#
# Static dielectric constant tensor:
#      x y z
#    x 1.905740 0.000000 0.000000 
#    y 0.000000 0.753560 0.000000 
#    z 0.000000 0.000000 1.963520 
# 
# From -- ./inp_files/2247.got.cif
#   From: 2010.05.17/outbox.cif.g08.bks.cpg/sg58_2_cif.got.tgz:2247.got - 2010.06.03 14:20:14.
