data_PCOD9444916
_publ_section_title
;
Structure prediction by ZEFSAII (Michael W. Deem and Ramdas Pophale) SiO2 
 PCOD9444916
Probable space group: P N N M
;
_chemical_formula_sum "Si O2"
_cell_formula_units_Z 48
_cell_length_a 7.633593
_cell_length_b 8.070072
_cell_length_c 34.937885
_cell_angle_alpha 90.000000
_cell_angle_beta 90.000000
_cell_angle_gamma 90.000000
_cell_volume 2152.301069
_symmetry_space_group_name_H-M "P N N M"
_symmetry_group_IT_number 58
_symmetry_cell_setting 'orthorhombic'
loop_
_space_group_symop_operation_xyz
x,y,z
-x,-y,z
1/2+x,1/2-y,1/2-z
1/2-x,1/2+y,1/2-z
-x,-y,-z
x,y,-z
1/2-x,1/2+y,1/2+z
1/2+x,1/2-y,1/2+z
loop_
_atom_site_type_symbol
_atom_site_label
_atom_site_fract_x
_atom_site_fract_y
_atom_site_fract_z
Si Si1 0.217955 0.171499 0.689390
Si Si2 0.621872 0.838608 0.826241
Si Si3 0.775878 0.816929 0.395811
Si Si4 0.818806 0.214441 0.402719
Si Si5 0.207505 0.984534 0.757916
Si Si6 0.011129 0.297314 0.043445
O O1 0.294710 0.207361 0.647575
O O2 0.244722 0.319035 0.719619
O O3 0.011183 0.185748 0.679422
O O4 0.276366 0.015509 0.714820
O O5 0.738067 0.801676 0.863165
O O6 0.500000 0.000000 0.834063
O O7 0.719234 0.877698 0.787194
O O8 0.641632 0.749637 0.427066
O O9 0.972399 0.750837 0.404312
O O10 0.794157 0.016493 0.398593
O O11 0.696210 0.257989 0.438361
O O12 0.000000 0.000000 0.755932
O O13 0.000000 0.500000 0.042524
O O14 0.988118 0.239548 0.000000
#
# Coordination Sequence:
#
# PCOD9444916 Si02
#       6
#     8   8   8   8   8   8
#     4  10  22  37  54  79 114 150 193 237 289 335
#     4   9  20  38  52  76 111 148 195 239 282 339
#     4   9  19  33  55  83 112 152 187 234 288 351
#     4   9  18  33  57  78 110 151 186 233 289 343
#     4  11  23  35  55  80 107 153 192 244 282 331
#     4   9  18  33  53  86 118 142 186 238 292 356
#
# _framework density 22.301715000000002
#
# number of rings (size 3 to 8) (size 9 to 14) (size 15 to 20)
#    0.000    2.500    0.000    1.000    9.333    0.667 
#    0.000    5.833    0.000    0.500    0.000   14.000 
#    0.000    0.000    0.000    0.000    0.000    0.000 
#
# Total GULP energy -267763.352421 kJ/mol
# GULP energy per Si atom -5578.403175 kJ/mol
# Density = 2.225096 g / cm^3
# Si number density = 22.301715 Si / 1000 Ang^3
#
#
#
# Elastic Constant Matrix: (Units=GPa)
#
#
# Indices 1 2 3 4 5 6 
#
# 1 79.2389 5.6144 78.3773 0.0000 0.0000 0.0000
# 2 5.6144 38.2209 24.1061 0.0000 0.0000 0.0000
# 3 78.3773 24.1061 237.6588 0.0000 0.0000 0.0000
# 4 0.0000 0.0000 0.0000 20.6064 0.0000 0.0000
# 5 0.0000 0.0000 0.0000 0.0000 175.2826 0.0000
# 6 0.0000 0.0000 0.0000 0.0000 0.0000 14.8738
#
#
#
# Elastic Compliance Matrix: (Units=1/GPa)
#
#
# Indices 1 2 3 4 5 6 
#
# 1 0.018783 0.001226 -0.006319 0.000000 0.000000 0.000000
# 2 0.001226 0.028032 -0.003248 0.000000 0.000000 0.000000
# 3 -0.006319 -0.003248 0.006621 0.000000 0.000000 0.000000
# 4 0.000000 0.000000 0.000000 0.048529 0.000000 0.000000
# 5 0.000000 0.000000 0.000000 0.000000 0.005705 0.000000
# 6 0.000000 0.000000 0.000000 0.000000 0.000000 0.067232
#
#
# Mechanical properties :
#
#
# Convention : Reuss Voigt Hill
#
# Bulk Modulus (GPa) = 27.20677 63.47934 45.34306
# Shear Modulus (GPa) = 24.52964 58.62061 41.57512
#
# Velocity S-wave (km/s) = 3.32007 5.13248 4.32234
# Velocity P-wave (km/s) = 5.18874 7.97802 6.72948
#
# Compressibility (1/GPa) = 0.03675556
#
# Stress axis : x y z
#
# Youngs Moduli (GPa) = 53.23848 35.67359 151.03340
#
# Poissons Ratio (x) = -0.04374 0.95437
# Poissons Ratio (y) = -0.06528 0.49051
# Poissons Ratio (z) = 0.33641 0.11586
#
# Static dielectric constant tensor:
#      x y z
#    x 1.835420 0.000000 0.000000 
#    y 0.000000 1.937620 0.000000 
#    z 0.000000 0.000000 1.848790 
# 
# From -- ./inp_files/34590.got.cif
#   From: 2010.05.17/outbox.cif.g08.bks.cpg/sg58_18_cif.got.tgz:34590.got - 2010.06.03 14:20:14.
