data_PCOD9444881
_publ_section_title
;
Structure prediction by ZEFSAII (Michael W. Deem and Ramdas Pophale) SiO2 
 PCOD9444881
Probable space group: P N N M
;
_chemical_formula_sum "Si O2"
_cell_formula_units_Z 58
_cell_length_a 23.178424
_cell_length_b 5.588860
_cell_length_c 19.608803
_cell_angle_alpha 90.000000
_cell_angle_beta 90.000000
_cell_angle_gamma 90.000000
_cell_volume 2540.143298
_symmetry_space_group_name_H-M "P N N M"
_symmetry_group_IT_number 58
_symmetry_cell_setting 'orthorhombic'
loop_
_space_group_symop_operation_xyz
x,y,z
-x,-y,z
1/2+x,1/2-y,1/2-z
1/2-x,1/2+y,1/2-z
-x,-y,-z
x,y,-z
1/2-x,1/2+y,1/2+z
1/2+x,1/2-y,1/2+z
loop_
_atom_site_type_symbol
_atom_site_label
_atom_site_fract_x
_atom_site_fract_y
_atom_site_fract_z
Si Si1 0.070103 0.512234 0.655830
Si Si2 0.430146 0.510735 0.921545
Si Si3 0.500000 0.000000 0.500000
Si Si4 0.356273 0.258634 0.573359
Si Si5 0.444156 0.644185 0.611310
Si Si6 0.248268 0.354551 0.346323
Si Si7 0.231247 0.854375 0.305674
Si Si8 0.630801 0.070562 0.702452
O O1 0.084839 0.759348 0.615775
O O2 0.104832 0.518501 0.726961
O O3 0.000000 0.500000 0.666816
O O4 0.084638 0.262706 0.616073
O O5 0.500000 0.500000 0.924112
O O6 0.408825 0.514058 0.000000
O O7 0.533066 0.155074 0.560036
O O8 0.357383 0.132784 0.500000
O O9 0.400347 0.474554 0.571380
O O10 0.292073 0.345253 0.591370
O O11 0.374764 0.103143 0.637643
O O12 0.500000 0.500000 0.632825
O O13 0.409759 0.715027 0.678777
O O14 0.216618 0.608212 0.343065
O O15 0.284728 0.350634 0.274186
O O16 0.214677 0.102494 0.341481
O O17 0.301695 0.858865 0.299660
#
# Coordination Sequence:
#
# PCOD9444881 Si02
#       8
#     8   8   2   8   8   8   8   8
#     4  10  22  34  54  85 120 157 202 252 304 368
#     4   9  18  36  59  81 108 145 193 247 305 372
#     4  12  26  44  52  82 116 192 240 288 336 382
#     4  11  24  41  60  86 121 173 231 280 327 388
#     4  12  26  39  57  77 121 175 236 277 329 375
#     4   9  18  37  61  89 110 143 194 267 325 389
#     4   9  18  36  62  86 115 144 193 257 335 392
#     4  11  25  38  58  88 125 167 220 273 331 386
#
# _framework density 22.833356999999999
#
# number of rings (size 3 to 8) (size 9 to 14) (size 15 to 20)
#    0.000    1.793    2.069    1.448    7.724    2.207 
#    0.000    0.000    0.000    1.655    0.000    0.000 
#    0.000    0.000    0.000    0.000    0.000    0.000 
#
# Total GULP energy -323284.353708 kJ/mol
# GULP energy per Si atom -5573.868167 kJ/mol
# Density = 2.278139 g / cm^3
# Si number density = 22.833357 Si / 1000 Ang^3
#
#
#
# Elastic Constant Matrix: (Units=GPa)
#
#
# Indices 1 2 3 4 5 6 
#
# 1 68.5995 37.6191 44.7454 0.0000 0.0000 0.0000
# 2 37.6191 158.1986 65.0110 0.0000 0.0000 0.0000
# 3 44.7454 65.0110 155.2848 0.0000 0.0000 0.0000
# 4 0.0000 0.0000 0.0000 39.6594 0.0000 0.0000
# 5 0.0000 0.0000 0.0000 0.0000 43.2333 0.0000
# 6 0.0000 0.0000 0.0000 0.0000 0.0000 24.4614
#
#
#
# Elastic Compliance Matrix: (Units=1/GPa)
#
#
# Indices 1 2 3 4 5 6 
#
# 1 0.018874 -0.002721 -0.004299 0.000000 0.000000 0.000000
# 2 -0.002721 0.008027 -0.002576 0.000000 0.000000 0.000000
# 3 -0.004299 -0.002576 0.008757 0.000000 0.000000 0.000000
# 4 0.000000 0.000000 0.000000 0.025215 0.000000 0.000000
# 5 0.000000 0.000000 0.000000 0.000000 0.023130 0.000000
# 6 0.000000 0.000000 0.000000 0.000000 0.000000 0.040881
#
#
# Mechanical properties :
#
#
# Convention : Reuss Voigt Hill
#
# Bulk Modulus (GPa) = 60.73781 75.20379 67.97080
# Shear Modulus (GPa) = 33.42999 37.11796 35.27397
#
# Velocity S-wave (km/s) = 3.83049 4.03625 3.93471
# Velocity P-wave (km/s) = 6.79866 7.39792 7.10461
#
# Compressibility (1/GPa) = 0.01646421
#
# Stress axis : x y z
#
# Youngs Moduli (GPa) = 52.98294 124.57829 114.19142
#
# Poissons Ratio (x) = 0.33903 0.49093
# Poissons Ratio (y) = 0.14419 0.29420
# Poissons Ratio (z) = 0.22778 0.32096
#
# Static dielectric constant tensor:
#      x y z
#    x 1.884890 0.000000 0.000000 
#    y 0.000000 1.978010 0.000000 
#    z 0.000000 0.000000 1.885430 
# 
# From -- ./inp_files/27741.got.cif
#   From: 2010.05.17/outbox.cif.g08.bks.cpg/sg58_14_cif.got.tgz:27741.got - 2010.06.03 14:20:14.
