data_PCOD9444232
_publ_section_title
;
Structure prediction by ZEFSAII (Michael W. Deem and Ramdas Pophale) SiO2 
 PCOD9444232
Probable space group: P N N M
;
_chemical_formula_sum "Si O2"
_cell_formula_units_Z 28
_cell_length_a 8.986495
_cell_length_b 8.562579
_cell_length_c 14.757887
_cell_angle_alpha 90.000000
_cell_angle_beta 90.000000
_cell_angle_gamma 90.000000
_cell_volume 1135.583593
_symmetry_space_group_name_H-M "P N N M"
_symmetry_group_IT_number 58
_symmetry_cell_setting 'orthorhombic'
loop_
_space_group_symop_operation_xyz
x,y,z
-x,-y,z
1/2+x,1/2-y,1/2-z
1/2-x,1/2+y,1/2-z
-x,-y,-z
x,y,-z
1/2-x,1/2+y,1/2+z
1/2+x,1/2-y,1/2+z
loop_
_atom_site_type_symbol
_atom_site_label
_atom_site_fract_x
_atom_site_fract_y
_atom_site_fract_z
Si Si1 0.227286 0.461085 0.500000
Si Si2 0.229165 0.830115 0.500000
Si Si3 0.378410 0.873338 0.194775
Si Si4 0.086449 0.680246 0.000000
Si Si5 0.299955 0.539601 0.158220
O O1 0.223032 0.645843 0.500000
O O2 0.145467 0.405117 0.410395
O O3 0.382243 0.365988 0.500000
O O4 0.410765 0.856183 0.500000
O O5 0.149748 0.910878 0.415007
O O6 0.389740 0.686063 0.199589
O O7 0.500000 0.000000 0.225733
O O8 0.244885 0.932086 0.257474
O O9 0.170645 0.620381 0.092636
#
# Coordination Sequence:
#
# PCOD9444232 Si02
#       5
#     4   4   8   4   8
#     4  10  22  35  56  87 118 155 198 231 289 363
#     4  11  19  37  59  86 119 150 195 251 286 337
#     4  11  22  40  58  82 119 156 192 245 297 352
#     4   9  19  36  60  85 111 151 196 250 298 326
#     4  10  21  36  59  85 111 152 200 242 296 352
#
# _framework density 24.656925999999999
#
# number of rings (size 3 to 8) (size 9 to 14) (size 15 to 20)
#    0.000    1.714    0.000    6.857    0.000    0.000 
#    0.000   10.000    0.000    0.000    0.000    0.000 
#    0.000    0.000    0.000    0.000    0.000    0.000 
#
# Total GULP energy -156079.590714 kJ/mol
# GULP energy per Si atom -5574.271097 kJ/mol
# Density = 2.460081 g / cm^3
# Si number density = 24.656926 Si / 1000 Ang^3
#
#
#
# Elastic Constant Matrix: (Units=GPa)
#
#
# Indices 1 2 3 4 5 6 
#
# 1 68.1018 25.2178 -2.3257 0.0000 0.0000 0.0000
# 2 25.2178 192.6330 24.0830 0.0000 0.0000 0.0000
# 3 -2.3257 24.0830 120.6291 0.0000 0.0000 0.0000
# 4 0.0000 0.0000 0.0000 51.7462 0.0000 0.0000
# 5 0.0000 0.0000 0.0000 0.0000 17.2155 0.0000
# 6 0.0000 0.0000 0.0000 0.0000 0.0000 41.3517
#
#
#
# Elastic Compliance Matrix: (Units=1/GPa)
#
#
# Indices 1 2 3 4 5 6 
#
# 1 0.015493 -0.002118 0.000722 0.000000 0.000000 0.000000
# 2 -0.002118 0.005614 -0.001162 0.000000 0.000000 0.000000
# 3 0.000722 -0.001162 0.008536 0.000000 0.000000 0.000000
# 4 0.000000 0.000000 0.000000 0.019325 0.000000 0.000000
# 5 0.000000 0.000000 0.000000 0.000000 0.058087 0.000000
# 6 0.000000 0.000000 0.000000 0.000000 0.000000 0.024183
#
#
# Mechanical properties :
#
#
# Convention : Reuss Voigt Hill
#
# Bulk Modulus (GPa) = 40.77360 52.81265 46.79313
# Shear Modulus (GPa) = 34.59497 44.35526 39.47512
#
# Velocity S-wave (km/s) = 3.74980 4.24594 4.00556
# Velocity P-wave (km/s) = 5.94308 6.74558 6.35701
#
# Compressibility (1/GPa) = 0.02452567
#
# Stress axis : x y z
#
# Youngs Moduli (GPa) = 64.54536 178.13354 117.15505
#
# Poissons Ratio (x) = 0.37736 -0.08454
# Poissons Ratio (y) = 0.13673 0.13609
# Poissons Ratio (z) = -0.04658 0.20692
#
# Static dielectric constant tensor:
#      x y z
#    x 2.188770 0.000000 0.000000 
#    y 0.000000 2.014120 0.000000 
#    z 0.000000 0.000000 1.873720 
# 
# From -- ./inp_files/19043.got.cif
#   From: 2010.05.17/outbox.cif.g08.bks.cpg/sg58_10_cif.got.tgz:19043.got - 2010.06.03 14:20:14.
