data_PCOD9444948
_publ_section_title
;
Structure prediction by ZEFSAII (Michael W. Deem and Ramdas Pophale) SiO2 
 PCOD9444948
Probable space group: P N N M
;
_chemical_formula_sum "Si O2"
_cell_formula_units_Z 48
_cell_length_a 31.563225
_cell_length_b 9.603078
_cell_length_c 7.980959
_cell_angle_alpha 90.000000
_cell_angle_beta 90.000000
_cell_angle_gamma 90.000000
_cell_volume 2419.061487
_symmetry_space_group_name_H-M "P N N M"
_symmetry_group_IT_number 58
_symmetry_cell_setting 'orthorhombic'
loop_
_space_group_symop_operation_xyz
x,y,z
-x,-y,z
1/2+x,1/2-y,1/2-z
1/2-x,1/2+y,1/2-z
-x,-y,-z
x,y,-z
1/2-x,1/2+y,1/2+z
1/2+x,1/2-y,1/2+z
loop_
_atom_site_type_symbol
_atom_site_label
_atom_site_fract_x
_atom_site_fract_y
_atom_site_fract_z
Si Si1 0.708769 0.603128 0.197695
Si Si2 0.039250 0.090503 0.295848
Si Si3 0.866093 0.906017 0.703333
Si Si4 0.135068 0.417126 0.804624
Si Si5 0.959682 0.588089 0.702839
Si Si6 0.214308 0.583775 0.305196
O O1 0.670170 0.509792 0.266214
O O2 0.751540 0.515572 0.218539
O O3 0.713281 0.759455 0.266738
O O4 0.699972 0.620941 0.000000
O O5 0.038715 0.084733 0.500000
O O6 0.086653 0.047816 0.243690
O O7 0.034148 0.251347 0.247778
O O8 0.000000 0.000000 0.234064
O O9 0.865152 0.904207 0.500000
O O10 0.859599 0.746004 0.757919
O O11 0.086421 0.456568 0.766654
O O12 0.168508 0.512424 0.708548
O O13 0.143759 0.433472 0.000000
O O14 0.958044 0.582128 0.500000
O O15 0.000000 0.500000 0.759824
O O16 0.227036 0.591607 0.500000
#
# Coordination Sequence:
#
# PCOD9444948 Si02
#       6
#     8   8   8   8   8   8
#     4  10  22  38  57  82 109 140 179 223 272 323
#     4   8  14  26  48  77 104 133 171 214 258 304
#     4   9  18  35  57  80 109 143 180 223 269 318
#     4  11  22  36  55  79 110 146 183 222 268 321
#     4   9  18  33  54  78 105 140 181 223 267 315
#     4  11  23  38  57  81 109 140 178 223 270 324
#
# _framework density 19.842407000000001
#
# number of rings (size 3 to 8) (size 9 to 14) (size 15 to 20)
#    0.000    2.333    0.000    4.000    0.000    6.333 
#    0.000    5.000    0.000    8.000    0.000    0.000 
#    0.000    0.000    0.000    0.000    0.000    0.000 
#
# Total GULP energy -267915.584282 kJ/mol
# GULP energy per Si atom -5581.574673 kJ/mol
# Density = 1.979724 g / cm^3
# Si number density = 19.842407 Si / 1000 Ang^3
#
#
#
# Elastic Constant Matrix: (Units=GPa)
#
#
# Indices 1 2 3 4 5 6 
#
# 1 136.7454 81.4687 -14.5445 0.0000 0.0000 0.0000
# 2 81.4687 107.2692 -4.6392 0.0000 0.0000 0.0000
# 3 -14.5445 -4.6392 20.6790 0.0000 0.0000 0.0000
# 4 0.0000 0.0000 0.0000 10.0081 0.0000 0.0000
# 5 0.0000 0.0000 0.0000 0.0000 45.8018 0.0000
# 6 0.0000 0.0000 0.0000 0.0000 0.0000 41.0285
#
#
#
# Elastic Compliance Matrix: (Units=1/GPa)
#
#
# Indices 1 2 3 4 5 6 
#
# 1 0.014505 -0.010679 0.007807 0.000000 0.000000 0.000000
# 2 -0.010679 0.017276 -0.003635 0.000000 0.000000 0.000000
# 3 0.007807 -0.003635 0.053033 0.000000 0.000000 0.000000
# 4 0.000000 0.000000 0.000000 0.099919 0.000000 0.000000
# 5 0.000000 0.000000 0.000000 0.000000 0.021833 0.000000
# 6 0.000000 0.000000 0.000000 0.000000 0.000000 0.024373
#
#
# Mechanical properties :
#
#
# Convention : Reuss Voigt Hill
#
# Bulk Modulus (GPa) = 13.92781 43.25152 28.58966
# Shear Modulus (GPa) = 18.66450 32.86158 25.76304
#
# Velocity S-wave (km/s) = 3.07031 4.07397 3.60722
# Velocity P-wave (km/s) = 4.42758 6.63133 5.63817
#
# Compressibility (1/GPa) = 0.07179882
#
# Stress axis : x y z
#
# Youngs Moduli (GPa) = 68.94024 57.88543 18.85607
#
# Poissons Ratio (x) = 0.61815 -0.14720
# Poissons Ratio (y) = 0.73620 0.06855
# Poissons Ratio (z) = -0.53818 0.21043
#
# Static dielectric constant tensor:
#      x y z
#    x 1.685530 0.000000 0.000000 
#    y 0.000000 1.680430 0.000000 
#    z 0.000000 0.000000 1.717180 
# 
# From -- ./inp_files/2904.got.cif
#   From: 2010.05.17/outbox.cif.g08.bks.cpg/sg58_2_cif.got.tgz:2904.got - 2010.06.03 14:20:14.
