data_PCOD9444656
_publ_section_title
;
Structure prediction by ZEFSAII (Michael W. Deem and Ramdas Pophale) SiO2 
 PCOD9444656
Probable space group: P N N M
;
_chemical_formula_sum "Si O2"
_cell_formula_units_Z 64
_cell_length_a 14.651682
_cell_length_b 13.270085
_cell_length_c 16.474684
_cell_angle_alpha 90.000000
_cell_angle_beta 90.000000
_cell_angle_gamma 90.000000
_cell_volume 3203.157415
_symmetry_space_group_name_H-M "P N N M"
_symmetry_group_IT_number 58
_symmetry_cell_setting 'orthorhombic'
loop_
_space_group_symop_operation_xyz
x,y,z
-x,-y,z
1/2+x,1/2-y,1/2-z
1/2-x,1/2+y,1/2-z
-x,-y,-z
x,y,-z
1/2-x,1/2+y,1/2+z
1/2+x,1/2-y,1/2+z
loop_
_atom_site_type_symbol
_atom_site_label
_atom_site_fract_x
_atom_site_fract_y
_atom_site_fract_z
Si Si1 0.732731 0.099781 0.677734
Si Si2 0.036841 0.386866 0.092847
Si Si3 0.481479 0.886075 0.095291
Si Si4 0.865903 0.270751 0.907924
Si Si5 0.675679 0.780236 0.904171
Si Si6 0.180874 0.264313 0.677775
Si Si7 0.293712 0.587065 0.724112
Si Si8 0.895588 0.032855 0.087440
O O1 0.632600 0.112910 0.638753
O O2 0.802333 0.164231 0.621359
O O3 0.730256 0.159410 0.761799
O O4 0.751716 0.985457 0.706044
O O5 0.000000 0.500000 0.089341
O O6 0.953460 0.324118 0.132358
O O7 0.053334 0.349952 0.000000
O O8 0.571292 0.817012 0.102633
O O9 0.396729 0.827631 0.133968
O O10 0.500000 0.000000 0.128215
O O11 0.460419 0.898913 0.000000
O O12 0.763965 0.280253 0.874769
O O13 0.887328 0.152554 0.908714
O O14 0.864704 0.310902 0.000000
O O15 0.727561 0.850116 0.837191
O O16 0.701977 0.794462 0.000000
O O17 0.145288 0.171119 0.731128
O O18 0.348742 0.517221 0.663421
O O19 0.854162 0.000863 0.000000
O O20 0.000000 0.000000 0.087026
#
# Coordination Sequence:
#
# PCOD9444656 Si02
#       8
#     8   8   8   8   8   8   8   8
#     4  11  23  38  61  93 131 165 206 259 325 380
#     4  10  22  40  63  90 121 163 208 254 311 382
#     4  10  22  41  66  92 119 160 215 264 311 373
#     4  10  21  39  63  89 123 159 206 260 309 374
#     4  10  23  42  65  89 123 168 216 260 307 378
#     4  11  23  38  61  91 126 164 205 261 325 380
#     4  11  23  40  61  92 129 166 206 262 323 382
#     4  10  22  38  61  88 118 163 215 259 312 372
#
# _framework density 19.980286
#
# number of rings (size 3 to 8) (size 9 to 14) (size 15 to 20)
#    0.000    1.625    1.250    2.625    3.500    4.500 
#    0.000    1.875    0.000    1.500    0.000    0.000 
#    0.000    0.000    0.000    0.000    0.000    0.000 
#
# Total GULP energy -356800.455709 kJ/mol
# GULP energy per Si atom -5575.007120 kJ/mol
# Density = 1.993481 g / cm^3
# Si number density = 19.980286 Si / 1000 Ang^3
#
#
#
# Elastic Constant Matrix: (Units=GPa)
#
#
# Indices 1 2 3 4 5 6 
#
# 1 89.1805 48.6387 55.2088 0.0000 0.0000 0.0000
# 2 48.6387 110.2270 47.0354 0.0000 0.0000 0.0000
# 3 55.2088 47.0354 77.2894 0.0000 0.0000 0.0000
# 4 0.0000 0.0000 0.0000 173.7515 0.0000 0.0000
# 5 0.0000 0.0000 0.0000 0.0000 -3.1100 0.0000
# 6 0.0000 0.0000 0.0000 0.0000 0.0000 32.9034
#
#
#
# Elastic Compliance Matrix: (Units=1/GPa)
#
#
# Indices 1 2 3 4 5 6 
#
# 1 0.021289 -0.003924 -0.012819 0.000000 0.000000 0.000000
# 2 -0.003924 0.012978 -0.005095 0.000000 0.000000 0.000000
# 3 -0.012819 -0.005095 0.025196 0.000000 0.000000 0.000000
# 4 0.000000 0.000000 0.000000 0.005755 0.000000 0.000000
# 5 0.000000 0.000000 0.000000 0.000000 -0.321540 0.000000
# 6 0.000000 0.000000 0.000000 0.000000 0.000000 0.030392
#
#
# Mechanical properties :
#
#
# Convention : Reuss Voigt Hill
#
# Bulk Modulus (GPa) = 63.34396 64.27364 63.80880
# Shear Modulus (GPa) = -28.24988 49.09658 10.42335
#
# Velocity S-wave (km/s) = -3.76425 4.96244 2.28651
# Velocity P-wave (km/s) = 3.58877 8.06677 6.24308
#
# Compressibility (1/GPa) = 0.01578683
#
# Stress axis : x y z
#
# Youngs Moduli (GPa) = 46.97193 77.05522 39.68914
#
# Poissons Ratio (x) = 0.30236 0.50878
# Poissons Ratio (y) = 0.18432 0.20221
# Poissons Ratio (z) = 0.60214 0.39258
#
# Static dielectric constant tensor:
#      x y z
#    x 1.713660 0.000000 0.000000 
#    y 0.000000 1.722370 0.000000 
#    z 0.000000 0.000000 1.712200 
# 
# From -- ./inp_files/27000.got.cif
#   From: 2010.05.17/outbox.cif.g08.bks.cpg/sg58_14_cif.got.tgz:27000.got - 2010.06.03 14:20:14.
