data_PCOD9444932
_publ_section_title
;
Structure prediction by ZEFSAII (Michael W. Deem and Ramdas Pophale) SiO2 
 PCOD9444932
Probable space group: P N N M
;
_chemical_formula_sum "Si O2"
_cell_formula_units_Z 58
_cell_length_a 16.980828
_cell_length_b 11.944244
_cell_length_c 13.706553
_cell_angle_alpha 90.000000
_cell_angle_beta 90.000000
_cell_angle_gamma 90.000000
_cell_volume 2780.006296
_symmetry_space_group_name_H-M "P N N M"
_symmetry_group_IT_number 58
_symmetry_cell_setting 'orthorhombic'
loop_
_space_group_symop_operation_xyz
x,y,z
-x,-y,z
1/2+x,1/2-y,1/2-z
1/2-x,1/2+y,1/2-z
-x,-y,-z
x,y,-z
1/2-x,1/2+y,1/2+z
1/2+x,1/2-y,1/2+z
loop_
_atom_site_type_symbol
_atom_site_label
_atom_site_fract_x
_atom_site_fract_y
_atom_site_fract_z
Si Si1 0.500000 0.000000 0.000000
Si Si2 0.053648 0.887741 0.614742
Si Si3 0.685681 0.308795 0.758604
Si Si4 0.531065 0.791581 0.293036
Si Si5 0.823777 0.449197 0.818155
Si Si6 0.263758 0.354504 0.893270
Si Si7 0.557341 0.395885 0.389325
Si Si8 0.401110 0.898919 0.823177
O O1 0.553107 0.061061 0.084056
O O2 0.038154 0.853996 0.500000
O O3 0.039858 0.789740 0.696116
O O4 0.148493 0.905246 0.621291
O O5 0.000000 0.000000 0.632008
O O6 0.741696 0.386363 0.819211
O O7 0.741913 0.235595 0.688064
O O8 0.625552 0.377412 0.690194
O O9 0.640452 0.221209 0.827078
O O10 0.607456 0.858729 0.327177
O O11 0.497147 0.712844 0.376665
O O12 0.464629 0.880317 0.262824
O O13 0.806358 0.554315 0.887500
O O14 0.840148 0.507615 0.713311
O O15 0.264280 0.301059 0.000000
O O16 0.500000 0.500000 0.368813
O O17 0.587516 0.406069 0.500000
#
# Coordination Sequence:
#
# PCOD9444932 Si02
#       8
#     2   8   8   8   8   8   8   8
#     4  12  20  44  64  92 140 152 220 266 308 396
#     4  10  22  37  59  91 123 165 211 253 308 377
#     4  10  22  42  64  86 125 167 209 249 319 376
#     4  11  21  39  64  87 122 163 210 251 316 373
#     4  11  22  40  63  88 125 160 203 253 318 370
#     4  10  22  40  61  90 122 157 209 257 306 372
#     4  10  23  40  62  89 119 159 213 263 306 363
#     4  10  24  39  61  94 121 169 202 258 310 377
#
# _framework density 20.863261000000001
#
# number of rings (size 3 to 8) (size 9 to 14) (size 15 to 20)
#    0.000    1.655    2.759    0.828    6.759    0.552 
#    3.724    0.000    0.000    4.966    0.000    0.000 
#    0.000    0.000    0.000    0.000    0.000    0.000 
#
# Total GULP energy -322967.006595 kJ/mol
# GULP energy per Si atom -5568.396665 kJ/mol
# Density = 2.081578 g / cm^3
# Si number density = 20.863261 Si / 1000 Ang^3
#
#
#
# Elastic Constant Matrix: (Units=GPa)
#
#
# Indices 1 2 3 4 5 6 
#
# 1 66.5383 -0.1455 -11.6877 0.0000 0.0000 0.0000
# 2 -0.1455 25.0189 -15.7746 0.0000 0.0000 0.0000
# 3 -11.6877 -15.7746 40.9448 0.0000 0.0000 0.0000
# 4 0.0000 0.0000 0.0000 -6.6066 0.0000 0.0000
# 5 0.0000 0.0000 0.0000 0.0000 4.9545 0.0000
# 6 0.0000 0.0000 0.0000 0.0000 0.0000 34.7655
#
#
#
# Elastic Compliance Matrix: (Units=1/GPa)
#
#
# Indices 1 2 3 4 5 6 
#
# 1 0.016113 0.003954 0.006123 0.000000 0.000000 0.000000
# 2 0.003954 0.053765 0.021842 0.000000 0.000000 0.000000
# 3 0.006123 0.021842 0.034586 0.000000 0.000000 0.000000
# 4 0.000000 0.000000 0.000000 -0.151363 0.000000 0.000000
# 5 0.000000 0.000000 0.000000 0.000000 0.201836 0.000000
# 6 0.000000 0.000000 0.000000 0.000000 0.000000 0.028764
#
#
# Mechanical properties :
#
#
# Convention : Reuss Voigt Hill
#
# Bulk Modulus (GPa) = 5.94168 8.58738 7.26453
# Shear Modulus (GPa) = 28.41522 17.29667 22.85594
#
# Velocity S-wave (km/s) = 3.69450 2.88244 3.31344
# Velocity P-wave (km/s) = 4.58837 3.89910 4.25771
#
# Compressibility (1/GPa) = 0.16830253
#
# Stress axis : x y z
#
# Youngs Moduli (GPa) = 62.06131 18.59963 28.91347
#
# Poissons Ratio (x) = -0.07355 -0.17704
# Poissons Ratio (y) = -0.24541 -0.63154
# Poissons Ratio (z) = -0.38000 -0.40626
#
# Static dielectric constant tensor:
#      x y z
#    x 1.771600 0.000000 0.000000 
#    y 0.000000 1.794290 0.000000 
#    z 0.000000 0.000000 1.718450 
# 
# From -- ./inp_files/22931.got.cif
#   From: 2010.05.17/outbox.cif.g08.bks.cpg/sg58_12_cif.got.tgz:22931.got - 2010.06.03 14:20:14.
