data_PCOD9444609
_publ_section_title
;
Structure prediction by ZEFSAII (Michael W. Deem and Ramdas Pophale) SiO2 
 PCOD9444609
Probable space group: P N N M
;
_chemical_formula_sum "Si O2"
_cell_formula_units_Z 64
_cell_length_a 17.450746
_cell_length_b 22.011806
_cell_length_c 7.693780
_cell_angle_alpha 90.000000
_cell_angle_beta 90.000000
_cell_angle_gamma 90.000000
_cell_volume 2955.353512
_symmetry_space_group_name_H-M "P N N M"
_symmetry_group_IT_number 58
_symmetry_cell_setting 'orthorhombic'
loop_
_space_group_symop_operation_xyz
x,y,z
-x,-y,z
1/2+x,1/2-y,1/2-z
1/2-x,1/2+y,1/2-z
-x,-y,-z
x,y,-z
1/2-x,1/2+y,1/2+z
1/2+x,1/2-y,1/2+z
loop_
_atom_site_type_symbol
_atom_site_label
_atom_site_fract_x
_atom_site_fract_y
_atom_site_fract_z
Si Si1 0.784476 0.836804 0.289794
Si Si2 0.919803 0.753427 0.286255
Si Si3 0.041074 0.379547 0.296819
Si Si4 0.894900 0.950658 0.709487
Si Si5 0.674598 0.578138 0.302259
Si Si6 0.633076 0.891204 0.297351
Si Si7 0.833627 0.528054 0.287732
Si Si8 0.975537 0.136848 0.294922
O O1 0.779795 0.832824 0.500000
O O2 0.838015 0.781415 0.231784
O O3 0.832821 0.898024 0.254296
O O4 0.698435 0.846362 0.223843
O O5 0.920761 0.752641 0.500000
O O6 0.935510 0.685804 0.222531
O O7 0.985625 0.801215 0.228938
O O8 0.061470 0.377205 0.500000
O O9 0.090758 0.435764 0.228845
O O10 0.950484 0.388277 0.284258
O O11 0.898216 0.961209 0.500000
O O12 0.974871 0.920934 0.770432
O O13 0.868025 0.013113 0.791538
O O14 0.687445 0.596397 0.500000
O O15 0.758456 0.564790 0.226282
O O16 0.614116 0.626201 0.229026
O O17 0.622667 0.877279 0.500000
O O18 0.664805 0.959548 0.279423
O O19 0.831068 0.523638 0.500000
O O20 0.990806 0.136972 0.500000
#
# Coordination Sequence:
#
# PCOD9444609 Si02
#       8
#     8   8   8   8   8   8   8   8
#     4   8  15  30  54  82 105 133 177 222 261 311
#     4   8  16  35  59  78 100 139 187 220 253 317
#     4  10  21  39  60  78 105 144 184 223 266 323
#     4   9  16  30  51  74 103 139 180 218 260 318
#     4  11  21  31  46  75 113 143 174 218 272 323
#     4  11  21  35  59  88 111 136 177 230 280 318
#     4  10  22  38  54  78 110 147 184 220 267 328
#     4   9  18  32  53  77 101 137 182 221 260 319
#
# _framework density 21.655615999999998
#
# number of rings (size 3 to 8) (size 9 to 14) (size 15 to 20)
#    0.000    2.500    1.250    3.000    0.000    4.500 
#    2.250    0.625    0.000    2.250    0.000    0.000 
#    0.000    0.000    0.000    0.000    0.000    0.000 
#
# Total GULP energy -357103.341338 kJ/mol
# GULP energy per Si atom -5579.739708 kJ/mol
# Density = 2.160633 g / cm^3
# Si number density = 21.655616 Si / 1000 Ang^3
#
#
#
# Elastic Constant Matrix: (Units=GPa)
#
#
# Indices 1 2 3 4 5 6 
#
# 1 106.9081 21.7951 -15.3519 0.0000 0.0000 0.0000
# 2 21.7951 36.5223 -6.0292 0.0000 0.0000 0.0000
# 3 -15.3519 -6.0292 27.4795 0.0000 0.0000 0.0000
# 4 0.0000 0.0000 0.0000 1.4784 0.0000 0.0000
# 5 0.0000 0.0000 0.0000 0.0000 23.2830 0.0000
# 6 0.0000 0.0000 0.0000 0.0000 0.0000 8.0574
#
#
#
# Elastic Compliance Matrix: (Units=1/GPa)
#
#
# Indices 1 2 3 4 5 6 
#
# 1 0.011276 -0.005903 0.005004 0.000000 0.000000 0.000000
# 2 -0.005903 0.031500 0.003614 0.000000 0.000000 0.000000
# 3 0.005004 0.003614 0.039979 0.000000 0.000000 0.000000
# 4 0.000000 0.000000 0.000000 0.676427 0.000000 0.000000
# 5 0.000000 0.000000 0.000000 0.000000 0.042950 0.000000
# 6 0.000000 0.000000 0.000000 0.000000 0.000000 0.124109
#
#
# Mechanical properties :
#
#
# Convention : Reuss Voigt Hill
#
# Bulk Modulus (GPa) = 11.33981 19.08199 15.21090
# Shear Modulus (GPa) = 5.26202 17.93014 11.59608
#
# Velocity S-wave (km/s) = 1.56049 2.88056 2.31655
# Velocity P-wave (km/s) = 2.91456 4.46029 3.76755
#
# Compressibility (1/GPa) = 0.08818488
#
# Stress axis : x y z
#
# Youngs Moduli (GPa) = 88.68513 31.74637 25.01288
#
# Poissons Ratio (x) = 0.18739 -0.12517
# Poissons Ratio (y) = 0.52350 -0.09038
# Poissons Ratio (z) = -0.44381 -0.11472
#
# Static dielectric constant tensor:
#      x y z
#    x 1.810030 0.000000 0.000000 
#    y 0.000000 1.760950 0.000000 
#    z 0.000000 0.000000 1.814690 
# 
# From -- ./inp_files/8339.got.cif
#   From: 2010.05.17/outbox.cif.g08.bks.cpg/sg58_5_cif.got.tgz:8339.got - 2010.06.03 14:20:14.
