data_PCOD9444275
_publ_section_title
;
Structure prediction by ZEFSAII (Michael W. Deem and Ramdas Pophale) SiO2 
 PCOD9444275
Probable space group: P N N M
;
_chemical_formula_sum "Si O2"
_cell_formula_units_Z 64
_cell_length_a 24.400940
_cell_length_b 15.928658
_cell_length_c 8.653444
_cell_angle_alpha 90.000000
_cell_angle_beta 90.000000
_cell_angle_gamma 90.000000
_cell_volume 3363.370667
_symmetry_space_group_name_H-M "P N N M"
_symmetry_group_IT_number 58
_symmetry_cell_setting 'orthorhombic'
loop_
_space_group_symop_operation_xyz
x,y,z
-x,-y,z
1/2+x,1/2-y,1/2-z
1/2-x,1/2+y,1/2-z
-x,-y,-z
x,y,-z
1/2-x,1/2+y,1/2+z
1/2+x,1/2-y,1/2+z
loop_
_atom_site_type_symbol
_atom_site_label
_atom_site_fract_x
_atom_site_fract_y
_atom_site_fract_z
Si Si1 0.306040 0.813282 0.814410
Si Si2 0.079199 0.063462 0.186736
Si Si3 0.191853 0.127271 0.313400
Si Si4 0.956781 0.116405 0.812270
Si Si5 0.105515 0.538882 0.316245
Si Si6 0.568128 0.143252 0.184591
Si Si7 0.277429 0.987932 0.684496
Si Si8 0.455621 0.198896 0.316106
O O1 0.288959 0.720183 0.763152
O O2 0.370826 0.824570 0.777105
O O3 0.274460 0.892818 0.745870
O O4 0.301679 0.818605 0.000000
O O5 0.130320 0.110759 0.258084
O O6 0.020171 0.101031 0.232799
O O7 0.077454 0.965291 0.235409
O O8 0.082496 0.067129 0.000000
O O9 0.192412 0.127600 0.500000
O O10 0.230566 0.051568 0.258608
O O11 0.938032 0.208216 0.761673
O O12 0.956466 0.116325 0.000000
O O13 0.113636 0.538677 0.500000
O O14 0.069076 0.456404 0.280637
O O15 0.163987 0.524298 0.237137
O O16 0.076866 0.623628 0.263075
O O17 0.519657 0.187583 0.275557
O O18 0.559628 0.154114 0.000000
O O19 0.275498 0.985726 0.500000
O O20 0.448050 0.193282 0.500000
#
# Coordination Sequence:
#
# PCOD9444275 Si02
#       8
#     8   8   8   8   8   8   8   8
#     4   9  19  37  58  79 107 144 178 216 272 330
#     4   9  17  34  58  78 103 142 182 218 258 313
#     4  10  21  37  57  83 112 139 175 226 277 318
#     4   8  17  33  51  77 111 141 174 218 263 310
#     4  10  21  37  53  71 103 143 180 220 267 323
#     4   9  18  32  51  74 102 135 176 219 260 315
#     4  10  21  38  57  79 109 140 177 232 275 310
#     4  11  20  30  49  78 109 140 176 216 265 321
#
# _framework density 19.028528999999999
#
# number of rings (size 3 to 8) (size 9 to 14) (size 15 to 20)
#    0.000    2.500    0.000    3.750    0.000    5.500 
#    2.250    3.125    0.000    0.000    0.000    0.000 
#    0.000    0.000    0.000    0.000    0.000    0.000 
#
# Total GULP energy -357109.729093 kJ/mol
# GULP energy per Si atom -5579.839517 kJ/mol
# Density = 1.898522 g / cm^3
# Si number density = 19.028529 Si / 1000 Ang^3
#
#
#
# Elastic Constant Matrix: (Units=GPa)
#
#
# Indices 1 2 3 4 5 6 
#
# 1 22.5831 29.4662 9.0860 0.0000 0.0000 0.0000
# 2 29.4662 157.5834 24.0346 0.0000 0.0000 0.0000
# 3 9.0860 24.0346 7.8774 0.0000 0.0000 0.0000
# 4 0.0000 0.0000 0.0000 24.2352 0.0000 0.0000
# 5 0.0000 0.0000 0.0000 0.0000 7.7791 0.0000
# 6 0.0000 0.0000 0.0000 0.0000 0.0000 18.7278
#
#
#
# Elastic Compliance Matrix: (Units=1/GPa)
#
#
# Indices 1 2 3 4 5 6 
#
# 1 0.082871 -0.001715 -0.090351 0.000000 0.000000 0.000000
# 2 -0.001715 0.011905 -0.034344 0.000000 0.000000 0.000000
# 3 -0.090351 -0.034344 0.335947 0.000000 0.000000 0.000000
# 4 0.000000 0.000000 0.000000 0.041262 0.000000 0.000000
# 5 0.000000 0.000000 0.000000 0.000000 0.128550 0.000000
# 6 0.000000 0.000000 0.000000 0.000000 0.000000 0.053396
#
#
# Mechanical properties :
#
#
# Convention : Reuss Voigt Hill
#
# Bulk Modulus (GPa) = 5.62111 34.80195 20.21153
# Shear Modulus (GPa) = 5.17570 18.51223 11.84397
#
# Velocity S-wave (km/s) = 1.65102 3.12247 2.49757
# Velocity P-wave (km/s) = 2.56806 5.59721 4.35452
#
# Compressibility (1/GPa) = 0.17790087
#
# Stress axis : x y z
#
# Youngs Moduli (GPa) = 12.06702 83.99996 2.97666
#
# Poissons Ratio (x) = 0.14409 0.26895
# Poissons Ratio (y) = 0.02070 0.10223
# Poissons Ratio (z) = 1.09027 2.88490
#
# Static dielectric constant tensor:
#      x y z
#    x 1.633770 0.000000 0.000000 
#    y 0.000000 1.696520 0.000000 
#    z 0.000000 0.000000 1.642210 
# 
# From -- ./inp_files/9929.got.cif
#   From: 2010.05.17/outbox.cif.g08.bks.cpg/sg58_5_cif.got.tgz:9929.got - 2010.06.03 14:20:14.
