data_PCOD9444578
_publ_section_title
;
Structure prediction by ZEFSAII (Michael W. Deem and Ramdas Pophale) SiO2 
 PCOD9444578
Probable space group: P N N M
;
_chemical_formula_sum "Si O2"
_cell_formula_units_Z 56
_cell_length_a 20.203880
_cell_length_b 8.465200
_cell_length_c 16.252603
_cell_angle_alpha 90.000000
_cell_angle_beta 90.000000
_cell_angle_gamma 90.000000
_cell_volume 2779.680822
_symmetry_space_group_name_H-M "P N N M"
_symmetry_group_IT_number 58
_symmetry_cell_setting 'orthorhombic'
loop_
_space_group_symop_operation_xyz
x,y,z
-x,-y,z
1/2+x,1/2-y,1/2-z
1/2-x,1/2+y,1/2-z
-x,-y,-z
x,y,-z
1/2-x,1/2+y,1/2+z
1/2+x,1/2-y,1/2+z
loop_
_atom_site_type_symbol
_atom_site_label
_atom_site_fract_x
_atom_site_fract_y
_atom_site_fract_z
Si Si1 0.259671 0.529039 0.908069
Si Si2 0.620354 0.370095 0.184826
Si Si3 0.432157 0.426339 0.662497
Si Si4 0.061060 0.621500 0.734439
Si Si5 0.502606 0.691672 0.905889
Si Si6 0.788158 0.105104 0.091849
Si Si7 0.804702 0.575014 0.256977
O O1 0.337078 0.539459 0.883774
O O2 0.228782 0.706718 0.907374
O O3 0.227471 0.438556 0.832286
O O4 0.250618 0.465052 0.000000
O O5 0.585558 0.474719 0.254389
O O6 0.567029 0.265569 0.136301
O O7 0.670518 0.252519 0.229166
O O8 0.500000 0.500000 0.627587
O O9 0.445601 0.248517 0.692534
O O10 0.365796 0.425103 0.608333
O O11 0.131431 0.536838 0.739913
O O12 0.000000 0.500000 0.738269
O O13 0.055902 0.722374 0.650373
O O14 0.500000 0.500000 0.901707
O O15 0.507403 0.738804 0.000000
O O16 0.745996 0.038027 0.168552
O O17 0.769819 0.047814 0.000000
#
# Coordination Sequence:
#
# PCOD9444578 Si02
#       7
#     8   8   8   8   8   8   8
#     4  10  21  38  64  93 124 165 210 261 317 377
#     4  11  20  39  61  89 124 165 203 254 315 375
#     4  12  21  39  67  88 122 166 210 254 320 371
#     4  12  22  39  61  94 122 165 205 258 315 377
#     4  11  22  37  57  88 124 161 205 249 309 386
#     4  10  23  41  63  92 126 166 213 259 316 375
#     4  11  22  38  67  91 124 165 211 258 314 375
#
# _framework density 20.146197999999998
#
# number of rings (size 3 to 8) (size 9 to 14) (size 15 to 20)
#    0.000    1.000    7.143    0.429    0.000    1.714 
#    0.000    0.714    0.000    3.429    0.000    0.000 
#    0.000    0.000    0.000    0.000    0.000    0.000 
#
# Total GULP energy -312701.227548 kJ/mol
# GULP energy per Si atom -5583.950492 kJ/mol
# Density = 2.010034 g / cm^3
# Si number density = 20.146198 Si / 1000 Ang^3
#
#
#
# Elastic Constant Matrix: (Units=GPa)
#
#
# Indices 1 2 3 4 5 6 
#
# 1 93.5240 18.0616 27.7934 0.0000 0.0000 0.0000
# 2 18.0616 45.7915 15.2311 0.0000 0.0000 0.0000
# 3 27.7934 15.2311 124.8212 0.0000 0.0000 0.0000
# 4 0.0000 0.0000 0.0000 21.9300 0.0000 0.0000
# 5 0.0000 0.0000 0.0000 0.0000 16.4015 0.0000
# 6 0.0000 0.0000 0.0000 0.0000 0.0000 29.5359
#
#
#
# Elastic Compliance Matrix: (Units=1/GPa)
#
#
# Indices 1 2 3 4 5 6 
#
# 1 0.012131 -0.004051 -0.002207 0.000000 0.000000 0.000000
# 2 -0.004051 0.024115 -0.002041 0.000000 0.000000 0.000000
# 3 -0.002207 -0.002041 0.008752 0.000000 0.000000 0.000000
# 4 0.000000 0.000000 0.000000 0.045600 0.000000 0.000000
# 5 0.000000 0.000000 0.000000 0.000000 0.060970 0.000000
# 6 0.000000 0.000000 0.000000 0.000000 0.000000 0.033857
#
#
# Mechanical properties :
#
#
# Convention : Reuss Voigt Hill
#
# Bulk Modulus (GPa) = 35.21019 42.92322 39.06670
# Shear Modulus (GPa) = 23.64214 27.11018 25.37616
#
# Velocity S-wave (km/s) = 3.42940 3.67232 3.55294
# Velocity P-wave (km/s) = 5.76162 6.27163 6.02203
#
# Compressibility (1/GPa) = 0.02840087
#
# Stress axis : x y z
#
# Youngs Moduli (GPa) = 82.43670 41.46869 114.26177
#
# Poissons Ratio (x) = 0.16798 0.25215
# Poissons Ratio (y) = 0.33392 0.23316
# Poissons Ratio (z) = 0.18192 0.08462
#
# Static dielectric constant tensor:
#      x y z
#    x 1.740000 0.000000 0.000000 
#    y 0.000000 1.745550 0.000000 
#    z 0.000000 0.000000 1.700160 
# 
# From -- ./inp_files/23228.got.cif
#   From: 2010.05.17/outbox.cif.g08.bks.cpg/sg58_12_cif.got.tgz:23228.got - 2010.06.03 14:20:14.
