data_PCOD9444100
_publ_section_title
;
Structure prediction by ZEFSAII (Michael W. Deem and Ramdas Pophale) SiO2 
 PCOD9444100
Probable space group: P N N M
;
_chemical_formula_sum "Si O2"
_cell_formula_units_Z 64
_cell_length_a 18.573777
_cell_length_b 9.153228
_cell_length_c 21.861606
_cell_angle_alpha 90.000000
_cell_angle_beta 90.000000
_cell_angle_gamma 90.000000
_cell_volume 3716.691979
_symmetry_space_group_name_H-M "P N N M"
_symmetry_group_IT_number 58
_symmetry_cell_setting 'orthorhombic'
loop_
_space_group_symop_operation_xyz
x,y,z
-x,-y,z
1/2+x,1/2-y,1/2-z
1/2-x,1/2+y,1/2-z
-x,-y,-z
x,y,-z
1/2-x,1/2+y,1/2+z
1/2+x,1/2-y,1/2+z
loop_
_atom_site_type_symbol
_atom_site_label
_atom_site_fract_x
_atom_site_fract_y
_atom_site_fract_z
Si Si1 0.072230 0.413691 0.767904
Si Si2 0.283753 0.087268 0.709956
Si Si3 0.092181 0.756139 0.427173
Si Si4 0.285952 0.425753 0.677045
Si Si5 0.815999 0.512040 0.567929
Si Si6 0.559629 0.166761 0.873474
Si Si7 0.076890 0.066484 0.209513
Si Si8 0.366850 0.527709 0.154872
O O1 0.141064 0.500827 0.793957
O O2 0.071394 0.407627 0.693194
O O3 0.075024 0.242895 0.787385
O O4 0.000000 0.500000 0.786227
O O5 0.292511 0.262297 0.704659
O O6 0.219318 0.042869 0.663515
O O7 0.252949 0.034314 0.775179
O O8 0.077885 0.773025 0.500000
O O9 0.163027 0.655746 0.420455
O O10 0.022660 0.685877 0.393616
O O11 0.109277 0.903937 0.391567
O O12 0.236897 0.421967 0.617509
O O13 0.362768 0.499782 0.665489
O O14 0.787899 0.531155 0.500000
O O15 0.893931 0.585900 0.575633
O O16 0.596793 0.323596 0.866962
O O17 0.100596 0.006964 0.276870
O O18 0.000000 0.000000 0.195130
#
# Coordination Sequence:
#
# PCOD9444100 Si02
#       8
#     8   8   8   8   8   8   8   8
#     4  11  21  34  57  88 116 151 187 234 301 348
#     4  11  21  36  55  84 112 152 193 244 298 351
#     4  11  24  36  55  81 115 164 204 242 276 332
#     4  11  22  37  58  83 113 149 194 243 298 345
#     4  11  23  38  55  79 113 155 199 235 286 344
#     4  11  20  37  53  81 111 156 198 238 279 329
#     4  10  21  35  56  87 116 147 181 238 296 354
#     4  10  21  35  54  79 118 151 195 237 289 331
#
# _framework density 17.219614
#
# number of rings (size 3 to 8) (size 9 to 14) (size 15 to 20)
#    0.000    1.250    2.500    5.625    5.250    2.500 
#    0.000    0.000    0.000    0.375    0.000    0.000 
#    0.000    2.500    0.000    0.000    0.000    0.000 
#
# Total GULP energy -357118.047328 kJ/mol
# GULP energy per Si atom -5579.969490 kJ/mol
# Density = 1.718042 g / cm^3
# Si number density = 17.219614 Si / 1000 Ang^3
#
#
#
# Elastic Constant Matrix: (Units=GPa)
#
#
# Indices 1 2 3 4 5 6 
#
# 1 127.9873 49.9903 26.6490 0.0000 0.0000 0.0000
# 2 49.9903 96.8123 44.8660 0.0000 0.0000 0.0000
# 3 26.6490 44.8660 46.0241 0.0000 0.0000 0.0000
# 4 0.0000 0.0000 0.0000 18.5684 0.0000 0.0000
# 5 0.0000 0.0000 0.0000 0.0000 19.1802 0.0000
# 6 0.0000 0.0000 0.0000 0.0000 0.0000 26.3593
#
#
#
# Elastic Compliance Matrix: (Units=1/GPa)
#
#
# Indices 1 2 3 4 5 6 
#
# 1 0.009833 -0.004449 -0.001357 0.000000 0.000000 0.000000
# 2 -0.004449 0.020854 -0.017753 0.000000 0.000000 0.000000
# 3 -0.001357 -0.017753 0.039820 0.000000 0.000000 0.000000
# 4 0.000000 0.000000 0.000000 0.053855 0.000000 0.000000
# 5 0.000000 0.000000 0.000000 0.000000 0.052137 0.000000
# 6 0.000000 0.000000 0.000000 0.000000 0.000000 0.037937
#
#
# Mechanical properties :
#
#
# Convention : Reuss Voigt Hill
#
# Bulk Modulus (GPa) = 42.75438 57.09271 49.92354
# Shear Modulus (GPa) = 18.56316 22.77615 20.66966
#
# Velocity S-wave (km/s) = 3.28689 3.64082 3.46837
# Velocity P-wave (km/s) = 6.26799 7.13454 6.71526
#
# Compressibility (1/GPa) = 0.02338942
#
# Stress axis : x y z
#
# Youngs Moduli (GPa) = 101.69366 47.95277 25.11303
#
# Poissons Ratio (x) = 0.21333 0.03408
# Poissons Ratio (y) = 0.45241 0.44584
# Poissons Ratio (z) = 0.13800 0.85131
#
# Static dielectric constant tensor:
#      x y z
#    x 1.615910 0.000000 0.000000 
#    y 0.000000 1.624660 0.000000 
#    z 0.000000 0.000000 1.566010 
# 
# From -- ./inp_files/30262.got.cif
#   From: 2010.05.17/outbox.cif.g08.bks.cpg/sg58_16_cif.got.tgz:30262.got - 2010.06.03 14:20:14.
