data_PCOD9444347
_publ_section_title
;
Structure prediction by ZEFSAII (Michael W. Deem and Ramdas Pophale) SiO2 
 PCOD9444347
Probable space group: P N N M
;
_chemical_formula_sum "Si O2"
_cell_formula_units_Z 64
_cell_length_a 26.348395
_cell_length_b 13.414370
_cell_length_c 7.482929
_cell_angle_alpha 90.000000
_cell_angle_beta 90.000000
_cell_angle_gamma 90.000000
_cell_volume 2644.819700
_symmetry_space_group_name_H-M "P N N M"
_symmetry_group_IT_number 58
_symmetry_cell_setting 'orthorhombic'
loop_
_space_group_symop_operation_xyz
x,y,z
-x,-y,z
1/2+x,1/2-y,1/2-z
1/2-x,1/2+y,1/2-z
-x,-y,-z
x,y,-z
1/2-x,1/2+y,1/2+z
1/2+x,1/2-y,1/2+z
loop_
_atom_site_type_symbol
_atom_site_label
_atom_site_fract_x
_atom_site_fract_y
_atom_site_fract_z
Si Si1 0.004901 0.724409 0.215216
Si Si2 0.817551 0.100637 0.783222
Si Si3 0.337990 0.015413 0.698703
Si Si4 0.119836 0.714177 0.217773
Si Si5 0.849054 0.879605 0.290572
Si Si6 0.213284 0.310781 0.294167
Si Si7 0.446989 0.959302 0.207706
Si Si8 0.539982 0.427766 0.796872
O O1 0.061741 0.692166 0.271455
O O2 0.958420 0.656683 0.278817
O O3 0.992473 0.828500 0.300123
O O4 0.004549 0.729302 0.000000
O O5 0.863870 0.173869 0.731558
O O6 0.767825 0.159509 0.716784
O O7 0.820284 0.985827 0.723356
O O8 0.816101 0.096379 0.000000
O O9 0.315291 0.020494 0.500000
O O10 0.315471 0.917647 0.791413
O O11 0.397668 0.990749 0.689879
O O12 0.340939 0.127281 0.778306
O O13 0.121532 0.709803 0.000000
O O14 0.857405 0.856245 0.500000
O O15 0.818702 0.782768 0.217324
O O16 0.905181 0.902948 0.214279
O O17 0.223084 0.282354 0.500000
O O18 0.500000 0.000000 0.282450
O O19 0.441732 0.987659 0.000000
O O20 0.500000 0.500000 0.703368
O O21 0.549929 0.465338 0.000000
#
# Coordination Sequence:
#
# PCOD9444347 Si02
#       8
#     8   8   8   8   8   8   8   8
#     4  11  21  35  58  87 121 158 203 249 296 355
#     4  10  22  41  64  87 117 156 201 251 305 363
#     4  11  22  38  63  90 122 159 203 249 297 361
#     4   9  20  37  58  88 123 159 196 247 304 354
#     4  10  22  41  62  86 120 158 200 253 306 363
#     4  10  23  41  62  88 121 159 200 251 313 367
#     4  11  22  36  55  83 121 160 195 236 293 353
#     4  10  21  37  58  86 123 164 205 247 299 360
#
# _framework density 24.198246000000001
#
# number of rings (size 3 to 8) (size 9 to 14) (size 15 to 20)
#    0.000    1.750    1.250    2.625    1.750    3.250 
#    0.000    1.875    0.000    0.000    0.000    0.000 
#    0.000    0.000    0.000    0.000    0.000    0.000 
#
# Total GULP energy -357164.771450 kJ/mol
# GULP energy per Si atom -5580.699554 kJ/mol
# Density = 2.414317 g / cm^3
# Si number density = 24.198246 Si / 1000 Ang^3
#
#
#
# Elastic Constant Matrix: (Units=GPa)
#
#
# Indices 1 2 3 4 5 6 
#
# 1 90.9992 19.6642 3.1148 0.0000 0.0000 0.0000
# 2 19.6642 130.3824 -8.4797 0.0000 0.0000 0.0000
# 3 3.1148 -8.4797 85.9441 0.0000 0.0000 0.0000
# 4 0.0000 0.0000 0.0000 -22.6413 0.0000 0.0000
# 5 0.0000 0.0000 0.0000 0.0000 10.6809 0.0000
# 6 0.0000 0.0000 0.0000 0.0000 0.0000 40.0607
#
#
#
# Elastic Compliance Matrix: (Units=1/GPa)
#
#
# Indices 1 2 3 4 5 6 
#
# 1 0.011389 -0.001756 -0.000586 0.000000 0.000000 0.000000
# 2 -0.001756 0.007990 0.000852 0.000000 0.000000 0.000000
# 3 -0.000586 0.000852 0.011741 0.000000 0.000000 0.000000
# 4 0.000000 0.000000 0.000000 -0.044167 0.000000 0.000000
# 5 0.000000 0.000000 0.000000 0.000000 0.093625 0.000000
# 6 0.000000 0.000000 0.000000 0.000000 0.000000 0.024962
#
#
# Mechanical properties :
#
#
# Convention : Reuss Voigt Hill
#
# Bulk Modulus (GPa) = 35.53685 37.32492 36.43088
# Shear Modulus (GPa) = 42.40916 25.15515 33.78216
#
# Velocity S-wave (km/s) = 4.19091 3.22769 3.74044
# Velocity P-wave (km/s) = 6.17543 5.41745 5.80882
#
# Compressibility (1/GPa) = 0.02813981
#
# Stress axis : x y z
#
# Youngs Moduli (GPa) = 87.80734 125.15717 85.17328
#
# Poissons Ratio (x) = 0.21974 0.04991
# Poissons Ratio (y) = 0.15417 -0.07256
# Poissons Ratio (z) = 0.05145 -0.10663
#
# Static dielectric constant tensor:
#      x y z
#    x 1.931680 0.000000 0.000000 
#    y 0.000000 2.148880 0.000000 
#    z 0.000000 0.000000 1.968150 
# 
# From -- ./inp_files/11015.got.cif
#   From: 2010.05.17/outbox.cif.g08.bks.cpg/sg58_6_cif.got.tgz:11015.got - 2010.06.03 14:20:14.
