data_PCOD9444190
_publ_section_title
;
Structure prediction by ZEFSAII (Michael W. Deem and Ramdas Pophale) SiO2 
 PCOD9444190
Probable space group: P N N M
;
_chemical_formula_sum "Si O2"
_cell_formula_units_Z 56
_cell_length_a 16.715813
_cell_length_b 20.570756
_cell_length_c 8.790971
_cell_angle_alpha 90.000000
_cell_angle_beta 90.000000
_cell_angle_gamma 90.000000
_cell_volume 3022.836129
_symmetry_space_group_name_H-M "P N N M"
_symmetry_group_IT_number 58
_symmetry_cell_setting 'orthorhombic'
loop_
_space_group_symop_operation_xyz
x,y,z
-x,-y,z
1/2+x,1/2-y,1/2-z
1/2-x,1/2+y,1/2-z
-x,-y,-z
x,y,-z
1/2-x,1/2+y,1/2+z
1/2+x,1/2-y,1/2+z
loop_
_atom_site_type_symbol
_atom_site_label
_atom_site_fract_x
_atom_site_fract_y
_atom_site_fract_z
Si Si1 0.313696 0.111324 0.183505
Si Si2 0.655681 0.150912 0.318852
Si Si3 0.933572 0.051479 0.816738
Si Si4 0.517196 0.829956 0.816841
Si Si5 0.684746 0.290441 0.182190
Si Si6 0.002243 0.181515 0.318090
Si Si7 0.248837 0.970102 0.183885
O O1 0.404499 0.129473 0.224816
O O2 0.252917 0.162510 0.256386
O O3 0.288748 0.038527 0.227412
O O4 0.307285 0.116483 0.000000
O O5 0.658580 0.152712 0.500000
O O6 0.563986 0.147022 0.261995
O O7 0.689692 0.218593 0.252620
O O8 0.705134 0.090335 0.255641
O O9 0.844269 0.031598 0.769770
O O10 0.956241 0.123008 0.760217
O O11 0.935525 0.051259 0.000000
O O12 0.000000 0.000000 0.761780
O O13 0.529103 0.753640 0.778665
O O14 0.505499 0.833431 0.000000
O O15 0.596545 0.318165 0.222939
O O16 0.688084 0.285240 0.000000
O O17 0.995956 0.174081 0.500000
O O18 0.252531 0.964750 0.000000
#
# Coordination Sequence:
#
# PCOD9444190 Si02
#       7
#     8   8   8   8   8   8   8
#     4  10  21  38  62  88 117 155 197 239 293 362
#     4  11  23  39  60  85 115 155 202 247 295 352
#     4  10  21  36  56  83 116 152 193 237 283 345
#     4   9  20  39  60  85 115 148 191 243 298 352
#     4  10  21  38  60  86 119 153 191 244 300 351
#     4   9  19  35  55  81 113 147 186 235 290 346
#     4  10  22  39  58  85 121 159 195 240 300 354
#
# _framework density 18.525649000000001
#
# number of rings (size 3 to 8) (size 9 to 14) (size 15 to 20)
#    0.000    2.143    0.000    3.429    2.000    6.571 
#    0.000    2.857    0.000    0.000    0.000    0.000 
#    0.000    0.000    0.000    0.000    0.000    0.000 
#
# Total GULP energy -312812.322672 kJ/mol
# GULP energy per Si atom -5585.934333 kJ/mol
# Density = 1.848348 g / cm^3
# Si number density = 18.525649 Si / 1000 Ang^3
#
#
#
# Elastic Constant Matrix: (Units=GPa)
#
#
# Indices 1 2 3 4 5 6 
#
# 1 64.6590 68.7632 17.4660 0.0000 0.0000 0.0000
# 2 68.7632 114.8012 25.8156 0.0000 0.0000 0.0000
# 3 17.4660 25.8156 17.5134 0.0000 0.0000 0.0000
# 4 0.0000 0.0000 0.0000 32.0092 0.0000 0.0000
# 5 0.0000 0.0000 0.0000 0.0000 -4.4552 0.0000
# 6 0.0000 0.0000 0.0000 0.0000 0.0000 34.8671
#
#
#
# Elastic Compliance Matrix: (Units=1/GPa)
#
#
# Indices 1 2 3 4 5 6 
#
# 1 0.043236 -0.024234 -0.007397 0.000000 0.000000 0.000000
# 2 -0.024234 0.026613 -0.015061 0.000000 0.000000 0.000000
# 3 -0.007397 -0.015061 0.086676 0.000000 0.000000 0.000000
# 4 0.000000 0.000000 0.000000 0.031241 0.000000 0.000000
# 5 0.000000 0.000000 0.000000 0.000000 -0.224456 0.000000
# 6 0.000000 0.000000 0.000000 0.000000 0.000000 0.028680
#
#
# Mechanical properties :
#
#
# Convention : Reuss Voigt Hill
#
# Bulk Modulus (GPa) = 15.83725 46.78481 31.31103
# Shear Modulus (GPa) = 46.98333 18.14614 32.56474
#
# Velocity S-wave (km/s) = 5.04146 3.13311 4.19718
# Velocity P-wave (km/s) = 6.51581 6.19657 6.35819
#
# Compressibility (1/GPa) = 0.06314229
#
# Stress axis : x y z
#
# Youngs Moduli (GPa) = 23.12877 37.57549 11.53722
#
# Poissons Ratio (x) = 0.91061 0.08534
# Poissons Ratio (y) = 0.56051 0.17376
# Poissons Ratio (z) = 0.17108 0.56591
#
# Static dielectric constant tensor:
#      x y z
#    x 1.627340 0.000000 0.000000 
#    y 0.000000 1.606660 0.000000 
#    z 0.000000 0.000000 1.623650 
# 
# From -- ./inp_files/6447.got.cif
#   From: 2010.05.17/outbox.cif.g08.bks.cpg/sg58_4_cif.got.tgz:6447.got - 2010.06.03 14:20:14.
