data_PCOD9444153
_publ_section_title
;
Structure prediction by ZEFSAII (Michael W. Deem and Ramdas Pophale) SiO2 
 PCOD9444153
Probable space group: P N N M
;
_chemical_formula_sum "Si O2"
_cell_formula_units_Z 32
_cell_length_a 18.386951
_cell_length_b 4.914907
_cell_length_c 19.230548
_cell_angle_alpha 90.000000
_cell_angle_beta 90.000000
_cell_angle_gamma 90.000000
_cell_volume 1737.867588
_symmetry_space_group_name_H-M "P N N M"
_symmetry_group_IT_number 58
_symmetry_cell_setting 'orthorhombic'
loop_
_space_group_symop_operation_xyz
x,y,z
-x,-y,z
1/2+x,1/2-y,1/2-z
1/2-x,1/2+y,1/2-z
-x,-y,-z
x,y,-z
1/2-x,1/2+y,1/2+z
1/2+x,1/2-y,1/2+z
loop_
_atom_site_type_symbol
_atom_site_label
_atom_site_fract_x
_atom_site_fract_y
_atom_site_fract_z
Si Si1 0.100415 0.295938 0.000000
Si Si2 0.500000 0.000000 0.701717
Si Si3 0.273269 0.260582 0.657482
Si Si4 0.500000 0.500000 0.388431
Si Si5 0.806676 0.188541 0.000000
Si Si6 0.653068 0.233217 0.268171
O O1 0.056066 0.173804 0.064973
O O2 0.120323 0.614376 0.000000
O O3 0.174506 0.130195 0.000000
O O4 0.468186 0.252958 0.656978
O O5 0.568767 0.146671 0.738262
O O6 0.269920 0.265064 0.574312
O O7 0.324877 0.486371 0.694067
O O8 0.195152 0.283229 0.694989
O O9 0.308613 0.979978 0.680824
#
# Coordination Sequence:
#
# PCOD9444153 Si02
#       6
#     4   4   8   4   4   8
#     4  11  22  32  46  74 108 137 165 200 249 311
#     4  12  20  33  54  73 100 138 176 210 254 302
#     4  10  21  36  53  75 103 135 173 214 255 304
#     4  11  22  32  46  74 108 137 166 202 250 311
#     4  12  20  33  54  73 100 138 175 208 253 302
#     4  10  21  36  53  75 103 135 173 214 255 304
#
# _framework density 18.413371999999999
#
# number of rings (size 3 to 8) (size 9 to 14) (size 15 to 20)
#    0.000    1.250    0.000    9.000    0.000    2.000 
#    0.000    1.250    0.000    0.750    0.000    0.000 
#    0.000   16.000    0.000    0.000    0.000    5.625 
#
# Total GULP energy -178449.324561 kJ/mol
# GULP energy per Si atom -5576.541393 kJ/mol
# Density = 1.837146 g / cm^3
# Si number density = 18.413372 Si / 1000 Ang^3
#
#
#
# Elastic Constant Matrix: (Units=GPa)
#
#
# Indices 1 2 3 4 5 6 
#
# 1 103.9966 7.6455 56.6721 0.0000 0.0000 0.0000
# 2 7.6455 86.5876 5.7478 0.0000 0.0000 0.0000
# 3 56.6721 5.7478 132.0689 0.0000 0.0000 0.0000
# 4 0.0000 0.0000 0.0000 -2.6491 0.0000 0.0000
# 5 0.0000 0.0000 0.0000 0.0000 10.1959 0.0000
# 6 0.0000 0.0000 0.0000 0.0000 0.0000 26.2426
#
#
#
# Elastic Compliance Matrix: (Units=1/GPa)
#
#
# Indices 1 2 3 4 5 6 
#
# 1 0.012600 -0.000756 -0.005374 0.000000 0.000000 0.000000
# 2 -0.000756 0.011628 -0.000182 0.000000 0.000000 0.000000
# 3 -0.005374 -0.000182 0.009886 0.000000 0.000000 0.000000
# 4 0.000000 0.000000 0.000000 -0.377491 0.000000 0.000000
# 5 0.000000 0.000000 0.000000 0.000000 0.098079 0.000000
# 6 0.000000 0.000000 0.000000 0.000000 0.000000 0.038106
#
#
# Mechanical properties :
#
#
# Convention : Reuss Voigt Hill
#
# Bulk Modulus (GPa) = 46.53213 51.42043 48.97628
# Shear Modulus (GPa) = -26.67990 23.59706 -1.54142
#
# Velocity S-wave (km/s) = -3.81063 3.58371 -0.91594
# Velocity P-wave (km/s) = 2.44224 6.71641 5.05345
#
# Compressibility (1/GPa) = 0.02149053
#
# Stress axis : x y z
#
# Youngs Moduli (GPa) = 79.36738 86.00081 101.15688
#
# Poissons Ratio (x) = 0.06500 0.54359
# Poissons Ratio (y) = 0.05999 0.01838
# Poissons Ratio (z) = 0.42650 0.01563
#
# Static dielectric constant tensor:
#      x y z
#    x 1.692260 0.000000 0.000000 
#    y 0.000000 1.656740 0.000000 
#    z 0.000000 0.000000 1.725250 
# 
# From -- ./inp_files/24157.got.cif
#   From: 2010.05.17/outbox.cif.g08.bks.cpg/sg58_13_cif.got.tgz:24157.got - 2010.06.03 14:20:14.
