data_PCOD9444328
_publ_section_title
;
Structure prediction by ZEFSAII (Michael W. Deem and Ramdas Pophale) SiO2 
 PCOD9444328
Probable space group: P N N M
;
_chemical_formula_sum "Si O2"
_cell_formula_units_Z 56
_cell_length_a 14.061027
_cell_length_b 9.526323
_cell_length_c 21.445214
_cell_angle_alpha 90.000000
_cell_angle_beta 90.000000
_cell_angle_gamma 90.000000
_cell_volume 2872.583947
_symmetry_space_group_name_H-M "P N N M"
_symmetry_group_IT_number 58
_symmetry_cell_setting 'orthorhombic'
loop_
_space_group_symop_operation_xyz
x,y,z
-x,-y,z
1/2+x,1/2-y,1/2-z
1/2-x,1/2+y,1/2-z
-x,-y,-z
x,y,-z
1/2-x,1/2+y,1/2+z
1/2+x,1/2-y,1/2+z
loop_
_atom_site_type_symbol
_atom_site_label
_atom_site_fract_x
_atom_site_fract_y
_atom_site_fract_z
Si Si1 0.276232 0.367011 0.623392
Si Si2 0.619836 0.171284 0.365747
Si Si3 0.534527 0.648285 0.693363
Si Si4 0.798002 0.357789 0.673062
Si Si5 0.238300 0.582659 0.181498
Si Si6 0.902916 0.097083 0.000000
Si Si7 0.926184 0.104124 0.669450
Si Si8 0.456662 0.846981 0.500000
O O1 0.355778 0.357714 0.677259
O O2 0.203084 0.488907 0.641773
O O3 0.238915 0.208249 0.632426
O O4 0.334357 0.407979 0.560761
O O5 0.520917 0.222749 0.336244
O O6 0.698636 0.283128 0.344440
O O7 0.605634 0.177698 0.439187
O O8 0.656208 0.019157 0.345123
O O9 0.500000 0.500000 0.666016
O O10 0.519397 0.645640 0.766911
O O11 0.793349 0.374179 0.748312
O O12 0.880537 0.252717 0.648727
O O13 0.333447 0.488825 0.185725
O O14 0.000000 0.000000 0.000000
O O15 0.952260 0.247569 0.000000
O O16 0.000000 0.000000 0.634246
O O17 0.500000 0.000000 0.500000
#
# Coordination Sequence:
#
# PCOD9444328 Si02
#       8
#     8   8   8   8   8   4   8   4
#     4  12  21  36  57  85 121 161 198 238 287 350
#     4  11  23  36  56  82 123 169 197 237 297 362
#     4  11  18  33  56  84 119 160 197 230 288 355
#     4  11  20  38  57  81 112 157 208 251 302 353
#     4  11  22  38  56  85 120 158 205 252 304 355
#     4  12  24  38  58  88 127 169 202 225 275 368
#     4  10  21  37  58  82 114 152 198 256 311 360
#     4  12  24  36  52  86 127 165 202 231 275 374
#
# _framework density 19.494644999999998
#
# number of rings (size 3 to 8) (size 9 to 14) (size 15 to 20)
#    0.000    0.857    5.714    3.857    0.000    0.000 
#    0.000    2.143    0.000    0.000    0.000   19.000 
#    0.000    0.000    0.000    0.000    0.000    0.000 
#
# Total GULP energy -312162.358558 kJ/mol
# GULP energy per Si atom -5574.327831 kJ/mol
# Density = 1.945027 g / cm^3
# Si number density = 19.494645 Si / 1000 Ang^3
#
#
#
# Elastic Constant Matrix: (Units=GPa)
#
#
# Indices 1 2 3 4 5 6 
#
# 1 54.4794 41.5725 14.8844 0.0000 0.0000 0.0000
# 2 41.5725 138.3091 34.4259 0.0000 0.0000 0.0000
# 3 14.8844 34.4259 86.7582 0.0000 0.0000 0.0000
# 4 0.0000 0.0000 0.0000 10.0614 0.0000 0.0000
# 5 0.0000 0.0000 0.0000 0.0000 15.9598 0.0000
# 6 0.0000 0.0000 0.0000 0.0000 0.0000 47.6510
#
#
#
# Elastic Compliance Matrix: (Units=1/GPa)
#
#
# Indices 1 2 3 4 5 6 
#
# 1 0.023969 -0.006858 -0.001391 0.000000 0.000000 0.000000
# 2 -0.006858 0.009985 -0.002785 0.000000 0.000000 0.000000
# 3 -0.001391 -0.002785 0.012870 0.000000 0.000000 0.000000
# 4 0.000000 0.000000 0.000000 0.099389 0.000000 0.000000
# 5 0.000000 0.000000 0.000000 0.000000 0.062658 0.000000
# 6 0.000000 0.000000 0.000000 0.000000 0.000000 0.020986
#
#
# Mechanical properties :
#
#
# Convention : Reuss Voigt Hill
#
# Bulk Modulus (GPa) = 40.39577 51.25691 45.82634
# Shear Modulus (GPa) = 19.21763 27.31204 23.26483
#
# Velocity S-wave (km/s) = 3.14314 3.74706 3.45830
# Velocity P-wave (km/s) = 5.82571 6.71345 6.28527
#
# Compressibility (1/GPa) = 0.02475507
#
# Stress axis : x y z
#
# Youngs Moduli (GPa) = 41.72041 100.15061 77.69921
#
# Poissons Ratio (x) = 0.68687 0.10806
# Poissons Ratio (y) = 0.28613 0.21642
# Poissons Ratio (z) = 0.05802 0.27896
#
# Static dielectric constant tensor:
#      x y z
#    x 1.704940 0.000000 0.000000 
#    y 0.000000 1.833930 0.000000 
#    z 0.000000 0.000000 1.719840 
# 
# From -- ./inp_files/30045.got.cif
#   From: 2010.05.17/outbox.cif.g08.bks.cpg/sg58_16_cif.got.tgz:30045.got - 2010.06.03 14:20:14.
