data_PCOD9444233
_publ_section_title
;
Structure prediction by ZEFSAII (Michael W. Deem and Ramdas Pophale) SiO2 
 PCOD9444233
Probable space group: P N N M
;
_chemical_formula_sum "Si O2"
_cell_formula_units_Z 64
_cell_length_a 17.166461
_cell_length_b 7.641674
_cell_length_c 22.168433
_cell_angle_alpha 90.000000
_cell_angle_beta 90.000000
_cell_angle_gamma 90.000000
_cell_volume 2908.066096
_symmetry_space_group_name_H-M "P N N M"
_symmetry_group_IT_number 58
_symmetry_cell_setting 'orthorhombic'
loop_
_space_group_symop_operation_xyz
x,y,z
-x,-y,z
1/2+x,1/2-y,1/2-z
1/2-x,1/2+y,1/2-z
-x,-y,-z
x,y,-z
1/2-x,1/2+y,1/2+z
1/2+x,1/2-y,1/2+z
loop_
_atom_site_type_symbol
_atom_site_label
_atom_site_fract_x
_atom_site_fract_y
_atom_site_fract_z
Si Si1 0.366365 0.313852 0.428748
Si Si2 0.645231 0.573585 0.934566
Si Si3 0.763065 0.912579 0.728806
Si Si4 0.531982 0.200499 0.570216
Si Si5 0.732823 0.056249 0.153210
Si Si6 0.184315 0.433404 0.117644
Si Si7 0.418115 0.430615 0.188090
Si Si8 0.920316 0.401834 0.613218
O O1 0.362033 0.349867 0.500000
O O2 0.457564 0.315742 0.410364
O O3 0.306491 0.428450 0.390463
O O4 0.338292 0.114652 0.416201
O O5 0.732927 0.615922 0.912256
O O6 0.602814 0.481975 0.877830
O O7 0.600113 0.756949 0.936244
O O8 0.645248 0.487261 0.000000
O O9 0.740076 0.901078 0.798229
O O10 0.701261 0.016704 0.686970
O O11 0.845025 0.015799 0.727834
O O12 0.771472 0.729903 0.694256
O O13 0.549223 0.241125 0.500000
O O14 0.612307 0.196438 0.606925
O O15 0.500000 0.000000 0.572064
O O16 0.652585 0.030253 0.118553
O O17 0.500000 0.500000 0.210649
O O18 0.424466 0.224891 0.172657
O O19 0.000000 0.500000 0.604213
#
# Coordination Sequence:
#
# PCOD9444233 Si02
#       8
#     8   8   8   8   8   8   8   8
#     4   9  18  32  56  90 123 158 199 247 310 369
#     4   9  19  32  55  83 116 156 199 245 301 367
#     4  10  21  36  59  85 115 159 201 248 301 359
#     4   8  13  25  50  83 120 151 188 241 293 355
#     4  11  22  39  62  84 121 159 203 253 299 371
#     4   9  16  31  55  85 119 155 200 247 303 366
#     4   9  19  37  59  83 119 148 197 246 303 354
#     4  10  22  38  57  79 114 153 201 245 306 357
#
# _framework density 22.007750999999999
#
# number of rings (size 3 to 8) (size 9 to 14) (size 15 to 20)
#    0.750    1.875    0.000    3.375    0.000    1.000 
#    0.000    5.625    0.000    0.000    0.000    2.625 
#    0.000    0.000    0.000    0.000    0.000    1.250 
#
# Total GULP energy -356967.763058 kJ/mol
# GULP energy per Si atom -5577.621298 kJ/mol
# Density = 2.195766 g / cm^3
# Si number density = 22.007751 Si / 1000 Ang^3
#
#
#
# Elastic Constant Matrix: (Units=GPa)
#
#
# Indices 1 2 3 4 5 6 
#
# 1 102.0580 22.4905 -3.0683 0.0000 0.0000 0.0000
# 2 22.4905 56.9099 -3.9158 0.0000 0.0000 0.0000
# 3 -3.0683 -3.9158 37.8019 0.0000 0.0000 0.0000
# 4 0.0000 0.0000 0.0000 22.7693 0.0000 0.0000
# 5 0.0000 0.0000 0.0000 0.0000 19.4965 0.0000
# 6 0.0000 0.0000 0.0000 0.0000 0.0000 35.6880
#
#
#
# Elastic Compliance Matrix: (Units=1/GPa)
#
#
# Indices 1 2 3 4 5 6 
#
# 1 0.010740 -0.004215 0.000435 0.000000 0.000000 0.000000
# 2 -0.004215 0.019352 0.001663 0.000000 0.000000 0.000000
# 3 0.000435 0.001663 0.026661 0.000000 0.000000 0.000000
# 4 0.000000 0.000000 0.000000 0.043919 0.000000 0.000000
# 5 0.000000 0.000000 0.000000 0.000000 0.051291 0.000000
# 6 0.000000 0.000000 0.000000 0.000000 0.000000 0.028021
#
#
# Mechanical properties :
#
#
# Convention : Reuss Voigt Hill
#
# Bulk Modulus (GPa) = 19.04058 25.30915 22.17487
# Shear Modulus (GPa) = 24.78637 27.67499 26.23068
#
# Velocity S-wave (km/s) = 3.35961 3.54999 3.45611
# Velocity P-wave (km/s) = 4.87031 5.32243 5.10138
#
# Compressibility (1/GPa) = 0.05251941
#
# Stress axis : x y z
#
# Youngs Moduli (GPa) = 93.10821 51.67535 37.50759
#
# Poissons Ratio (x) = 0.21779 -0.01632
# Poissons Ratio (y) = 0.39241 -0.06236
# Poissons Ratio (z) = -0.04052 -0.08591
#
# Static dielectric constant tensor:
#      x y z
#    x 1.795360 0.000000 0.000000 
#    y 0.000000 1.884750 0.000000 
#    z 0.000000 0.000000 1.806790 
# 
# From -- ./inp_files/32224.got.cif
#   From: 2010.05.17/outbox.cif.g08.bks.cpg/sg58_17_cif.got.tgz:32224.got - 2010.06.03 14:20:14.
