data_PCOD9444988
_publ_section_title
;
Structure prediction by ZEFSAII (Michael W. Deem and Ramdas Pophale) SiO2 
 PCOD9444988
Probable space group: P N N M
;
_chemical_formula_sum "Si O2"
_cell_formula_units_Z 58
_cell_length_a 11.328439
_cell_length_b 25.928436
_cell_length_c 9.554837
_cell_angle_alpha 90.000000
_cell_angle_beta 90.000000
_cell_angle_gamma 90.000000
_cell_volume 2806.529904
_symmetry_space_group_name_H-M "P N N M"
_symmetry_group_IT_number 58
_symmetry_cell_setting 'orthorhombic'
loop_
_space_group_symop_operation_xyz
x,y,z
-x,-y,z
1/2+x,1/2-y,1/2-z
1/2-x,1/2+y,1/2-z
-x,-y,-z
x,y,-z
1/2-x,1/2+y,1/2+z
1/2+x,1/2-y,1/2+z
loop_
_atom_site_type_symbol
_atom_site_label
_atom_site_fract_x
_atom_site_fract_y
_atom_site_fract_z
Si Si1 0.335680 0.882936 0.160903
Si Si2 0.077368 0.767677 0.167470
Si Si3 0.561175 0.948448 0.839359
Si Si4 0.785001 0.930787 0.342659
Si Si5 0.000000 0.000000 0.000000
Si Si6 0.495633 0.362279 0.154919
Si Si7 0.359145 0.457608 0.757852
Si Si8 0.187728 0.278896 0.168716
O O1 0.470308 0.901453 0.164552
O O2 0.263582 0.933670 0.205672
O O3 0.312782 0.836435 0.266713
O O4 0.305503 0.868589 0.000000
O O5 0.198895 0.752009 0.251607
O O6 0.051714 0.825026 0.225862
O O7 0.947742 0.741157 0.194974
O O8 0.097982 0.765167 0.000000
O O9 0.678545 0.932764 0.762730
O O10 0.500000 0.000000 0.778735
O O11 0.591057 0.961027 0.000000
O O12 0.741342 0.924479 0.500000
O O13 0.875249 0.884702 0.313093
O O14 0.845892 0.986900 0.328896
O O15 0.938468 0.034979 0.121804
O O16 0.416627 0.413373 0.150089
O O17 0.494777 0.337396 0.000000
O O18 0.206462 0.277919 0.000000
#
# Coordination Sequence:
#
# PCOD9444988 Si02
#       8
#     8   8   8   8   2   8   8   8
#     4  11  23  40  65  94 126 168 218 263 320 386
#     4  11  26  46  72 101 131 171 220 275 339 411
#     4  10  22  39  59  85 124 170 215 261 309 374
#     4  11  24  39  58  90 134 173 214 262 317 381
#     4  12  24  32  62 102 136 172 218 268 310 388
#     4  11  24  41  63  94 130 168 212 268 330 388
#     4  12  22  36  61  95 129 170 213 261 318 379
#     4  11  26  47  72 102 134 171 220 282 347 408
#
# _framework density 20.666091000000002
#
# number of rings (size 3 to 8) (size 9 to 14) (size 15 to 20)
#    0.000    0.966    4.828    1.241    1.931    6.345 
#    0.000    5.517    0.000    0.000    0.000    0.000 
#    0.000    0.000    0.000    0.000    0.000    0.000 
#
# Total GULP energy -323115.394335 kJ/mol
# GULP energy per Si atom -5570.955075 kJ/mol
# Density = 2.061905 g / cm^3
# Si number density = 20.666091 Si / 1000 Ang^3
#
#
#
# Elastic Constant Matrix: (Units=GPa)
#
#
# Indices 1 2 3 4 5 6 
#
# 1 101.5591 19.7767 53.5207 0.0000 0.0000 0.0000
# 2 19.7767 38.9935 11.3767 0.0000 0.0000 0.0000
# 3 53.5207 11.3767 102.5930 0.0000 0.0000 0.0000
# 4 0.0000 0.0000 0.0000 18.2164 0.0000 0.0000
# 5 0.0000 0.0000 0.0000 0.0000 16.0598 0.0000
# 6 0.0000 0.0000 0.0000 0.0000 0.0000 21.0784
#
#
#
# Elastic Compliance Matrix: (Units=1/GPa)
#
#
# Indices 1 2 3 4 5 6 
#
# 1 0.014586 -0.005351 -0.007016 0.000000 0.000000 0.000000
# 2 -0.005351 0.028466 -0.000365 0.000000 0.000000 0.000000
# 3 -0.007016 -0.000365 0.013448 0.000000 0.000000 0.000000
# 4 0.000000 0.000000 0.000000 0.054896 0.000000 0.000000
# 5 0.000000 0.000000 0.000000 0.000000 0.062267 0.000000
# 6 0.000000 0.000000 0.000000 0.000000 0.000000 0.047442
#
#
# Mechanical properties :
#
#
# Convention : Reuss Voigt Hill
#
# Bulk Modulus (GPa) = 32.22093 45.83264 39.02678
# Shear Modulus (GPa) = 19.46190 21.63568 20.54879
#
# Velocity S-wave (km/s) = 3.07209 3.23912 3.15671
# Velocity P-wave (km/s) = 5.31119 6.01789 5.67555
#
# Compressibility (1/GPa) = 0.03103573
#
# Stress axis : x y z
#
# Youngs Moduli (GPa) = 68.56067 35.13013 74.36210
#
# Poissons Ratio (x) = 0.18797 0.52170
# Poissons Ratio (y) = 0.36684 0.02716
# Poissons Ratio (z) = 0.48100 0.01283
#
# Static dielectric constant tensor:
#      x y z
#    x 1.812820 0.000000 0.000000 
#    y 0.000000 1.731040 0.000000 
#    z 0.000000 0.000000 1.712310 
# 
# From -- ./inp_files/4449.got.cif
#   From: 2010.05.17/outbox.cif.g08.bks.cpg/sg58_3_cif.got.tgz:4449.got - 2010.06.03 14:20:14.
