data_PCOD9444707
_publ_section_title
;
Structure prediction by ZEFSAII (Michael W. Deem and Ramdas Pophale) SiO2 
 PCOD9444707
Probable space group: P N N M
;
_chemical_formula_sum "Si O2"
_cell_formula_units_Z 64
_cell_length_a 12.239113
_cell_length_b 31.819537
_cell_length_c 8.191879
_cell_angle_alpha 90.000000
_cell_angle_beta 90.000000
_cell_angle_gamma 90.000000
_cell_volume 3190.269188
_symmetry_space_group_name_H-M "P N N M"
_symmetry_group_IT_number 58
_symmetry_cell_setting 'orthorhombic'
loop_
_space_group_symop_operation_xyz
x,y,z
-x,-y,z
1/2+x,1/2-y,1/2-z
1/2-x,1/2+y,1/2-z
-x,-y,-z
x,y,-z
1/2-x,1/2+y,1/2+z
1/2+x,1/2-y,1/2+z
loop_
_atom_site_type_symbol
_atom_site_label
_atom_site_fract_x
_atom_site_fract_y
_atom_site_fract_z
Si Si1 0.247049 0.801398 0.304408
Si Si2 0.721576 0.456469 0.305379
Si Si3 0.013185 0.834071 0.195183
Si Si4 0.347834 0.126762 0.802942
Si Si5 0.789132 0.792640 0.199674
Si Si6 0.748741 0.046542 0.303332
Si Si7 0.491241 0.429329 0.195237
Si Si8 0.901902 0.623694 0.197839
O O1 0.259413 0.799622 0.500000
O O2 0.127580 0.819078 0.266680
O O3 0.260159 0.753955 0.241513
O O4 0.336819 0.834824 0.244072
O O5 0.723875 0.455451 0.500000
O O6 0.780959 0.414162 0.243529
O O7 0.778039 0.499171 0.246713
O O8 0.595285 0.455993 0.250670
O O9 0.990355 0.881767 0.246663
O O10 0.911562 0.805484 0.248316
O O11 0.019676 0.832392 0.000000
O O12 0.291935 0.170173 0.745752
O O13 0.473606 0.123893 0.753601
O O14 0.340917 0.126689 0.000000
O O15 0.785773 0.792374 0.000000
O O16 0.750869 0.048529 0.500000
O O17 0.871869 0.056644 0.243439
O O18 0.664911 0.082381 0.246469
O O19 0.487966 0.430495 0.000000
O O20 0.900032 0.623729 0.000000
#
# Coordination Sequence:
#
# PCOD9444707 Si02
#       8
#     8   8   8   8   8   8   8   8
#     4  10  21  40  62  86 119 158 195 238 295 349
#     4  11  23  39  60  88 120 152 194 244 296 349
#     4  11  21  37  62  91 122 155 195 245 294 344
#     4  10  22  41  59  82 118 155 192 240 295 347
#     4   9  20  39  61  84 120 158 188 237 296 345
#     4  10  22  40  59  84 118 153 193 240 294 348
#     4  11  21  38  62  88 121 158 193 237 293 353
#     4  10  22  40  60  84 116 154 198 244 288 345
#
# _framework density 20.061002999999999
#
# number of rings (size 3 to 8) (size 9 to 14) (size 15 to 20)
#    0.000    1.750    2.500    1.500    1.750    5.000 
#    0.000    3.750    0.000    0.000    0.000    0.000 
#    0.000    0.000    0.000    0.000    0.000    0.000 
#
# Total GULP energy -357571.989189 kJ/mol
# GULP energy per Si atom -5587.062331 kJ/mol
# Density = 2.001534 g / cm^3
# Si number density = 20.061003 Si / 1000 Ang^3
#
#
#
# Elastic Constant Matrix: (Units=GPa)
#
#
# Indices 1 2 3 4 5 6 
#
# 1 119.5383 40.0276 2.1243 0.0000 0.0000 0.0000
# 2 40.0276 120.7125 10.3926 0.0000 0.0000 0.0000
# 3 2.1243 10.3926 5.8607 0.0000 0.0000 0.0000
# 4 0.0000 0.0000 0.0000 24.0839 0.0000 0.0000
# 5 0.0000 0.0000 0.0000 0.0000 23.5916 0.0000
# 6 0.0000 0.0000 0.0000 0.0000 0.0000 9.8278
#
#
#
# Elastic Compliance Matrix: (Units=1/GPa)
#
#
# Indices 1 2 3 4 5 6 
#
# 1 0.009442 -0.003347 0.002513 0.000000 0.000000 0.000000
# 2 -0.003347 0.010963 -0.018228 0.000000 0.000000 0.000000
# 3 0.002513 -0.018228 0.202041 0.000000 0.000000 0.000000
# 4 0.000000 0.000000 0.000000 0.041521 0.000000 0.000000
# 5 0.000000 0.000000 0.000000 0.000000 0.042388 0.000000
# 6 0.000000 0.000000 0.000000 0.000000 0.000000 0.101752
#
#
# Mechanical properties :
#
#
# Convention : Reuss Voigt Hill
#
# Bulk Modulus (GPa) = 5.42528 39.02228 22.22378
# Shear Modulus (GPa) = 9.84887 24.40512 17.12699
#
# Velocity S-wave (km/s) = 2.21813 3.49168 2.92506
# Velocity P-wave (km/s) = 3.04474 5.97912 4.74448
#
# Compressibility (1/GPa) = 0.18432243
#
# Stress axis : x y z
#
# Youngs Moduli (GPa) = 105.91352 91.21291 4.94949
#
# Poissons Ratio (x) = 0.30531 -0.01244
# Poissons Ratio (y) = 0.35451 0.09022
# Poissons Ratio (z) = -0.26618 1.66262
#
# Static dielectric constant tensor:
#      x y z
#    x 1.670570 0.000000 0.000000 
#    y 0.000000 1.714560 0.000000 
#    z 0.000000 0.000000 1.706500 
# 
# From -- ./inp_files/4672.got.cif
#   From: 2010.05.17/outbox.cif.g08.bks.cpg/sg58_3_cif.got.tgz:4672.got - 2010.06.03 14:20:14.
