data_PCOD9444646
_publ_section_title
;
Structure prediction by ZEFSAII (Michael W. Deem and Ramdas Pophale) SiO2 
 PCOD9444646
Probable space group: P N N M
;
_chemical_formula_sum "Si O2"
_cell_formula_units_Z 56
_cell_length_a 15.801450
_cell_length_b 21.330595
_cell_length_c 8.733816
_cell_angle_alpha 90.000000
_cell_angle_beta 90.000000
_cell_angle_gamma 90.000000
_cell_volume 2943.770503
_symmetry_space_group_name_H-M "P N N M"
_symmetry_group_IT_number 58
_symmetry_cell_setting 'orthorhombic'
loop_
_space_group_symop_operation_xyz
x,y,z
-x,-y,z
1/2+x,1/2-y,1/2-z
1/2-x,1/2+y,1/2-z
-x,-y,-z
x,y,-z
1/2-x,1/2+y,1/2+z
1/2+x,1/2-y,1/2+z
loop_
_atom_site_type_symbol
_atom_site_label
_atom_site_fract_x
_atom_site_fract_y
_atom_site_fract_z
Si Si1 0.873229 0.471010 0.823057
Si Si2 0.359825 0.785745 0.314330
Si Si3 0.209355 0.971781 0.822692
Si Si4 0.072779 0.050751 0.331065
Si Si5 0.818430 0.172121 0.185525
Si Si6 0.004015 0.188754 0.316663
Si Si7 0.475578 0.898941 0.321985
O O1 0.788582 0.491251 0.743355
O O2 0.926597 0.535415 0.821737
O O3 0.932410 0.415983 0.754527
O O4 0.856464 0.455186 0.000000
O O5 0.352818 0.785936 0.500000
O O6 0.265026 0.790994 0.245529
O O7 0.421557 0.730090 0.259220
O O8 0.413044 0.846897 0.258367
O O9 0.192719 0.901144 0.759831
O O10 0.133687 0.019319 0.790524
O O11 0.223398 0.961805 0.000000
O O12 0.114918 0.056994 0.500000
O O13 0.032050 0.116896 0.290532
O O14 0.000000 0.000000 0.346522
O O15 0.909181 0.196676 0.248175
O O16 0.820516 0.174270 0.000000
O O17 0.001310 0.199935 0.500000
O O18 0.489894 0.881275 0.500000
#
# Coordination Sequence:
#
# PCOD9444646 Si02
#       7
#     8   8   8   8   8   8   8
#     4   9  16  32  56  82 114 152 199 242 286 350
#     4  11  22  40  65  91 122 162 207 253 305 368
#     4  11  22  34  56  90 123 151 190 247 303 353
#     4  10  21  39  63  87 113 151 198 246 302 368
#     4  11  23  40  63  91 121 159 203 247 303 369
#     4  11  24  43  65  90 120 157 204 258 311 366
#     4   8  16  31  56  85 112 151 196 240 286 344
#
# _framework density 19.023222000000001
#
# number of rings (size 3 to 8) (size 9 to 14) (size 15 to 20)
#    0.000    1.857    2.857    2.571    0.000    2.571 
#    2.571    2.857    0.000    0.000    0.000    0.000 
#    0.000    0.000    0.000    0.000    0.000    0.000 
#
# Total GULP energy -311858.855711 kJ/mol
# GULP energy per Si atom -5568.908138 kJ/mol
# Density = 1.897992 g / cm^3
# Si number density = 19.023222 Si / 1000 Ang^3
#
#
#
# Elastic Constant Matrix: (Units=GPa)
#
#
# Indices 1 2 3 4 5 6 
#
# 1 129.7929 40.5446 46.5281 0.0000 0.0000 0.0000
# 2 40.5446 67.2992 17.7159 0.0000 0.0000 0.0000
# 3 46.5281 17.7159 52.9385 0.0000 0.0000 0.0000
# 4 0.0000 0.0000 0.0000 26.5376 0.0000 0.0000
# 5 0.0000 0.0000 0.0000 0.0000 49.6578 0.0000
# 6 0.0000 0.0000 0.0000 0.0000 0.0000 27.4290
#
#
#
# Elastic Compliance Matrix: (Units=1/GPa)
#
#
# Indices 1 2 3 4 5 6 
#
# 1 0.012701 -0.005168 -0.009433 0.000000 0.000000 0.000000
# 2 -0.005168 0.018398 -0.001614 0.000000 0.000000 0.000000
# 3 -0.009433 -0.001614 0.027721 0.000000 0.000000 0.000000
# 4 0.000000 0.000000 0.000000 0.037682 0.000000 0.000000
# 5 0.000000 0.000000 0.000000 0.000000 0.020138 0.000000
# 6 0.000000 0.000000 0.000000 0.000000 0.000000 0.036458
#
#
# Mechanical properties :
#
#
# Convention : Reuss Voigt Hill
#
# Bulk Modulus (GPa) = 37.89643 51.06753 44.48198
# Shear Modulus (GPa) = 25.73017 30.40769 28.06893
#
# Velocity S-wave (km/s) = 3.68171 4.00240 3.84540
# Velocity P-wave (km/s) = 6.16748 6.94709 6.56886
#
# Compressibility (1/GPa) = 0.02638771
#
# Stress axis : x y z
#
# Youngs Moduli (GPa) = 78.73621 54.35469 36.07391
#
# Poissons Ratio (x) = 0.28092 0.34029
# Poissons Ratio (y) = 0.40694 0.05823
# Poissons Ratio (z) = 0.74273 0.08774
#
# Static dielectric constant tensor:
#      x y z
#    x 1.658390 0.000000 0.000000 
#    y 0.000000 1.669030 0.000000 
#    z 0.000000 0.000000 1.690130 
# 
# From -- ./inp_files/6340.got.cif
#   From: 2010.05.17/outbox.cif.g08.bks.cpg/sg58_4_cif.got.tgz:6340.got - 2010.06.03 14:20:14.
