data_PCOD9444334
_publ_section_title
;
Structure prediction by ZEFSAII (Michael W. Deem and Ramdas Pophale) SiO2 
 PCOD9444334
Probable space group: P N N M
;
_chemical_formula_sum "Si O2"
_cell_formula_units_Z 48
_cell_length_a 18.334264
_cell_length_b 15.892802
_cell_length_c 8.601394
_cell_angle_alpha 90.000000
_cell_angle_beta 90.000000
_cell_angle_gamma 90.000000
_cell_volume 2506.298505
_symmetry_space_group_name_H-M "P N N M"
_symmetry_group_IT_number 58
_symmetry_cell_setting 'orthorhombic'
loop_
_space_group_symop_operation_xyz
x,y,z
-x,-y,z
1/2+x,1/2-y,1/2-z
1/2-x,1/2+y,1/2-z
-x,-y,-z
x,y,-z
1/2-x,1/2+y,1/2+z
1/2+x,1/2-y,1/2+z
loop_
_atom_site_type_symbol
_atom_site_label
_atom_site_fract_x
_atom_site_fract_y
_atom_site_fract_z
Si Si1 0.958237 0.584792 0.313616
Si Si2 0.544288 0.417228 0.312086
Si Si3 0.959574 0.251709 0.811998
Si Si4 0.205626 0.417522 0.186536
Si Si5 0.290224 0.255625 0.311881
Si Si6 0.208173 0.084939 0.312258
O O1 0.956095 0.586327 0.500000
O O2 0.876238 0.584864 0.250225
O O3 0.000000 0.500000 0.263042
O O4 0.001204 0.666261 0.253987
O O5 0.500000 0.500000 0.261158
O O6 0.546546 0.418005 0.500000
O O7 0.502122 0.332661 0.263269
O O8 0.626290 0.417809 0.250315
O O9 0.874932 0.247425 0.764737
O O10 0.961686 0.255929 0.000000
O O11 0.250041 0.336770 0.244711
O O12 0.246647 0.502752 0.237934
O O13 0.203053 0.416971 0.000000
O O14 0.287848 0.260249 0.500000
O O15 0.248939 0.170393 0.263199
O O16 0.205862 0.084721 0.500000
#
# Coordination Sequence:
#
# PCOD9444334 Si02
#       6
#     8   8   8   8   8   8
#     4  11  24  40  59  85 116 151 192 239 290 341
#     4  10  21  37  58  84 113 148 189 230 276 333
#     4  10  21  38  61  87 116 153 192 232 283 341
#     4  11  23  39  60  86 115 150 193 237 285 342
#     4  10  21  39  61  85 116 152 189 232 284 339
#     4  10  22  38  57  83 114 149 187 230 282 336
#
# _framework density 19.151748000000001
#
# number of rings (size 3 to 8) (size 9 to 14) (size 15 to 20)
#    0.000    1.667    0.000    4.000    0.000   10.333 
#    0.000    0.000    0.000    0.000    0.000    0.000 
#    0.000    0.000    0.000    0.000    0.000    0.000 
#
# Total GULP energy -268391.989294 kJ/mol
# GULP energy per Si atom -5591.499777 kJ/mol
# Density = 1.910816 g / cm^3
# Si number density = 19.151748 Si / 1000 Ang^3
#
#
#
# Elastic Constant Matrix: (Units=GPa)
#
#
# Indices 1 2 3 4 5 6 
#
# 1 217.7129 125.9800 40.4633 0.0000 0.0000 0.0000
# 2 125.9800 219.8784 43.0719 0.0000 0.0000 0.0000
# 3 40.4633 43.0719 16.0783 0.0000 0.0000 0.0000
# 4 0.0000 0.0000 0.0000 44.9592 0.0000 0.0000
# 5 0.0000 0.0000 0.0000 0.0000 40.3565 0.0000
# 6 0.0000 0.0000 0.0000 0.0000 0.0000 46.3396
#
#
#
# Elastic Compliance Matrix: (Units=1/GPa)
#
#
# Indices 1 2 3 4 5 6 
#
# 1 0.008856 -0.001490 -0.018294 0.000000 0.000000 0.000000
# 2 -0.001490 0.009821 -0.022558 0.000000 0.000000 0.000000
# 3 -0.018294 -0.022558 0.168667 0.000000 0.000000 0.000000
# 4 0.000000 0.000000 0.000000 0.022242 0.000000 0.000000
# 5 0.000000 0.000000 0.000000 0.000000 0.024779 0.000000
# 6 0.000000 0.000000 0.000000 0.000000 0.000000 0.021580
#
#
# Mechanical properties :
#
#
# Convention : Reuss Voigt Hill
#
# Bulk Modulus (GPa) = 9.74113 96.96665 53.35389
# Shear Modulus (GPa) = 13.33870 42.60804 27.97337
#
# Velocity S-wave (km/s) = 2.64194 4.72185 3.82595
# Velocity P-wave (km/s) = 3.79524 8.97042 6.88739
#
# Compressibility (1/GPa) = 0.10265746
#
# Stress axis : x y z
#
# Youngs Moduli (GPa) = 112.92255 101.82598 5.92885
#
# Poissons Ratio (x) = 0.15174 0.10846
# Poissons Ratio (y) = 0.16827 0.13374
# Poissons Ratio (z) = 2.06585 2.29701
#
# Static dielectric constant tensor:
#      x y z
#    x 1.619370 0.000000 0.000000 
#    y 0.000000 1.642650 0.000000 
#    z 0.000000 0.000000 1.656750 
# 
# From -- ./inp_files/5755.got.cif
#   From: 2010.05.17/outbox.cif.g08.bks.cpg/sg58_3_cif.got.tgz:5755.got - 2010.06.03 14:20:14.
