data_PCOD9444368
_publ_section_title
;
Structure prediction by ZEFSAII (Michael W. Deem and Ramdas Pophale) SiO2 
 PCOD9444368
Probable space group: P N N M
;
_chemical_formula_sum "Si O2"
_cell_formula_units_Z 32
_cell_length_a 8.672645
_cell_length_b 16.546642
_cell_length_c 10.751229
_cell_angle_alpha 90.000000
_cell_angle_beta 90.000000
_cell_angle_gamma 90.000000
_cell_volume 1542.835249
_symmetry_space_group_name_H-M "P N N M"
_symmetry_group_IT_number 58
_symmetry_cell_setting 'orthorhombic'
loop_
_space_group_symop_operation_xyz
x,y,z
-x,-y,z
1/2+x,1/2-y,1/2-z
1/2-x,1/2+y,1/2-z
-x,-y,-z
x,y,-z
1/2-x,1/2+y,1/2+z
1/2+x,1/2-y,1/2+z
loop_
_atom_site_type_symbol
_atom_site_label
_atom_site_fract_x
_atom_site_fract_y
_atom_site_fract_z
Si Si1 0.363701 0.443663 0.781020
Si Si2 0.542509 0.116237 0.638384
Si Si3 0.957765 0.807859 0.858518
Si Si4 0.818872 0.426028 0.359797
O O1 0.500000 0.500000 0.836833
O O2 0.213965 0.420410 0.859324
O O3 0.562413 0.639409 0.732687
O O4 0.294497 0.498779 0.669107
O O5 0.475037 0.102491 0.500000
O O6 0.548046 0.212496 0.661702
O O7 0.442961 0.080684 0.750820
O O8 0.788229 0.846685 0.850437
O O9 0.013303 0.821455 0.000000
O O10 0.880893 0.430607 0.500000
#
# Coordination Sequence:
#
# PCOD9444368 Si02
#       4
#     8   8   8   8
#     4  10  21  37  59  86 116 151 192 239 288 339
#     4  11  23  38  58  86 121 156 190 235 289 346
#     4   9  19  38  61  86 115 149 194 244 291 338
#     4  10  21  38  61  87 115 151 196 243 288 338
#
# _framework density 20.741033999999999
#
# number of rings (size 3 to 8) (size 9 to 14) (size 15 to 20)
#    0.000    2.000    0.000    3.000    0.000    8.500 
#    0.000    5.000    0.000    0.000    0.000    0.000 
#    0.000    0.000    0.000    0.000    0.000    0.000 
#
# Total GULP energy -178626.686514 kJ/mol
# GULP energy per Si atom -5582.083954 kJ/mol
# Density = 2.069383 g / cm^3
# Si number density = 20.741034 Si / 1000 Ang^3
#
#
#
# Elastic Constant Matrix: (Units=GPa)
#
#
# Indices 1 2 3 4 5 6 
#
# 1 95.0485 33.3538 58.7619 0.0000 0.0000 0.0000
# 2 33.3538 126.9028 40.5043 0.0000 0.0000 0.0000
# 3 58.7619 40.5043 130.1469 0.0000 0.0000 0.0000
# 4 0.0000 0.0000 0.0000 22.6643 0.0000 0.0000
# 5 0.0000 0.0000 0.0000 0.0000 25.4815 0.0000
# 6 0.0000 0.0000 0.0000 0.0000 0.0000 31.7528
#
#
#
# Elastic Compliance Matrix: (Units=1/GPa)
#
#
# Indices 1 2 3 4 5 6 
#
# 1 0.015031 -0.001981 -0.006170 0.000000 0.000000 0.000000
# 2 -0.001981 0.009010 -0.001910 0.000000 0.000000 0.000000
# 3 -0.006170 -0.001910 0.011064 0.000000 0.000000 0.000000
# 4 0.000000 0.000000 0.000000 0.044122 0.000000 0.000000
# 5 0.000000 0.000000 0.000000 0.000000 0.039244 0.000000
# 6 0.000000 0.000000 0.000000 0.000000 0.000000 0.031493
#
#
# Mechanical properties :
#
#
# Convention : Reuss Voigt Hill
#
# Bulk Modulus (GPa) = 66.74157 68.59315 67.66736
# Shear Modulus (GPa) = 28.55841 30.61160 29.58501
#
# Velocity S-wave (km/s) = 3.71469 3.84591 3.78087
# Velocity P-wave (km/s) = 7.11667 7.27079 7.19414
#
# Compressibility (1/GPa) = 0.01498316
#
# Stress axis : x y z
#
# Youngs Moduli (GPa) = 66.53132 110.98431 90.38631
#
# Poissons Ratio (x) = 0.21988 0.55766
# Poissons Ratio (y) = 0.13181 0.17261
# Poissons Ratio (z) = 0.41048 0.21194
#
# Static dielectric constant tensor:
#      x y z
#    x 1.751090 0.000000 0.000000 
#    y 0.000000 1.736480 0.000000 
#    z 0.000000 0.000000 1.715720 
# 
# From -- ./inp_files/12356.got.cif
#   From: 2010.05.17/outbox.cif.g08.bks.cpg/sg58_7_cif.got.tgz:12356.got - 2010.06.03 14:20:14.
