data_PCOD9444281
_publ_section_title
;
Structure prediction by ZEFSAII (Michael W. Deem and Ramdas Pophale) SiO2 
 PCOD9444281
Probable space group: P N N M
;
_chemical_formula_sum "Si O2"
_cell_formula_units_Z 56
_cell_length_a 20.889384
_cell_length_b 11.440673
_cell_length_c 13.408541
_cell_angle_alpha 90.000000
_cell_angle_beta 90.000000
_cell_angle_gamma 90.000000
_cell_volume 3204.488596
_symmetry_space_group_name_H-M "P N N M"
_symmetry_group_IT_number 58
_symmetry_cell_setting 'orthorhombic'
loop_
_space_group_symop_operation_xyz
x,y,z
-x,-y,z
1/2+x,1/2-y,1/2-z
1/2-x,1/2+y,1/2-z
-x,-y,-z
x,y,-z
1/2-x,1/2+y,1/2+z
1/2+x,1/2-y,1/2+z
loop_
_atom_site_type_symbol
_atom_site_label
_atom_site_fract_x
_atom_site_fract_y
_atom_site_fract_z
Si Si1 0.905149 0.911007 0.110563
Si Si2 0.449489 0.328714 0.390694
Si Si3 0.749276 0.640921 0.617626
Si Si4 0.161254 0.269116 0.214498
Si Si5 0.426639 0.964520 0.382745
Si Si6 0.229626 0.631197 0.615755
Si Si7 0.641656 0.817195 0.296967
O O1 0.871642 0.857673 0.206983
O O2 0.976551 0.859672 0.110715
O O3 0.912325 0.049089 0.112082
O O4 0.876583 0.880150 0.000000
O O5 0.436256 0.272523 0.500000
O O6 0.425161 0.252155 0.299961
O O7 0.758661 0.656839 0.500000
O O8 0.809758 0.682740 0.683601
O O9 0.741274 0.500254 0.633426
O O10 0.691947 0.727015 0.652490
O O11 0.107583 0.355572 0.171142
O O12 0.222316 0.237740 0.143910
O O13 0.430341 0.938520 0.500000
O O14 0.500000 0.000000 0.352060
O O15 0.376776 0.069198 0.360690
O O16 0.212038 0.637119 0.500000
O O17 0.170700 0.645162 0.691824
#
# Coordination Sequence:
#
# PCOD9444281 Si02
#       7
#     8   8   8   8   8   8   8
#     4   9  17  30  51  78 105 134 170 213 261 316
#     4   9  17  30  51  78 105 134 170 213 261 316
#     4  10  21  37  55  74 102 139 181 225 258 305
#     4  11  20  33  54  78 103 139 175 213 266 320
#     4  11  22  34  51  81 117 143 167 214 276 330
#     4  10  21  37  55  74 102 139 181 225 258 305
#     4  11  20  33  54  78 103 139 175 213 266 320
#
# _framework density 17.475487999999999
#
# number of rings (size 3 to 8) (size 9 to 14) (size 15 to 20)
#    0.000    1.857    1.429    5.143    0.000    4.571 
#    0.000    0.000    0.000    4.286    0.000    2.000 
#    0.000    0.000    0.000    0.000    0.000    0.000 
#
# Total GULP energy -311755.279350 kJ/mol
# GULP energy per Si atom -5567.058560 kJ/mol
# Density = 1.743571 g / cm^3
# Si number density = 17.475488 Si / 1000 Ang^3
#
#
#
# Elastic Constant Matrix: (Units=GPa)
#
#
# Indices 1 2 3 4 5 6 
#
# 1 55.9782 20.0540 35.2844 0.0000 0.0000 0.0000
# 2 20.0540 72.0120 40.1249 0.0000 0.0000 0.0000
# 3 35.2844 40.1249 87.2544 0.0000 0.0000 0.0000
# 4 0.0000 0.0000 0.0000 26.9251 0.0000 0.0000
# 5 0.0000 0.0000 0.0000 0.0000 24.7843 0.0000
# 6 0.0000 0.0000 0.0000 0.0000 0.0000 42.7832
#
#
#
# Elastic Compliance Matrix: (Units=1/GPa)
#
#
# Indices 1 2 3 4 5 6 
#
# 1 0.024134 -0.001725 -0.008966 0.000000 0.000000 0.000000
# 2 -0.001725 0.018794 -0.007945 0.000000 0.000000 0.000000
# 3 -0.008966 -0.007945 0.018740 0.000000 0.000000 0.000000
# 4 0.000000 0.000000 0.000000 0.037140 0.000000 0.000000
# 5 0.000000 0.000000 0.000000 0.000000 0.040348 0.000000
# 6 0.000000 0.000000 0.000000 0.000000 0.000000 0.023374
#
#
# Mechanical properties :
#
#
# Convention : Reuss Voigt Hill
#
# Bulk Modulus (GPa) = 40.99107 45.13013 43.06060
# Shear Modulus (GPa) = 24.04619 26.88394 25.46506
#
# Velocity S-wave (km/s) = 3.71347 3.92647 3.82145
# Velocity P-wave (km/s) = 6.47253 6.81448 6.64571
#
# Compressibility (1/GPa) = 0.02439556
#
# Stress axis : x y z
#
# Youngs Moduli (GPa) = 41.43608 53.20877 53.36161
#
# Poissons Ratio (x) = 0.09178 0.47844
# Poissons Ratio (y) = 0.07147 0.42396
# Poissons Ratio (z) = 0.37152 0.42275
#
# Static dielectric constant tensor:
#      x y z
#    x 1.657640 0.000000 0.000000 
#    y 0.000000 1.660740 0.000000 
#    z 0.000000 0.000000 1.572560 
# 
# From -- ./inp_files/17016.got.cif
#   From: 2010.05.17/outbox.cif.g08.bks.cpg/sg58_9_cif.got.tgz:17016.got - 2010.06.03 14:20:14.
