data_PCOD9444115
_publ_section_title
;
Structure prediction by ZEFSAII (Michael W. Deem and Ramdas Pophale) SiO2 
 PCOD9444115
Probable space group: P N N M
;
_chemical_formula_sum "Si O2"
_cell_formula_units_Z 32
_cell_length_a 16.633512
_cell_length_b 5.118560
_cell_length_c 18.440464
_cell_angle_alpha 90.000000
_cell_angle_beta 90.000000
_cell_angle_gamma 90.000000
_cell_volume 1570.014267
_symmetry_space_group_name_H-M "P N N M"
_symmetry_group_IT_number 58
_symmetry_cell_setting 'orthorhombic'
loop_
_space_group_symop_operation_xyz
x,y,z
-x,-y,z
1/2+x,1/2-y,1/2-z
1/2-x,1/2+y,1/2-z
-x,-y,-z
x,y,-z
1/2-x,1/2+y,1/2+z
1/2+x,1/2-y,1/2+z
loop_
_atom_site_type_symbol
_atom_site_label
_atom_site_fract_x
_atom_site_fract_y
_atom_site_fract_z
Si Si1 0.000000 0.000000 0.195929
Si Si2 0.000000 0.500000 0.298169
Si Si3 0.225817 0.438821 0.845196
Si Si4 0.578561 0.813724 0.418372
Si Si5 0.324277 0.941485 0.176515
O O1 0.988526 0.752748 0.247196
O O2 0.070753 0.914835 0.141243
O O3 0.916118 0.485457 0.340358
O O4 0.156776 0.518749 0.900575
O O5 0.263913 0.155961 0.855355
O O6 0.187628 0.456303 0.764124
O O7 0.296401 0.654879 0.846661
O O8 0.579870 0.710378 0.500000
O O9 0.500000 0.000000 0.410727
#
# Coordination Sequence:
#
# PCOD9444115 Si02
#       5
#     4   4   8   8   8
#     4  12  21  36  56  84 118 152 195 232 272 346
#     4  12  22  36  63  86 113 156 190 236 302 344
#     4  10  21  36  53  81 114 146 188 234 282 333
#     4  11  24  39  58  84 119 163 197 226 275 348
#     4  10  21  35  56  81 111 145 188 237 288 340
#
# _framework density 20.381979999999999
#
# number of rings (size 3 to 8) (size 9 to 14) (size 15 to 20)
#    0.000    1.250    3.750    1.875   10.500    0.000 
#    0.000    0.000    0.000    0.000    0.000    5.250 
#    0.000    0.000    0.000    0.000    0.000    0.000 
#
# Total GULP energy -178927.310334 kJ/mol
# GULP energy per Si atom -5591.478448 kJ/mol
# Density = 2.033559 g / cm^3
# Si number density = 20.381980 Si / 1000 Ang^3
#
#
#
# Elastic Constant Matrix: (Units=GPa)
#
#
# Indices 1 2 3 4 5 6 
#
# 1 107.6189 -7.7604 4.2178 0.0000 0.0000 0.0000
# 2 -7.7604 82.4599 1.8636 0.0000 0.0000 0.0000
# 3 4.2178 1.8636 22.1761 0.0000 0.0000 0.0000
# 4 0.0000 0.0000 0.0000 -3.4108 0.0000 0.0000
# 5 0.0000 0.0000 0.0000 0.0000 2.9990 0.0000
# 6 0.0000 0.0000 0.0000 0.0000 0.0000 25.3139
#
#
#
# Elastic Compliance Matrix: (Units=1/GPa)
#
#
# Indices 1 2 3 4 5 6 
#
# 1 0.009432 0.000930 -0.001872 0.000000 0.000000 0.000000
# 2 0.000930 0.012242 -0.001206 0.000000 0.000000 0.000000
# 3 -0.001872 -0.001206 0.045551 0.000000 0.000000 0.000000
# 4 0.000000 0.000000 0.000000 -0.293188 0.000000 0.000000
# 5 0.000000 0.000000 0.000000 0.000000 0.333445 0.000000
# 6 0.000000 0.000000 0.000000 0.000000 0.000000 0.039504
#
#
# Mechanical properties :
#
#
# Convention : Reuss Voigt Hill
#
# Bulk Modulus (GPa) = 15.89076 23.21077 19.55076
# Shear Modulus (GPa) = 29.02621 19.24268 24.13444
#
# Velocity S-wave (km/s) = 3.77783 3.07596 3.44482
# Velocity P-wave (km/s) = 5.18100 4.90183 5.04335
#
# Compressibility (1/GPa) = 0.06292967
#
# Stress axis : x y z
#
# Youngs Moduli (GPa) = 106.01660 81.68681 21.95347
#
# Poissons Ratio (x) = -0.07597 0.04110
# Poissons Ratio (y) = -0.09860 0.02647
# Poissons Ratio (z) = 0.19848 0.09849
#
# Static dielectric constant tensor:
#      x y z
#    x 1.770130 0.000000 0.000000 
#    y 0.000000 1.751200 0.000000 
#    z 0.000000 0.000000 1.687040 
# 
# From -- ./inp_files/26584.got.cif
#   From: 2010.05.17/outbox.cif.g08.bks.cpg/sg58_14_cif.got.tgz:26584.got - 2010.06.03 14:20:14.
