data_PCOD9444612
_publ_section_title
;
Structure prediction by ZEFSAII (Michael W. Deem and Ramdas Pophale) SiO2 
 PCOD9444612
Probable space group: P N N M
;
_chemical_formula_sum "Si O2"
_cell_formula_units_Z 64
_cell_length_a 11.755967
_cell_length_b 7.912283
_cell_length_c 29.329928
_cell_angle_alpha 90.000000
_cell_angle_beta 90.000000
_cell_angle_gamma 90.000000
_cell_volume 2728.168358
_symmetry_space_group_name_H-M "P N N M"
_symmetry_group_IT_number 58
_symmetry_cell_setting 'orthorhombic'
loop_
_space_group_symop_operation_xyz
x,y,z
-x,-y,z
1/2+x,1/2-y,1/2-z
1/2-x,1/2+y,1/2-z
-x,-y,-z
x,y,-z
1/2-x,1/2+y,1/2+z
1/2+x,1/2-y,1/2+z
loop_
_atom_site_type_symbol
_atom_site_label
_atom_site_fract_x
_atom_site_fract_y
_atom_site_fract_z
Si Si1 0.518407 0.801541 0.547479
Si Si2 0.354030 0.792540 0.209967
Si Si3 0.181256 0.954362 0.851568
Si Si4 0.786548 0.555101 0.806055
Si Si5 0.939875 0.184852 0.348939
Si Si6 0.534432 0.237681 0.353484
Si Si7 0.998646 0.204775 0.449047
Si Si8 0.753263 0.627790 0.550247
O O1 0.474881 0.726530 0.500000
O O2 0.460629 0.734568 0.592310
O O3 0.652390 0.766178 0.549442
O O4 0.500000 0.000000 0.547491
O O5 0.293263 0.922410 0.176452
O O6 0.280364 0.618660 0.205623
O O7 0.338687 0.866863 0.260030
O O8 0.480129 0.769405 0.189576
O O9 0.219868 0.970721 0.904080
O O10 0.095408 0.794072 0.843908
O O11 0.110585 0.111632 0.833375
O O12 0.686036 0.661528 0.829969
O O13 0.895047 0.570215 0.840151
O O14 0.940358 0.256056 0.400926
O O15 0.000000 0.000000 0.353728
O O16 0.955472 0.258441 0.500000
O O17 0.125748 0.280199 0.444968
O O18 0.000000 0.000000 0.450309
O O19 0.751086 0.544255 0.500000
#
# Coordination Sequence:
#
# PCOD9444612 Si02
#       8
#     8   8   8   8   8   8   8   8
#     4   9  19  33  54  86 125 159 196 250 303 356
#     4  11  23  42  64  85 120 156 202 247 311 359
#     4  10  21  39  60  86 120 161 195 254 295 356
#     4  11  25  41  63  90 117 156 199 251 305 369
#     4   9  20  38  59  87 122 154 192 249 300 351
#     4  10  23  38  59  88 122 155 204 242 304 358
#     4   9  16  29  54  86 117 152 198 243 293 355
#     4   9  17  31  55  85 115 157 204 241 289 359
#
# _framework density 23.458964000000002
#
# number of rings (size 3 to 8) (size 9 to 14) (size 15 to 20)
#    0.000    2.250    1.250    0.750    5.250    0.500 
#    0.000    5.000    0.000    0.000    0.000    1.750 
#    0.000    0.000    0.000    0.000    0.000    0.000 
#
# Total GULP energy -356942.472254 kJ/mol
# GULP energy per Si atom -5577.226129 kJ/mol
# Density = 2.340557 g / cm^3
# Si number density = 23.458964 Si / 1000 Ang^3
#
#
#
# Elastic Constant Matrix: (Units=GPa)
#
#
# Indices 1 2 3 4 5 6 
#
# 1 114.2642 2.6789 43.4427 0.0000 0.0000 0.0000
# 2 2.6789 31.4512 -20.1406 0.0000 0.0000 0.0000
# 3 43.4427 -20.1406 135.8185 0.0000 0.0000 0.0000
# 4 0.0000 0.0000 0.0000 -44.0915 0.0000 0.0000
# 5 0.0000 0.0000 0.0000 0.0000 25.9037 0.0000
# 6 0.0000 0.0000 0.0000 0.0000 0.0000 33.6764
#
#
#
# Elastic Compliance Matrix: (Units=1/GPa)
#
#
# Indices 1 2 3 4 5 6 
#
# 1 0.010262 -0.003288 -0.003770 0.000000 0.000000 0.000000
# 2 -0.003288 0.036185 0.006418 0.000000 0.000000 0.000000
# 3 -0.003770 0.006418 0.009520 0.000000 0.000000 0.000000
# 4 0.000000 0.000000 0.000000 -0.022680 0.000000 0.000000
# 5 0.000000 0.000000 0.000000 0.000000 0.038605 0.000000
# 6 0.000000 0.000000 0.000000 0.000000 0.000000 0.029694
#
#
# Mechanical properties :
#
#
# Convention : Reuss Voigt Hill
#
# Bulk Modulus (GPa) = 18.28614 37.05509 27.67062
# Shear Modulus (GPa) = 41.28941 20.13458 30.71200
#
# Velocity S-wave (km/s) = 4.19987 2.93284 3.62218
# Velocity P-wave (km/s) = 5.59736 5.22482 5.41429
#
# Compressibility (1/GPa) = 0.05468622
#
# Stress axis : x y z
#
# Youngs Moduli (GPa) = 97.44600 27.63567 105.03835
#
# Poissons Ratio (x) = 0.09088 0.39600
# Poissons Ratio (y) = 0.32043 -0.67411
# Poissons Ratio (z) = 0.36738 -0.17736
#
# Static dielectric constant tensor:
#      x y z
#    x 1.777080 0.000000 0.000000 
#    y 0.000000 1.894960 0.000000 
#    z 0.000000 0.000000 1.945790 
# 
# From -- ./inp_files/34969.got.cif
#   From: 2010.05.17/outbox.cif.g08.bks.cpg/sg58_18_cif.got.tgz:34969.got - 2010.06.03 14:20:14.
