data_PCOD9444859
_publ_section_title
;
Structure prediction by ZEFSAII (Michael W. Deem and Ramdas Pophale) SiO2 
 PCOD9444859
Probable space group: P N N M
;
_chemical_formula_sum "Si O2"
_cell_formula_units_Z 26
_cell_length_a 4.957955
_cell_length_b 16.442706
_cell_length_c 12.618221
_cell_angle_alpha 90.000000
_cell_angle_beta 90.000000
_cell_angle_gamma 90.000000
_cell_volume 1028.665091
_symmetry_space_group_name_H-M "P N N M"
_symmetry_group_IT_number 58
_symmetry_cell_setting 'orthorhombic'
loop_
_space_group_symop_operation_xyz
x,y,z
-x,-y,z
1/2+x,1/2-y,1/2-z
1/2-x,1/2+y,1/2-z
-x,-y,-z
x,y,-z
1/2-x,1/2+y,1/2+z
1/2+x,1/2-y,1/2+z
loop_
_atom_site_type_symbol
_atom_site_label
_atom_site_fract_x
_atom_site_fract_y
_atom_site_fract_z
Si Si1 0.352162 0.418159 0.350088
Si Si2 0.000000 0.500000 0.500000
Si Si3 0.077415 0.746212 0.178639
Si Si4 0.821583 0.581400 0.113855
O O1 0.500000 0.500000 0.389180
O O2 0.472673 0.331376 0.380012
O O3 0.344056 0.419639 0.222839
O O4 0.067099 0.431821 0.406302
O O5 0.384629 0.750224 0.217826
O O6 0.003380 0.662641 0.122289
O O7 0.000000 0.500000 0.116161
O O8 0.675048 0.583954 0.000000
#
# Coordination Sequence:
#
# PCOD9444859 Si02
#       4
#     8   2   8   8
#     4  11  24  44  70 101 142 182 243 295 361 425
#     4  12  26  44  70 102 134 198 238 310 350 434
#     4  10  23  43  70 102 142 185 230 289 350 428
#     4  10  21  42  70 100 137 180 227 287 354 425
#
# _framework density 25.275476000000001
#
# number of rings (size 3 to 8) (size 9 to 14) (size 15 to 20)
#    0.000    1.538    1.538    2.308    6.462    0.615 
#    0.000    9.231    0.000    0.000    0.000    0.000 
#    0.000    0.000    0.000    0.000    0.000    0.000 
#
# Total GULP energy -144768.973428 kJ/mol
# GULP energy per Si atom -5568.037440 kJ/mol
# Density = 2.521795 g / cm^3
# Si number density = 25.275476 Si / 1000 Ang^3
#
#
#
# Elastic Constant Matrix: (Units=GPa)
#
#
# Indices 1 2 3 4 5 6 
#
# 1 30.0749 29.7053 -0.8895 0.0000 0.0000 0.0000
# 2 29.7053 278.1766 30.4340 0.0000 0.0000 0.0000
# 3 -0.8895 30.4340 201.3701 0.0000 0.0000 0.0000
# 4 0.0000 0.0000 0.0000 -87.6536 0.0000 0.0000
# 5 0.0000 0.0000 0.0000 0.0000 76.5285 0.0000
# 6 0.0000 0.0000 0.0000 0.0000 0.0000 53.7277
#
#
#
# Elastic Compliance Matrix: (Units=1/GPa)
#
#
# Indices 1 2 3 4 5 6 
#
# 1 0.037291 -0.004067 0.000779 0.000000 0.000000 0.000000
# 2 -0.004067 0.004099 -0.000637 0.000000 0.000000 0.000000
# 3 0.000779 -0.000637 0.005066 0.000000 0.000000 0.000000
# 4 0.000000 0.000000 0.000000 -0.011409 0.000000 0.000000
# 5 0.000000 0.000000 0.000000 0.000000 0.013067 0.000000
# 6 0.000000 0.000000 0.000000 0.000000 0.000000 0.018612
#
#
# Mechanical properties :
#
#
# Convention : Reuss Voigt Hill
#
# Bulk Modulus (GPa) = 25.90358 69.79122 47.84740
# Shear Modulus (GPa) = 57.17852 38.54530 47.86191
#
# Velocity S-wave (km/s) = 4.76143 3.90937 4.35628
# Velocity P-wave (km/s) = 6.36389 6.93179 6.65390
#
# Compressibility (1/GPa) = 0.03860471
#
# Stress axis : x y z
#
# Youngs Moduli (GPa) = 26.81624 243.96664 197.40351
#
# Poissons Ratio (x) = 0.99231 -0.15387
# Poissons Ratio (y) = 0.10907 0.12584
# Poissons Ratio (z) = -0.02090 0.15552
#
# Static dielectric constant tensor:
#      x y z
#    x 2.241840 0.000000 0.000000 
#    y 0.000000 2.006050 0.000000 
#    z 0.000000 0.000000 1.965510 
# 
# From -- ./inp_files/11378.got.cif
#   From: 2010.05.17/outbox.cif.g08.bks.cpg/sg58_6_cif.got.tgz:11378.got - 2010.06.03 14:20:14.
