data_PCOD9444626
_publ_section_title
;
Structure prediction by ZEFSAII (Michael W. Deem and Ramdas Pophale) SiO2 
 PCOD9444626
Probable space group: P N N M
;
_chemical_formula_sum "Si O2"
_cell_formula_units_Z 16
_cell_length_a 8.172002
_cell_length_b 5.015384
_cell_length_c 19.020333
_cell_angle_alpha 90.000000
_cell_angle_beta 90.000000
_cell_angle_gamma 90.000000
_cell_volume 779.562196
_symmetry_space_group_name_H-M "P N N M"
_symmetry_group_IT_number 58
_symmetry_cell_setting 'orthorhombic'
loop_
_space_group_symop_operation_xyz
x,y,z
-x,-y,z
1/2+x,1/2-y,1/2-z
1/2-x,1/2+y,1/2-z
-x,-y,-z
x,y,-z
1/2-x,1/2+y,1/2+z
1/2+x,1/2-y,1/2+z
loop_
_atom_site_type_symbol
_atom_site_label
_atom_site_fract_x
_atom_site_fract_y
_atom_site_fract_z
Si Si1 0.384284 0.257353 0.080105
Si Si2 0.318168 0.615972 0.288210
O O1 0.500000 0.500000 0.103676
O O2 0.240398 0.206779 0.134830
O O3 0.500000 0.000000 0.078653
O O4 0.328552 0.312498 0.000000
O O5 0.500000 0.500000 0.287652
O O6 0.203708 0.374928 0.260795
#
# Coordination Sequence:
#
# PCOD9444626 Si02
#       2
#     8   8
#     4  10  21  39  62  87 119 157 196 242 298 356
#     4  12  24  39  61  89 122 158 201 249 297 353
#
# _framework density 20.524342000000001
#
# number of rings (size 3 to 8) (size 9 to 14) (size 15 to 20)
#    0.000    1.000    0.000    9.000    0.000    1.000 
#    0.000    0.000    0.000   15.000    0.000    0.000 
#    0.000    0.000    0.000    0.000    0.000    0.000 
#
# Total GULP energy -89555.021334 kJ/mol
# GULP energy per Si atom -5597.188833 kJ/mol
# Density = 2.047763 g / cm^3
# Si number density = 20.524342 Si / 1000 Ang^3
#
#
#
# Elastic Constant Matrix: (Units=GPa)
#
#
# Indices 1 2 3 4 5 6 
#
# 1 96.2792 28.3547 59.3531 0.0000 0.0000 0.0000
# 2 28.3547 130.4117 19.3673 0.0000 0.0000 0.0000
# 3 59.3531 19.3673 127.5564 0.0000 0.0000 0.0000
# 4 0.0000 0.0000 0.0000 7.1617 0.0000 0.0000
# 5 0.0000 0.0000 0.0000 0.0000 39.3273 0.0000
# 6 0.0000 0.0000 0.0000 0.0000 0.0000 36.2621
#
#
#
# Elastic Compliance Matrix: (Units=1/GPa)
#
#
# Indices 1 2 3 4 5 6 
#
# 1 0.015215 -0.002309 -0.006729 0.000000 0.000000 0.000000
# 2 -0.002309 0.008195 -0.000170 0.000000 0.000000 0.000000
# 3 -0.006729 -0.000170 0.010997 0.000000 0.000000 0.000000
# 4 0.000000 0.000000 0.000000 0.139632 0.000000 0.000000
# 5 0.000000 0.000000 0.000000 0.000000 0.025428 0.000000
# 6 0.000000 0.000000 0.000000 0.000000 0.000000 0.027577
#
#
# Mechanical properties :
#
#
# Convention : Reuss Voigt Hill
#
# Bulk Modulus (GPa) = 62.53537 63.15527 62.84532
# Shear Modulus (GPa) = 19.93711 33.02837 26.48274
#
# Velocity S-wave (km/s) = 3.12009 4.01587 3.59598
# Velocity P-wave (km/s) = 6.59659 7.23469 6.92299
#
# Compressibility (1/GPa) = 0.01599095
#
# Stress axis : x y z
#
# Youngs Moduli (GPa) = 65.72652 122.02190 90.93788
#
# Poissons Ratio (x) = 0.28171 0.61191
# Poissons Ratio (y) = 0.15174 0.01546
# Poissons Ratio (z) = 0.44227 0.02075
#
# Static dielectric constant tensor:
#      x y z
#    x 1.701240 0.000000 0.000000 
#    y 0.000000 1.745640 0.000000 
#    z 0.000000 0.000000 1.769810 
# 
# From -- ./inp_files/23833.got.cif
#   From: 2010.05.17/outbox.cif.g08.bks.cpg/sg58_12_cif.got.tgz:23833.got - 2010.06.03 14:20:14.
