data_PCOD9444917
_publ_section_title
;
Structure prediction by ZEFSAII (Michael W. Deem and Ramdas Pophale) SiO2 
 PCOD9444917
Probable space group: P N N M
;
_chemical_formula_sum "Si O2"
_cell_formula_units_Z 48
_cell_length_a 8.250306
_cell_length_b 8.845694
_cell_length_c 33.875072
_cell_angle_alpha 90.000000
_cell_angle_beta 90.000000
_cell_angle_gamma 90.000000
_cell_volume 2472.191992
_symmetry_space_group_name_H-M "P N N M"
_symmetry_group_IT_number 58
_symmetry_cell_setting 'orthorhombic'
loop_
_space_group_symop_operation_xyz
x,y,z
-x,-y,z
1/2+x,1/2-y,1/2-z
1/2-x,1/2+y,1/2-z
-x,-y,-z
x,y,-z
1/2-x,1/2+y,1/2+z
1/2+x,1/2-y,1/2+z
loop_
_atom_site_type_symbol
_atom_site_label
_atom_site_fract_x
_atom_site_fract_y
_atom_site_fract_z
Si Si1 0.164276 0.095302 0.092595
Si Si2 0.646489 0.192143 0.119296
Si Si3 0.590990 0.839898 0.731451
Si Si4 0.984799 0.320786 0.854203
Si Si5 0.555193 0.824867 0.956734
Si Si6 0.546842 0.333283 0.197703
O O1 0.117697 0.228720 0.122037
O O2 0.256378 0.165311 0.055261
O O3 0.291560 0.979164 0.112571
O O4 0.000000 0.000000 0.083814
O O5 0.545765 0.239123 0.080458
O O6 0.554834 0.222871 0.160148
O O7 0.813097 0.283390 0.125594
O O8 0.513123 0.770850 0.691522
O O9 0.570064 0.734007 0.769078
O O10 0.778180 0.852626 0.718840
O O11 0.500000 0.000000 0.738945
O O12 0.000000 0.500000 0.854156
O O13 0.500000 0.000000 0.959436
O O14 0.528386 0.755537 0.000000
O O15 0.500000 0.500000 0.183659
#
# Coordination Sequence:
#
# PCOD9444917 Si02
#       6
#     8   8   8   8   8   8
#     4   9  18  34  57  81 107 142 180 221 271 328
#     4   9  20  36  55  81 107 141 182 224 276 329
#     4  10  22  37  54  80 109 143 187 229 272 323
#     4   9  19  36  56  79 111 148 184 223 270 327
#     4   9  18  33  55  83 109 135 177 230 276 322
#     4  11  23  38  56  79 110 147 185 229 279 329
#
# _framework density 19.415967999999999
#
# number of rings (size 3 to 8) (size 9 to 14) (size 15 to 20)
#    0.000    2.500    0.000    1.000    0.000   12.333 
#    0.000    2.500    0.000    5.500    0.000    0.000 
#    0.000    0.000    0.000    0.000    0.000    0.000 
#
# Total GULP energy -267660.887886 kJ/mol
# GULP energy per Si atom -5576.268498 kJ/mol
# Density = 1.937178 g / cm^3
# Si number density = 19.415968 Si / 1000 Ang^3
#
#
#
# Elastic Constant Matrix: (Units=GPa)
#
#
# Indices 1 2 3 4 5 6 
#
# 1 56.7192 11.6315 51.1022 0.0000 0.0000 0.0000
# 2 11.6315 35.1047 35.6866 0.0000 0.0000 0.0000
# 3 51.1022 35.6866 143.4287 0.0000 0.0000 0.0000
# 4 0.0000 0.0000 0.0000 9.7016 0.0000 0.0000
# 5 0.0000 0.0000 0.0000 0.0000 26.9628 0.0000
# 6 0.0000 0.0000 0.0000 0.0000 0.0000 20.0164
#
#
#
# Elastic Compliance Matrix: (Units=1/GPa)
#
#
# Indices 1 2 3 4 5 6 
#
# 1 0.025996 0.001074 -0.009529 0.000000 0.000000 0.000000
# 2 0.001074 0.038175 -0.009881 0.000000 0.000000 0.000000
# 3 -0.009529 -0.009881 0.012826 0.000000 0.000000 0.000000
# 4 0.000000 0.000000 0.000000 0.103075 0.000000 0.000000
# 5 0.000000 0.000000 0.000000 0.000000 0.037088 0.000000
# 6 0.000000 0.000000 0.000000 0.000000 0.000000 0.049959
#
#
# Mechanical properties :
#
#
# Convention : Reuss Voigt Hill
#
# Bulk Modulus (GPa) = 24.79903 48.01036 36.40470
# Shear Modulus (GPa) = 15.76122 20.45830 18.10976
#
# Velocity S-wave (km/s) = 2.85224 3.24957 3.05737
# Velocity P-wave (km/s) = 4.86285 6.23382 5.59052
#
# Compressibility (1/GPa) = 0.04032415
#
# Stress axis : x y z
#
# Youngs Moduli (GPa) = 38.46726 26.19500 77.96775
#
# Poissons Ratio (x) = -0.02813 0.74298
# Poissons Ratio (y) = -0.04131 0.77040
# Poissons Ratio (z) = 0.36657 0.25883
#
# Static dielectric constant tensor:
#      x y z
#    x 1.733150 0.000000 0.000000 
#    y 0.000000 1.670840 0.000000 
#    z 0.000000 0.000000 1.676400 
# 
# From -- ./inp_files/34543.got.cif
#   From: 2010.05.17/outbox.cif.g08.bks.cpg/sg58_18_cif.got.tgz:34543.got - 2010.06.03 14:20:14.
