data_PCOD9444936
_publ_section_title
;
Structure prediction by ZEFSAII (Michael W. Deem and Ramdas Pophale) SiO2 
 PCOD9444936
Probable space group: P N N M
;
_chemical_formula_sum "Si O2"
_cell_formula_units_Z 36
_cell_length_a 5.193626
_cell_length_b 12.246660
_cell_length_c 23.602508
_cell_angle_alpha 90.000000
_cell_angle_beta 90.000000
_cell_angle_gamma 90.000000
_cell_volume 1501.227414
_symmetry_space_group_name_H-M "P N N M"
_symmetry_group_IT_number 58
_symmetry_cell_setting 'orthorhombic'
loop_
_space_group_symop_operation_xyz
x,y,z
-x,-y,z
1/2+x,1/2-y,1/2-z
1/2-x,1/2+y,1/2-z
-x,-y,-z
x,y,-z
1/2-x,1/2+y,1/2+z
1/2+x,1/2-y,1/2+z
loop_
_atom_site_type_symbol
_atom_site_label
_atom_site_fract_x
_atom_site_fract_y
_atom_site_fract_z
Si Si1 0.164077 0.099867 0.566196
Si Si2 0.341608 0.768290 0.434107
Si Si3 0.376885 0.615553 0.775048
Si Si4 0.500000 0.000000 0.808916
Si Si5 0.657482 0.688956 0.665374
O O1 0.190321 0.072077 0.500000
O O2 0.957606 0.199992 0.568388
O O3 0.460562 0.130982 0.578784
O O4 0.000000 0.000000 0.591506
O O5 0.394807 0.734365 0.500000
O O6 0.434523 0.692851 0.381974
O O7 0.500000 0.500000 0.791780
O O8 0.143910 0.580512 0.734470
O O9 0.561386 0.673614 0.729951
O O10 0.306819 0.695660 0.826156
O O11 0.677542 0.080275 0.845046
#
# Coordination Sequence:
#
# PCOD9444936 Si02
#       5
#     8   8   8   4   8
#     4   9  18  36  56  83 124 173 220 265 318 380
#     4  10  22  37  61  92 130 176 218 266 325 392
#     4  10  22  40  64  93 122 163 212 271 333 388
#     4  10  22  42  63  90 123 166 210 268 336 382
#     4  11  22  40  67  92 132 165 218 270 330 392
#
# _framework density 23.980377000000001
#
# number of rings (size 3 to 8) (size 9 to 14) (size 15 to 20)
#    0.000    2.000    2.222    0.667    3.111    3.556 
#    4.000    0.556    0.000    6.000    0.000    0.000 
#    0.000    0.000    0.000    0.000    0.000    0.000 
#
# Total GULP energy -200691.053038 kJ/mol
# GULP energy per Si atom -5574.751473 kJ/mol
# Density = 2.392580 g / cm^3
# Si number density = 23.980377 Si / 1000 Ang^3
#
#
#
# Elastic Constant Matrix: (Units=GPa)
#
#
# Indices 1 2 3 4 5 6 
#
# 1 58.8947 3.9906 -11.6233 0.0000 0.0000 0.0000
# 2 3.9906 78.3900 13.3718 0.0000 0.0000 0.0000
# 3 -11.6233 13.3718 119.9794 0.0000 0.0000 0.0000
# 4 0.0000 0.0000 0.0000 -7.2025 0.0000 0.0000
# 5 0.0000 0.0000 0.0000 0.0000 22.4933 0.0000
# 6 0.0000 0.0000 0.0000 0.0000 0.0000 30.9634
#
#
#
# Elastic Compliance Matrix: (Units=1/GPa)
#
#
# Indices 1 2 3 4 5 6 
#
# 1 0.017420 -0.001197 0.001821 0.000000 0.000000 0.000000
# 2 -0.001197 0.013086 -0.001574 0.000000 0.000000 0.000000
# 3 0.001821 -0.001574 0.008687 0.000000 0.000000 0.000000
# 4 0.000000 0.000000 0.000000 -0.138841 0.000000 0.000000
# 5 0.000000 0.000000 0.000000 0.000000 0.044458 0.000000
# 6 0.000000 0.000000 0.000000 0.000000 0.000000 0.032296
#
#
# Mechanical properties :
#
#
# Convention : Reuss Voigt Hill
#
# Bulk Modulus (GPa) = 26.81596 29.86024 28.33810
# Shear Modulus (GPa) = -583.98652 26.01919 -278.98367
#
# Velocity S-wave (km/s) = -15.62228 3.29754 -10.79773
# Velocity P-wave (km/s) = 17.72570 5.19397 11.98381
#
# Compressibility (1/GPa) = 0.03729122
#
# Stress axis : x y z
#
# Youngs Moduli (GPa) = 57.40531 76.41605 115.11901
#
# Poissons Ratio (x) = 0.09150 -0.20964
# Poissons Ratio (y) = 0.06874 0.18125
# Poissons Ratio (z) = -0.10454 0.12032
#
# Static dielectric constant tensor:
#      x y z
#    x 2.309780 0.000000 0.000000 
#    y 0.000000 2.493750 0.000000 
#    z 0.000000 0.000000 1.926710 
# 
# From -- ./inp_files/30839.got.cif
#   From: 2010.05.17/outbox.cif.g08.bks.cpg/sg58_16_cif.got.tgz:30839.got - 2010.06.03 14:20:14.
