data_PCOD9444913
_publ_section_title
;
Structure prediction by ZEFSAII (Michael W. Deem and Ramdas Pophale) SiO2 
 PCOD9444913
Probable space group: P N N M
;
_chemical_formula_sum "Si O2"
_cell_formula_units_Z 32
_cell_length_a 5.343191
_cell_length_b 16.702089
_cell_length_c 13.875938
_cell_angle_alpha 90.000000
_cell_angle_beta 90.000000
_cell_angle_gamma 90.000000
_cell_volume 1238.322726
_symmetry_space_group_name_H-M "P N N M"
_symmetry_group_IT_number 58
_symmetry_cell_setting 'orthorhombic'
loop_
_space_group_symop_operation_xyz
x,y,z
-x,-y,z
1/2+x,1/2-y,1/2-z
1/2-x,1/2+y,1/2-z
-x,-y,-z
x,y,-z
1/2-x,1/2+y,1/2+z
1/2+x,1/2-y,1/2+z
loop_
_atom_site_type_symbol
_atom_site_label
_atom_site_fract_x
_atom_site_fract_y
_atom_site_fract_z
Si Si1 0.315925 0.298373 0.837659
Si Si2 0.992496 0.380111 0.289916
Si Si3 0.498390 0.260698 0.500000
Si Si4 0.001660 0.630686 0.500000
Si Si5 0.192179 0.074178 0.606001
O O1 0.377006 0.209663 0.802239
O O2 0.533727 0.343230 0.893787
O O3 0.265593 0.357637 0.749070
O O4 0.070716 0.290605 0.905301
O O5 0.852307 0.425449 0.204279
O O6 0.005034 0.412979 0.397492
O O7 0.236930 0.307847 0.500000
O O8 0.731421 0.323659 0.500000
O O9 0.317639 0.068301 0.500000
O O10 0.000000 0.000000 0.610459
#
# Coordination Sequence:
#
# PCOD9444913 Si02
#       5
#     8   8   4   4   8
#     4  11  21  37  68 104 140 189 241 311 363 445
#     4  11  23  39  69  99 143 184 251 305 369 433
#     4  10  22  36  67 105 145 171 234 305 366 421
#     4  10  24  40  65 109 139 177 236 311 362 421
#     4  11  26  46  67 106 155 198 246 309 385 455
#
# _framework density 25.841404000000001
#
# number of rings (size 3 to 8) (size 9 to 14) (size 15 to 20)
#    0.000    1.250    3.750    1.500    8.750    1.000 
#    0.000    3.125    0.000    1.500    0.000    0.000 
#    0.000    0.000    0.000    0.000    0.000    0.000 
#
# Total GULP energy -178956.893239 kJ/mol
# GULP energy per Si atom -5592.402914 kJ/mol
# Density = 2.578259 g / cm^3
# Si number density = 25.841404 Si / 1000 Ang^3
#
#
#
# Elastic Constant Matrix: (Units=GPa)
#
#
# Indices 1 2 3 4 5 6 
#
# 1 99.6749 52.8829 41.5756 0.0000 0.0000 0.0000
# 2 52.8829 125.4238 51.9123 0.0000 0.0000 0.0000
# 3 41.5756 51.9123 267.9433 0.0000 0.0000 0.0000
# 4 0.0000 0.0000 0.0000 -2.9564 0.0000 0.0000
# 5 0.0000 0.0000 0.0000 0.0000 154.2941 0.0000
# 6 0.0000 0.0000 0.0000 0.0000 0.0000 37.9671
#
#
#
# Elastic Compliance Matrix: (Units=1/GPa)
#
#
# Indices 1 2 3 4 5 6 
#
# 1 0.013192 -0.005126 -0.001054 0.000000 0.000000 0.000000
# 2 -0.005126 0.010660 -0.001270 0.000000 0.000000 0.000000
# 3 -0.001054 -0.001270 0.004142 0.000000 0.000000 0.000000
# 4 0.000000 0.000000 0.000000 -0.338248 0.000000 0.000000
# 5 0.000000 0.000000 0.000000 0.000000 0.006481 0.000000
# 6 0.000000 0.000000 0.000000 0.000000 0.000000 0.026339
#
#
# Mechanical properties :
#
#
# Convention : Reuss Voigt Hill
#
# Bulk Modulus (GPa) = 76.37077 87.30930 81.84004
# Shear Modulus (GPa) = -19.36699 60.97236 20.80269
#
# Velocity S-wave (km/s) = -2.74059 4.86272 2.84035
# Velocity P-wave (km/s) = 4.42757 8.08629 6.51887
#
# Compressibility (1/GPa) = 0.01309401
#
# Stress axis : x y z
#
# Youngs Moduli (GPa) = 75.80496 93.80998 241.44778
#
# Poissons Ratio (x) = 0.48086 0.25444
# Poissons Ratio (y) = 0.38857 0.30662
# Poissons Ratio (z) = 0.07988 0.11913
#
# Static dielectric constant tensor:
#      x y z
#    x 2.060900 0.000000 0.000000 
#    y 0.000000 2.029030 0.000000 
#    z 0.000000 0.000000 2.131350 
# 
# From -- ./inp_files/18334.got.cif
#   From: 2010.05.17/outbox.cif.g08.bks.cpg/sg58_10_cif.got.tgz:18334.got - 2010.06.03 14:20:14.
