data_PCOD9444395
_publ_section_title
;
Structure prediction by ZEFSAII (Michael W. Deem and Ramdas Pophale) SiO2 
 PCOD9444395
Probable space group: P N N M
;
_chemical_formula_sum "Si O2"
_cell_formula_units_Z 58
_cell_length_a 27.247736
_cell_length_b 11.869818
_cell_length_c 7.852618
_cell_angle_alpha 90.000000
_cell_angle_beta 90.000000
_cell_angle_gamma 90.000000
_cell_volume 2539.738216
_symmetry_space_group_name_H-M "P N N M"
_symmetry_group_IT_number 58
_symmetry_cell_setting 'orthorhombic'
loop_
_space_group_symop_operation_xyz
x,y,z
-x,-y,z
1/2+x,1/2-y,1/2-z
1/2-x,1/2+y,1/2-z
-x,-y,-z
x,y,-z
1/2-x,1/2+y,1/2+z
1/2+x,1/2-y,1/2+z
loop_
_atom_site_type_symbol
_atom_site_label
_atom_site_fract_x
_atom_site_fract_y
_atom_site_fract_z
Si Si1 0.494482 0.152581 0.682826
Si Si2 0.790723 0.051760 0.206212
Si Si3 0.000000 0.500000 0.500000
Si Si4 0.110455 0.079223 0.797397
Si Si5 0.647760 0.755528 0.699472
Si Si6 0.098097 0.330596 0.694441
Si Si7 0.182325 0.501501 0.705233
Si Si8 0.948522 0.133683 0.692059
O O1 0.473443 0.118234 0.500000
O O2 0.552900 0.137535 0.688440
O O3 0.485209 0.286118 0.706299
O O4 0.477356 0.083821 0.847597
O O5 0.805327 0.179844 0.250014
O O6 0.737669 0.015346 0.270929
O O7 0.837547 0.976654 0.256963
O O8 0.788428 0.045607 0.000000
O O9 0.104422 0.197137 0.703913
O O10 0.067912 0.987816 0.760869
O O11 0.112133 0.099274 0.000000
O O12 0.637517 0.731712 0.500000
O O13 0.601473 0.707698 0.799748
O O14 0.658341 0.885411 0.724965
O O15 0.082718 0.365197 0.500000
O O16 0.147521 0.395216 0.740889
O O17 0.184177 0.511948 0.500000
O O18 0.966267 0.122054 0.500000
#
# Coordination Sequence:
#
# PCOD9444395 Si02
#       8
#     8   8   2   8   8   8   8   8
#     4  12  26  45  70  99 136 179 225 275 341 395
#     4   8  18  38  59  86 121 164 211 266 326 393
#     4  12  26  48  68 100 136 176 222 276 322 406
#     4  10  21  40  66  93 130 169 219 274 333 397
#     4  10  21  37  60  90 123 159 210 266 322 391
#     4  11  24  42  61  94 134 174 222 273 332 401
#     4  10  22  38  60  85 124 169 211 267 328 387
#     4  11  22  42  67  96 127 168 220 271 327 398
#
# _framework density 22.837
#
# number of rings (size 3 to 8) (size 9 to 14) (size 15 to 20)
#    0.000    1.655    1.379    3.517    3.862    1.655 
#    0.000    6.207    0.000    0.000    0.000    0.000 
#    0.000    0.000    0.000    0.000    0.000    0.000 
#
# Total GULP energy -323892.943564 kJ/mol
# GULP energy per Si atom -5584.361096 kJ/mol
# Density = 2.278502 g / cm^3
# Si number density = 22.837000 Si / 1000 Ang^3
#
#
#
# Elastic Constant Matrix: (Units=GPa)
#
#
# Indices 1 2 3 4 5 6 
#
# 1 40.2415 2.1711 15.8288 0.0000 0.0000 0.0000
# 2 2.1711 117.9268 25.3848 0.0000 0.0000 0.0000
# 3 15.8288 25.3848 109.4796 0.0000 0.0000 0.0000
# 4 0.0000 0.0000 0.0000 26.5631 0.0000 0.0000
# 5 0.0000 0.0000 0.0000 0.0000 16.7744 0.0000
# 6 0.0000 0.0000 0.0000 0.0000 0.0000 20.9935
#
#
#
# Elastic Compliance Matrix: (Units=1/GPa)
#
#
# Indices 1 2 3 4 5 6 
#
# 1 0.026362 0.000353 -0.003893 0.000000 0.000000 0.000000
# 2 0.000353 0.008930 -0.002122 0.000000 0.000000 0.000000
# 3 -0.003893 -0.002122 0.010189 0.000000 0.000000 0.000000
# 4 0.000000 0.000000 0.000000 0.037646 0.000000 0.000000
# 5 0.000000 0.000000 0.000000 0.000000 0.059615 0.000000
# 6 0.000000 0.000000 0.000000 0.000000 0.000000 0.047634
#
#
# Mechanical properties :
#
#
# Convention : Reuss Voigt Hill
#
# Bulk Modulus (GPa) = 29.27658 39.37969 34.32814
# Shear Modulus (GPa) = 23.46470 27.81707 25.64088
#
# Velocity S-wave (km/s) = 3.20892 3.49387 3.35442
# Velocity P-wave (km/s) = 5.15531 5.79288 5.48337
#
# Compressibility (1/GPa) = 0.03415699
#
# Stress axis : x y z
#
# Youngs Moduli (GPa) = 37.93293 111.98166 98.14556
#
# Poissons Ratio (x) = -0.03950 0.38211
# Poissons Ratio (y) = -0.01338 0.20822
# Poissons Ratio (z) = 0.14768 0.23758
#
# Static dielectric constant tensor:
#      x y z
#    x 1.944820 0.000000 0.000000 
#    y 0.000000 1.926200 0.000000 
#    z 0.000000 0.000000 1.845180 
# 
# From -- ./inp_files/10433.got.cif
#   From: 2010.05.17/outbox.cif.g08.bks.cpg/sg58_6_cif.got.tgz:10433.got - 2010.06.03 14:20:14.
