data_PCOD9444280
_publ_section_title
;
Structure prediction by ZEFSAII (Michael W. Deem and Ramdas Pophale) SiO2 
 PCOD9444280
Probable space group: P N N M
;
_chemical_formula_sum "Si O2"
_cell_formula_units_Z 52
_cell_length_a 7.448557
_cell_length_b 22.475719
_cell_length_c 14.959312
_cell_angle_alpha 90.000000
_cell_angle_beta 90.000000
_cell_angle_gamma 90.000000
_cell_volume 2504.363465
_symmetry_space_group_name_H-M "P N N M"
_symmetry_group_IT_number 58
_symmetry_cell_setting 'orthorhombic'
loop_
_space_group_symop_operation_xyz
x,y,z
-x,-y,z
1/2+x,1/2-y,1/2-z
1/2-x,1/2+y,1/2-z
-x,-y,-z
x,y,-z
1/2-x,1/2+y,1/2+z
1/2+x,1/2-y,1/2+z
loop_
_atom_site_type_symbol
_atom_site_label
_atom_site_fract_x
_atom_site_fract_y
_atom_site_fract_z
Si Si1 0.426975 0.753733 0.500000
Si Si2 0.061648 0.228857 0.797778
Si Si3 0.437714 0.162016 0.195499
Si Si4 0.727504 0.312887 0.000000
Si Si5 0.844962 0.563276 0.899404
Si Si6 0.477872 0.205886 0.000000
Si Si7 0.985401 0.135866 0.341403
Si Si8 0.190854 0.558263 0.806235
O O1 0.480476 0.727193 0.596948
O O2 0.556344 0.811792 0.500000
O O3 0.206828 0.747272 0.500000
O O4 0.059253 0.295663 0.758399
O O5 0.949705 0.185718 0.732733
O O6 0.251899 0.196737 0.789254
O O7 0.478999 0.168793 0.091264
O O8 0.405939 0.094104 0.225495
O O9 0.655502 0.245275 0.000000
O O10 0.625104 0.338925 0.085680
O O11 0.700056 0.614429 0.883785
O O12 0.808249 0.512155 0.824859
O O13 0.053821 0.578722 0.885426
O O14 0.816667 0.540046 0.000000
O O15 0.104835 0.080793 0.305958
#
# Coordination Sequence:
#
# PCOD9444280 Si02
#       8
#     4   8   8   4   8   4   8   8
#     4  10  22  36  54  76 121 156 191 236 275 357
#     4  10  21  37  54  85 114 154 190 235 295 347
#     4  10  21  38  58  83 119 150 194 240 289 349
#     4  12  22  34  55  88 114 158 193 229 296 354
#     4  11  24  40  60  84 117 158 201 243 293 347
#     4  10  22  38  58  85 121 159 193 235 293 349
#     4  11  23  37  59  85 120 152 196 241 291 351
#     4  10  23  39  58  82 113 158 195 240 291 343
#
# _framework density 20.763757999999999
#
# number of rings (size 3 to 8) (size 9 to 14) (size 15 to 20)
#    0.000    1.538    2.308    3.231    4.308    1.846 
#    2.769    0.000    0.000    2.769    0.000    5.385 
#    0.000    0.000    0.000    0.000    0.000    0.000 
#
# Total GULP energy -289582.583942 kJ/mol
# GULP energy per Si atom -5568.895845 kJ/mol
# Density = 2.071650 g / cm^3
# Si number density = 20.763758 Si / 1000 Ang^3
#
#
#
# Elastic Constant Matrix: (Units=GPa)
#
#
# Indices 1 2 3 4 5 6 
#
# 1 87.6052 12.7570 12.3306 0.0000 0.0000 0.0000
# 2 12.7570 57.0380 43.3868 0.0000 0.0000 0.0000
# 3 12.3306 43.3868 125.3080 0.0000 0.0000 0.0000
# 4 0.0000 0.0000 0.0000 32.1651 0.0000 0.0000
# 5 0.0000 0.0000 0.0000 0.0000 13.1013 0.0000
# 6 0.0000 0.0000 0.0000 0.0000 0.0000 34.6101
#
#
#
# Elastic Compliance Matrix: (Units=1/GPa)
#
#
# Indices 1 2 3 4 5 6 
#
# 1 0.011810 -0.002386 -0.000336 0.000000 0.000000 0.000000
# 2 -0.002386 0.024283 -0.008173 0.000000 0.000000 0.000000
# 3 -0.000336 -0.008173 0.010843 0.000000 0.000000 0.000000
# 4 0.000000 0.000000 0.000000 0.031090 0.000000 0.000000
# 5 0.000000 0.000000 0.000000 0.000000 0.076328 0.000000
# 6 0.000000 0.000000 0.000000 0.000000 0.000000 0.028893
#
#
# Mechanical properties :
#
#
# Convention : Reuss Voigt Hill
#
# Bulk Modulus (GPa) = 39.76761 45.21112 42.48936
# Shear Modulus (GPa) = 23.42823 29.40709 26.41766
#
# Velocity S-wave (km/s) = 3.36270 3.76742 3.57080
# Velocity P-wave (km/s) = 5.85414 6.38325 6.12441
#
# Compressibility (1/GPa) = 0.02514609
#
# Stress axis : x y z
#
# Youngs Moduli (GPa) = 84.67727 41.18182 92.22372
#
# Poissons Ratio (x) = 0.09825 0.03099
# Poissons Ratio (y) = 0.20201 0.75373
# Poissons Ratio (z) = 0.02846 0.33657
#
# Static dielectric constant tensor:
#      x y z
#    x 1.803020 0.000000 0.000000 
#    y 0.000000 1.796650 0.000000 
#    z 0.000000 0.000000 1.791320 
# 
# From -- ./inp_files/20092.got.cif
#   From: 2010.05.17/outbox.cif.g08.bks.cpg/sg58_11_cif.got.tgz:20092.got - 2010.06.03 14:20:14.
