data_PCOD9444413
_publ_section_title
;
Structure prediction by ZEFSAII (Michael W. Deem and Ramdas Pophale) SiO2 
 PCOD9444413
Probable space group: P N N M
;
_chemical_formula_sum "Si O2"
_cell_formula_units_Z 64
_cell_length_a 29.876954
_cell_length_b 10.672958
_cell_length_c 9.614678
_cell_angle_alpha 90.000000
_cell_angle_beta 90.000000
_cell_angle_gamma 90.000000
_cell_volume 3065.885016
_symmetry_space_group_name_H-M "P N N M"
_symmetry_group_IT_number 58
_symmetry_cell_setting 'orthorhombic'
loop_
_space_group_symop_operation_xyz
x,y,z
-x,-y,z
1/2+x,1/2-y,1/2-z
1/2-x,1/2+y,1/2-z
-x,-y,-z
x,y,-z
1/2-x,1/2+y,1/2+z
1/2+x,1/2-y,1/2+z
loop_
_atom_site_type_symbol
_atom_site_label
_atom_site_fract_x
_atom_site_fract_y
_atom_site_fract_z
Si Si1 0.215970 0.006935 0.341972
Si Si2 0.656690 0.910730 0.158038
Si Si3 0.862022 0.001015 0.151710
Si Si4 0.242636 0.744919 0.270941
Si Si5 0.167181 0.360261 0.153182
Si Si6 0.909787 0.258444 0.160537
Si Si7 0.573327 0.283676 0.655302
Si Si8 0.006921 0.849602 0.665204
O O1 0.216057 0.960106 0.500000
O O2 0.167017 0.036757 0.283829
O O3 0.245083 0.133208 0.335338
O O4 0.230439 0.890563 0.243070
O O5 0.698252 0.813103 0.159525
O O6 0.615854 0.865620 0.254796
O O7 0.673121 0.039709 0.225763
O O8 0.641916 0.926592 0.000000
O O9 0.908180 0.925359 0.154884
O O10 0.873752 0.146073 0.155796
O O11 0.841011 0.971467 0.000000
O O12 0.290713 0.765747 0.345165
O O13 0.119075 0.294962 0.171820
O O14 0.167530 0.421664 0.000000
O O15 0.951600 0.204538 0.246734
O O16 0.920957 0.290953 0.000000
O O17 0.554989 0.256210 0.500000
O O18 0.536516 0.277824 0.774086
O O19 0.012985 0.830331 0.500000
O O20 0.000000 0.000000 0.686694
#
# Coordination Sequence:
#
# PCOD9444413 Si02
#       8
#     8   8   8   8   8   8   8   8
#     4  12  26  43  65  96 135 180 229 283 337 400
#     4  12  26  43  66  96 133 175 224 281 339 398
#     4  10  21  37  61  93 129 167 208 261 323 386
#     4  12  25  43  65  97 137 181 228 278 338 401
#     4  11  24  45  67  91 131 179 226 275 330 398
#     4  11  23  41  66  94 130 172 216 263 322 400
#     4  10  21  40  65  93 127 171 215 263 322 393
#     4  11  23  38  63 100 137 168 208 270 336 396
#
# _framework density 20.874887000000001
#
# number of rings (size 3 to 8) (size 9 to 14) (size 15 to 20)
#    0.000    0.875    5.000    2.250    0.000    4.500 
#    0.000    0.625    0.000    3.750    0.000    0.000 
#    0.000    0.000    0.000    0.000    0.000    0.000 
#
# Total GULP energy -356768.331393 kJ/mol
# GULP energy per Si atom -5574.505178 kJ/mol
# Density = 2.082737 g / cm^3
# Si number density = 20.874887 Si / 1000 Ang^3
#
#
#
# Elastic Constant Matrix: (Units=GPa)
#
#
# Indices 1 2 3 4 5 6 
#
# 1 100.9600 9.5252 64.4222 0.0000 0.0000 0.0000
# 2 9.5252 57.4267 34.4545 0.0000 0.0000 0.0000
# 3 64.4222 34.4545 131.6313 0.0000 0.0000 0.0000
# 4 0.0000 0.0000 0.0000 22.5109 0.0000 0.0000
# 5 0.0000 0.0000 0.0000 0.0000 9.4794 0.0000
# 6 0.0000 0.0000 0.0000 0.0000 0.0000 34.7724
#
#
#
# Elastic Compliance Matrix: (Units=1/GPa)
#
#
# Indices 1 2 3 4 5 6 
#
# 1 0.014637 0.002219 -0.007744 0.000000 0.000000 0.000000
# 2 0.002219 0.020994 -0.006581 0.000000 0.000000 0.000000
# 3 -0.007744 -0.006581 0.013110 0.000000 0.000000 0.000000
# 4 0.000000 0.000000 0.000000 0.044423 0.000000 0.000000
# 5 0.000000 0.000000 0.000000 0.000000 0.105492 0.000000
# 6 0.000000 0.000000 0.000000 0.000000 0.000000 0.028758
#
#
# Mechanical properties :
#
#
# Convention : Reuss Voigt Hill
#
# Bulk Modulus (GPa) = 40.77075 56.31354 48.54214
# Shear Modulus (GPa) = 19.24529 25.46029 22.35279
#
# Velocity S-wave (km/s) = 3.03963 3.49615 3.27586
# Velocity P-wave (km/s) = 5.64735 6.58276 6.13291
#
# Compressibility (1/GPa) = 0.02452739
#
# Stress axis : x y z
#
# Youngs Moduli (GPa) = 68.31879 47.63284 76.27908
#
# Poissons Ratio (x) = -0.10568 0.59073
# Poissons Ratio (y) = -0.15157 0.50199
# Poissons Ratio (z) = 0.52909 0.31347
#
# Static dielectric constant tensor:
#      x y z
#    x 1.763450 0.000000 0.000000 
#    y 0.000000 1.780840 0.000000 
#    z 0.000000 0.000000 1.731480 
# 
# From -- ./inp_files/11058.got.cif
#   From: 2010.05.17/outbox.cif.g08.bks.cpg/sg58_6_cif.got.tgz:11058.got - 2010.06.03 14:20:14.
