data_PCOD9444332
_publ_section_title
;
Structure prediction by ZEFSAII (Michael W. Deem and Ramdas Pophale) SiO2 
 PCOD9444332
Probable space group: P N N M
;
_chemical_formula_sum "Si O2"
_cell_formula_units_Z 40
_cell_length_a 13.921627
_cell_length_b 17.965281
_cell_length_c 8.861801
_cell_angle_alpha 90.000000
_cell_angle_beta 90.000000
_cell_angle_gamma 90.000000
_cell_volume 2216.389078
_symmetry_space_group_name_H-M "P N N M"
_symmetry_group_IT_number 58
_symmetry_cell_setting 'orthorhombic'
loop_
_space_group_symop_operation_xyz
x,y,z
-x,-y,z
1/2+x,1/2-y,1/2-z
1/2-x,1/2+y,1/2-z
-x,-y,-z
x,y,-z
1/2-x,1/2+y,1/2+z
1/2+x,1/2-y,1/2+z
loop_
_atom_site_type_symbol
_atom_site_label
_atom_site_fract_x
_atom_site_fract_y
_atom_site_fract_z
Si Si1 0.681050 0.311145 0.820183
Si Si2 0.624736 0.867166 0.180003
Si Si3 0.581601 0.167329 0.679867
Si Si4 0.200617 0.466716 0.678937
Si Si5 0.107233 0.023244 0.319698
O O1 0.787542 0.321995 0.753449
O O2 0.627123 0.243215 0.742480
O O3 0.626539 0.389366 0.791714
O O4 0.685665 0.299673 0.000000
O O5 0.523700 0.844908 0.250621
O O6 0.647033 0.954593 0.207907
O O7 0.623627 0.855794 0.000000
O O8 0.576282 0.169017 0.500000
O O9 0.648039 0.099150 0.734214
O O10 0.197592 0.452439 0.500000
O O11 0.309557 0.478430 0.734343
O O12 0.117795 0.010742 0.500000
O O13 0.000000 0.000000 0.275399
#
# Coordination Sequence:
#
# PCOD9444332 Si02
#       5
#     8   8   8   8   8
#     4  10  21  38  58  82 114 148 186 233 283 336
#     4  10  21  39  60  82 112 147 185 233 288 341
#     4  12  24  37  57  84 115 151 191 234 282 335
#     4  10  21  37  58  84 113 146 188 236 283 336
#     4   9  19  37  60  84 112 148 187 228 278 337
#
# _framework density 18.047373
#
# number of rings (size 3 to 8) (size 9 to 14) (size 15 to 20)
#    0.000    1.800    0.000    4.200    0.000    7.600 
#    0.000    6.000    0.000    0.000    0.000    0.000 
#    0.000    0.000    0.000    0.000    0.000    0.000 
#
# Total GULP energy -223556.032097 kJ/mol
# GULP energy per Si atom -5588.900802 kJ/mol
# Density = 1.800630 g / cm^3
# Si number density = 18.047373 Si / 1000 Ang^3
#
#
#
# Elastic Constant Matrix: (Units=GPa)
#
#
# Indices 1 2 3 4 5 6 
#
# 1 176.1252 90.6462 81.1932 0.0000 0.0000 0.0000
# 2 90.6462 74.9339 64.3598 0.0000 0.0000 0.0000
# 3 81.1932 64.3598 99.4057 0.0000 0.0000 0.0000
# 4 0.0000 0.0000 0.0000 29.4961 0.0000 0.0000
# 5 0.0000 0.0000 0.0000 0.0000 35.3880 0.0000
# 6 0.0000 0.0000 0.0000 0.0000 0.0000 21.0283
#
#
#
# Elastic Compliance Matrix: (Units=1/GPa)
#
#
# Indices 1 2 3 4 5 6 
#
# 1 0.015101 -0.017287 -0.001142 0.000000 0.000000 0.000000
# 2 -0.017287 0.049850 -0.018156 0.000000 0.000000 0.000000
# 3 -0.001142 -0.018156 0.022748 0.000000 0.000000 0.000000
# 4 0.000000 0.000000 0.000000 0.033903 0.000000 0.000000
# 5 0.000000 0.000000 0.000000 0.000000 0.028258 0.000000
# 6 0.000000 0.000000 0.000000 0.000000 0.000000 0.047555
#
#
# Mechanical properties :
#
#
# Convention : Reuss Voigt Hill
#
# Bulk Modulus (GPa) = 68.82488 91.42925 80.12706
# Shear Modulus (GPa) = 18.15354 24.80016 21.47685
#
# Velocity S-wave (km/s) = 3.17501 3.71100 3.45342
# Velocity P-wave (km/s) = 7.18744 8.31461 7.77149
#
# Compressibility (1/GPa) = 0.01452963
#
# Stress axis : x y z
#
# Youngs Moduli (GPa) = 66.21945 20.06010 43.96020
#
# Poissons Ratio (x) = 0.34677 0.05022
# Poissons Ratio (y) = 1.14471 0.79814
# Poissons Ratio (z) = 0.07565 0.36421
#
# Static dielectric constant tensor:
#      x y z
#    x 1.584200 0.000000 0.000000 
#    y 0.000000 1.595600 0.000000 
#    z 0.000000 0.000000 1.597520 
# 
# From -- ./inp_files/3782.got.cif
#   From: 2010.05.17/outbox.cif.g08.bks.cpg/sg58_2_cif.got.tgz:3782.got - 2010.06.03 14:20:14.
