data_PCOD9444335
_publ_section_title
;
Structure prediction by ZEFSAII (Michael W. Deem and Ramdas Pophale) SiO2 
 PCOD9444335
Probable space group: P N N M
;
_chemical_formula_sum "Si O2"
_cell_formula_units_Z 48
_cell_length_a 31.198497
_cell_length_b 9.398721
_cell_length_c 8.871258
_cell_angle_alpha 90.000000
_cell_angle_beta 90.000000
_cell_angle_gamma 90.000000
_cell_volume 2601.283223
_symmetry_space_group_name_H-M "P N N M"
_symmetry_group_IT_number 58
_symmetry_cell_setting 'orthorhombic'
loop_
_space_group_symop_operation_xyz
x,y,z
-x,-y,z
1/2+x,1/2-y,1/2-z
1/2-x,1/2+y,1/2-z
-x,-y,-z
x,y,-z
1/2-x,1/2+y,1/2+z
1/2+x,1/2-y,1/2+z
loop_
_atom_site_type_symbol
_atom_site_label
_atom_site_fract_x
_atom_site_fract_y
_atom_site_fract_z
Si Si1 0.957813 0.905867 0.680188
Si Si2 0.882564 0.092604 0.818628
Si Si3 0.117454 0.592931 0.320535
Si Si4 0.042327 0.406100 0.179907
Si Si5 0.284954 0.414329 0.323559
Si Si6 0.292597 0.076154 0.324566
O O1 0.952623 0.895824 0.500000
O O2 0.962690 0.749849 0.750018
O O3 0.917254 0.985693 0.752172
O O4 0.000000 0.000000 0.711465
O O5 0.889171 0.250135 0.750646
O O6 0.833796 0.046190 0.781575
O O7 0.885780 0.101448 0.000000
O O8 0.113637 0.601149 0.500000
O O9 0.082546 0.486443 0.252907
O O10 0.165177 0.544992 0.272848
O O11 0.000000 0.500000 0.209015
O O12 0.048132 0.395223 0.000000
O O13 0.278594 0.449769 0.500000
O O14 0.282798 0.243861 0.307723
O O15 0.248503 0.488574 0.227210
O O16 0.302595 0.050176 0.500000
#
# Coordination Sequence:
#
# PCOD9444335 Si02
#       6
#     8   8   8   8   8   8
#     4  11  24  40  60  88 120 153 191 236 286 340
#     4  10  21  39  61  85 117 154 194 239 287 343
#     4  11  22  38  61  86 116 152 192 240 291 343
#     4  11  24  41  62  87 116 152 193 237 287 343
#     4   9  20  37  56  82 114 149 190 236 286 338
#     4  10  21  37  58  84 115 151 192 236 285 344
#
# _framework density 18.452431000000001
#
# number of rings (size 3 to 8) (size 9 to 14) (size 15 to 20)
#    0.000    1.667    0.000    5.500    0.000   10.667 
#    0.000    3.333    0.000    0.000    0.000    0.000 
#    0.000    0.000    0.000    0.000    0.000    0.000 
#
# Total GULP energy -268311.766115 kJ/mol
# GULP energy per Si atom -5589.828461 kJ/mol
# Density = 1.841043 g / cm^3
# Si number density = 18.452431 Si / 1000 Ang^3
#
#
#
# Elastic Constant Matrix: (Units=GPa)
#
#
# Indices 1 2 3 4 5 6 
#
# 1 137.7066 88.1217 87.3979 0.0000 0.0000 0.0000
# 2 88.1217 108.9154 72.2374 0.0000 0.0000 0.0000
# 3 87.3979 72.2374 108.8672 0.0000 0.0000 0.0000
# 4 0.0000 0.0000 0.0000 36.2725 0.0000 0.0000
# 5 0.0000 0.0000 0.0000 0.0000 43.6102 0.0000
# 6 0.0000 0.0000 0.0000 0.0000 0.0000 35.6620
#
#
#
# Elastic Compliance Matrix: (Units=1/GPa)
#
#
# Indices 1 2 3 4 5 6 
#
# 1 0.018991 -0.009383 -0.009020 0.000000 0.000000 0.000000
# 2 -0.009383 0.021034 -0.006424 0.000000 0.000000 0.000000
# 3 -0.009020 -0.006424 0.020689 0.000000 0.000000 0.000000
# 4 0.000000 0.000000 0.000000 0.027569 0.000000 0.000000
# 5 0.000000 0.000000 0.000000 0.000000 0.022930 0.000000
# 6 0.000000 0.000000 0.000000 0.000000 0.000000 0.028041
#
#
# Mechanical properties :
#
#
# Convention : Reuss Voigt Hill
#
# Bulk Modulus (GPa) = 90.41521 94.55592 92.48556
# Shear Modulus (GPa) = 25.96135 30.29110 28.12623
#
# Velocity S-wave (km/s) = 3.75498 4.05603 3.90841
# Velocity P-wave (km/s) = 8.24047 8.56093 8.40223
#
# Compressibility (1/GPa) = 0.01106009
#
# Stress axis : x y z
#
# Youngs Moduli (GPa) = 52.65784 47.54282 48.33435
#
# Poissons Ratio (x) = 0.44608 0.43596
# Poissons Ratio (y) = 0.49407 0.31051
# Poissons Ratio (z) = 0.47496 0.30543
#
# Static dielectric constant tensor:
#      x y z
#    x 1.616760 0.000000 0.000000 
#    y 0.000000 1.601420 0.000000 
#    z 0.000000 0.000000 1.616200 
# 
# From -- ./inp_files/2892.got.cif
#   From: 2010.05.17/outbox.cif.g08.bks.cpg/sg58_2_cif.got.tgz:2892.got - 2010.06.03 14:20:14.
