data_PCOD9444014
_publ_section_title
;
Structure prediction by ZEFSAII (Michael W. Deem and Ramdas Pophale) SiO2 
 PCOD9444014
Probable space group: P N N M
;
_chemical_formula_sum "Si O2"
_cell_formula_units_Z 42
_cell_length_a 14.508794
_cell_length_b 11.468033
_cell_length_c 10.933880
_cell_angle_alpha 90.000000
_cell_angle_beta 90.000000
_cell_angle_gamma 90.000000
_cell_volume 1819.259082
_symmetry_space_group_name_H-M "P N N M"
_symmetry_group_IT_number 58
_symmetry_cell_setting 'orthorhombic'
loop_
_space_group_symop_operation_xyz
x,y,z
-x,-y,z
1/2+x,1/2-y,1/2-z
1/2-x,1/2+y,1/2-z
-x,-y,-z
x,y,-z
1/2-x,1/2+y,1/2+z
1/2+x,1/2-y,1/2+z
loop_
_atom_site_type_symbol
_atom_site_label
_atom_site_fract_x
_atom_site_fract_y
_atom_site_fract_z
Si Si1 0.500000 0.500000 0.000000
Si Si2 0.124487 0.445020 0.000000
Si Si3 0.831248 0.153393 0.500000
Si Si4 0.695302 0.791176 0.500000
Si Si5 0.404934 0.824103 0.738507
Si Si6 0.081310 0.261015 0.500000
Si Si7 0.812969 0.155618 0.239115
Si Si8 0.097712 0.064294 0.861339
O O1 0.390457 0.464549 0.000000
O O2 0.525969 0.360167 0.000000
O O3 0.159231 0.577444 0.000000
O O4 0.071325 0.404759 0.877331
O O5 0.221550 0.373362 0.000000
O O6 0.848131 0.208485 0.366857
O O7 0.807510 0.771631 0.500000
O O8 0.656892 0.726543 0.379711
O O9 0.443016 0.830716 0.875913
O O10 0.296350 0.843443 0.757759
O O11 0.415940 0.690389 0.695543
O O12 0.842430 0.021408 0.222096
O O13 0.134782 0.072925 0.000000
O O14 0.000000 0.000000 0.865644
#
# Coordination Sequence:
#
# PCOD9444014 Si02
#       8
#     2   4   4   4   8   4   8   8
#     4  12  20  36  64  98 134 152 186 278 344 370
#     4  10  20  41  61  85 122 165 224 256 302 375
#     4  10  22  34  54  93 125 158 195 257 328 371
#     4  10  20  41  61  85 122 165 224 256 302 375
#     4  10  22  38  58  89 129 165 206 257 309 378
#     4  10  22  34  54  93 125 158 195 257 328 371
#     4  10  22  38  58  89 129 165 206 257 309 378
#     4  11  23  40  65  97 127 159 214 273 315 360
#
# _framework density 23.086321000000002
#
# number of rings (size 3 to 8) (size 9 to 14) (size 15 to 20)
#    0.000    1.714    2.857    1.143   13.333    0.000 
#    0.000    0.952    0.000    2.286    0.000    1.333 
#    0.000    0.000    0.000    0.000    0.000    0.000 
#
# Total GULP energy -234063.764772 kJ/mol
# GULP energy per Si atom -5572.946780 kJ/mol
# Density = 2.303378 g / cm^3
# Si number density = 23.086321 Si / 1000 Ang^3
#
#
#
# Elastic Constant Matrix: (Units=GPa)
#
#
# Indices 1 2 3 4 5 6 
#
# 1 53.1291 7.9148 8.6738 0.0000 0.0000 0.0000
# 2 7.9148 86.4045 55.9161 0.0000 0.0000 0.0000
# 3 8.6738 55.9161 248.3016 0.0000 0.0000 0.0000
# 4 0.0000 0.0000 0.0000 -3.6608 0.0000 0.0000
# 5 0.0000 0.0000 0.0000 0.0000 13.3942 0.0000
# 6 0.0000 0.0000 0.0000 0.0000 0.0000 27.7748
#
#
#
# Elastic Compliance Matrix: (Units=1/GPa)
#
#
# Indices 1 2 3 4 5 6 
#
# 1 0.019104 -0.001543 -0.000320 0.000000 0.000000 0.000000
# 2 -0.001543 0.013672 -0.003025 0.000000 0.000000 0.000000
# 3 -0.000320 -0.003025 0.004720 0.000000 0.000000 0.000000
# 4 0.000000 0.000000 0.000000 -0.273163 0.000000 0.000000
# 5 0.000000 0.000000 0.000000 0.000000 0.074659 0.000000
# 6 0.000000 0.000000 0.000000 0.000000 0.000000 0.036004
#
#
# Mechanical properties :
#
#
# Convention : Reuss Voigt Hill
#
# Bulk Modulus (GPa) = 36.07430 59.20494 47.63962
# Shear Modulus (GPa) = -47.17514 28.52366 -9.32574
#
# Velocity S-wave (km/s) = -4.52533 3.51881 -2.01203
# Velocity P-wave (km/s) = 3.41248 6.49693 3.90929
#
# Compressibility (1/GPa) = 0.02772057
#
# Stress axis : x y z
#
# Youngs Moduli (GPa) = 52.34462 73.13968 211.87504
#
# Poissons Ratio (x) = 0.11285 0.06778
# Poissons Ratio (y) = 0.08077 0.64094
# Poissons Ratio (z) = 0.01674 0.22125
#
# Static dielectric constant tensor:
#      x y z
#    x 1.861180 0.000000 0.000000 
#    y 0.000000 1.774970 0.000000 
#    z 0.000000 0.000000 1.950910 
# 
# From -- ./inp_files/16331.got.cif
#   From: 2010.05.17/outbox.cif.g08.bks.cpg/sg58_9_cif.got.tgz:16331.got - 2010.06.03 14:20:14.
