data_PCOD9444576
_publ_section_title
;
Structure prediction by ZEFSAII (Michael W. Deem and Ramdas Pophale) SiO2 
 PCOD9444576
Probable space group: P N N M
;
_chemical_formula_sum "Si O2"
_cell_formula_units_Z 64
_cell_length_a 22.473539
_cell_length_b 14.762520
_cell_length_c 8.239383
_cell_angle_alpha 90.000000
_cell_angle_beta 90.000000
_cell_angle_gamma 90.000000
_cell_volume 2733.547709
_symmetry_space_group_name_H-M "P N N M"
_symmetry_group_IT_number 58
_symmetry_cell_setting 'orthorhombic'
loop_
_space_group_symop_operation_xyz
x,y,z
-x,-y,z
1/2+x,1/2-y,1/2-z
1/2-x,1/2+y,1/2-z
-x,-y,-z
x,y,-z
1/2-x,1/2+y,1/2+z
1/2+x,1/2-y,1/2+z
loop_
_atom_site_type_symbol
_atom_site_label
_atom_site_fract_x
_atom_site_fract_y
_atom_site_fract_z
Si Si1 0.080307 0.056061 0.313043
Si Si2 0.285721 0.575369 0.196213
Si Si3 0.241500 0.867375 0.697634
Si Si4 0.624628 0.140993 0.304045
Si Si5 0.502215 0.199423 0.188100
Si Si6 0.179935 0.693148 0.689491
Si Si7 0.082125 0.557565 0.810531
Si Si8 0.957292 0.121662 0.817207
O O1 0.067382 0.079350 0.500000
O O2 0.145030 0.091105 0.268504
O O3 0.026342 0.091465 0.205306
O O4 0.078972 0.946603 0.296558
O O5 0.270621 0.471324 0.240508
O O6 0.243047 0.642528 0.291026
O O7 0.276880 0.584413 0.000000
O O8 0.241199 0.863070 0.500000
O O9 0.308230 0.840454 0.752608
O O10 0.192452 0.794624 0.751956
O O11 0.624979 0.143069 0.500000
O O12 0.570514 0.202711 0.244487
O O13 0.606853 0.038711 0.251831
O O14 0.437495 0.392933 0.500000
O O15 0.474898 0.101099 0.225132
O O16 0.460673 0.273269 0.274639
O O17 0.161627 0.695554 0.500000
O O18 0.134350 0.630560 0.785365
O O19 0.067985 0.548339 0.000000
O O20 0.999561 0.281292 0.500000
#
# Coordination Sequence:
#
# PCOD9444576 Si02
#       8
#     8   8   8   8   8   8   8   8
#     4  10  21  38  64  92 125 164 206 257 315 365
#     4  10  21  41  65  90 125 168 207 250 313 378
#     4   9  20  40  63  90 124 167 206 246 305 372
#     4  10  21  42  67  88 119 163 206 248 305 377
#     4  12  26  41  62  92 125 156 202 262 314 368
#     4  11  23  38  63  96 128 164 210 259 308 364
#     4  11  23  43  67  90 121 163 207 253 311 377
#     4  11  23  41  62  88 124 164 209 255 307 376
#
# _framework density 23.412797999999999
#
# number of rings (size 3 to 8) (size 9 to 14) (size 15 to 20)
#    0.000    1.500    1.250    4.500    3.500    3.500 
#    0.000    1.875    0.000    0.000    0.000    0.000 
#    0.000    0.000    0.000    0.000    0.000    0.000 
#
# Total GULP energy -358177.197883 kJ/mol
# GULP energy per Si atom -5596.518717 kJ/mol
# Density = 2.335951 g / cm^3
# Si number density = 23.412798 Si / 1000 Ang^3
#
#
#
# Elastic Constant Matrix: (Units=GPa)
#
#
# Indices 1 2 3 4 5 6 
#
# 1 67.2183 -7.4368 -0.7718 0.0000 0.0000 0.0000
# 2 -7.4368 78.9974 -8.6513 0.0000 0.0000 0.0000
# 3 -0.7718 -8.6513 31.8325 0.0000 0.0000 0.0000
# 4 0.0000 0.0000 0.0000 70.6917 0.0000 0.0000
# 5 0.0000 0.0000 0.0000 0.0000 26.5010 0.0000
# 6 0.0000 0.0000 0.0000 0.0000 0.0000 38.5905
#
#
#
# Elastic Compliance Matrix: (Units=1/GPa)
#
#
# Indices 1 2 3 4 5 6 
#
# 1 0.015052 0.001502 0.000773 0.000000 0.000000 0.000000
# 2 0.001502 0.013197 0.003623 0.000000 0.000000 0.000000
# 3 0.000773 0.003623 0.032418 0.000000 0.000000 0.000000
# 4 0.000000 0.000000 0.000000 0.014146 0.000000 0.000000
# 5 0.000000 0.000000 0.000000 0.000000 0.037734 0.000000
# 6 0.000000 0.000000 0.000000 0.000000 0.000000 0.025913
#
#
# Mechanical properties :
#
#
# Convention : Reuss Voigt Hill
#
# Bulk Modulus (GPa) = 13.80037 16.03648 14.91843
# Shear Modulus (GPa) = 33.15244 40.15052 36.65148
#
# Velocity S-wave (km/s) = 3.76706 4.14562 3.96086
# Velocity P-wave (km/s) = 4.98278 5.45704 5.22529
#
# Compressibility (1/GPa) = 0.07246181
#
# Stress axis : x y z
#
# Youngs Moduli (GPa) = 66.43669 75.77612 30.84729
#
# Poissons Ratio (x) = -0.11379 -0.02385
# Poissons Ratio (y) = -0.09976 -0.11176
# Poissons Ratio (z) = -0.05136 -0.27453
#
# Static dielectric constant tensor:
#      x y z
#    x 1.888150 0.000000 0.000000 
#    y 0.000000 1.930470 0.000000 
#    z 0.000000 0.000000 1.795070 
# 
# From -- ./inp_files/10011.got.cif
#   From: 2010.05.17/outbox.cif.g08.bks.cpg/sg58_6_cif.got.tgz:10011.got - 2010.06.03 14:20:14.
