data_PCOD9444699
_publ_section_title
;
Structure prediction by ZEFSAII (Michael W. Deem and Ramdas Pophale) SiO2 
 PCOD9444699
Probable space group: P N N M
;
_chemical_formula_sum "Si O2"
_cell_formula_units_Z 56
_cell_length_a 15.588877
_cell_length_b 5.269875
_cell_length_c 31.044156
_cell_angle_alpha 90.000000
_cell_angle_beta 90.000000
_cell_angle_gamma 90.000000
_cell_volume 2550.321907
_symmetry_space_group_name_H-M "P N N M"
_symmetry_group_IT_number 58
_symmetry_cell_setting 'orthorhombic'
loop_
_space_group_symop_operation_xyz
x,y,z
-x,-y,z
1/2+x,1/2-y,1/2-z
1/2-x,1/2+y,1/2-z
-x,-y,-z
x,y,-z
1/2-x,1/2+y,1/2+z
1/2+x,1/2-y,1/2+z
loop_
_atom_site_type_symbol
_atom_site_label
_atom_site_fract_x
_atom_site_fract_y
_atom_site_fract_z
Si Si1 0.354674 0.609544 0.137575
Si Si2 0.833649 0.482091 0.882620
Si Si3 0.104374 0.992379 0.734074
Si Si4 0.762631 0.864702 0.047088
Si Si5 0.925058 0.208750 0.047139
Si Si6 0.603405 0.010952 0.713816
Si Si7 0.910424 0.409890 0.407656
O O1 0.256226 0.665250 0.124344
O O2 0.358793 0.509722 0.186178
O O3 0.397694 0.379250 0.109631
O O4 0.400610 0.879716 0.130475
O O5 0.800052 0.704048 0.913503
O O6 0.912717 0.367361 0.909649
O O7 0.864146 0.539442 0.834733
O O8 0.130356 0.744809 0.761255
O O9 0.130788 0.243796 0.759517
O O10 0.000000 0.000000 0.730259
O O11 0.667267 0.946563 0.059064
O O12 0.831063 0.086915 0.044247
O O13 0.763014 0.733192 0.000000
O O14 0.936587 0.332227 0.000000
O O15 0.000000 0.000000 0.051360
O O16 0.500000 0.000000 0.712458
O O17 0.000000 0.500000 0.427710
#
# Coordination Sequence:
#
# PCOD9444699 Si02
#       7
#     8   8   8   8   8   8   8
#     4  11  23  40  67  94 131 169 217 270 321 388
#     4  11  24  39  62  91 130 166 219 272 329 385
#     4  10  21  40  59  89 124 166 212 265 319 385
#     4  10  23  42  63  93 132 169 215 271 328 390
#     4  10  22  40  65  92 125 173 220 268 328 390
#     4  10  24  38  61  90 126 166 214 264 324 383
#     4  11  22  40  66  99 129 172 218 264 325 389
#
# _framework density 21.958013000000001
#
# number of rings (size 3 to 8) (size 9 to 14) (size 15 to 20)
#    0.000    1.571    1.429    2.571    4.000    3.143 
#    0.000    2.143    0.000    2.571    0.000    0.000 
#    0.000    0.000    0.000    0.000    0.000    0.000 
#
# Total GULP energy -312477.853562 kJ/mol
# GULP energy per Si atom -5579.961671 kJ/mol
# Density = 2.190804 g / cm^3
# Si number density = 21.958013 Si / 1000 Ang^3
#
#
#
# Elastic Constant Matrix: (Units=GPa)
#
#
# Indices 1 2 3 4 5 6 
#
# 1 113.4695 37.7779 53.0001 0.0000 0.0000 0.0000
# 2 37.7779 87.2197 34.9779 0.0000 0.0000 0.0000
# 3 53.0001 34.9779 102.5109 0.0000 0.0000 0.0000
# 4 0.0000 0.0000 0.0000 145.5185 0.0000 0.0000
# 5 0.0000 0.0000 0.0000 0.0000 77.4833 0.0000
# 6 0.0000 0.0000 0.0000 0.0000 0.0000 23.1780
#
#
#
# Elastic Compliance Matrix: (Units=1/GPa)
#
#
# Indices 1 2 3 4 5 6 
#
# 1 0.012359 -0.003233 -0.005287 0.000000 0.000000 0.000000
# 2 -0.003233 0.014129 -0.003149 0.000000 0.000000 0.000000
# 3 -0.005287 -0.003149 0.013563 0.000000 0.000000 0.000000
# 4 0.000000 0.000000 0.000000 0.006872 0.000000 0.000000
# 5 0.000000 0.000000 0.000000 0.000000 0.012906 0.000000
# 6 0.000000 0.000000 0.000000 0.000000 0.000000 0.043144
#
#
# Mechanical properties :
#
#
# Convention : Reuss Voigt Hill
#
# Bulk Modulus (GPa) = 59.83547 61.63466 60.73507
# Shear Modulus (GPa) = 37.91309 61.06557 49.48933
#
# Velocity S-wave (km/s) = 4.15977 5.27925 4.75259
# Velocity P-wave (km/s) = 7.09793 8.08028 7.60499
#
# Compressibility (1/GPa) = 0.01671250
#
# Stress axis : x y z
#
# Youngs Moduli (GPa) = 80.91580 70.77859 73.73057
#
# Poissons Ratio (x) = 0.22882 0.38978
# Poissons Ratio (y) = 0.26159 0.23221
# Poissons Ratio (z) = 0.42776 0.22291
#
# Static dielectric constant tensor:
#      x y z
#    x 1.955010 0.000000 0.000000 
#    y 0.000000 1.862120 0.000000 
#    z 0.000000 0.000000 1.807320 
# 
# From -- ./inp_files/34189.got.cif
#   From: 2010.05.17/outbox.cif.g08.bks.cpg/sg58_18_cif.got.tgz:34189.got - 2010.06.03 14:20:14.
