data_PCOD9444042
_publ_section_title
;
Structure prediction by ZEFSAII (Michael W. Deem and Ramdas Pophale) SiO2 
 PCOD9444042
Probable space group: P N N M
;
_chemical_formula_sum "Si O2"
_cell_formula_units_Z 52
_cell_length_a 19.020690
_cell_length_b 12.563670
_cell_length_c 8.700642
_cell_angle_alpha 90.000000
_cell_angle_beta 90.000000
_cell_angle_gamma 90.000000
_cell_volume 2079.189568
_symmetry_space_group_name_H-M "P N N M"
_symmetry_group_IT_number 58
_symmetry_cell_setting 'orthorhombic'
loop_
_space_group_symop_operation_xyz
x,y,z
-x,-y,z
1/2+x,1/2-y,1/2-z
1/2-x,1/2+y,1/2-z
-x,-y,-z
x,y,-z
1/2-x,1/2+y,1/2+z
1/2+x,1/2-y,1/2+z
loop_
_atom_site_type_symbol
_atom_site_label
_atom_site_fract_x
_atom_site_fract_y
_atom_site_fract_z
Si Si1 0.011671 0.767429 0.319928
Si Si2 0.391171 0.844175 0.672585
Si Si3 0.402975 0.482480 0.823506
Si Si4 0.223284 0.822459 0.328341
Si Si5 0.903420 0.433153 0.678767
Si Si6 0.200593 0.827497 0.000000
Si Si7 0.380691 0.534952 0.500000
Si Si8 0.774114 0.453043 0.500000
O O1 0.019639 0.754275 0.500000
O O2 0.044921 0.882952 0.295486
O O3 0.060389 0.671730 0.254902
O O4 0.932429 0.737903 0.278665
O O5 0.414394 0.820550 0.500000
O O6 0.306805 0.838720 0.675261
O O7 0.414608 0.961775 0.723418
O O8 0.324025 0.430971 0.821103
O O9 0.410847 0.552767 0.669310
O O10 0.414161 0.523168 0.000000
O O11 0.204498 0.779010 0.500000
O O12 0.205634 0.770143 0.162974
O O13 0.926764 0.453302 0.500000
O O14 0.819720 0.423691 0.648142
O O15 0.262635 0.918344 0.000000
O O16 0.133430 0.906419 0.000000
O O17 0.304337 0.590414 0.500000
#
# Coordination Sequence:
#
# PCOD9444042 Si02
#       8
#     8   8   8   8   8   4   4   4
#     4  10  21  29  40  58  85 120 141 174 215 260
#     4  11  20  28  40  60  82 114 153 185 209 244
#     4   9  17  30  43  60  79 108 143 177 227 257
#     4   9  16  27  44  59  74  98 145 188 206 247
#     4   9  16  30  42  54  82 114 150 175 197 252
#     4   8  12  24  41  60  68  95 131 178 213 228
#     4   8  14  26  46  60  76  99 141 193 212 247
#     4   8  14  26  46  63  72 106 150 182 214 237
#
# _framework density 25.009747000000001
#
# number of rings (size 3 to 8) (size 9 to 14) (size 15 to 20)
#    0.923    1.846    1.538    0.923    2.154    2.462 
#    0.000    0.000    0.000    0.000    0.000    0.000 
#    0.000    0.000    0.000    6.923    0.000   30.769 
#
# Total GULP energy -290002.474035 kJ/mol
# GULP energy per Si atom -5576.970655 kJ/mol
# Density = 2.495282 g / cm^3
# Si number density = 25.009747 Si / 1000 Ang^3
#
#
#
# Elastic Constant Matrix: (Units=GPa)
#
#
# Indices 1 2 3 4 5 6 
#
# 1 118.1389 24.5987 23.4534 0.0000 0.0000 0.0000
# 2 24.5987 73.1259 17.8976 0.0000 0.0000 0.0000
# 3 23.4534 17.8976 126.2988 0.0000 0.0000 0.0000
# 4 0.0000 0.0000 0.0000 22.2106 0.0000 0.0000
# 5 0.0000 0.0000 0.0000 0.0000 29.9369 0.0000
# 6 0.0000 0.0000 0.0000 0.0000 0.0000 21.3835
#
#
#
# Elastic Compliance Matrix: (Units=1/GPa)
#
#
# Indices 1 2 3 4 5 6 
#
# 1 0.009313 -0.002807 -0.001332 0.000000 0.000000 0.000000
# 2 -0.002807 0.015012 -0.001606 0.000000 0.000000 0.000000
# 3 -0.001332 -0.001606 0.008393 0.000000 0.000000 0.000000
# 4 0.000000 0.000000 0.000000 0.045024 0.000000 0.000000
# 5 0.000000 0.000000 0.000000 0.000000 0.033404 0.000000
# 6 0.000000 0.000000 0.000000 0.000000 0.000000 0.046765
#
#
# Mechanical properties :
#
#
# Convention : Reuss Voigt Hill
#
# Bulk Modulus (GPa) = 47.10583 49.94032 48.52307
# Shear Modulus (GPa) = 28.33236 31.48045 29.90640
#
# Velocity S-wave (km/s) = 3.36944 3.55170 3.46177
# Velocity P-wave (km/s) = 5.83210 6.06887 5.95166
#
# Compressibility (1/GPa) = 0.02122880
#
# Stress axis : x y z
#
# Youngs Moduli (GPa) = 107.37145 66.61164 119.15214
#
# Poissons Ratio (x) = 0.18698 0.15868
# Poissons Ratio (y) = 0.30139 0.19137
# Poissons Ratio (z) = 0.14299 0.10699
#
# Static dielectric constant tensor:
#      x y z
#    x 2.005470 0.000000 0.000000 
#    y 0.000000 1.996530 0.000000 
#    z 0.000000 0.000000 1.976120 
# 
# From -- ./inp_files/8955.got.cif
#   From: 2010.05.17/outbox.cif.g08.bks.cpg/sg58_5_cif.got.tgz:8955.got - 2010.06.03 14:20:14.
