data_PCOD9444861
_publ_section_title
;
Structure prediction by ZEFSAII (Michael W. Deem and Ramdas Pophale) SiO2 
 PCOD9444861
Probable space group: P N N M
;
_chemical_formula_sum "Si O2"
_cell_formula_units_Z 36
_cell_length_a 5.030233
_cell_length_b 10.490993
_cell_length_c 25.289719
_cell_angle_alpha 90.000000
_cell_angle_beta 90.000000
_cell_angle_gamma 90.000000
_cell_volume 1334.592571
_symmetry_space_group_name_H-M "P N N M"
_symmetry_group_IT_number 58
_symmetry_cell_setting 'orthorhombic'
loop_
_space_group_symop_operation_xyz
x,y,z
-x,-y,z
1/2+x,1/2-y,1/2-z
1/2-x,1/2+y,1/2-z
-x,-y,-z
x,y,-z
1/2-x,1/2+y,1/2+z
1/2+x,1/2-y,1/2+z
loop_
_atom_site_type_symbol
_atom_site_label
_atom_site_fract_x
_atom_site_fract_y
_atom_site_fract_z
Si Si1 0.798099 0.883263 0.000000
Si Si2 0.227402 0.153275 0.881613
Si Si3 0.847977 0.369933 0.000000
Si Si4 0.000000 0.500000 0.182936
Si Si5 0.723044 0.298223 0.109653
Si Si6 0.276409 0.655318 0.262418
O O1 0.669062 0.888138 0.940590
O O2 0.000000 0.000000 0.000000
O O3 0.943778 0.746540 0.000000
O O4 0.432258 0.270180 0.869673
O O5 0.234213 0.099409 0.822156
O O6 0.913183 0.174290 0.892277
O O7 0.681023 0.356279 0.052383
O O8 0.000000 0.500000 0.000000
O O9 0.916696 0.389296 0.142295
O O10 0.768033 0.466515 0.224761
O O11 0.531426 0.746775 0.252303
#
# Coordination Sequence:
#
# PCOD9444861 Si02
#       6
#     4   8   4   4   8   8
#     4  10  25  50  76 109 151 205 257 315 383 461
#     4  11  23  49  69 102 146 190 249 312 379 457
#     4  10  21  42  70 108 136 187 241 307 381 441
#     4  12  24  43  70 105 140 194 246 308 388 458
#     4  11  23  42  72 104 141 184 242 318 382 459
#     4  12  25  45  68 102 144 189 245 304 375 456
#
# _framework density 26.974522
#
# number of rings (size 3 to 8) (size 9 to 14) (size 15 to 20)
#    0.000    0.889    5.556    0.667    0.000    3.556 
#   12.000    6.667    0.000    0.000    0.000    0.000 
#    0.000    0.000    0.000    0.000    0.000    0.000 
#
# Total GULP energy -200519.264040 kJ/mol
# GULP energy per Si atom -5569.979557 kJ/mol
# Density = 2.691313 g / cm^3
# Si number density = 26.974522 Si / 1000 Ang^3
#
#
#
# Elastic Constant Matrix: (Units=GPa)
#
#
# Indices 1 2 3 4 5 6 
#
# 1 168.1523 43.7013 19.1614 0.0000 0.0000 0.0000
# 2 43.7013 94.4814 14.5034 0.0000 0.0000 0.0000
# 3 19.1614 14.5034 218.8250 0.0000 0.0000 0.0000
# 4 0.0000 0.0000 0.0000 14.7733 0.0000 0.0000
# 5 0.0000 0.0000 0.0000 0.0000 19.0648 0.0000
# 6 0.0000 0.0000 0.0000 0.0000 0.0000 28.6669
#
#
#
# Elastic Compliance Matrix: (Units=1/GPa)
#
#
# Indices 1 2 3 4 5 6 
#
# 1 0.006792 -0.003082 -0.000391 0.000000 0.000000 0.000000
# 2 -0.003082 0.012091 -0.000532 0.000000 0.000000 0.000000
# 3 -0.000391 -0.000532 0.004639 0.000000 0.000000 0.000000
# 4 0.000000 0.000000 0.000000 0.067690 0.000000 0.000000
# 5 0.000000 0.000000 0.000000 0.000000 0.052453 0.000000
# 6 0.000000 0.000000 0.000000 0.000000 0.000000 0.034883
#
#
# Mechanical properties :
#
#
# Convention : Reuss Voigt Hill
#
# Bulk Modulus (GPa) = 64.45314 70.68786 67.57050
# Shear Modulus (GPa) = 26.07864 39.44053 32.75959
#
# Velocity S-wave (km/s) = 3.11269 3.82794 3.48870
# Velocity P-wave (km/s) = 6.07161 6.76756 6.42901
#
# Compressibility (1/GPa) = 0.01551515
#
# Stress axis : x y z
#
# Youngs Moduli (GPa) = 147.22282 82.70515 215.55043
#
# Poissons Ratio (x) = 0.25488 0.08418
# Poissons Ratio (y) = 0.45371 0.11457
# Poissons Ratio (z) = 0.05749 0.04396
#
# Static dielectric constant tensor:
#      x y z
#    x 2.108910 0.000000 0.000000 
#    y 0.000000 2.519230 0.000000 
#    z 0.000000 0.000000 2.058260 
# 
# From -- ./inp_files/32701.got.cif
#   From: 2010.05.17/outbox.cif.g08.bks.cpg/sg58_17_cif.got.tgz:32701.got - 2010.06.03 14:20:14.
