data_PCOD9444023
_publ_section_title
;
Structure prediction by ZEFSAII (Michael W. Deem and Ramdas Pophale) SiO2 
 PCOD9444023
Probable space group: P N N M
;
_chemical_formula_sum "Si O2"
_cell_formula_units_Z 56
_cell_length_a 8.886463
_cell_length_b 15.312553
_cell_length_c 20.274965
_cell_angle_alpha 90.000000
_cell_angle_beta 90.000000
_cell_angle_gamma 90.000000
_cell_volume 2758.904421
_symmetry_space_group_name_H-M "P N N M"
_symmetry_group_IT_number 58
_symmetry_cell_setting 'orthorhombic'
loop_
_space_group_symop_operation_xyz
x,y,z
-x,-y,z
1/2+x,1/2-y,1/2-z
1/2-x,1/2+y,1/2-z
-x,-y,-z
x,y,-z
1/2-x,1/2+y,1/2+z
1/2+x,1/2-y,1/2+z
loop_
_atom_site_type_symbol
_atom_site_label
_atom_site_fract_x
_atom_site_fract_y
_atom_site_fract_z
Si Si1 0.843954 0.882156 0.265941
Si Si2 0.194586 0.920964 0.292120
Si Si3 0.713823 0.172208 0.577872
Si Si4 0.345498 0.154636 0.863911
Si Si5 0.063909 0.782052 0.073129
Si Si6 0.634695 0.453202 0.572616
Si Si7 0.819564 0.695235 0.323175
O O1 0.770126 0.847890 0.198000
O O2 0.820319 0.799778 0.313333
O O3 0.022233 0.900813 0.270652
O O4 0.772400 0.976689 0.280977
O O5 0.227788 0.896358 0.368060
O O6 0.285154 0.856289 0.244178
O O7 0.725030 0.149813 0.500000
O O8 0.811294 0.259346 0.592907
O O9 0.539059 0.198942 0.592324
O O10 0.297479 0.064346 0.898873
O O11 0.517633 0.161889 0.844657
O O12 0.188277 0.816452 0.123260
O O13 0.939280 0.857907 0.066826
O O14 0.128729 0.766928 0.000000
O O15 0.500000 0.500000 0.612014
O O16 0.648864 0.494657 0.500000
#
# Coordination Sequence:
#
# PCOD9444023 Si02
#       7
#     8   8   8   8   8   8   8
#     4  11  24  42  63  94 127 171 215 271 337 394
#     4  11  24  42  66  95 128 172 222 269 333 410
#     4  10  20  41  67  92 125 173 223 269 324 400
#     4  11  22  36  64  95 125 166 218 272 332 393
#     4   9  21  38  62  89 125 172 212 255 327 394
#     4   9  19  37  60  87 124 174 216 258 320 401
#     4  12  23  41  64  96 133 168 213 278 333 390
#
# _framework density 20.297910999999999
#
# number of rings (size 3 to 8) (size 9 to 14) (size 15 to 20)
#    0.000    1.571    2.857    3.000    6.000    1.714 
#    0.000    2.143    0.000    4.286    0.000    0.000 
#    0.000    0.000    0.000    0.000    0.000    0.000 
#
# Total GULP energy -311960.343518 kJ/mol
# GULP energy per Si atom -5570.720420 kJ/mol
# Density = 2.025171 g / cm^3
# Si number density = 20.297911 Si / 1000 Ang^3
#
#
#
# Elastic Constant Matrix: (Units=GPa)
#
#
# Indices 1 2 3 4 5 6 
#
# 1 78.9720 26.7495 56.9779 0.0000 0.0000 0.0000
# 2 26.7495 84.2349 18.1205 0.0000 0.0000 0.0000
# 3 56.9779 18.1205 108.0198 0.0000 0.0000 0.0000
# 4 0.0000 0.0000 0.0000 17.7800 0.0000 0.0000
# 5 0.0000 0.0000 0.0000 0.0000 -1.4856 0.0000
# 6 0.0000 0.0000 0.0000 0.0000 0.0000 23.2093
#
#
#
# Elastic Compliance Matrix: (Units=1/GPa)
#
#
# Indices 1 2 3 4 5 6 
#
# 1 0.022086 -0.004676 -0.010865 0.000000 0.000000 0.000000
# 2 -0.004676 0.013306 0.000234 0.000000 0.000000 0.000000
# 3 -0.010865 0.000234 0.014949 0.000000 0.000000 0.000000
# 4 0.000000 0.000000 0.000000 0.056243 0.000000 0.000000
# 5 0.000000 0.000000 0.000000 0.000000 -0.673125 0.000000
# 6 0.000000 0.000000 0.000000 0.000000 0.000000 0.043086
#
#
# Mechanical properties :
#
#
# Convention : Reuss Voigt Hill
#
# Bulk Modulus (GPa) = 50.69127 52.76917 51.73022
# Shear Modulus (GPa) = -10.28248 19.19266 4.45509
#
# Velocity S-wave (km/s) = -2.25317 3.07831 1.48311
# Velocity P-wave (km/s) = 4.27303 6.22001 5.33607
#
# Compressibility (1/GPa) = 0.01972726
#
# Stress axis : x y z
#
# Youngs Moduli (GPa) = 45.27765 75.15353 66.89207
#
# Poissons Ratio (x) = 0.35143 0.72681
# Poissons Ratio (y) = 0.21173 -0.01568
# Poissons Ratio (z) = 0.49196 -0.01762
#
# Static dielectric constant tensor:
#      x y z
#    x 1.750470 0.000000 0.000000 
#    y 0.000000 1.778350 0.000000 
#    z 0.000000 0.000000 1.798210 
# 
# From -- ./inp_files/29068.got.cif
#   From: 2010.05.17/outbox.cif.g08.bks.cpg/sg58_15_cif.got.tgz:29068.got - 2010.06.03 14:20:14.
