data_PCOD9444068
_publ_section_title
;
Structure prediction by ZEFSAII (Michael W. Deem and Ramdas Pophale) SiO2 
 PCOD9444068
Probable space group: P N N M
;
_chemical_formula_sum "Si O2"
_cell_formula_units_Z 58
_cell_length_a 23.592111
_cell_length_b 8.363063
_cell_length_c 13.871236
_cell_angle_alpha 90.000000
_cell_angle_beta 90.000000
_cell_angle_gamma 90.000000
_cell_volume 2736.826914
_symmetry_space_group_name_H-M "P N N M"
_symmetry_group_IT_number 58
_symmetry_cell_setting 'orthorhombic'
loop_
_space_group_symop_operation_xyz
x,y,z
-x,-y,z
1/2+x,1/2-y,1/2-z
1/2-x,1/2+y,1/2-z
-x,-y,-z
x,y,-z
1/2-x,1/2+y,1/2+z
1/2+x,1/2-y,1/2+z
loop_
_atom_site_type_symbol
_atom_site_label
_atom_site_fract_x
_atom_site_fract_y
_atom_site_fract_z
Si Si1 0.418178 0.630130 0.227527
Si Si2 0.333631 0.537865 0.610751
Si Si3 0.483210 0.166007 0.804855
Si Si4 0.619852 0.668490 0.114786
Si Si5 0.342607 0.836193 0.894086
Si Si6 0.500000 0.000000 0.000000
Si Si7 0.284493 0.145192 0.818862
Si Si8 0.779379 0.317582 0.105208
O O1 0.387756 0.562967 0.322069
O O2 0.482505 0.686169 0.238401
O O3 0.406198 0.501424 0.143538
O O4 0.384610 0.786797 0.189887
O O5 0.343843 0.582089 0.500000
O O6 0.281147 0.639742 0.653398
O O7 0.311410 0.354238 0.611110
O O8 0.417669 0.206621 0.822458
O O9 0.500000 0.000000 0.753136
O O10 0.503759 0.135044 0.914239
O O11 0.683947 0.691136 0.152601
O O12 0.616825 0.696243 0.000000
O O13 0.287804 0.721148 0.893140
O O14 0.316246 0.010748 0.880676
O O15 0.369803 0.830585 0.000000
O O16 0.292052 0.101068 0.706740
O O17 0.792707 0.390119 0.000000
#
# Coordination Sequence:
#
# PCOD9444068 Si02
#       8
#     8   8   8   8   8   2   8   8
#     4  12  23  36  60  87 120 159 200 249 299 355
#     4  10  21  40  60  85 122 163 199 244 304 359
#     4  10  22  39  59  84 119 156 199 237 303 368
#     4  12  23  35  57  92 125 153 199 255 299 357
#     4  10  21  34  54  81 119 161 193 230 294 357
#     4   8  20  40  62  80 118 164 194 224 308 386
#     4  11  20  37  60  86 119 164 203 238 295 364
#     4   9  18  36  57  82 118 156 197 249 293 349
#
# _framework density 21.192425
#
# number of rings (size 3 to 8) (size 9 to 14) (size 15 to 20)
#    0.414    1.103    3.448    3.724    1.931    0.552 
#    0.000    0.690    0.000    2.897    0.000    0.000 
#    0.000    0.000    0.000    0.000    0.000    0.000 
#
# Total GULP energy -323243.763547 kJ/mol
# GULP energy per Si atom -5573.168337 kJ/mol
# Density = 2.114419 g / cm^3
# Si number density = 21.192425 Si / 1000 Ang^3
#
#
#
# Elastic Constant Matrix: (Units=GPa)
#
#
# Indices 1 2 3 4 5 6 
#
# 1 55.2118 -0.2124 20.1448 0.0000 0.0000 0.0000
# 2 -0.2124 33.9656 -4.3759 0.0000 0.0000 0.0000
# 3 20.1448 -4.3759 119.6621 0.0000 0.0000 0.0000
# 4 0.0000 0.0000 0.0000 19.3196 0.0000 0.0000
# 5 0.0000 0.0000 0.0000 0.0000 20.9196 0.0000
# 6 0.0000 0.0000 0.0000 0.0000 0.0000 21.8281
#
#
#
# Elastic Compliance Matrix: (Units=1/GPa)
#
#
# Indices 1 2 3 4 5 6 
#
# 1 0.019300 -0.000299 -0.003260 0.000000 0.000000 0.000000
# 2 -0.000299 0.029586 0.001132 0.000000 0.000000 0.000000
# 3 -0.003260 0.001132 0.008947 0.000000 0.000000 0.000000
# 4 0.000000 0.000000 0.000000 0.051761 0.000000 0.000000
# 5 0.000000 0.000000 0.000000 0.000000 0.047802 0.000000
# 6 0.000000 0.000000 0.000000 0.000000 0.000000 0.045813
#
#
# Mechanical properties :
#
#
# Convention : Reuss Voigt Hill
#
# Bulk Modulus (GPa) = 18.87548 26.66139 22.76844
# Shear Modulus (GPa) = 22.15110 25.29899 23.72504
#
# Velocity S-wave (km/s) = 3.23652 3.45885 3.34953
# Velocity P-wave (km/s) = 4.78464 5.34411 5.07209
#
# Compressibility (1/GPa) = 0.05297878
#
# Stress axis : x y z
#
# Youngs Moduli (GPa) = 51.81232 33.80026 111.76799
#
# Poissons Ratio (x) = 0.01012 0.36438
# Poissons Ratio (y) = 0.01551 -0.12655
# Poissons Ratio (z) = 0.16891 -0.03827
#
# Static dielectric constant tensor:
#      x y z
#    x 1.818070 0.000000 0.000000 
#    y 0.000000 1.870080 0.000000 
#    z 0.000000 0.000000 1.727370 
# 
# From -- ./inp_files/23499.got.cif
#   From: 2010.05.17/outbox.cif.g08.bks.cpg/sg58_12_cif.got.tgz:23499.got - 2010.06.03 14:20:14.
