data_PCOD9444144
_publ_section_title
;
Structure prediction by ZEFSAII (Michael W. Deem and Ramdas Pophale) SiO2 
 PCOD9444144
Probable space group: P N N M
;
_chemical_formula_sum "Si O2"
_cell_formula_units_Z 24
_cell_length_a 11.170550
_cell_length_b 9.761756
_cell_length_c 9.066806
_cell_angle_alpha 90.000000
_cell_angle_beta 90.000000
_cell_angle_gamma 90.000000
_cell_volume 988.682457
_symmetry_space_group_name_H-M "P N N M"
_symmetry_group_IT_number 58
_symmetry_cell_setting 'orthorhombic'
loop_
_space_group_symop_operation_xyz
x,y,z
-x,-y,z
1/2+x,1/2-y,1/2-z
1/2-x,1/2+y,1/2-z
-x,-y,-z
x,y,-z
1/2-x,1/2+y,1/2+z
1/2+x,1/2-y,1/2+z
loop_
_atom_site_type_symbol
_atom_site_label
_atom_site_fract_x
_atom_site_fract_y
_atom_site_fract_z
Si Si1 0.676346 0.821397 0.500000
Si Si2 0.360859 0.503274 0.500000
Si Si3 0.795730 0.510054 0.752511
Si Si4 0.385404 0.392900 0.000000
Si Si5 0.086196 0.311748 0.500000
O O1 0.656960 0.661238 0.500000
O O2 0.821307 0.816605 0.500000
O O3 0.636268 0.903472 0.643360
O O4 0.500000 0.500000 0.500000
O O5 0.296541 0.564473 0.641732
O O6 0.704578 0.592278 0.860346
O O7 0.879441 0.600059 0.645461
O O8 0.500000 0.500000 0.000000
O O9 0.453370 0.246772 0.000000
#
# Coordination Sequence:
#
# PCOD9444144 Si02
#       5
#     4   4   8   4   4
#     4   9  18  38  59  89 132 164 212 275 326 379
#     4  10  21  35  62 103 120 169 227 261 319 400
#     4   9  19  36  62  98 128 168 218 276 328 381
#     4  11  18  36  70  91 121 185 225 267 337 399
#     4  10  21  36  62  99 132 167 229 278 329 403
#
# _framework density 24.274730999999999
#
# number of rings (size 3 to 8) (size 9 to 14) (size 15 to 20)
#    0.000    2.667    3.333    1.000    0.000    0.000 
#    0.000   33.333    0.000   24.000    0.000    0.000 
#    0.000    0.000    0.000    0.000    0.000    0.000 
#
# Total GULP energy -133946.982870 kJ/mol
# GULP energy per Si atom -5581.124286 kJ/mol
# Density = 2.421948 g / cm^3
# Si number density = 24.274731 Si / 1000 Ang^3
#
#
#
# Elastic Constant Matrix: (Units=GPa)
#
#
# Indices 1 2 3 4 5 6 
#
# 1 77.4736 24.5110 21.9643 0.0000 0.0000 0.0000
# 2 24.5110 87.0747 35.0306 0.0000 0.0000 0.0000
# 3 21.9643 35.0306 176.8039 0.0000 0.0000 0.0000
# 4 0.0000 0.0000 0.0000 -14.2448 0.0000 0.0000
# 5 0.0000 0.0000 0.0000 0.0000 0.9401 0.0000
# 6 0.0000 0.0000 0.0000 0.0000 0.0000 42.8099
#
#
#
# Elastic Compliance Matrix: (Units=1/GPa)
#
#
# Indices 1 2 3 4 5 6 
#
# 1 0.014353 -0.003611 -0.001068 0.000000 0.000000 0.000000
# 2 -0.003611 0.013387 -0.002204 0.000000 0.000000 0.000000
# 3 -0.001068 -0.002204 0.006225 0.000000 0.000000 0.000000
# 4 0.000000 0.000000 0.000000 -0.070201 0.000000 0.000000
# 5 0.000000 0.000000 0.000000 0.000000 1.063669 0.000000
# 6 0.000000 0.000000 0.000000 0.000000 0.000000 0.023359
#
#
# Mechanical properties :
#
#
# Convention : Reuss Voigt Hill
#
# Bulk Modulus (GPa) = 49.50277 56.04044 52.77161
# Shear Modulus (GPa) = 4.66727 23.22413 13.94570
#
# Velocity S-wave (km/s) = 1.38811 3.09645 2.39946
# Velocity P-wave (km/s) = 4.79647 5.99333 5.42799
#
# Compressibility (1/GPa) = 0.02020089
#
# Stress axis : x y z
#
# Youngs Moduli (GPa) = 69.67363 74.69695 160.63517
#
# Poissons Ratio (x) = 0.26971 0.17150
# Poissons Ratio (y) = 0.25157 0.35403
# Poissons Ratio (z) = 0.07439 0.16463
#
# Static dielectric constant tensor:
#      x y z
#    x 2.112910 0.000000 0.000000 
#    y 0.000000 2.037390 0.000000 
#    z 0.000000 0.000000 1.954220 
# 
# From -- ./inp_files/3322.got.cif
#   From: 2010.05.17/outbox.cif.g08.bks.cpg/sg58_2_cif.got.tgz:3322.got - 2010.06.03 14:20:14.
