data_PCOD9444700
_publ_section_title
;
Structure prediction by ZEFSAII (Michael W. Deem and Ramdas Pophale) SiO2 
 PCOD9444700
Probable space group: P N N M
;
_chemical_formula_sum "Si O2"
_cell_formula_units_Z 48
_cell_length_a 7.608338
_cell_length_b 9.693339
_cell_length_c 30.988292
_cell_angle_alpha 90.000000
_cell_angle_beta 90.000000
_cell_angle_gamma 90.000000
_cell_volume 2285.392716
_symmetry_space_group_name_H-M "P N N M"
_symmetry_group_IT_number 58
_symmetry_cell_setting 'orthorhombic'
loop_
_space_group_symop_operation_xyz
x,y,z
-x,-y,z
1/2+x,1/2-y,1/2-z
1/2-x,1/2+y,1/2-z
-x,-y,-z
x,y,-z
1/2-x,1/2+y,1/2+z
1/2+x,1/2-y,1/2+z
loop_
_atom_site_type_symbol
_atom_site_label
_atom_site_fract_x
_atom_site_fract_y
_atom_site_fract_z
Si Si1 0.092753 0.862982 0.202510
Si Si2 0.841718 0.612733 0.217271
Si Si3 0.131328 0.708864 0.451035
Si Si4 0.235543 0.911045 0.952014
Si Si5 0.745081 0.591449 0.123514
Si Si6 0.357461 0.204550 0.380457
O O1 0.225095 0.904409 0.240327
O O2 0.187435 0.779160 0.164380
O O3 0.941015 0.759489 0.219062
O O4 0.000000 0.000000 0.184738
O O5 0.715521 0.605768 0.175011
O O6 0.000000 0.500000 0.213698
O O7 0.169418 0.761692 0.500000
O O8 0.251531 0.573714 0.442966
O O9 0.149882 0.817072 0.412406
O O10 0.934572 0.648233 0.452010
O O11 0.142951 0.818851 0.916967
O O12 0.162879 0.891143 0.000000
O O13 0.737810 0.429687 0.112075
O O14 0.946517 0.644612 0.121920
#
# Coordination Sequence:
#
# PCOD9444700 Si02
#       6
#     8   8   8   8   8   8
#     4  11  24  39  66  90 120 165 203 253 308 366
#     4  11  22  45  61  88 128 158 203 254 306 364
#     4   9  20  39  61  87 120 158 197 244 299 355
#     4   9  20  39  60  88 123 153 197 250 293 354
#     4  10  21  40  60  81 123 159 192 247 298 357
#     4  10  22  39  57  87 120 154 198 244 299 354
#
# _framework density 21.002955
#
# number of rings (size 3 to 8) (size 9 to 14) (size 15 to 20)
#    0.000    2.000    3.333    2.000    4.667    3.333 
#    3.000    5.000    0.000    0.000    0.000    0.000 
#    0.000    0.000    0.000    0.000    0.000    0.000 
#
# Total GULP energy -267972.452371 kJ/mol
# GULP energy per Si atom -5582.759424 kJ/mol
# Density = 2.095515 g / cm^3
# Si number density = 21.002955 Si / 1000 Ang^3
#
#
#
# Elastic Constant Matrix: (Units=GPa)
#
#
# Indices 1 2 3 4 5 6 
#
# 1 22.3077 31.0584 43.4439 0.0000 0.0000 0.0000
# 2 31.0584 101.2379 63.4577 0.0000 0.0000 0.0000
# 3 43.4439 63.4577 147.0864 0.0000 0.0000 0.0000
# 4 0.0000 0.0000 0.0000 53.0980 0.0000 0.0000
# 5 0.0000 0.0000 0.0000 0.0000 2.5551 0.0000
# 6 0.0000 0.0000 0.0000 0.0000 0.0000 32.3220
#
#
#
# Elastic Compliance Matrix: (Units=1/GPa)
#
#
# Indices 1 2 3 4 5 6 
#
# 1 0.134726 -0.022464 -0.030101 0.000000 0.000000 0.000000
# 2 -0.022464 0.017285 -0.000822 0.000000 0.000000 0.000000
# 3 -0.030101 -0.000822 0.016044 0.000000 0.000000 0.000000
# 4 0.000000 0.000000 0.000000 0.018833 0.000000 0.000000
# 5 0.000000 0.000000 0.000000 0.000000 0.391369 0.000000
# 6 0.000000 0.000000 0.000000 0.000000 0.000000 0.030939
#
#
# Mechanical properties :
#
#
# Convention : Reuss Voigt Hill
#
# Bulk Modulus (GPa) = 16.31862 60.72802 38.52332
# Shear Modulus (GPa) = 6.78982 26.43983 16.61482
#
# Velocity S-wave (km/s) = 1.79995 3.55189 2.81565
# Velocity P-wave (km/s) = 3.47941 6.76743 5.38072
#
# Compressibility (1/GPa) = 0.06127970
#
# Stress axis : x y z
#
# Youngs Moduli (GPa) = 7.42250 57.85466 62.32762
#
# Poissons Ratio (x) = 1.29964 1.87614
# Poissons Ratio (y) = 0.16674 0.05124
# Poissons Ratio (z) = 0.22343 0.04757
#
# Static dielectric constant tensor:
#      x y z
#    x 1.791100 0.000000 0.000000 
#    y 0.000000 1.745400 0.000000 
#    z 0.000000 0.000000 1.751120 
# 
# From -- ./inp_files/34533.got.cif
#   From: 2010.05.17/outbox.cif.g08.bks.cpg/sg58_18_cif.got.tgz:34533.got - 2010.06.03 14:20:14.
