data_PCOD9444316
_publ_section_title
;
Structure prediction by ZEFSAII (Michael W. Deem and Ramdas Pophale) SiO2 
 PCOD9444316
Probable space group: P N N M
;
_chemical_formula_sum "Si O2"
_cell_formula_units_Z 48
_cell_length_a 8.533254
_cell_length_b 9.124293
_cell_length_c 29.943709
_cell_angle_alpha 90.000000
_cell_angle_beta 90.000000
_cell_angle_gamma 90.000000
_cell_volume 2331.414480
_symmetry_space_group_name_H-M "P N N M"
_symmetry_group_IT_number 58
_symmetry_cell_setting 'orthorhombic'
loop_
_space_group_symop_operation_xyz
x,y,z
-x,-y,z
1/2+x,1/2-y,1/2-z
1/2-x,1/2+y,1/2-z
-x,-y,-z
x,y,-z
1/2-x,1/2+y,1/2+z
1/2+x,1/2-y,1/2+z
loop_
_atom_site_type_symbol
_atom_site_label
_atom_site_fract_x
_atom_site_fract_y
_atom_site_fract_z
Si Si1 0.945574 0.832447 0.661247
Si Si2 0.416137 0.152847 0.757167
Si Si3 0.857310 0.404573 0.883545
Si Si4 0.275091 0.288225 0.895206
Si Si5 0.093204 0.148450 0.808861
Si Si6 0.523202 0.330564 0.447963
O O1 0.763816 0.832755 0.650206
O O2 0.998478 0.731367 0.701343
O O3 0.045272 0.777471 0.618640
O O4 0.000000 0.000000 0.670953
O O5 0.235989 0.130171 0.772821
O O6 0.462845 0.253326 0.715538
O O7 0.500000 0.000000 0.749442
O O8 0.758599 0.539889 0.904082
O O9 0.000000 0.500000 0.863317
O O10 0.924838 0.285603 0.918067
O O11 0.176277 0.224846 0.851922
O O12 0.204192 0.203872 0.936785
O O13 0.000000 0.000000 0.820810
O O14 0.500000 0.500000 0.435772
O O15 0.487176 0.310548 0.500000
#
# Coordination Sequence:
#
# PCOD9444316 Si02
#       6
#     8   8   8   8   8   8
#     4   9  19  38  58  83 116 149 189 235 285 338
#     4  11  24  37  56  84 115 153 194 238 283 335
#     4   9  19  34  59  84 108 144 184 231 282 335
#     4   9  20  37  59  84 110 147 188 232 285 340
#     4  11  23  40  58  82 116 152 194 238 286 338
#     4  10  21  37  57  83 114 148 187 231 282 343
#
# _framework density 20.588357999999999
#
# number of rings (size 3 to 8) (size 9 to 14) (size 15 to 20)
#    0.000    2.167    0.000    2.000    0.000   15.667 
#    0.000    0.833    0.000    8.000    0.000    0.000 
#    0.000    0.000    0.000    0.000    0.000    0.000 
#
# Total GULP energy -267745.296870 kJ/mol
# GULP energy per Si atom -5578.027018 kJ/mol
# Density = 2.054150 g / cm^3
# Si number density = 20.588358 Si / 1000 Ang^3
#
#
#
# Elastic Constant Matrix: (Units=GPa)
#
#
# Indices 1 2 3 4 5 6 
#
# 1 122.3815 42.5230 49.9347 0.0000 0.0000 0.0000
# 2 42.5230 121.3257 48.9102 0.0000 0.0000 0.0000
# 3 49.9347 48.9102 56.7201 0.0000 0.0000 0.0000
# 4 0.0000 0.0000 0.0000 12.0736 0.0000 0.0000
# 5 0.0000 0.0000 0.0000 0.0000 25.7984 0.0000
# 6 0.0000 0.0000 0.0000 0.0000 0.0000 25.5864
#
#
#
# Elastic Compliance Matrix: (Units=1/GPa)
#
#
# Indices 1 2 3 4 5 6 
#
# 1 0.012752 0.000086 -0.011301 0.000000 0.000000 0.000000
# 2 0.000086 0.012635 -0.010971 0.000000 0.000000 0.000000
# 3 -0.011301 -0.010971 0.037040 0.000000 0.000000 0.000000
# 4 0.000000 0.000000 0.000000 0.082825 0.000000 0.000000
# 5 0.000000 0.000000 0.000000 0.000000 0.038762 0.000000
# 6 0.000000 0.000000 0.000000 0.000000 0.000000 0.039083
#
#
# Mechanical properties :
#
#
# Convention : Reuss Voigt Hill
#
# Bulk Modulus (GPa) = 55.38535 64.79591 60.09063
# Shear Modulus (GPa) = 18.28230 23.29563 20.78897
#
# Velocity S-wave (km/s) = 2.98315 3.36742 3.18109
# Velocity P-wave (km/s) = 6.23099 6.83080 6.53778
#
# Compressibility (1/GPa) = 0.01805532
#
# Stress axis : x y z
#
# Youngs Moduli (GPa) = 78.41691 79.14641 26.99771
#
# Poissons Ratio (x) = -0.00684 0.30511
# Poissons Ratio (y) = -0.00677 0.29620
# Poissons Ratio (z) = 0.88621 0.86833
#
# Static dielectric constant tensor:
#      x y z
#    x 1.777820 0.000000 0.000000 
#    y 0.000000 1.748430 0.000000 
#    z 0.000000 0.000000 1.744420 
# 
# From -- ./inp_files/34574.got.cif
#   From: 2010.05.17/outbox.cif.g08.bks.cpg/sg58_18_cif.got.tgz:34574.got - 2010.06.03 14:20:14.
