data_PCOD9444430
_publ_section_title
;
Structure prediction by ZEFSAII (Michael W. Deem and Ramdas Pophale) SiO2 
 PCOD9444430
Probable space group: P N N M
;
_chemical_formula_sum "Si O2"
_cell_formula_units_Z 28
_cell_length_a 7.330228
_cell_length_b 5.644707
_cell_length_c 28.865036
_cell_angle_alpha 90.000000
_cell_angle_beta 90.000000
_cell_angle_gamma 90.000000
_cell_volume 1194.348286
_symmetry_space_group_name_H-M "P N N M"
_symmetry_group_IT_number 58
_symmetry_cell_setting 'orthorhombic'
loop_
_space_group_symop_operation_xyz
x,y,z
-x,-y,z
1/2+x,1/2-y,1/2-z
1/2-x,1/2+y,1/2-z
-x,-y,-z
x,y,-z
1/2-x,1/2+y,1/2+z
1/2+x,1/2-y,1/2+z
loop_
_atom_site_type_symbol
_atom_site_label
_atom_site_fract_x
_atom_site_fract_y
_atom_site_fract_z
Si Si1 0.304284 0.904415 0.699453
Si Si2 0.000000 0.000000 0.774982
Si Si3 0.778043 0.485619 0.554287
Si Si4 0.282677 0.516228 0.902699
O O1 0.364354 0.637211 0.690939
O O2 0.500000 0.000000 0.717484
O O3 0.252385 0.029732 0.652325
O O4 0.149593 0.905295 0.737930
O O5 0.734225 0.472678 0.500000
O O6 0.714239 0.739679 0.574449
O O7 0.000000 0.500000 0.558726
O O8 0.715518 0.238786 0.578040
O O9 0.500000 0.500000 0.910121
#
# Coordination Sequence:
#
# PCOD9444430 Si02
#       4
#     8   4   8   8
#     4  12  26  44  68  98 137 179 231 285 352 408
#     4  12  26  46  68  98 132 188 232 290 346 426
#     4   9  18  35  62  97 133 174 222 275 339 411
#     4  10  21  37  64  97 134 174 224 282 338 410
#
# _framework density 23.443746999999998
#
# number of rings (size 3 to 8) (size 9 to 14) (size 15 to 20)
#    0.000    1.429    4.286    0.857    4.000    3.429 
#    5.143    0.000    0.000    5.143    0.000    0.000 
#    0.000    0.000    0.000    0.000    0.000    0.000 
#
# Total GULP energy -156001.208376 kJ/mol
# GULP energy per Si atom -5571.471728 kJ/mol
# Density = 2.339039 g / cm^3
# Si number density = 23.443747 Si / 1000 Ang^3
#
#
#
# Elastic Constant Matrix: (Units=GPa)
#
#
# Indices 1 2 3 4 5 6 
#
# 1 82.8126 29.8585 -9.2145 0.0000 0.0000 0.0000
# 2 29.8585 150.0028 60.3063 0.0000 0.0000 0.0000
# 3 -9.2145 60.3063 64.8163 0.0000 0.0000 0.0000
# 4 0.0000 0.0000 0.0000 -21.9904 0.0000 0.0000
# 5 0.0000 0.0000 0.0000 0.0000 202.2558 0.0000
# 6 0.0000 0.0000 0.0000 0.0000 0.0000 -15.3418
#
#
#
# Elastic Compliance Matrix: (Units=1/GPa)
#
#
# Indices 1 2 3 4 5 6 
#
# 1 0.015204 -0.006223 0.007952 0.000000 0.000000 0.000000
# 2 -0.006223 0.013198 -0.013164 0.000000 0.000000 0.000000
# 3 0.007952 -0.013164 0.028807 0.000000 0.000000 0.000000
# 4 0.000000 0.000000 0.000000 -0.045474 0.000000 0.000000
# 5 0.000000 0.000000 0.000000 0.000000 0.004944 0.000000
# 6 0.000000 0.000000 0.000000 0.000000 0.000000 -0.065181
#
#
# Mechanical properties :
#
#
# Convention : Reuss Voigt Hill
#
# Bulk Modulus (GPa) = 29.12289 51.05914 40.09102
# Shear Modulus (GPa) = -352.47460 47.43013 -152.52224
#
# Velocity S-wave (km/s) = -12.27499 4.50282 -8.07465
# Velocity P-wave (km/s) = 13.72775 6.99003 8.35436
#
# Compressibility (1/GPa) = 0.03433725
#
# Stress axis : x y z
#
# Youngs Moduli (GPa) = 65.77174 75.77045 34.71398
#
# Poissons Ratio (x) = 0.47154 -0.27604
# Poissons Ratio (y) = 0.40932 0.45698
# Poissons Ratio (z) = -0.52300 0.99745
#
# Static dielectric constant tensor:
#      x y z
#    x 1.883800 0.000000 0.000000 
#    y 0.000000 3.107840 0.000000 
#    z 0.000000 0.000000 1.805110 
# 
# From -- ./inp_files/33056.got.cif
#   From: 2010.05.17/outbox.cif.g08.bks.cpg/sg58_17_cif.got.tgz:33056.got - 2010.06.03 14:20:14.
