data_PCOD9444808
_publ_section_title
;
Structure prediction by ZEFSAII (Michael W. Deem and Ramdas Pophale) SiO2 
 PCOD9444808
Probable space group: P N N M
;
_chemical_formula_sum "Si O2"
_cell_formula_units_Z 56
_cell_length_a 14.132426
_cell_length_b 12.220215
_cell_length_c 14.288554
_cell_angle_alpha 90.000000
_cell_angle_beta 90.000000
_cell_angle_gamma 90.000000
_cell_volume 2467.651625
_symmetry_space_group_name_H-M "P N N M"
_symmetry_group_IT_number 58
_symmetry_cell_setting 'orthorhombic'
loop_
_space_group_symop_operation_xyz
x,y,z
-x,-y,z
1/2+x,1/2-y,1/2-z
1/2-x,1/2+y,1/2-z
-x,-y,-z
x,y,-z
1/2-x,1/2+y,1/2+z
1/2+x,1/2-y,1/2+z
loop_
_atom_site_type_symbol
_atom_site_label
_atom_site_fract_x
_atom_site_fract_y
_atom_site_fract_z
Si Si1 0.397455 0.639576 0.397477
Si Si2 0.704460 0.104815 0.205253
Si Si3 0.636457 0.328881 0.191732
Si Si4 0.742761 0.527618 0.105633
Si Si5 0.557116 0.678812 0.108511
Si Si6 0.887009 0.123903 0.897109
Si Si7 0.408807 0.071919 0.887874
O O1 0.361579 0.677085 0.500000
O O2 0.345788 0.672531 0.302924
O O3 0.508183 0.672565 0.387557
O O4 0.397780 0.507671 0.398777
O O5 0.642693 0.202526 0.163226
O O6 0.691204 0.078436 0.314285
O O7 0.811392 0.143666 0.183518
O O8 0.680551 0.993558 0.151473
O O9 0.709031 0.407852 0.139523
O O10 0.529859 0.366244 0.169229
O O11 0.647672 0.601029 0.107989
O O12 0.779752 0.526275 0.000000
O O13 0.583957 0.801539 0.140153
O O14 0.523235 0.685360 0.000000
O O15 0.849370 0.156776 0.000000
O O16 0.500000 0.000000 0.857996
O O17 0.404049 0.070006 0.000000
#
# Coordination Sequence:
#
# PCOD9444808 Si02
#       7
#     8   8   8   8   8   8   8
#     4   9  19  37  59  87 119 154 203 258 306 365
#     4  12  24  38  62  93 128 168 212 260 319 381
#     4  12  23  38  65  91 124 167 214 260 317 387
#     4  11  26  43  61  92 132 168 210 266 324 383
#     4  10  22  41  67  92 122 166 213 264 325 383
#     4   9  18  35  60  88 117 150 198 257 308 357
#     4  10  21  41  65  93 126 161 211 269 320 377
#
# _framework density 22.693641
#
# number of rings (size 3 to 8) (size 9 to 14) (size 15 to 20)
#    0.000    1.571    2.857    3.000    4.000    3.429 
#    0.000    0.000    0.000    0.429    0.000    0.000 
#    0.000    0.000    0.000    0.000    0.000    0.000 
#
# Total GULP energy -312903.503721 kJ/mol
# GULP energy per Si atom -5587.562566 kJ/mol
# Density = 2.264199 g / cm^3
# Si number density = 22.693641 Si / 1000 Ang^3
#
#
#
# Elastic Constant Matrix: (Units=GPa)
#
#
# Indices 1 2 3 4 5 6 
#
# 1 31.8498 0.2773 -5.5767 0.0000 0.0000 0.0000
# 2 0.2773 86.3663 6.2688 0.0000 0.0000 0.0000
# 3 -5.5767 6.2688 83.4262 0.0000 0.0000 0.0000
# 4 0.0000 0.0000 0.0000 14.9585 0.0000 0.0000
# 5 0.0000 0.0000 0.0000 0.0000 23.6183 0.0000
# 6 0.0000 0.0000 0.0000 0.0000 0.0000 23.4867
#
#
#
# Elastic Compliance Matrix: (Units=1/GPa)
#
#
# Indices 1 2 3 4 5 6 
#
# 1 0.031775 -0.000258 0.002143 0.000000 0.000000 0.000000
# 2 -0.000258 0.011644 -0.000892 0.000000 0.000000 0.000000
# 3 0.002143 -0.000892 0.012197 0.000000 0.000000 0.000000
# 4 0.000000 0.000000 0.000000 0.066852 0.000000 0.000000
# 5 0.000000 0.000000 0.000000 0.000000 0.042340 0.000000
# 6 0.000000 0.000000 0.000000 0.000000 0.000000 0.042577
#
#
# Mechanical properties :
#
#
# Convention : Reuss Voigt Hill
#
# Bulk Modulus (GPa) = 17.36013 22.62012 19.99012
# Shear Modulus (GPa) = 22.26190 25.79090 24.02640
#
# Velocity S-wave (km/s) = 3.13545 3.37483 3.25734
# Velocity P-wave (km/s) = 4.55790 5.01749 4.79321
#
# Compressibility (1/GPa) = 0.05760327
#
# Stress axis : x y z
#
# Youngs Moduli (GPa) = 31.47134 85.87982 81.98762
#
# Poissons Ratio (x) = 0.02212 -0.17573
# Poissons Ratio (y) = 0.00811 0.07315
# Poissons Ratio (z) = -0.06745 0.07662
#
# Static dielectric constant tensor:
#      x y z
#    x 1.886080 0.000000 0.000000 
#    y 0.000000 1.812730 0.000000 
#    z 0.000000 0.000000 1.870520 
# 
# From -- ./inp_files/22190.got.cif
#   From: 2010.05.17/outbox.cif.g08.bks.cpg/sg58_12_cif.got.tgz:22190.got - 2010.06.03 14:20:14.
