data_PCOD9444709
_publ_section_title
;
Structure prediction by ZEFSAII (Michael W. Deem and Ramdas Pophale) SiO2 
 PCOD9444709
Probable space group: P N N M
;
_chemical_formula_sum "Si O2"
_cell_formula_units_Z 64
_cell_length_a 13.132696
_cell_length_b 29.053200
_cell_length_c 8.544619
_cell_angle_alpha 90.000000
_cell_angle_beta 90.000000
_cell_angle_gamma 90.000000
_cell_volume 3260.172408
_symmetry_space_group_name_H-M "P N N M"
_symmetry_group_IT_number 58
_symmetry_cell_setting 'orthorhombic'
loop_
_space_group_symop_operation_xyz
x,y,z
-x,-y,z
1/2+x,1/2-y,1/2-z
1/2-x,1/2+y,1/2-z
-x,-y,-z
x,y,-z
1/2-x,1/2+y,1/2+z
1/2+x,1/2-y,1/2+z
loop_
_atom_site_type_symbol
_atom_site_label
_atom_site_fract_x
_atom_site_fract_y
_atom_site_fract_z
Si Si1 0.483528 0.859000 0.810599
Si Si2 0.483473 0.751239 0.817230
Si Si3 0.409692 0.439203 0.686437
Si Si4 0.235272 0.371546 0.186768
Si Si5 0.171064 0.778829 0.818581
Si Si6 0.205620 0.205032 0.819351
Si Si7 0.376427 0.541471 0.185989
Si Si8 0.794024 0.394092 0.312101
O O1 0.485467 0.804763 0.764332
O O2 0.380111 0.880932 0.743396
O O3 0.588814 0.884264 0.763695
O O4 0.478553 0.859760 0.000000
O O5 0.551596 0.717049 0.713023
O O6 0.371805 0.730835 0.792690
O O7 0.509543 0.748984 0.000000
O O8 0.413568 0.433581 0.500000
O O9 0.320669 0.407399 0.755818
O O10 0.522981 0.430814 0.756066
O O11 0.383752 0.491867 0.731298
O O12 0.267537 0.322709 0.260637
O O13 0.237130 0.368610 0.000000
O O14 0.194013 0.735160 0.708942
O O15 0.190567 0.770273 0.000000
O O16 0.231938 0.152907 0.781362
O O17 0.174205 0.208460 0.000000
O O18 0.271152 0.566143 0.231336
O O19 0.383591 0.535437 0.000000
O O20 0.794503 0.401484 0.500000
#
# Coordination Sequence:
#
# PCOD9444709 Si02
#       8
#     8   8   8   8   8   8   8   8
#     4  10  21  40  62  87 123 166 208 252 305 365
#     4  11  22  38  57  82 119 162 208 259 310 361
#     4  11  23  44  71  95 124 161 201 245 309 375
#     4  12  25  41  63  92 125 161 208 259 311 366
#     4  12  24  38  57  84 121 164 210 254 305 365
#     4  11  22  38  58  85 120 162 209 257 304 360
#     4  11  23  42  68  99 130 156 196 252 310 365
#     4  10  22  41  63  88 124 166 209 251 304 369
#
# _framework density 19.630863000000002
#
# number of rings (size 3 to 8) (size 9 to 14) (size 15 to 20)
#    0.000    1.000    2.500    6.000    1.750    2.000 
#    0.000    0.625    0.000    3.750    0.000    0.000 
#    0.000    0.000    0.000    0.000    0.000    0.000 
#
# Total GULP energy -357462.737349 kJ/mol
# GULP energy per Si atom -5585.355271 kJ/mol
# Density = 1.958618 g / cm^3
# Si number density = 19.630863 Si / 1000 Ang^3
#
#
#
# Elastic Constant Matrix: (Units=GPa)
#
#
# Indices 1 2 3 4 5 6 
#
# 1 102.5349 11.1364 16.4112 0.0000 0.0000 0.0000
# 2 11.1364 28.1607 -1.1431 0.0000 0.0000 0.0000
# 3 16.4112 -1.1431 47.5518 0.0000 0.0000 0.0000
# 4 0.0000 0.0000 0.0000 24.4294 0.0000 0.0000
# 5 0.0000 0.0000 0.0000 0.0000 30.8807 0.0000
# 6 0.0000 0.0000 0.0000 0.0000 0.0000 37.5510
#
#
#
# Elastic Compliance Matrix: (Units=1/GPa)
#
#
# Indices 1 2 3 4 5 6 
#
# 1 0.010852 -0.004448 -0.003852 0.000000 0.000000 0.000000
# 2 -0.004448 0.037368 0.002433 0.000000 0.000000 0.000000
# 3 -0.003852 0.002433 0.022418 0.000000 0.000000 0.000000
# 4 0.000000 0.000000 0.000000 0.040934 0.000000 0.000000
# 5 0.000000 0.000000 0.000000 0.000000 0.032383 0.000000
# 6 0.000000 0.000000 0.000000 0.000000 0.000000 0.026630
#
#
# Mechanical properties :
#
#
# Convention : Reuss Voigt Hill
#
# Bulk Modulus (GPa) = 16.97664 25.67294 21.32479
# Shear Modulus (GPa) = 24.75802 28.69508 26.72655
#
# Velocity S-wave (km/s) = 3.55516 3.82741 3.69379
# Velocity P-wave (km/s) = 5.05163 5.71300 5.39246
#
# Compressibility (1/GPa) = 0.05890446
#
# Stress axis : x y z
#
# Youngs Moduli (GPa) = 92.14485 26.76065 44.60758
#
# Poissons Ratio (x) = 0.11903 0.17184
# Poissons Ratio (y) = 0.40987 -0.10855
# Poissons Ratio (z) = 0.35497 -0.06512
#
# Static dielectric constant tensor:
#      x y z
#    x 1.755480 0.000000 0.000000 
#    y 0.000000 1.672760 0.000000 
#    z 0.000000 0.000000 1.645640 
# 
# From -- ./inp_files/4632.got.cif
#   From: 2010.05.17/outbox.cif.g08.bks.cpg/sg58_3_cif.got.tgz:4632.got - 2010.06.03 14:20:14.
