data_PCOD9444984
_publ_section_title
;
Structure prediction by ZEFSAII (Michael W. Deem and Ramdas Pophale) SiO2 
 PCOD9444984
Probable space group: P N N M
;
_chemical_formula_sum "Si O2"
_cell_formula_units_Z 40
_cell_length_a 9.225435
_cell_length_b 26.540896
_cell_length_c 8.990286
_cell_angle_alpha 90.000000
_cell_angle_beta 90.000000
_cell_angle_gamma 90.000000
_cell_volume 2201.283312
_symmetry_space_group_name_H-M "P N N M"
_symmetry_group_IT_number 58
_symmetry_cell_setting 'orthorhombic'
loop_
_space_group_symop_operation_xyz
x,y,z
-x,-y,z
1/2+x,1/2-y,1/2-z
1/2-x,1/2+y,1/2-z
-x,-y,-z
x,y,-z
1/2-x,1/2+y,1/2+z
1/2+x,1/2-y,1/2+z
loop_
_atom_site_type_symbol
_atom_site_label
_atom_site_fract_x
_atom_site_fract_y
_atom_site_fract_z
Si Si1 0.176150 0.102843 0.679092
Si Si2 0.640560 0.609954 0.676873
Si Si3 0.175023 0.992227 0.329167
Si Si4 0.146501 0.702520 0.177766
Si Si5 0.305945 0.796708 0.322364
O O1 0.150673 0.101626 0.500000
O O2 0.285271 0.148027 0.712310
O O3 0.023115 0.112264 0.758912
O O4 0.232941 0.046908 0.719293
O O5 0.637194 0.613150 0.500000
O O6 0.704823 0.556190 0.729618
O O7 0.730358 0.655675 0.745860
O O8 0.218250 0.982004 0.500000
O O9 0.000000 0.000000 0.328319
O O10 0.231207 0.746037 0.263578
O O11 0.976580 0.704295 0.212843
O O12 0.163141 0.710755 0.000000
O O13 0.289172 0.800622 0.500000
#
# Coordination Sequence:
#
# PCOD9444984 Si02
#       5
#     8   8   8   8   8
#     4   9  18  35  58  82 110 142 177 219 264 314
#     4  11  21  33  53  81 111 143 180 221 263 310
#     4   8  15  30  53  79 107 142 180 216 259 310
#     4  10  22  39  58  81 106 136 177 220 265 318
#     4  11  23  38  56  78 106 140 176 217 267 320
#
# _framework density 18.171219000000001
#
# number of rings (size 3 to 8) (size 9 to 14) (size 15 to 20)
#    0.000    2.200    0.000    4.800    0.000    9.200 
#    0.000    1.000    0.000    6.000    0.000    0.000 
#    0.000    0.000    0.000    0.000    0.000    0.000 
#
# Total GULP energy -223287.180720 kJ/mol
# GULP energy per Si atom -5582.179518 kJ/mol
# Density = 1.812986 g / cm^3
# Si number density = 18.171219 Si / 1000 Ang^3
#
#
#
# Elastic Constant Matrix: (Units=GPa)
#
#
# Indices 1 2 3 4 5 6 
#
# 1 198.6135 245.5115 162.1082 0.0000 0.0000 0.0000
# 2 245.5115 432.3356 228.9218 0.0000 0.0000 0.0000
# 3 162.1082 228.9218 162.5310 0.0000 0.0000 0.0000
# 4 0.0000 0.0000 0.0000 35.1652 0.0000 0.0000
# 5 0.0000 0.0000 0.0000 0.0000 80.1305 0.0000
# 6 0.0000 0.0000 0.0000 0.0000 0.0000 30.7161
#
#
#
# Elastic Compliance Matrix: (Units=1/GPa)
#
#
# Indices 1 2 3 4 5 6 
#
# 1 0.029206 -0.004567 -0.022698 0.000000 0.000000 0.000000
# 2 -0.004567 0.009813 -0.009267 0.000000 0.000000 0.000000
# 3 -0.022698 -0.009267 0.041843 0.000000 0.000000 0.000000
# 4 0.000000 0.000000 0.000000 0.028437 0.000000 0.000000
# 5 0.000000 0.000000 0.000000 0.000000 0.012480 0.000000
# 6 0.000000 0.000000 0.000000 0.000000 0.000000 0.032556
#
#
# Mechanical properties :
#
#
# Convention : Reuss Voigt Hill
#
# Bulk Modulus (GPa) = 128.20607 229.61810 178.91209
# Shear Modulus (GPa) = 21.73949 39.66493 30.70221
#
# Velocity S-wave (km/s) = 3.46261 4.67716 4.11494
# Velocity P-wave (km/s) = 9.31095 12.48222 11.01135
#
# Compressibility (1/GPa) = 0.00779994
#
# Stress axis : x y z
#
# Youngs Moduli (GPa) = 34.23986 101.90578 23.89894
#
# Poissons Ratio (x) = 0.46538 0.54245
# Poissons Ratio (y) = 0.15637 0.22146
# Poissons Ratio (z) = 0.77716 0.94431
#
# Static dielectric constant tensor:
#      x y z
#    x 1.599450 0.000000 0.000000 
#    y 0.000000 1.636010 0.000000 
#    z 0.000000 0.000000 1.607740 
# 
# From -- ./inp_files/2406.got.cif
#   From: 2010.05.17/outbox.cif.g08.bks.cpg/sg58_2_cif.got.tgz:2406.got - 2010.06.03 14:20:14.
