data_PCOD9444817
_publ_section_title
;
Structure prediction by ZEFSAII (Michael W. Deem and Ramdas Pophale) SiO2 
 PCOD9444817
Probable space group: P N N M
;
_chemical_formula_sum "Si O2"
_cell_formula_units_Z 40
_cell_length_a 18.596828
_cell_length_b 12.645708
_cell_length_c 8.184443
_cell_angle_alpha 90.000000
_cell_angle_beta 90.000000
_cell_angle_gamma 90.000000
_cell_volume 1924.735924
_symmetry_space_group_name_H-M "P N N M"
_symmetry_group_IT_number 58
_symmetry_cell_setting 'orthorhombic'
loop_
_space_group_symop_operation_xyz
x,y,z
-x,-y,z
1/2+x,1/2-y,1/2-z
1/2-x,1/2+y,1/2-z
-x,-y,-z
x,y,-z
1/2-x,1/2+y,1/2+z
1/2+x,1/2-y,1/2+z
loop_
_atom_site_type_symbol
_atom_site_label
_atom_site_fract_x
_atom_site_fract_y
_atom_site_fract_z
Si Si1 0.142696 0.968201 0.691262
Si Si2 0.076386 0.549117 0.699150
Si Si3 0.959355 0.218958 0.302080
Si Si4 0.705937 0.101777 0.808552
Si Si5 0.876815 0.797681 0.810725
O O1 0.128143 0.988244 0.500000
O O2 0.083260 0.884945 0.753229
O O3 0.220431 0.915779 0.713654
O O4 0.140804 0.080068 0.780389
O O5 0.076171 0.545510 0.500000
O O6 0.078699 0.671641 0.748738
O O7 0.143674 0.478528 0.751677
O O8 0.000000 0.500000 0.752651
O O9 0.960325 0.217515 0.500000
O O10 0.040881 0.220066 0.241969
O O11 0.674285 0.218893 0.788282
O O12 0.719320 0.080365 0.000000
O O13 0.868036 0.771415 0.000000
#
# Coordination Sequence:
#
# PCOD9444817 Si02
#       5
#     8   8   8   8   8
#     4  11  25  42  64  94 130 169 212 265 325 385
#     4   9  17  35  64  92 120 160 205 252 314 383
#     4  10  21  41  67  93 124 164 211 262 324 387
#     4  11  23  41  66  94 128 168 211 263 324 385
#     4  12  25  42  64  91 128 169 216 265 315 377
#
# _framework density 20.782073
#
# number of rings (size 3 to 8) (size 9 to 14) (size 15 to 20)
#    0.000    1.400    2.000    3.600    2.800    4.000 
#    0.000    3.000    0.000    0.000    0.000    0.000 
#    0.000    0.000    0.000    0.000    0.000    0.000 
#
# Total GULP energy -223703.464677 kJ/mol
# GULP energy per Si atom -5592.586617 kJ/mol
# Density = 2.073477 g / cm^3
# Si number density = 20.782073 Si / 1000 Ang^3
#
#
#
# Elastic Constant Matrix: (Units=GPa)
#
#
# Indices 1 2 3 4 5 6 
#
# 1 18.0010 2.7980 -9.2346 0.0000 0.0000 0.0000
# 2 2.7980 102.2591 -3.5157 0.0000 0.0000 0.0000
# 3 -9.2346 -3.5157 22.1084 0.0000 0.0000 0.0000
# 4 0.0000 0.0000 0.0000 19.1980 0.0000 0.0000
# 5 0.0000 0.0000 0.0000 0.0000 25.3974 0.0000
# 6 0.0000 0.0000 0.0000 0.0000 0.0000 21.3421
#
#
#
# Elastic Compliance Matrix: (Units=1/GPa)
#
#
# Indices 1 2 3 4 5 6 
#
# 1 0.070789 -0.000925 0.029421 0.000000 0.000000 0.000000
# 2 -0.000925 0.009845 0.001179 0.000000 0.000000 0.000000
# 3 0.029421 0.001179 0.057708 0.000000 0.000000 0.000000
# 4 0.000000 0.000000 0.000000 0.052089 0.000000 0.000000
# 5 0.000000 0.000000 0.000000 0.000000 0.039374 0.000000
# 6 0.000000 0.000000 0.000000 0.000000 0.000000 0.046856
#
#
# Mechanical properties :
#
#
# Convention : Reuss Voigt Hill
#
# Bulk Modulus (GPa) = 5.05837 13.60711 9.33274
# Shear Modulus (GPa) = 17.65482 23.34224 20.49853
#
# Velocity S-wave (km/s) = 2.91782 3.35504 3.14404
# Velocity P-wave (km/s) = 3.71360 4.64436 4.20482
#
# Compressibility (1/GPa) = 0.19769224
#
# Stress axis : x y z
#
# Youngs Moduli (GPa) = 14.12643 101.57509 17.32853
#
# Poissons Ratio (x) = 0.09400 -0.50983
# Poissons Ratio (y) = 0.01307 -0.02043
# Poissons Ratio (z) = -0.41562 -0.11976
#
# Static dielectric constant tensor:
#      x y z
#    x 1.701640 0.000000 0.000000 
#    y 0.000000 1.732200 0.000000 
#    z 0.000000 0.000000 1.713910 
# 
# From -- ./inp_files/3792.got.cif
#   From: 2010.05.17/outbox.cif.g08.bks.cpg/sg58_2_cif.got.tgz:3792.got - 2010.06.03 14:20:14.
