data_PCOD9444701
_publ_section_title
;
Structure prediction by ZEFSAII (Michael W. Deem and Ramdas Pophale) SiO2 
 PCOD9444701
Probable space group: P N N M
;
_chemical_formula_sum "Si O2"
_cell_formula_units_Z 60
_cell_length_a 22.087514
_cell_length_b 12.474747
_cell_length_c 9.839465
_cell_angle_alpha 90.000000
_cell_angle_beta 90.000000
_cell_angle_gamma 90.000000
_cell_volume 2711.128294
_symmetry_space_group_name_H-M "P N N M"
_symmetry_group_IT_number 58
_symmetry_cell_setting 'orthorhombic'
loop_
_space_group_symop_operation_xyz
x,y,z
-x,-y,z
1/2+x,1/2-y,1/2-z
1/2-x,1/2+y,1/2-z
-x,-y,-z
x,y,-z
1/2-x,1/2+y,1/2+z
1/2+x,1/2-y,1/2+z
loop_
_atom_site_type_symbol
_atom_site_label
_atom_site_fract_x
_atom_site_fract_y
_atom_site_fract_z
Si Si1 0.699678 0.742869 0.287591
Si Si2 0.498237 0.839931 0.149746
Si Si3 0.164406 0.959221 0.652398
Si Si4 0.534109 0.612736 0.227608
Si Si5 0.665745 0.298604 0.844504
Si Si6 0.093022 0.800038 0.000000
Si Si7 0.390945 0.887077 0.663554
Si Si8 0.364030 0.076072 0.849820
O O1 0.705501 0.620162 0.238743
O O2 0.762572 0.778689 0.349258
O O3 0.641564 0.743283 0.384632
O O4 0.681883 0.825753 0.169491
O O5 0.498144 0.711198 0.161510
O O6 0.458695 0.887224 0.272133
O O7 0.567711 0.877364 0.157816
O O8 0.475204 0.873140 0.000000
O O9 0.188300 0.966970 0.500000
O O10 0.156435 0.079501 0.704287
O O11 0.098344 0.905121 0.654045
O O12 0.500000 0.500000 0.223495
O O13 0.549777 0.650396 0.379726
O O14 0.637979 0.216472 0.736543
O O15 0.642044 0.286781 0.000000
O O16 0.390250 0.885093 0.500000
O O17 0.358322 0.990558 0.728882
O O18 0.355404 0.027315 0.000000
#
# Coordination Sequence:
#
# PCOD9444701 Si02
#       8
#     8   8   8   8   8   4   8   8
#     4  11  23  42  71 102 133 181 232 282 344 412
#     4  11  23  43  69  98 137 180 228 280 343 420
#     4  10  22  43  68  99 135 177 230 286 339 416
#     4  11  22  37  65 100 139 186 225 279 344 417
#     4  11  25  47  71 100 139 181 229 285 349 408
#     4  10  21  40  60  97 140 176 225 278 329 413
#     4  12  29  45  67 101 140 180 231 289 346 409
#     4  11  24  45  72 101 134 180 231 283 344 417
#
# _framework density 22.131008000000001
#
# number of rings (size 3 to 8) (size 9 to 14) (size 15 to 20)
#    0.000    1.067    3.333    3.400    3.733    5.333 
#    9.600    0.000    0.000    0.000    0.000    0.000 
#    0.000    0.000    0.000    0.000    0.000    0.000 
#
# Total GULP energy -334372.033328 kJ/mol
# GULP energy per Si atom -5572.867222 kJ/mol
# Density = 2.208064 g / cm^3
# Si number density = 22.131008 Si / 1000 Ang^3
#
#
#
# Elastic Constant Matrix: (Units=GPa)
#
#
# Indices 1 2 3 4 5 6 
#
# 1 44.9325 12.7973 13.6304 0.0000 0.0000 0.0000
# 2 12.7973 108.0754 51.5784 0.0000 0.0000 0.0000
# 3 13.6304 51.5784 165.1081 0.0000 0.0000 0.0000
# 4 0.0000 0.0000 0.0000 -18.7921 0.0000 0.0000
# 5 0.0000 0.0000 0.0000 0.0000 7.9690 0.0000
# 6 0.0000 0.0000 0.0000 0.0000 0.0000 19.5312
#
#
#
# Elastic Compliance Matrix: (Units=1/GPa)
#
#
# Indices 1 2 3 4 5 6 
#
# 1 0.023248 -0.002159 -0.001245 0.000000 0.000000 0.000000
# 2 -0.002159 0.011074 -0.003281 0.000000 0.000000 0.000000
# 3 -0.001245 -0.003281 0.007184 0.000000 0.000000 0.000000
# 4 0.000000 0.000000 0.000000 -0.053214 0.000000 0.000000
# 5 0.000000 0.000000 0.000000 0.000000 0.125487 0.000000
# 6 0.000000 0.000000 0.000000 0.000000 0.000000 0.051200
#
#
# Mechanical properties :
#
#
# Convention : Reuss Voigt Hill
#
# Bulk Modulus (GPa) = 35.54025 52.68088 44.11057
# Shear Modulus (GPa) = 26.63415 17.74894 22.19154
#
# Velocity S-wave (km/s) = 3.47288 2.83502 3.17003
# Velocity P-wave (km/s) = 5.67231 5.87982 5.77699
#
# Compressibility (1/GPa) = 0.02813711
#
# Stress axis : x y z
#
# Youngs Moduli (GPa) = 43.01435 90.29817 139.18912
#
# Poissons Ratio (x) = 0.19493 0.17327
# Poissons Ratio (y) = 0.09286 0.45673
# Poissons Ratio (z) = 0.05355 0.29630
#
# Static dielectric constant tensor:
#      x y z
#    x 1.823500 0.000000 0.000000 
#    y 0.000000 1.847050 0.000000 
#    z 0.000000 0.000000 1.805990 
# 
# From -- ./inp_files/10441.got.cif
#   From: 2010.05.17/outbox.cif.g08.bks.cpg/sg58_6_cif.got.tgz:10441.got - 2010.06.03 14:20:14.
