data_PCOD9444432
_publ_section_title
;
Structure prediction by ZEFSAII (Michael W. Deem and Ramdas Pophale) SiO2 
 PCOD9444432
Probable space group: P N N M
;
_chemical_formula_sum "Si O2"
_cell_formula_units_Z 58
_cell_length_a 29.733177
_cell_length_b 11.970232
_cell_length_c 7.588106
_cell_angle_alpha 90.000000
_cell_angle_beta 90.000000
_cell_angle_gamma 90.000000
_cell_volume 2700.705774
_symmetry_space_group_name_H-M "P N N M"
_symmetry_group_IT_number 58
_symmetry_cell_setting 'orthorhombic'
loop_
_space_group_symop_operation_xyz
x,y,z
-x,-y,z
1/2+x,1/2-y,1/2-z
1/2-x,1/2+y,1/2-z
-x,-y,-z
x,y,-z
1/2-x,1/2+y,1/2+z
1/2+x,1/2-y,1/2+z
loop_
_atom_site_type_symbol
_atom_site_label
_atom_site_fract_x
_atom_site_fract_y
_atom_site_fract_z
Si Si1 0.381995 0.559174 0.706602
Si Si2 0.500000 0.000000 0.500000
Si Si3 0.291318 0.683934 0.786656
Si Si4 0.809101 0.352051 0.208723
Si Si5 0.156603 0.402053 0.713248
Si Si6 0.970624 0.352930 0.706639
Si Si7 0.568497 0.218283 0.795506
Si Si8 0.388024 0.306442 0.714480
O O1 0.392234 0.557884 0.500000
O O2 0.330590 0.599519 0.729736
O O3 0.413763 0.655100 0.785064
O O4 0.388692 0.434423 0.776140
O O5 0.465748 0.046062 0.657502
O O6 0.241647 0.655250 0.720423
O O7 0.307159 0.808088 0.732397
O O8 0.291474 0.681164 0.000000
O O9 0.829954 0.474355 0.233713
O O10 0.843680 0.259356 0.277608
O O11 0.805348 0.331757 0.000000
O O12 0.154863 0.399932 0.500000
O O13 0.108570 0.357146 0.781511
O O14 0.971966 0.385489 0.500000
O O15 0.931349 0.263218 0.727713
O O16 0.018316 0.300105 0.773200
O O17 0.565101 0.188039 0.000000
O O18 0.387413 0.307404 0.500000
#
# Coordination Sequence:
#
# PCOD9444432 Si02
#       8
#     8   2   8   8   8   8   8   8
#     4  10  21  37  65  91 122 163 211 263 324 387
#     4  12  26  44  68  92 140 172 206 284 306 386
#     4   9  20  39  58  82 116 161 203 253 319 382
#     4  10  22  37  58  82 118 162 204 254 321 382
#     4   9  19  36  58  82 113 149 194 253 309 367
#     4  11  25  43  68  98 129 176 223 261 333 389
#     4   9  21  41  63  90 122 162 211 263 315 383
#     4  10  23  42  59  90 130 169 209 267 328 384
#
# _framework density 21.475867000000001
#
# number of rings (size 3 to 8) (size 9 to 14) (size 15 to 20)
#    0.000    2.207    0.690    1.448    4.828    4.966 
#    0.000    2.759    0.000    0.000    0.000    0.000 
#    0.000    0.000    0.000    0.000    0.000    0.000 
#
# Total GULP energy -323448.628052 kJ/mol
# GULP energy per Si atom -5576.700484 kJ/mol
# Density = 2.142699 g / cm^3
# Si number density = 21.475867 Si / 1000 Ang^3
#
#
#
# Elastic Constant Matrix: (Units=GPa)
#
#
# Indices 1 2 3 4 5 6 
#
# 1 109.9325 39.6308 1.6698 0.0000 0.0000 0.0000
# 2 39.6308 101.3318 -1.0401 0.0000 0.0000 0.0000
# 3 1.6698 -1.0401 75.0228 0.0000 0.0000 0.0000
# 4 0.0000 0.0000 0.0000 17.3069 0.0000 0.0000
# 5 0.0000 0.0000 0.0000 0.0000 19.0717 0.0000
# 6 0.0000 0.0000 0.0000 0.0000 0.0000 19.6513
#
#
#
# Elastic Compliance Matrix: (Units=1/GPa)
#
#
# Indices 1 2 3 4 5 6 
#
# 1 0.010596 -0.004147 -0.000293 0.000000 0.000000 0.000000
# 2 -0.004147 0.011493 0.000252 0.000000 0.000000 0.000000
# 3 -0.000293 0.000252 0.013339 0.000000 0.000000 0.000000
# 4 0.000000 0.000000 0.000000 0.057781 0.000000 0.000000
# 5 0.000000 0.000000 0.000000 0.000000 0.052434 0.000000
# 6 0.000000 0.000000 0.000000 0.000000 0.000000 0.050887
#
#
# Mechanical properties :
#
#
# Convention : Reuss Voigt Hill
#
# Bulk Modulus (GPa) = 36.96751 40.75647 38.86199
# Shear Modulus (GPa) = 23.37276 27.60775 25.49025
#
# Velocity S-wave (km/s) = 3.30256 3.58931 3.44892
# Velocity P-wave (km/s) = 5.63856 6.01636 5.83052
#
# Compressibility (1/GPa) = 0.02705078
#
# Stress axis : x y z
#
# Youngs Moduli (GPa) = 94.37542 87.00886 74.96650
#
# Poissons Ratio (x) = 0.36083 0.02199
# Poissons Ratio (y) = 0.39138 -0.01886
# Poissons Ratio (z) = 0.02768 -0.02190
#
# Static dielectric constant tensor:
#      x y z
#    x 1.789950 0.000000 0.000000 
#    y 0.000000 1.773870 0.000000 
#    z 0.000000 0.000000 1.810490 
# 
# From -- ./inp_files/10876.got.cif
#   From: 2010.05.17/outbox.cif.g08.bks.cpg/sg58_6_cif.got.tgz:10876.got - 2010.06.03 14:20:14.
