data_PCOD9444162
_publ_section_title
;
Structure prediction by ZEFSAII (Michael W. Deem and Ramdas Pophale) SiO2 
 PCOD9444162
Probable space group: P N N M
;
_chemical_formula_sum "Si O2"
_cell_formula_units_Z 48
_cell_length_a 29.963973
_cell_length_b 7.516281
_cell_length_c 9.501041
_cell_angle_alpha 90.000000
_cell_angle_beta 90.000000
_cell_angle_gamma 90.000000
_cell_volume 2139.802041
_symmetry_space_group_name_H-M "P N N M"
_symmetry_group_IT_number 58
_symmetry_cell_setting 'orthorhombic'
loop_
_space_group_symop_operation_xyz
x,y,z
-x,-y,z
1/2+x,1/2-y,1/2-z
1/2-x,1/2+y,1/2-z
-x,-y,-z
x,y,-z
1/2-x,1/2+y,1/2+z
1/2+x,1/2-y,1/2+z
loop_
_atom_site_type_symbol
_atom_site_label
_atom_site_fract_x
_atom_site_fract_y
_atom_site_fract_z
Si Si1 0.190407 0.723486 0.159969
Si Si2 0.388712 0.340901 0.841893
Si Si3 0.434608 0.859798 0.659519
Si Si4 0.531123 0.733020 0.340717
Si Si5 0.852981 0.756246 0.341153
Si Si6 0.773422 0.871749 0.159669
O O1 0.143563 0.726651 0.241365
O O2 0.228345 0.629083 0.250726
O O3 0.206919 0.928986 0.152929
O O4 0.186142 0.657145 0.000000
O O5 0.437040 0.357935 0.771493
O O6 0.366973 0.535975 0.849546
O O7 0.391329 0.267744 0.000000
O O8 0.419269 0.816806 0.500000
O O9 0.478482 0.740412 0.689859
O O10 0.395195 0.835572 0.769105
O O11 0.452326 0.061657 0.659274
O O12 0.537968 0.664210 0.500000
O O13 0.843373 0.693345 0.500000
O O14 0.809969 0.753711 0.241252
O O15 0.765468 0.809173 0.000000
#
# Coordination Sequence:
#
# PCOD9444162 Si02
#       6
#     8   8   8   8   8   8
#     4  10  21  37  57  80 106 138 176 216 260 311
#     4  10  21  36  54  78 108 140 175 216 261 310
#     4   9  19  36  56  78 105 138 177 219 262 310
#     4   9  19  36  56  78 105 138 177 219 262 310
#     4  10  21  36  54  78 108 140 175 216 261 310
#     4  10  21  37  57  80 106 138 176 216 260 311
#
# _framework density 22.431981
#
# number of rings (size 3 to 8) (size 9 to 14) (size 15 to 20)
#    0.000    2.333    0.000    3.000    0.000    7.333 
#    0.000    5.000    0.000    0.000    0.000    0.000 
#    0.000    0.000    0.000    0.000    0.000    0.000 
#
# Total GULP energy -268493.328743 kJ/mol
# GULP energy per Si atom -5593.611015 kJ/mol
# Density = 2.238092 g / cm^3
# Si number density = 22.431981 Si / 1000 Ang^3
#
#
#
# Elastic Constant Matrix: (Units=GPa)
#
#
# Indices 1 2 3 4 5 6 
#
# 1 51.5604 61.2125 50.3192 0.0000 0.0000 0.0000
# 2 61.2125 0.1620 57.9215 0.0000 0.0000 0.0000
# 3 50.3192 57.9215 173.9736 0.0000 0.0000 0.0000
# 4 0.0000 0.0000 0.0000 44.1571 0.0000 0.0000
# 5 0.0000 0.0000 0.0000 0.0000 34.3275 0.0000
# 6 0.0000 0.0000 0.0000 0.0000 0.0000 36.7533
#
#
#
# Elastic Compliance Matrix: (Units=1/GPa)
#
#
# Indices 1 2 3 4 5 6 
#
# 1 0.007124 0.016563 -0.007575 0.000000 0.000000 0.000000
# 2 0.016563 -0.013786 -0.000201 0.000000 0.000000 0.000000
# 3 -0.007575 -0.000201 0.008006 0.000000 0.000000 0.000000
# 4 0.000000 0.000000 0.000000 0.022646 0.000000 0.000000
# 5 0.000000 0.000000 0.000000 0.000000 0.029131 0.000000
# 6 0.000000 0.000000 0.000000 0.000000 0.000000 0.027208
#
#
# Mechanical properties :
#
#
# Convention : Reuss Voigt Hill
#
# Bulk Modulus (GPa) = 52.85955 62.73361 57.79658
# Shear Modulus (GPa) = 72.40066 26.79710 49.59888
#
# Velocity S-wave (km/s) = 5.68733 3.46004 4.70731
# Velocity P-wave (km/s) = 8.16965 6.63245 7.44085
#
# Compressibility (1/GPa) = 0.01891806
#
# Stress axis : x y z
#
# Youngs Moduli (GPa) = 140.37740 -72.53601 124.91125
#
# Poissons Ratio (x) = 1.20141 0.94617
# Poissons Ratio (y) = -2.32506 0.02507
# Poissons Ratio (z) = 1.06332 -0.01456
#
# Static dielectric constant tensor:
#      x y z
#    x 1.786370 0.000000 0.000000 
#    y 0.000000 1.894010 0.000000 
#    z 0.000000 0.000000 1.793410 
# 
# From -- ./inp_files/2858.got.cif
#   From: 2010.05.17/outbox.cif.g08.bks.cpg/sg58_2_cif.got.tgz:2858.got - 2010.06.03 14:20:14.
