data_PCOD9444240
_publ_section_title
;
Structure prediction by ZEFSAII (Michael W. Deem and Ramdas Pophale) SiO2 
 PCOD9444240
Probable space group: P N N M
;
_chemical_formula_sum "Si O2"
_cell_formula_units_Z 58
_cell_length_a 23.640901
_cell_length_b 12.468492
_cell_length_c 9.880909
_cell_angle_alpha 90.000000
_cell_angle_beta 90.000000
_cell_angle_gamma 90.000000
_cell_volume 2912.559826
_symmetry_space_group_name_H-M "P N N M"
_symmetry_group_IT_number 58
_symmetry_cell_setting 'orthorhombic'
loop_
_space_group_symop_operation_xyz
x,y,z
-x,-y,z
1/2+x,1/2-y,1/2-z
1/2-x,1/2+y,1/2-z
-x,-y,-z
x,y,-z
1/2-x,1/2+y,1/2+z
1/2+x,1/2-y,1/2+z
loop_
_atom_site_type_symbol
_atom_site_label
_atom_site_fract_x
_atom_site_fract_y
_atom_site_fract_z
Si Si1 0.499052 0.216062 0.643254
Si Si2 0.414980 0.931816 0.752769
Si Si3 0.836402 0.936207 0.345334
Si Si4 0.803937 0.178965 0.656924
Si Si5 0.500000 0.000000 0.000000
Si Si6 0.868208 0.347342 0.845237
Si Si7 0.969662 0.896537 0.346761
Si Si8 0.325057 0.763456 0.660378
O O1 0.510895 0.270771 0.500000
O O2 0.536119 0.108794 0.651196
O O3 0.432805 0.194743 0.654178
O O4 0.517295 0.290716 0.765148
O O5 0.370895 0.831672 0.746388
O O6 0.376733 0.032195 0.708354
O O7 0.452509 0.964485 0.882739
O O8 0.814515 0.917186 0.500000
O O9 0.903690 0.920336 0.350753
O O10 0.816751 0.851125 0.233568
O O11 0.823745 0.058969 0.308095
O O12 0.820529 0.199559 0.500000
O O13 0.831317 0.269581 0.751577
O O14 0.736195 0.181711 0.664590
O O15 0.847216 0.348215 0.000000
O O16 0.991379 0.882864 0.500000
O O17 0.000000 0.000000 0.285196
O O18 0.341697 0.755371 0.500000
#
# Coordination Sequence:
#
# PCOD9444240 Si02
#       8
#     8   8   8   8   2   8   8   8
#     4  11  22  38  62  93 132 173 216 272 342 412
#     4  12  25  43  67 103 142 178 226 288 356 419
#     4  10  22  42  65  95 132 173 226 285 337 405
#     4  10  25  46  68  97 135 182 236 289 345 408
#     4  12  28  44  70 112 138 184 234 292 348 436
#     4  11  24  42  67  98 136 179 223 282 346 411
#     4  10  21  36  59  90 125 169 214 267 331 397
#     4  11  25  45  70  98 135 183 228 286 349 418
#
# _framework density 19.913754000000001
#
# number of rings (size 3 to 8) (size 9 to 14) (size 15 to 20)
#    0.000    1.241    2.759    2.069    4.828    4.138 
#    0.000    0.000    0.000    0.000    0.000    0.000 
#    0.000    0.000    0.000    0.000    0.000    0.000 
#
# Total GULP energy -323086.165540 kJ/mol
# GULP energy per Si atom -5570.451130 kJ/mol
# Density = 1.986843 g / cm^3
# Si number density = 19.913754 Si / 1000 Ang^3
#
#
#
# Elastic Constant Matrix: (Units=GPa)
#
#
# Indices 1 2 3 4 5 6 
#
# 1 46.1704 16.1385 18.8404 0.0000 0.0000 0.0000
# 2 16.1385 109.3042 58.1470 0.0000 0.0000 0.0000
# 3 18.8404 58.1470 105.3381 0.0000 0.0000 0.0000
# 4 0.0000 0.0000 0.0000 2.1852 0.0000 0.0000
# 5 0.0000 0.0000 0.0000 0.0000 33.8359 0.0000
# 6 0.0000 0.0000 0.0000 0.0000 0.0000 -9.5066
#
#
#
# Elastic Compliance Matrix: (Units=1/GPa)
#
#
# Indices 1 2 3 4 5 6 
#
# 1 0.023599 -0.001754 -0.003253 0.000000 0.000000 0.000000
# 2 -0.001754 0.013083 -0.006908 0.000000 0.000000 0.000000
# 3 -0.003253 -0.006908 0.013888 0.000000 0.000000 0.000000
# 4 0.000000 0.000000 0.000000 0.457629 0.000000 0.000000
# 5 0.000000 0.000000 0.000000 0.000000 0.029554 0.000000
# 6 0.000000 0.000000 0.000000 0.000000 0.000000 -0.105190
#
#
# Mechanical properties :
#
#
# Convention : Reuss Voigt Hill
#
# Bulk Modulus (GPa) = 37.39595 49.67384 43.53490
# Shear Modulus (GPa) = 10.74561 16.48200 13.61380
#
# Velocity S-wave (km/s) = 2.32547 2.88004 2.61748
# Velocity P-wave (km/s) = 5.10197 6.00485 5.57173
#
# Compressibility (1/GPa) = 0.02674086
#
# Stress axis : x y z
#
# Youngs Moduli (GPa) = 42.37409 76.43739 72.00365
#
# Poissons Ratio (x) = 0.13408 0.23420
# Poissons Ratio (y) = 0.07433 0.49740
# Poissons Ratio (z) = 0.13783 0.52802
#
# Static dielectric constant tensor:
#      x y z
#    x 1.695110 0.000000 0.000000 
#    y 0.000000 1.713390 0.000000 
#    z 0.000000 0.000000 1.715240 
# 
# From -- ./inp_files/10437.got.cif
#   From: 2010.05.17/outbox.cif.g08.bks.cpg/sg58_6_cif.got.tgz:10437.got - 2010.06.03 14:20:14.
