data_PCOD9444294
_publ_section_title
;
Structure prediction by ZEFSAII (Michael W. Deem and Ramdas Pophale) SiO2 
 PCOD9444294
Probable space group: P N N M
;
_chemical_formula_sum "Si O2"
_cell_formula_units_Z 64
_cell_length_a 9.938701
_cell_length_b 16.187487
_cell_length_c 22.054451
_cell_angle_alpha 90.000000
_cell_angle_beta 90.000000
_cell_angle_gamma 90.000000
_cell_volume 3548.177269
_symmetry_space_group_name_H-M "P N N M"
_symmetry_group_IT_number 58
_symmetry_cell_setting 'orthorhombic'
loop_
_space_group_symop_operation_xyz
x,y,z
-x,-y,z
1/2+x,1/2-y,1/2-z
1/2-x,1/2+y,1/2-z
-x,-y,-z
x,y,-z
1/2-x,1/2+y,1/2+z
1/2+x,1/2-y,1/2+z
loop_
_atom_site_type_symbol
_atom_site_label
_atom_site_fract_x
_atom_site_fract_y
_atom_site_fract_z
Si Si1 0.013154 0.903877 0.215821
Si Si2 0.278734 0.806602 0.223169
Si Si3 0.331312 0.151080 0.346479
Si Si4 0.780837 0.808418 0.840813
Si Si5 0.448371 0.592847 0.855985
Si Si6 0.451050 0.908638 0.571999
Si Si7 0.448711 0.093053 0.780485
Si Si8 0.680524 0.678225 0.928134
O O1 0.926212 0.849282 0.169501
O O2 0.954295 0.888953 0.283669
O O3 0.167803 0.877969 0.219585
O O4 0.000000 0.000000 0.201965
O O5 0.230893 0.737670 0.175350
O O6 0.270484 0.762065 0.288507
O O7 0.426126 0.843782 0.213834
O O8 0.206081 0.102180 0.374906
O O9 0.454989 0.155071 0.392223
O O10 0.387207 0.104934 0.286758
O O11 0.669471 0.877527 0.825021
O O12 0.743463 0.763038 0.902708
O O13 0.500000 0.500000 0.864782
O O14 0.546668 0.653897 0.891868
O O15 0.469700 0.900199 0.500000
O O16 0.295652 0.890239 0.585229
O O17 0.500000 0.000000 0.590113
O O18 0.500000 0.000000 0.789213
O O19 0.657021 0.680711 0.000000
#
# Coordination Sequence:
#
# PCOD9444294 Si02
#       8
#     8   8   8   8   8   8   8   8
#     4  11  21  34  54  81 113 147 177 231 291 337
#     4  11  20  32  53  77 110 143 178 227 279 330
#     4  11  22  34  54  81 111 152 181 229 281 330
#     4  11  20  38  54  80 114 142 185 233 278 336
#     4  11  22  34  53  82 118 151 186 227 277 341
#     4  10  21  37  56  80 112 151 193 228 263 320
#     4  11  22  34  54  82 110 143 183 231 287 345
#     4  11  23  39  60  81 112 159 197 231 274 332
#
# _framework density 18.037428999999999
#
# number of rings (size 3 to 8) (size 9 to 14) (size 15 to 20)
#    0.000    1.125    3.750    5.625    1.750    0.750 
#    0.000    0.000    0.000    0.750    0.000    1.750 
#    0.000    0.000    0.000    0.000    0.000    0.000 
#
# Total GULP energy -357599.454363 kJ/mol
# GULP energy per Si atom -5587.491474 kJ/mol
# Density = 1.799638 g / cm^3
# Si number density = 18.037429 Si / 1000 Ang^3
#
#
#
# Elastic Constant Matrix: (Units=GPa)
#
#
# Indices 1 2 3 4 5 6 
#
# 1 77.9966 3.5925 14.9368 0.0000 0.0000 0.0000
# 2 3.5925 64.2937 19.5212 0.0000 0.0000 0.0000
# 3 14.9368 19.5212 31.8158 0.0000 0.0000 0.0000
# 4 0.0000 0.0000 0.0000 18.4861 0.0000 0.0000
# 5 0.0000 0.0000 0.0000 0.0000 17.0315 0.0000
# 6 0.0000 0.0000 0.0000 0.0000 0.0000 35.6143
#
#
#
# Elastic Compliance Matrix: (Units=1/GPa)
#
#
# Indices 1 2 3 4 5 6 
#
# 1 0.014206 0.001513 -0.007598 0.000000 0.000000 0.000000
# 2 0.001513 0.019276 -0.012537 0.000000 0.000000 0.000000
# 3 -0.007598 -0.012537 0.042691 0.000000 0.000000 0.000000
# 4 0.000000 0.000000 0.000000 0.054095 0.000000 0.000000
# 5 0.000000 0.000000 0.000000 0.000000 0.058715 0.000000
# 6 0.000000 0.000000 0.000000 0.000000 0.000000 0.028079
#
#
# Mechanical properties :
#
#
# Convention : Reuss Voigt Hill
#
# Bulk Modulus (GPa) = 25.68832 27.80081 26.74457
# Shear Modulus (GPa) = 18.70689 23.29677 21.00183
#
# Velocity S-wave (km/s) = 3.22392 3.59775 3.41595
# Velocity P-wave (km/s) = 5.30385 5.71881 5.51523
#
# Compressibility (1/GPa) = 0.03892819
#
# Stress axis : x y z
#
# Youngs Moduli (GPa) = 70.39063 51.87868 23.42438
#
# Poissons Ratio (x) = -0.07850 0.17798
# Poissons Ratio (y) = -0.10651 0.29368
# Poissons Ratio (z) = 0.53483 0.65042
#
# Static dielectric constant tensor:
#      x y z
#    x 1.634510 0.000000 0.000000 
#    y 0.000000 1.643840 0.000000 
#    z 0.000000 0.000000 1.598870 
# 
# From -- ./inp_files/31686.got.cif
#   From: 2010.05.17/outbox.cif.g08.bks.cpg/sg58_16_cif.got.tgz:31686.got - 2010.06.03 14:20:14.
