data_PCOD9444684
_publ_section_title
;
Structure prediction by ZEFSAII (Michael W. Deem and Ramdas Pophale) SiO2 
 PCOD9444684
Probable space group: P N N M
;
_chemical_formula_sum "Si O2"
_cell_formula_units_Z 58
_cell_length_a 18.863366
_cell_length_b 16.942065
_cell_length_c 7.659035
_cell_angle_alpha 90.000000
_cell_angle_beta 90.000000
_cell_angle_gamma 90.000000
_cell_volume 2447.707897
_symmetry_space_group_name_H-M "P N N M"
_symmetry_group_IT_number 58
_symmetry_cell_setting 'orthorhombic'
loop_
_space_group_symop_operation_xyz
x,y,z
-x,-y,z
1/2+x,1/2-y,1/2-z
1/2-x,1/2+y,1/2-z
-x,-y,-z
x,y,-z
1/2-x,1/2+y,1/2+z
1/2+x,1/2-y,1/2+z
loop_
_atom_site_type_symbol
_atom_site_label
_atom_site_fract_x
_atom_site_fract_y
_atom_site_fract_z
Si Si1 0.667108 0.229249 0.793597
Si Si2 0.803823 0.468771 0.713286
Si Si3 0.929102 0.583175 0.190828
Si Si4 0.500000 0.000000 0.000000
Si Si5 0.845307 0.042668 0.201886
Si Si6 0.315587 0.211452 0.789281
Si Si7 0.417536 0.617967 0.787830
Si Si8 0.064207 0.814235 0.302290
O O1 0.618319 0.162047 0.711625
O O2 0.750730 0.230672 0.757083
O O3 0.639594 0.315643 0.739689
O O4 0.657231 0.220892 0.000000
O O5 0.810555 0.471681 0.500000
O O6 0.871301 0.513243 0.788262
O O7 0.731969 0.514144 0.762254
O O8 0.800605 0.377742 0.768333
O O9 0.983013 0.566409 0.346683
O O10 0.962307 0.583382 0.000000
O O11 0.895516 0.966102 0.214580
O O12 0.880997 0.113138 0.305238
O O13 0.839330 0.067279 0.000000
O O14 0.390552 0.243771 0.720903
O O15 0.319572 0.210458 0.000000
O O16 0.492504 0.651699 0.723049
O O17 0.419680 0.609810 0.000000
O O18 0.044824 0.790432 0.500000
#
# Coordination Sequence:
#
# PCOD9444684 Si02
#       8
#     8   8   8   2   8   8   8   8
#     4  11  22  41  66  97 134 177 226 285 345 410
#     4  10  21  41  65  97 136 176 222 288 343 398
#     4  12  26  45  74 103 136 186 236 284 353 421
#     4  12  26  52  68  98 144 176 230 304 344 410
#     4  11  22  37  62  92 129 172 214 271 337 395
#     4  10  21  39  65  96 130 174 226 283 342 408
#     4  10  22  39  61  91 127 175 220 269 338 406
#     4  10  22  39  59  89 124 166 216 266 331 405
#
# _framework density 23.695637999999999
#
# number of rings (size 3 to 8) (size 9 to 14) (size 15 to 20)
#    0.000    1.379    2.759    2.276    0.000    8.276 
#    2.483    0.000    0.000    0.000    0.000    0.000 
#    0.000    0.000    0.000    0.000    0.000    0.000 
#
# Total GULP energy -324048.548523 kJ/mol
# GULP energy per Si atom -5587.043940 kJ/mol
# Density = 2.364171 g / cm^3
# Si number density = 23.695638 Si / 1000 Ang^3
#
#
#
# Elastic Constant Matrix: (Units=GPa)
#
#
# Indices 1 2 3 4 5 6 
#
# 1 46.7221 -4.4492 2.0384 0.0000 0.0000 0.0000
# 2 -4.4492 55.4558 -2.5399 0.0000 0.0000 0.0000
# 3 2.0384 -2.5399 85.4156 0.0000 0.0000 0.0000
# 4 0.0000 0.0000 0.0000 14.8146 0.0000 0.0000
# 5 0.0000 0.0000 0.0000 0.0000 37.7014 0.0000
# 6 0.0000 0.0000 0.0000 0.0000 0.0000 11.3017
#
#
#
# Elastic Compliance Matrix: (Units=1/GPa)
#
#
# Indices 1 2 3 4 5 6 
#
# 1 0.021586 0.001711 -0.000464 0.000000 0.000000 0.000000
# 2 0.001711 0.018193 0.000500 0.000000 0.000000 0.000000
# 3 -0.000464 0.000500 0.011733 0.000000 0.000000 0.000000
# 4 0.000000 0.000000 0.000000 0.067501 0.000000 0.000000
# 5 0.000000 0.000000 0.000000 0.000000 0.026524 0.000000
# 6 0.000000 0.000000 0.000000 0.000000 0.000000 0.088482
#
#
# Mechanical properties :
#
#
# Convention : Reuss Voigt Hill
#
# Bulk Modulus (GPa) = 18.18010 19.74356 18.96183
# Shear Modulus (GPa) = 20.09150 25.59984 22.84567
#
# Velocity S-wave (km/s) = 2.91503 3.29045 3.10841
# Velocity P-wave (km/s) = 4.36106 4.77350 4.57193
#
# Compressibility (1/GPa) = 0.05500519
#
# Stress axis : x y z
#
# Youngs Moduli (GPa) = 46.32565 54.96763 85.22671
#
# Poissons Ratio (x) = -0.09403 0.03957
# Poissons Ratio (y) = -0.07924 -0.04263
# Poissons Ratio (z) = 0.02151 -0.02749
#
# Static dielectric constant tensor:
#      x y z
#    x 1.904660 0.000000 0.000000 
#    y 0.000000 1.883620 0.000000 
#    z 0.000000 0.000000 1.876420 
# 
# From -- ./inp_files/7990.got.cif
#   From: 2010.05.17/outbox.cif.g08.bks.cpg/sg58_4_cif.got.tgz:7990.got - 2010.06.03 14:20:14.
