data_PCOD9444708
_publ_section_title
;
Structure prediction by ZEFSAII (Michael W. Deem and Ramdas Pophale) SiO2 
 PCOD9444708
Probable space group: P N N M
;
_chemical_formula_sum "Si O2"
_cell_formula_units_Z 56
_cell_length_a 14.963951
_cell_length_b 21.893085
_cell_length_c 8.931190
_cell_angle_alpha 90.000000
_cell_angle_beta 90.000000
_cell_angle_gamma 90.000000
_cell_volume 2925.920819
_symmetry_space_group_name_H-M "P N N M"
_symmetry_group_IT_number 58
_symmetry_cell_setting 'orthorhombic'
loop_
_space_group_symop_operation_xyz
x,y,z
-x,-y,z
1/2+x,1/2-y,1/2-z
1/2-x,1/2+y,1/2-z
-x,-y,-z
x,y,-z
1/2-x,1/2+y,1/2+z
1/2+x,1/2-y,1/2+z
loop_
_atom_site_type_symbol
_atom_site_label
_atom_site_fract_x
_atom_site_fract_y
_atom_site_fract_z
Si Si1 0.398226 0.407978 0.820083
Si Si2 0.899650 0.881372 0.321063
Si Si3 0.716650 0.484003 0.678929
Si Si4 0.430921 0.174653 0.679004
Si Si5 0.416346 0.041142 0.180540
Si Si6 0.109216 0.251933 0.820983
Si Si7 0.188560 0.778563 0.320742
O O1 0.503229 0.409721 0.783056
O O2 0.341516 0.460887 0.744109
O O3 0.359935 0.341460 0.777090
O O4 0.390103 0.413952 0.000000
O O5 0.889455 0.882909 0.500000
O O6 0.823390 0.921374 0.244210
O O7 0.898579 0.812150 0.263788
O O8 0.709673 0.483148 0.500000
O O9 0.820987 0.488576 0.720440
O O10 0.424508 0.170521 0.500000
O O11 0.421139 0.108279 0.750119
O O12 0.527087 0.204154 0.718687
O O13 0.356637 0.221287 0.740160
O O14 0.500000 0.000000 0.229213
O O15 0.419540 0.046567 0.000000
O O16 0.205991 0.280623 0.788508
O O17 0.104623 0.240430 0.000000
O O18 0.177259 0.771115 0.500000
#
# Coordination Sequence:
#
# PCOD9444708 Si02
#       7
#     8   8   8   8   8   8   8
#     4  10  22  39  61  88 119 157 201 245 295 359
#     4  11  22  39  62  90 121 158 200 241 295 360
#     4  11  24  40  61  88 119 158 199 249 303 349
#     4  11  23  39  62  94 123 152 196 251 300 346
#     4  10  24  45  64  85 119 163 206 244 295 362
#     4  10  22  38  60  89 122 156 195 243 298 352
#     4  10  21  40  62  86 121 164 200 240 298 360
#
# _framework density 19.139274
#
# number of rings (size 3 to 8) (size 9 to 14) (size 15 to 20)
#    0.000    1.571    1.429    2.571    2.000    9.429 
#    0.000    0.000    0.000    0.000    0.000    0.000 
#    0.000    0.000    0.000    0.000    0.000    0.000 
#
# Total GULP energy -313101.801667 kJ/mol
# GULP energy per Si atom -5591.103601 kJ/mol
# Density = 1.909571 g / cm^3
# Si number density = 19.139274 Si / 1000 Ang^3
#
#
#
# Elastic Constant Matrix: (Units=GPa)
#
#
# Indices 1 2 3 4 5 6 
#
# 1 94.0233 -3.2556 24.0258 0.0000 0.0000 0.0000
# 2 -3.2556 40.7974 8.6973 0.0000 0.0000 0.0000
# 3 24.0258 8.6973 14.5539 0.0000 0.0000 0.0000
# 4 0.0000 0.0000 0.0000 28.5987 0.0000 0.0000
# 5 0.0000 0.0000 0.0000 0.0000 23.9202 0.0000
# 6 0.0000 0.0000 0.0000 0.0000 0.0000 28.3506
#
#
#
# Elastic Compliance Matrix: (Units=1/GPa)
#
#
# Indices 1 2 3 4 5 6 
#
# 1 0.021907 0.010839 -0.042642 0.000000 0.000000 0.000000
# 2 0.010839 0.033452 -0.037883 0.000000 0.000000 0.000000
# 3 -0.042642 -0.037883 0.161743 0.000000 0.000000 0.000000
# 4 0.000000 0.000000 0.000000 0.034967 0.000000 0.000000
# 5 0.000000 0.000000 0.000000 0.000000 0.041806 0.000000
# 6 0.000000 0.000000 0.000000 0.000000 0.000000 0.035273
#
#
# Mechanical properties :
#
#
# Convention : Reuss Voigt Hill
#
# Bulk Modulus (GPa) = 12.86519 23.14549 18.00534
# Shear Modulus (GPa) = 10.11265 24.16773 17.14019
#
# Velocity S-wave (km/s) = 2.30113 3.55735 2.99582
# Velocity P-wave (km/s) = 3.71439 5.38446 4.62543
#
# Compressibility (1/GPa) = 0.07772910
#
# Stress axis : x y z
#
# Youngs Moduli (GPa) = 45.64705 29.89328 6.18265
#
# Poissons Ratio (x) = -0.32400 0.26364
# Poissons Ratio (y) = -0.49475 0.23422
# Poissons Ratio (z) = 1.94647 1.13246
#
# Static dielectric constant tensor:
#      x y z
#    x 1.668220 0.000000 0.000000 
#    y 0.000000 1.620210 0.000000 
#    z 0.000000 0.000000 1.638810 
# 
# From -- ./inp_files/6415.got.cif
#   From: 2010.05.17/outbox.cif.g08.bks.cpg/sg58_4_cif.got.tgz:6415.got - 2010.06.03 14:20:14.
