data_PCOD9444738
_publ_section_title
;
Structure prediction by ZEFSAII (Michael W. Deem and Ramdas Pophale) SiO2 
 PCOD9444738
Probable space group: P N N M
;
_chemical_formula_sum "Si O2"
_cell_formula_units_Z 48
_cell_length_a 6.193735
_cell_length_b 13.340863
_cell_length_c 30.387381
_cell_angle_alpha 90.000000
_cell_angle_beta 90.000000
_cell_angle_gamma 90.000000
_cell_volume 2510.902306
_symmetry_space_group_name_H-M "P N N M"
_symmetry_group_IT_number 58
_symmetry_cell_setting 'orthorhombic'
loop_
_space_group_symop_operation_xyz
x,y,z
-x,-y,z
1/2+x,1/2-y,1/2-z
1/2-x,1/2+y,1/2-z
-x,-y,-z
x,y,-z
1/2-x,1/2+y,1/2+z
1/2+x,1/2-y,1/2+z
loop_
_atom_site_type_symbol
_atom_site_label
_atom_site_fract_x
_atom_site_fract_y
_atom_site_fract_z
Si Si1 0.855888 0.094224 0.728340
Si Si2 0.820072 0.343873 0.620602
Si Si3 0.196653 0.329084 0.449093
Si Si4 0.000000 0.500000 0.162590
Si Si5 0.565691 0.796633 0.620090
Si Si6 0.000000 0.000000 0.914855
Si Si7 0.625887 0.214595 0.194510
O O1 0.716172 0.149432 0.765666
O O2 0.015112 0.181166 0.709834
O O3 0.687666 0.049294 0.692632
O O4 0.000000 0.000000 0.743968
O O5 0.679387 0.242357 0.618345
O O6 0.655965 0.434432 0.615320
O O7 0.984043 0.348839 0.579766
O O8 0.949905 0.344489 0.665805
O O9 0.150853 0.311561 0.500000
O O10 0.316973 0.237939 0.424365
O O11 0.356373 0.423821 0.443194
O O12 0.912499 0.411825 0.131902
O O13 0.682001 0.739282 0.660515
#
# Coordination Sequence:
#
# PCOD9444738 Si02
#       7
#     8   8   8   4   8   4   8
#     4  12  26  43  67  95 129 176 223 277 325 385
#     4  10  22  41  62  89 132 167 205 266 320 389
#     4  10  22  41  65  95 130 167 206 265 327 392
#     4  12  22  44  69  92 118 174 219 266 326 376
#     4  10  22  42  67  90 125 165 215 263 318 390
#     4  10  21  40  64  98 122 172 212 254 320 400
#     4  11  24  45  61  94 131 166 222 271 321 384
#
# _framework density 19.116634999999999
#
# number of rings (size 3 to 8) (size 9 to 14) (size 15 to 20)
#    0.000    1.333    3.333    1.750    0.000    4.000 
#   25.500    0.417    0.000    1.000    0.000    0.000 
#    0.000    0.000    0.000    0.000    0.000    0.000 
#
# Total GULP energy -268286.089386 kJ/mol
# GULP energy per Si atom -5589.293529 kJ/mol
# Density = 1.907313 g / cm^3
# Si number density = 19.116635 Si / 1000 Ang^3
#
#
#
# Elastic Constant Matrix: (Units=GPa)
#
#
# Indices 1 2 3 4 5 6 
#
# 1 106.4130 45.8354 54.9226 0.0000 0.0000 0.0000
# 2 45.8354 111.7360 67.4105 0.0000 0.0000 0.0000
# 3 54.9226 67.4105 113.0954 0.0000 0.0000 0.0000
# 4 0.0000 0.0000 0.0000 -3.5891 0.0000 0.0000
# 5 0.0000 0.0000 0.0000 0.0000 -9.7474 0.0000
# 6 0.0000 0.0000 0.0000 0.0000 0.0000 31.8261
#
#
#
# Elastic Compliance Matrix: (Units=1/GPa)
#
#
# Indices 1 2 3 4 5 6 
#
# 1 0.012929 -0.002367 -0.004868 0.000000 0.000000 0.000000
# 2 -0.002367 0.014408 -0.007439 0.000000 0.000000 0.000000
# 3 -0.004868 -0.007439 0.015640 0.000000 0.000000 0.000000
# 4 0.000000 0.000000 0.000000 -0.278621 0.000000 0.000000
# 5 0.000000 0.000000 0.000000 0.000000 -0.102592 0.000000
# 6 0.000000 0.000000 0.000000 0.000000 0.000000 0.031421
#
#
# Mechanical properties :
#
#
# Convention : Reuss Voigt Hill
#
# Bulk Modulus (GPa) = 73.36522 74.17573 73.77048
# Shear Modulus (GPa) = -18.32017 14.56965 -1.87526
#
# Velocity S-wave (km/s) = -3.09906 2.76369 -0.99151
# Velocity P-wave (km/s) = 5.06512 7.00499 6.11250
#
# Compressibility (1/GPa) = 0.01363044
#
# Stress axis : x y z
#
# Youngs Moduli (GPa) = 77.34309 69.40425 63.93835
#
# Poissons Ratio (x) = 0.16427 0.31126
# Poissons Ratio (y) = 0.18306 0.47562
# Poissons Ratio (z) = 0.37652 0.51628
#
# Static dielectric constant tensor:
#      x y z
#    x 1.696580 0.000000 0.000000 
#    y 0.000000 1.670190 0.000000 
#    z 0.000000 0.000000 1.627410 
# 
# From -- ./inp_files/32854.got.cif
#   From: 2010.05.17/outbox.cif.g08.bks.cpg/sg58_17_cif.got.tgz:32854.got - 2010.06.03 14:20:14.
