data_PCOD9444508
_publ_section_title
;
Structure prediction by ZEFSAII (Michael W. Deem and Ramdas Pophale) SiO2 
 PCOD9444508
Probable space group: P N N M
;
_chemical_formula_sum "Si O2"
_cell_formula_units_Z 64
_cell_length_a 26.861098
_cell_length_b 9.415995
_cell_length_c 14.221443
_cell_angle_alpha 90.000000
_cell_angle_beta 90.000000
_cell_angle_gamma 90.000000
_cell_volume 3596.943744
_symmetry_space_group_name_H-M "P N N M"
_symmetry_group_IT_number 58
_symmetry_cell_setting 'orthorhombic'
loop_
_space_group_symop_operation_xyz
x,y,z
-x,-y,z
1/2+x,1/2-y,1/2-z
1/2-x,1/2+y,1/2-z
-x,-y,-z
x,y,-z
1/2-x,1/2+y,1/2+z
1/2+x,1/2-y,1/2+z
loop_
_atom_site_type_symbol
_atom_site_label
_atom_site_fract_x
_atom_site_fract_y
_atom_site_fract_z
Si Si1 0.873999 0.810720 0.106941
Si Si2 0.042868 0.115442 0.758772
Si Si3 0.529383 0.868446 0.233922
Si Si4 0.307808 0.068292 0.750406
Si Si5 0.104983 0.525007 0.891348
Si Si6 0.378912 0.234977 0.888094
Si Si7 0.704753 0.269092 0.764431
Si Si8 0.626516 0.431090 0.110721
O O1 0.917074 0.899855 0.157958
O O2 0.891973 0.646431 0.109492
O O3 0.824276 0.814070 0.169071
O O4 0.865830 0.853339 0.000000
O O5 0.075991 0.109813 0.664828
O O6 0.013181 0.261158 0.765354
O O7 0.000000 0.000000 0.759313
O O8 0.560655 0.921439 0.324432
O O9 0.568403 0.797414 0.162311
O O10 0.500000 0.000000 0.189217
O O11 0.344315 0.075018 0.659910
O O12 0.339035 0.133779 0.837048
O O13 0.258775 0.161091 0.734566
O O14 0.295119 0.902273 0.767670
O O15 0.100725 0.570739 0.000000
O O16 0.365160 0.400525 0.871776
O O17 0.381375 0.211560 0.000000
O O18 0.670599 0.336500 0.846160
O O19 0.622000 0.409544 0.000000
#
# Coordination Sequence:
#
# PCOD9444508 Si02
#       8
#     8   8   8   8   8   8   8   8
#     4   9  19  36  57  82 110 144 187 229 276 332
#     4  11  21  36  57  82 115 150 187 233 279 333
#     4  11  21  36  57  84 113 150 191 231 282 335
#     4  10  21  38  61  86 114 147 185 233 287 337
#     4   9  19  36  58  82 108 145 191 228 267 335
#     4  10  22  39  58  83 114 149 191 237 283 335
#     4  10  21  38  61  85 114 149 184 233 285 342
#     4  10  22  39  59  82 112 152 193 232 281 340
#
# _framework density 17.792881999999999
#
# number of rings (size 3 to 8) (size 9 to 14) (size 15 to 20)
#    0.000    2.000    2.500    0.750    1.750    3.500 
#    0.000    2.500    0.000    0.000    0.000    0.000 
#    0.000    0.000    0.000    0.000    0.000    0.000 
#
# Total GULP energy -357061.085654 kJ/mol
# GULP energy per Si atom -5579.079463 kJ/mol
# Density = 1.775238 g / cm^3
# Si number density = 17.792882 Si / 1000 Ang^3
#
#
#
# Elastic Constant Matrix: (Units=GPa)
#
#
# Indices 1 2 3 4 5 6 
#
# 1 105.7669 41.0202 45.2239 0.0000 0.0000 0.0000
# 2 41.0202 53.5406 26.1016 0.0000 0.0000 0.0000
# 3 45.2239 26.1016 120.4019 0.0000 0.0000 0.0000
# 4 0.0000 0.0000 0.0000 24.6832 0.0000 0.0000
# 5 0.0000 0.0000 0.0000 0.0000 3.8860 0.0000
# 6 0.0000 0.0000 0.0000 0.0000 0.0000 107.5748
#
#
#
# Elastic Compliance Matrix: (Units=1/GPa)
#
#
# Indices 1 2 3 4 5 6 
#
# 1 0.014614 -0.009527 -0.003424 0.000000 0.000000 0.000000
# 2 -0.009527 0.027096 -0.002296 0.000000 0.000000 0.000000
# 3 -0.003424 -0.002296 0.010089 0.000000 0.000000 0.000000
# 4 0.000000 0.000000 0.000000 0.040513 0.000000 0.000000
# 5 0.000000 0.000000 0.000000 0.000000 0.257331 0.000000
# 6 0.000000 0.000000 0.000000 0.000000 0.000000 0.009296
#
#
# Mechanical properties :
#
#
# Convention : Reuss Voigt Hill
#
# Bulk Modulus (GPa) = 46.93551 56.04451 51.49001
# Shear Modulus (GPa) = 12.60928 38.38638 25.49783
#
# Velocity S-wave (km/s) = 2.66497 4.64982 3.78965
# Velocity P-wave (km/s) = 5.99212 7.77139 6.93902
#
# Compressibility (1/GPa) = 0.02130583
#
# Stress axis : x y z
#
# Youngs Moduli (GPa) = 68.42933 36.90610 99.11694
#
# Poissons Ratio (x) = 0.35161 0.33934
# Poissons Ratio (y) = 0.65194 0.22753
# Poissons Ratio (z) = 0.23428 0.08472
#
# Static dielectric constant tensor:
#      x y z
#    x 1.579190 0.000000 0.000000 
#    y 0.000000 1.559310 0.000000 
#    z 0.000000 0.000000 1.587560 
# 
# From -- ./inp_files/23548.got.cif
#   From: 2010.05.17/outbox.cif.g08.bks.cpg/sg58_12_cif.got.tgz:23548.got - 2010.06.03 14:20:14.
