data_PCOD9444682
_publ_section_title
;
Structure prediction by ZEFSAII (Michael W. Deem and Ramdas Pophale) SiO2 
 PCOD9444682
Probable space group: P N N M
;
_chemical_formula_sum "Si O2"
_cell_formula_units_Z 64
_cell_length_a 21.498453
_cell_length_b 17.085650
_cell_length_c 8.384735
_cell_angle_alpha 90.000000
_cell_angle_beta 90.000000
_cell_angle_gamma 90.000000
_cell_volume 3079.839301
_symmetry_space_group_name_H-M "P N N M"
_symmetry_group_IT_number 58
_symmetry_cell_setting 'orthorhombic'
loop_
_space_group_symop_operation_xyz
x,y,z
-x,-y,z
1/2+x,1/2-y,1/2-z
1/2-x,1/2+y,1/2-z
-x,-y,-z
x,y,-z
1/2-x,1/2+y,1/2+z
1/2+x,1/2-y,1/2+z
loop_
_atom_site_type_symbol
_atom_site_label
_atom_site_fract_x
_atom_site_fract_y
_atom_site_fract_z
Si Si1 0.321651 0.878270 0.306935
Si Si2 0.016805 0.091068 0.182260
Si Si3 0.428095 0.991573 0.694238
Si Si4 0.134380 0.655282 0.810814
Si Si5 0.645194 0.409539 0.819111
Si Si6 0.265870 0.712083 0.684327
Si Si7 0.402757 0.314027 0.186609
Si Si8 0.305945 0.430254 0.310020
O O1 0.321700 0.878138 0.500000
O O2 0.387570 0.915522 0.254702
O O3 0.300259 0.791105 0.254686
O O4 0.265289 0.932363 0.245722
O O5 0.073003 0.109443 0.299291
O O6 0.956807 0.141893 0.219873
O O7 0.037327 0.103847 0.000000
O O8 0.000000 0.000000 0.198996
O O9 0.430215 0.988764 0.500000
O O10 0.500000 0.000000 0.748525
O O11 0.388344 0.069005 0.737898
O O12 0.205581 0.678009 0.773296
O O13 0.095596 0.722418 0.722444
O O14 0.124362 0.662138 0.000000
O O15 0.683670 0.355904 0.700154
O O16 0.656788 0.499099 0.770460
O O17 0.666241 0.396457 0.000000
O O18 0.247695 0.725836 0.500000
O O19 0.337873 0.350423 0.249139
O O20 0.407975 0.330025 0.000000
O O21 0.310648 0.434745 0.500000
#
# Coordination Sequence:
#
# PCOD9444682 Si02
#       8
#     8   8   8   8   8   8   8   8
#     4  10  21  39  65  95 125 164 212 266 330 389
#     4  11  23  40  62  88 122 163 210 256 306 375
#     4   9  20  40  66  95 126 166 216 269 326 391
#     4  11  22  39  66  96 128 166 216 274 328 387
#     4  12  25  40  61  89 128 169 209 257 316 380
#     4  11  23  39  62  93 131 169 213 268 326 388
#     4  12  24  39  62  91 127 168 211 259 319 387
#     4  12  23  38  62  91 123 162 212 262 317 380
#
# _framework density 20.780306
#
# number of rings (size 3 to 8) (size 9 to 14) (size 15 to 20)
#    0.000    1.000    2.500    5.250    0.000    3.000 
#    0.000    3.125    0.000    3.375    0.000    0.000 
#    0.000    0.000    0.000    0.000    0.000    0.000 
#
# Total GULP energy -357656.437788 kJ/mol
# GULP energy per Si atom -5588.381840 kJ/mol
# Density = 2.073301 g / cm^3
# Si number density = 20.780306 Si / 1000 Ang^3
#
#
#
# Elastic Constant Matrix: (Units=GPa)
#
#
# Indices 1 2 3 4 5 6 
#
# 1 84.3533 34.0909 3.6154 0.0000 0.0000 0.0000
# 2 34.0909 82.9339 7.2985 0.0000 0.0000 0.0000
# 3 3.6154 7.2985 31.2173 0.0000 0.0000 0.0000
# 4 0.0000 0.0000 0.0000 21.0653 0.0000 0.0000
# 5 0.0000 0.0000 0.0000 0.0000 18.4930 0.0000
# 6 0.0000 0.0000 0.0000 0.0000 0.0000 28.7247
#
#
#
# Elastic Compliance Matrix: (Units=1/GPa)
#
#
# Indices 1 2 3 4 5 6 
#
# 1 0.014219 -0.005820 -0.000286 0.000000 0.000000 0.000000
# 2 -0.005820 0.014693 -0.002761 0.000000 0.000000 0.000000
# 3 -0.000286 -0.002761 0.032712 0.000000 0.000000 0.000000
# 4 0.000000 0.000000 0.000000 0.047471 0.000000 0.000000
# 5 0.000000 0.000000 0.000000 0.000000 0.054074 0.000000
# 6 0.000000 0.000000 0.000000 0.000000 0.000000 0.034813
#
#
# Mechanical properties :
#
#
# Convention : Reuss Voigt Hill
#
# Bulk Modulus (GPa) = 22.78410 32.05713 27.42061
# Shear Modulus (GPa) = 21.70631 23.88992 22.79811
#
# Velocity S-wave (km/s) = 3.23547 3.39432 3.31585
# Velocity P-wave (km/s) = 4.99458 5.55176 5.28052
#
# Compressibility (1/GPa) = 0.04389026
#
# Stress axis : x y z
#
# Youngs Moduli (GPa) = 70.32754 68.05935 30.56965
#
# Poissons Ratio (x) = 0.39609 0.00875
# Poissons Ratio (y) = 0.40929 0.08441
# Poissons Ratio (z) = 0.02012 0.18792
#
# Static dielectric constant tensor:
#      x y z
#    x 1.732100 0.000000 0.000000 
#    y 0.000000 1.742990 0.000000 
#    z 0.000000 0.000000 1.693240 
# 
# From -- ./inp_files/9332.got.cif
#   From: 2010.05.17/outbox.cif.g08.bks.cpg/sg58_5_cif.got.tgz:9332.got - 2010.06.03 14:20:14.
