data_PCOD9444796
_publ_section_title
;
Structure prediction by ZEFSAII (Michael W. Deem and Ramdas Pophale) SiO2 
 PCOD9444796
Probable space group: P N N M
;
_chemical_formula_sum "Si O2"
_cell_formula_units_Z 48
_cell_length_a 27.007848
_cell_length_b 9.925442
_cell_length_c 9.111439
_cell_angle_alpha 90.000000
_cell_angle_beta 90.000000
_cell_angle_gamma 90.000000
_cell_volume 2442.456336
_symmetry_space_group_name_H-M "P N N M"
_symmetry_group_IT_number 58
_symmetry_cell_setting 'orthorhombic'
loop_
_space_group_symop_operation_xyz
x,y,z
-x,-y,z
1/2+x,1/2-y,1/2-z
1/2-x,1/2+y,1/2-z
-x,-y,-z
x,y,-z
1/2-x,1/2+y,1/2+z
1/2+x,1/2-y,1/2+z
loop_
_atom_site_type_symbol
_atom_site_label
_atom_site_fract_x
_atom_site_fract_y
_atom_site_fract_z
Si Si1 0.769887 0.650426 0.176548
Si Si2 0.698672 0.446431 0.675615
Si Si3 0.622887 0.039179 0.324930
Si Si4 0.960438 0.721227 0.674311
Si Si5 0.438633 0.215979 0.326420
Si Si6 0.582947 0.472414 0.325516
O O1 0.724698 0.572014 0.248261
O O2 0.821277 0.575721 0.217674
O O3 0.775730 0.806217 0.221291
O O4 0.765660 0.646194 0.000000
O O5 0.703452 0.459778 0.500000
O O6 0.640229 0.438793 0.706807
O O7 0.618537 0.066278 0.500000
O O8 0.583463 0.132048 0.242255
O O9 0.606709 0.885287 0.298557
O O10 0.959232 0.717126 0.500000
O O11 0.013366 0.673976 0.735182
O O12 0.951314 0.872180 0.734670
O O13 0.450553 0.206494 0.500000
O O14 0.425781 0.370665 0.294002
O O15 0.574210 0.450466 0.500000
#
# Coordination Sequence:
#
# PCOD9444796 Si02
#       6
#     8   8   8   8   8   8
#     4  10  22  40  63  90 120 154 195 244 294 347
#     4  10  22  40  63  90 120 154 195 244 294 347
#     4  10  21  41  64  86 117 157 202 244 286 349
#     4  12  24  38  59  88 123 159 194 243 301 350
#     4  10  22  38  63  90 113 155 204 245 289 346
#     4  10  21  41  64  86 117 157 202 244 286 349
#
# _framework density 19.652346999999999
#
# number of rings (size 3 to 8) (size 9 to 14) (size 15 to 20)
#    0.000    1.667    1.667    2.500    2.333    7.333 
#    0.000    0.000    0.000    0.000    0.000    0.000 
#    0.000    0.000    0.000    0.000    0.000    0.000 
#
# Total GULP energy -268353.521565 kJ/mol
# GULP energy per Si atom -5590.698366 kJ/mol
# Density = 1.960762 g / cm^3
# Si number density = 19.652347 Si / 1000 Ang^3
#
#
#
# Elastic Constant Matrix: (Units=GPa)
#
#
# Indices 1 2 3 4 5 6 
#
# 1 30.6374 -4.5758 5.2069 0.0000 0.0000 0.0000
# 2 -4.5758 60.4102 16.7187 0.0000 0.0000 0.0000
# 3 5.2069 16.7187 13.7092 0.0000 0.0000 0.0000
# 4 0.0000 0.0000 0.0000 22.9013 0.0000 0.0000
# 5 0.0000 0.0000 0.0000 0.0000 12.6173 0.0000
# 6 0.0000 0.0000 0.0000 0.0000 0.0000 39.0022
#
#
#
# Elastic Compliance Matrix: (Units=1/GPa)
#
#
# Indices 1 2 3 4 5 6 
#
# 1 0.038945 0.010632 -0.027758 0.000000 0.000000 0.000000
# 2 0.010632 0.027889 -0.038050 0.000000 0.000000 0.000000
# 3 -0.027758 -0.038050 0.129889 0.000000 0.000000 0.000000
# 4 0.000000 0.000000 0.000000 0.043666 0.000000 0.000000
# 5 0.000000 0.000000 0.000000 0.000000 0.079256 0.000000
# 6 0.000000 0.000000 0.000000 0.000000 0.000000 0.025640
#
#
# Mechanical properties :
#
#
# Convention : Reuss Voigt Hill
#
# Bulk Modulus (GPa) = 11.57778 15.49515 13.53647
# Shear Modulus (GPa) = 10.32149 20.73130 15.52639
#
# Velocity S-wave (km/s) = 2.29422 3.25145 2.81384
# Velocity P-wave (km/s) = 3.59472 4.69016 4.17850
#
# Compressibility (1/GPa) = 0.08637232
#
# Stress axis : x y z
#
# Youngs Moduli (GPa) = 25.67703 35.85610 7.69890
#
# Poissons Ratio (x) = -0.38122 0.21370
# Poissons Ratio (y) = -0.27300 0.29294
# Poissons Ratio (z) = 0.71274 1.36432
#
# Static dielectric constant tensor:
#      x y z
#    x 1.665430 0.000000 0.000000 
#    y 0.000000 1.701240 0.000000 
#    z 0.000000 0.000000 1.651640 
# 
# From -- ./inp_files/3001.got.cif
#   From: 2010.05.17/outbox.cif.g08.bks.cpg/sg58_2_cif.got.tgz:3001.got - 2010.06.03 14:20:14.
