data_PCOD9444179
_publ_section_title
;
Structure prediction by ZEFSAII (Michael W. Deem and Ramdas Pophale) SiO2 
 PCOD9444179
Probable space group: P N N M
;
_chemical_formula_sum "Si O2"
_cell_formula_units_Z 56
_cell_length_a 20.638802
_cell_length_b 16.257389
_cell_length_c 7.838088
_cell_angle_alpha 90.000000
_cell_angle_beta 90.000000
_cell_angle_gamma 90.000000
_cell_volume 2629.937436
_symmetry_space_group_name_H-M "P N N M"
_symmetry_group_IT_number 58
_symmetry_cell_setting 'orthorhombic'
loop_
_space_group_symop_operation_xyz
x,y,z
-x,-y,z
1/2+x,1/2-y,1/2-z
1/2-x,1/2+y,1/2-z
-x,-y,-z
x,y,-z
1/2-x,1/2+y,1/2+z
1/2+x,1/2-y,1/2+z
loop_
_atom_site_type_symbol
_atom_site_label
_atom_site_fract_x
_atom_site_fract_y
_atom_site_fract_z
Si Si1 0.959308 0.258723 0.699711
Si Si2 0.955101 0.076210 0.793135
Si Si3 0.408858 0.830922 0.209872
Si Si4 0.323029 0.979863 0.200877
Si Si5 0.814419 0.814632 0.705292
Si Si6 0.829285 0.336697 0.199189
Si Si7 0.678459 0.503294 0.705257
O O1 0.951785 0.275459 0.500000
O O2 0.977873 0.163792 0.725619
O O3 0.889855 0.277156 0.780437
O O4 0.017869 0.314732 0.767758
O O5 0.881816 0.057146 0.734285
O O6 0.955905 0.079809 0.000000
O O7 0.000000 0.000000 0.740974
O O8 0.374845 0.914881 0.268569
O O9 0.363389 0.755127 0.266248
O O10 0.411103 0.830389 0.000000
O O11 0.343155 0.074665 0.218922
O O12 0.249789 0.973272 0.272741
O O13 0.317487 0.961459 0.000000
O O14 0.815093 0.809145 0.500000
O O15 0.739850 0.803216 0.764920
O O16 0.833342 0.907287 0.754879
O O17 0.819733 0.353358 0.000000
O O18 0.680204 0.510726 0.500000
#
# Coordination Sequence:
#
# PCOD9444179 Si02
#       7
#     8   8   8   8   8   8   8
#     4  11  23  37  55  81 111 145 188 229 273 327
#     4  10  21  36  55  82 116 150 182 220 278 340
#     4   9  19  35  56  80 104 141 186 227 271 321
#     4   9  18  35  58  79 103 138 186 230 268 320
#     4   9  18  34  58  81 107 142 182 226 272 323
#     4  10  21  37  57  81 112 144 179 226 282 332
#     4   9  18  32  54  80 107 141 178 220 271 327
#
# _framework density 21.293281
#
# number of rings (size 3 to 8) (size 9 to 14) (size 15 to 20)
#    0.000    2.429    0.000    1.714    2.000    2.000 
#    0.000    5.714    0.000    0.000    0.000    0.000 
#    0.000    0.000    0.000    0.000    0.000    0.000 
#
# Total GULP energy -312648.765765 kJ/mol
# GULP energy per Si atom -5583.013674 kJ/mol
# Density = 2.124482 g / cm^3
# Si number density = 21.293281 Si / 1000 Ang^3
#
#
#
# Elastic Constant Matrix: (Units=GPa)
#
#
# Indices 1 2 3 4 5 6 
#
# 1 55.8962 9.0413 4.4273 0.0000 0.0000 0.0000
# 2 9.0413 17.8326 -8.5975 0.0000 0.0000 0.0000
# 3 4.4273 -8.5975 19.3705 0.0000 0.0000 0.0000
# 4 0.0000 0.0000 0.0000 16.1012 0.0000 0.0000
# 5 0.0000 0.0000 0.0000 0.0000 12.7067 0.0000
# 6 0.0000 0.0000 0.0000 0.0000 0.0000 36.8636
#
#
#
# Elastic Compliance Matrix: (Units=1/GPa)
#
#
# Indices 1 2 3 4 5 6 
#
# 1 0.021626 -0.016981 -0.012480 0.000000 0.000000 0.000000
# 2 -0.016981 0.084678 0.041465 0.000000 0.000000 0.000000
# 3 -0.012480 0.041465 0.072882 0.000000 0.000000 0.000000
# 4 0.000000 0.000000 0.000000 0.062107 0.000000 0.000000
# 5 0.000000 0.000000 0.000000 0.000000 0.078699 0.000000
# 6 0.000000 0.000000 0.000000 0.000000 0.000000 0.027127
#
#
# Mechanical properties :
#
#
# Convention : Reuss Voigt Hill
#
# Bulk Modulus (GPa) = 4.92140 11.42683 8.17411
# Shear Modulus (GPa) = 12.79293 19.01617 15.90455
#
# Velocity S-wave (km/s) = 2.45377 2.99165 2.73596
# Velocity P-wave (km/s) = 3.21625 4.16069 3.71858
#
# Compressibility (1/GPa) = 0.20319428
#
# Stress axis : x y z
#
# Youngs Moduli (GPa) = 46.24170 11.80941 13.72088
#
# Poissons Ratio (x) = 0.20054 0.17123
# Poissons Ratio (y) = 0.78524 -0.56894
# Poissons Ratio (z) = 0.57708 -0.48968
#
# Static dielectric constant tensor:
#      x y z
#    x 1.786030 0.000000 0.000000 
#    y 0.000000 1.730450 0.000000 
#    z 0.000000 0.000000 1.804150 
# 
# From -- ./inp_files/9060.got.cif
#   From: 2010.05.17/outbox.cif.g08.bks.cpg/sg58_5_cif.got.tgz:9060.got - 2010.06.03 14:20:14.
