data_PCOD9444745
_publ_section_title
;
Structure prediction by ZEFSAII (Michael W. Deem and Ramdas Pophale) SiO2 
 PCOD9444745
Probable space group: P N N M
;
_chemical_formula_sum "Si O2"
_cell_formula_units_Z 44
_cell_length_a 5.534229
_cell_length_b 23.717088
_cell_length_c 14.074587
_cell_angle_alpha 90.000000
_cell_angle_beta 90.000000
_cell_angle_gamma 90.000000
_cell_volume 1847.371123
_symmetry_space_group_name_H-M "P N N M"
_symmetry_group_IT_number 58
_symmetry_cell_setting 'orthorhombic'
loop_
_space_group_symop_operation_xyz
x,y,z
-x,-y,z
1/2+x,1/2-y,1/2-z
1/2-x,1/2+y,1/2-z
-x,-y,-z
x,y,-z
1/2-x,1/2+y,1/2+z
1/2+x,1/2-y,1/2+z
loop_
_atom_site_type_symbol
_atom_site_label
_atom_site_fract_x
_atom_site_fract_y
_atom_site_fract_z
Si Si1 0.795816 0.596308 0.500000
Si Si2 0.111949 0.699712 0.704254
Si Si3 0.003591 0.828524 0.685037
Si Si4 0.276202 0.907252 0.201517
Si Si5 0.264448 0.373052 0.000000
Si Si6 0.797798 0.834947 0.000000
Si Si7 0.500000 0.000000 0.334677
Si Si8 0.756861 0.441929 0.000000
O O1 0.757076 0.564729 0.401024
O O2 0.571122 0.641000 0.500000
O O3 0.071861 0.620260 0.500000
O O4 0.062772 0.765357 0.719793
O O5 0.216752 0.677877 0.805991
O O6 0.259242 0.695568 0.602997
O O7 0.902707 0.653931 0.686927
O O8 0.035992 0.884397 0.749448
O O9 0.165775 0.837859 0.593439
O O10 0.412150 0.948567 0.271213
O O11 0.492036 0.416172 0.000000
O O12 0.995509 0.399717 0.000000
O O13 0.705811 0.978517 0.405918
#
# Coordination Sequence:
#
# PCOD9444745 Si02
#       8
#     4   8   8   8   4   4   4   4
#     4  10  22  41  67  95 133 170 231 284 341 417
#     4  11  23  41  66 100 142 181 235 294 354 432
#     4  12  23  41  68 101 139 187 235 291 362 424
#     4  11  23  44  67 101 137 190 234 295 358 426
#     4  12  27  47  74 107 147 187 244 297 359 437
#     4  10  21  40  65  94 132 179 214 283 352 405
#     4  11  24  47  76 100 146 195 242 299 360 424
#     4  11  26  50  70 107 146 188 245 300 354 426
#
# _framework density 23.817627999999999
#
# number of rings (size 3 to 8) (size 9 to 14) (size 15 to 20)
#    0.000    0.909    5.455    1.636    0.000    1.818 
#    3.273    2.727    0.000    2.182    0.000    0.000 
#    0.000    0.000    0.000    0.000    0.000    0.000 
#
# Total GULP energy -244998.144059 kJ/mol
# GULP energy per Si atom -5568.139638 kJ/mol
# Density = 2.376342 g / cm^3
# Si number density = 23.817628 Si / 1000 Ang^3
#
#
#
# Elastic Constant Matrix: (Units=GPa)
#
#
# Indices 1 2 3 4 5 6 
#
# 1 67.7310 17.1475 5.3588 0.0000 0.0000 0.0000
# 2 17.1475 77.0242 22.3433 0.0000 0.0000 0.0000
# 3 5.3588 22.3433 95.5419 0.0000 0.0000 0.0000
# 4 0.0000 0.0000 0.0000 -0.9756 0.0000 0.0000
# 5 0.0000 0.0000 0.0000 0.0000 16.0424 0.0000
# 6 0.0000 0.0000 0.0000 0.0000 0.0000 24.9304
#
#
#
# Elastic Compliance Matrix: (Units=1/GPa)
#
#
# Indices 1 2 3 4 5 6 
#
# 1 0.015647 -0.003464 -0.000068 0.000000 0.000000 0.000000
# 2 -0.003464 0.014695 -0.003242 0.000000 0.000000 0.000000
# 3 -0.000068 -0.003242 0.011229 0.000000 0.000000 0.000000
# 4 0.000000 0.000000 0.000000 -1.024973 0.000000 0.000000
# 5 0.000000 0.000000 0.000000 0.000000 0.062335 0.000000
# 6 0.000000 0.000000 0.000000 0.000000 0.000000 0.040112
#
#
# Mechanical properties :
#
#
# Convention : Reuss Voigt Hill
#
# Bulk Modulus (GPa) = 35.68523 36.66624 36.17574
# Shear Modulus (GPa) = -5.82704 21.02926 7.60111
#
# Velocity S-wave (km/s) = -1.56583 2.97463 1.78838
# Velocity P-wave (km/s) = 3.42726 5.21785 4.41430
#
# Compressibility (1/GPa) = 0.02802279
#
# Stress axis : x y z
#
# Youngs Moduli (GPa) = 63.91193 68.05251 89.05818
#
# Poissons Ratio (x) = 0.23571 0.00602
# Poissons Ratio (y) = 0.22137 0.28874
# Poissons Ratio (z) = 0.00432 0.22064
#
# Static dielectric constant tensor:
#      x y z
#    x 2.058330 0.000000 0.000000 
#    y 0.000000 1.897540 0.000000 
#    z 0.000000 0.000000 2.089450 
# 
# From -- ./inp_files/18579.got.cif
#   From: 2010.05.17/outbox.cif.g08.bks.cpg/sg58_10_cif.got.tgz:18579.got - 2010.06.03 14:20:14.
