data_PCOD9444113
_publ_section_title
;
Structure prediction by ZEFSAII (Michael W. Deem and Ramdas Pophale) SiO2 
 PCOD9444113
Probable space group: P N N M
;
_chemical_formula_sum "Si O2"
_cell_formula_units_Z 32
_cell_length_a 12.196438
_cell_length_b 5.270177
_cell_length_c 20.335733
_cell_angle_alpha 90.000000
_cell_angle_beta 90.000000
_cell_angle_gamma 90.000000
_cell_volume 1307.127781
_symmetry_space_group_name_H-M "P N N M"
_symmetry_group_IT_number 58
_symmetry_cell_setting 'orthorhombic'
loop_
_space_group_symop_operation_xyz
x,y,z
-x,-y,z
1/2+x,1/2-y,1/2-z
1/2-x,1/2+y,1/2-z
-x,-y,-z
x,y,-z
1/2-x,1/2+y,1/2+z
1/2+x,1/2-y,1/2+z
loop_
_atom_site_type_symbol
_atom_site_label
_atom_site_fract_x
_atom_site_fract_y
_atom_site_fract_z
Si Si1 0.274400 0.652847 0.137705
Si Si2 0.025061 0.748761 0.889218
Si Si3 0.565348 0.255500 0.247733
Si Si4 0.380671 0.131133 0.076761
O O1 0.144354 0.690132 0.139648
O O2 0.321113 0.727245 0.209726
O O3 0.328527 0.381498 0.114113
O O4 0.307425 0.883000 0.089358
O O5 0.000000 0.500000 0.928716
O O6 0.941275 0.773785 0.826578
O O7 0.000000 0.000000 0.927261
O O8 0.500000 0.500000 0.222607
O O9 0.500000 0.000000 0.231806
O O10 0.500000 0.000000 0.093113
O O11 0.385453 0.204049 0.000000
#
# Coordination Sequence:
#
# PCOD9444113 Si02
#       4
#     8   8   8   8
#     4  12  22  39  66  90 128 173 204 259 330 375
#     4  10  23  39  58  89 129 170 216 255 301 382
#     4  10  21  35  55  88 124 160 204 245 302 380
#     4  11  24  42  66  96 124 157 212 272 326 385
#
# _framework density 24.481155999999999
#
# number of rings (size 3 to 8) (size 9 to 14) (size 15 to 20)
#    0.000    1.250    0.000    6.750    0.000   10.000 
#    0.000    0.000    0.000   15.000    0.000    0.000 
#    0.000    0.000    0.000    0.000    0.000    0.000 
#
# Total GULP energy -178336.870935 kJ/mol
# GULP energy per Si atom -5573.027217 kJ/mol
# Density = 2.442544 g / cm^3
# Si number density = 24.481156 Si / 1000 Ang^3
#
#
#
# Elastic Constant Matrix: (Units=GPa)
#
#
# Indices 1 2 3 4 5 6 
#
# 1 95.9661 60.4755 24.6441 0.0000 0.0000 0.0000
# 2 60.4755 268.6522 22.9862 0.0000 0.0000 0.0000
# 3 24.6441 22.9862 126.5042 0.0000 0.0000 0.0000
# 4 0.0000 0.0000 0.0000 35.1493 0.0000 0.0000
# 5 0.0000 0.0000 0.0000 0.0000 -29.1289 0.0000
# 6 0.0000 0.0000 0.0000 0.0000 0.0000 36.0712
#
#
#
# Elastic Compliance Matrix: (Units=1/GPa)
#
#
# Indices 1 2 3 4 5 6 
#
# 1 0.012609 -0.002670 -0.001971 0.000000 0.000000 0.000000
# 2 -0.002670 0.004346 -0.000270 0.000000 0.000000 0.000000
# 3 -0.001971 -0.000270 0.008338 0.000000 0.000000 0.000000
# 4 0.000000 0.000000 0.000000 0.028450 0.000000 0.000000
# 5 0.000000 0.000000 0.000000 0.000000 -0.034330 0.000000
# 6 0.000000 0.000000 0.000000 0.000000 0.000000 0.027723
#
#
# Mechanical properties :
#
#
# Convention : Reuss Voigt Hill
#
# Bulk Modulus (GPa) = 64.63304 78.59266 71.61285
# Shear Modulus (GPa) = 80.49655 33.95278 57.22466
#
# Velocity S-wave (km/s) = 5.74042 3.72814 4.84001
# Velocity P-wave (km/s) = 8.39017 7.12075 7.78139
#
# Compressibility (1/GPa) = 0.01547196
#
# Stress axis : x y z
#
# Youngs Moduli (GPa) = 79.30877 230.07939 119.93448
#
# Poissons Ratio (x) = 0.61424 0.23642
# Poissons Ratio (y) = 0.21173 0.03234
# Poissons Ratio (z) = 0.15634 0.06204
#
# Static dielectric constant tensor:
#      x y z
#    x 2.356110 0.000000 0.000000 
#    y 0.000000 2.071920 0.000000 
#    z 0.000000 0.000000 1.910560 
# 
# From -- ./inp_files/29295.got.cif
#   From: 2010.05.17/outbox.cif.g08.bks.cpg/sg58_15_cif.got.tgz:29295.got - 2010.06.03 14:20:14.
