data_PCOD9444945
_publ_section_title
;
Structure prediction by ZEFSAII (Michael W. Deem and Ramdas Pophale) SiO2 
 PCOD9444945
Probable space group: P N N M
;
_chemical_formula_sum "Si O2"
_cell_formula_units_Z 48
_cell_length_a 28.950506
_cell_length_b 10.509331
_cell_length_c 8.039775
_cell_angle_alpha 90.000000
_cell_angle_beta 90.000000
_cell_angle_gamma 90.000000
_cell_volume 2446.105163
_symmetry_space_group_name_H-M "P N N M"
_symmetry_group_IT_number 58
_symmetry_cell_setting 'orthorhombic'
loop_
_space_group_symop_operation_xyz
x,y,z
-x,-y,z
1/2+x,1/2-y,1/2-z
1/2-x,1/2+y,1/2-z
-x,-y,-z
x,y,-z
1/2-x,1/2+y,1/2+z
1/2+x,1/2-y,1/2+z
loop_
_atom_site_type_symbol
_atom_site_label
_atom_site_fract_x
_atom_site_fract_y
_atom_site_fract_z
Si Si1 0.946847 0.856186 0.703119
Si Si2 0.949567 0.149841 0.700383
Si Si3 0.646756 0.234298 0.805069
Si Si4 0.854197 0.245473 0.800537
Si Si5 0.194665 0.011424 0.804951
Si Si6 0.798414 0.491087 0.195212
O O1 0.945818 0.856353 0.500000
O O2 0.904436 0.769676 0.759256
O O3 0.998417 0.816364 0.754982
O O4 0.940169 0.003609 0.755112
O O5 0.949728 0.148889 0.500000
O O6 0.908122 0.238440 0.758014
O O7 0.676544 0.362649 0.784771
O O8 0.671624 0.117947 0.716303
O O9 0.643641 0.202298 0.000000
O O10 0.830311 0.115528 0.738395
O O11 0.827393 0.370064 0.739997
O O12 0.849924 0.245174 0.000000
O O13 0.249409 0.996920 0.784757
O O14 0.183308 0.025220 0.000000
O O15 0.788505 0.471436 0.000000
#
# Coordination Sequence:
#
# PCOD9444945 Si02
#       6
#     8   8   8   8   8   8
#     4   8  16  31  55  85 112 139 180 231 276 325
#     4   9  16  32  58  84 108 141 184 229 275 328
#     4  11  21  37  59  85 115 148 185 231 282 334
#     4  10  22  38  55  81 115 145 181 231 282 330
#     4  11  22  38  60  85 110 144 191 236 281 337
#     4  11  24  40  56  79 115 154 190 233 280 332
#
# _framework density 19.623031000000001
#
# number of rings (size 3 to 8) (size 9 to 14) (size 15 to 20)
#    0.000    2.000    1.667    3.500    0.000    3.333 
#    0.000    4.167    0.000    5.000    0.000    0.000 
#    0.000    0.000    0.000    0.000    0.000    0.000 
#
# Total GULP energy -268046.011365 kJ/mol
# GULP energy per Si atom -5584.291903 kJ/mol
# Density = 1.957837 g / cm^3
# Si number density = 19.623031 Si / 1000 Ang^3
#
#
#
# Elastic Constant Matrix: (Units=GPa)
#
#
# Indices 1 2 3 4 5 6 
#
# 1 135.0734 43.0711 -11.9477 0.0000 0.0000 0.0000
# 2 43.0711 87.2957 -5.6737 0.0000 0.0000 0.0000
# 3 -11.9477 -5.6737 18.6020 0.0000 0.0000 0.0000
# 4 0.0000 0.0000 0.0000 8.4281 0.0000 0.0000
# 5 0.0000 0.0000 0.0000 0.0000 22.6206 0.0000
# 6 0.0000 0.0000 0.0000 0.0000 0.0000 -10.5549
#
#
#
# Elastic Compliance Matrix: (Units=1/GPa)
#
#
# Indices 1 2 3 4 5 6 
#
# 1 0.009155 -0.004218 0.004593 0.000000 0.000000 0.000000
# 2 -0.004218 0.013631 0.001448 0.000000 0.000000 0.000000
# 3 0.004593 0.001448 0.057150 0.000000 0.000000 0.000000
# 4 0.000000 0.000000 0.000000 0.118650 0.000000 0.000000
# 5 0.000000 0.000000 0.000000 0.000000 0.044208 0.000000
# 6 0.000000 0.000000 0.000000 0.000000 0.000000 -0.094742
#
#
# Mechanical properties :
#
#
# Convention : Reuss Voigt Hill
#
# Bulk Modulus (GPa) = 11.96442 32.43004 22.19723
# Shear Modulus (GPa) = 29.02506 18.46684 23.74595
#
# Velocity S-wave (km/s) = 3.85012 3.07103 3.48243
# Velocity P-wave (km/s) = 5.08674 5.39790 5.24463
#
# Compressibility (1/GPa) = 0.08358117
#
# Stress axis : x y z
#
# Youngs Moduli (GPa) = 109.23235 73.36354 17.49794
#
# Poissons Ratio (x) = 0.30947 -0.08037
# Poissons Ratio (y) = 0.46078 -0.02534
# Poissons Ratio (z) = -0.50174 -0.10624
#
# Static dielectric constant tensor:
#      x y z
#    x 1.690070 0.000000 0.000000 
#    y 0.000000 1.661970 0.000000 
#    z 0.000000 0.000000 1.697000 
# 
# From -- ./inp_files/2925.got.cif
#   From: 2010.05.17/outbox.cif.g08.bks.cpg/sg58_2_cif.got.tgz:2925.got - 2010.06.03 14:20:14.
