data_PCOD9444150
_publ_section_title
;
Structure prediction by ZEFSAII (Michael W. Deem and Ramdas Pophale) SiO2 
 PCOD9444150
Probable space group: P N N M
;
_chemical_formula_sum "Si O2"
_cell_formula_units_Z 40
_cell_length_a 24.569020
_cell_length_b 8.050805
_cell_length_c 7.406375
_cell_angle_alpha 90.000000
_cell_angle_beta 90.000000
_cell_angle_gamma 90.000000
_cell_volume 1464.983857
_symmetry_space_group_name_H-M "P N N M"
_symmetry_group_IT_number 58
_symmetry_cell_setting 'orthorhombic'
loop_
_space_group_symop_operation_xyz
x,y,z
-x,-y,z
1/2+x,1/2-y,1/2-z
1/2-x,1/2+y,1/2-z
-x,-y,-z
x,y,-z
1/2-x,1/2+y,1/2+z
1/2+x,1/2-y,1/2+z
loop_
_atom_site_type_symbol
_atom_site_label
_atom_site_fract_x
_atom_site_fract_y
_atom_site_fract_z
Si Si1 0.334844 0.035337 0.210444
Si Si2 0.036045 0.829158 0.711500
Si Si3 0.867457 0.958234 0.282019
Si Si4 0.232746 0.854396 0.206980
Si Si5 0.936604 0.629361 0.281745
O O1 0.290113 0.908413 0.289501
O O2 0.396674 0.019117 0.279713
O O3 0.304664 0.210851 0.213160
O O4 0.339969 0.990005 0.000000
O O5 0.046366 0.789012 0.500000
O O6 0.996292 0.685348 0.785429
O O7 0.092994 0.894310 0.787405
O O8 0.000000 0.000000 0.713068
O O9 0.865411 0.967132 0.500000
O O10 0.806887 0.985253 0.213071
O O11 0.897638 0.787081 0.240210
O O12 0.242073 0.805588 0.000000
O O13 0.944315 0.619184 0.500000
#
# Coordination Sequence:
#
# PCOD9444150 Si02
#       5
#     8   8   8   8   8
#     4  10  21  36  53  72  96 129 166 204 248 295
#     4   7  11  22  46  78 102 123 160 207 245 278
#     4   9  16  30  54  79 103 132 164 201 246 292
#     4  11  23  36  51  74 102 130 163 204 248 297
#     4   8  14  28  52  79 101 124 165 214 247 279
#
# _framework density 27.304053
#
# number of rings (size 3 to 8) (size 9 to 14) (size 15 to 20)
#    0.000    3.000    0.000    4.200    0.000    3.200 
#    0.000    2.000    0.000   12.600    0.000    0.000 
#    0.000    0.000    0.000    0.000    0.000    0.000 
#
# Total GULP energy -223510.051765 kJ/mol
# GULP energy per Si atom -5587.751294 kJ/mol
# Density = 2.724191 g / cm^3
# Si number density = 27.304053 Si / 1000 Ang^3
#
#
#
# Elastic Constant Matrix: (Units=GPa)
#
#
# Indices 1 2 3 4 5 6 
#
# 1 207.9642 24.2841 0.3293 0.0000 0.0000 0.0000
# 2 24.2841 104.3562 -12.7476 0.0000 0.0000 0.0000
# 3 0.3293 -12.7476 85.9244 0.0000 0.0000 0.0000
# 4 0.0000 0.0000 0.0000 -6.2034 0.0000 0.0000
# 5 0.0000 0.0000 0.0000 0.0000 15.2646 0.0000
# 6 0.0000 0.0000 0.0000 0.0000 0.0000 57.8683
#
#
#
# Elastic Compliance Matrix: (Units=1/GPa)
#
#
# Indices 1 2 3 4 5 6 
#
# 1 0.004946 -0.001175 -0.000193 0.000000 0.000000 0.000000
# 2 -0.001175 0.010038 0.001494 0.000000 0.000000 0.000000
# 3 -0.000193 0.001494 0.011860 0.000000 0.000000 0.000000
# 4 0.000000 0.000000 0.000000 -0.161201 0.000000 0.000000
# 5 0.000000 0.000000 0.000000 0.000000 0.065511 0.000000
# 6 0.000000 0.000000 0.000000 0.000000 0.000000 0.017281
#
#
# Mechanical properties :
#
#
# Convention : Reuss Voigt Hill
#
# Bulk Modulus (GPa) = 36.90467 46.88628 41.89547
# Shear Modulus (GPa) = -116.86506 39.14449 -38.86028
#
# Velocity S-wave (km/s) = -6.54937 3.79047 -3.77668
# Velocity P-wave (km/s) = 6.60658 6.03043 1.90798
#
# Compressibility (1/GPa) = 0.02709684
#
# Stress axis : x y z
#
# Youngs Moduli (GPa) = 202.18439 99.61785 84.31359
#
# Poissons Ratio (x) = 0.11701 0.01629
# Poissons Ratio (y) = 0.23748 -0.12595
# Poissons Ratio (z) = 0.03906 -0.14881
#
# Static dielectric constant tensor:
#      x y z
#    x 2.115210 0.000000 0.000000 
#    y 0.000000 2.241730 0.000000 
#    z 0.000000 0.000000 2.070040 
# 
# From -- ./inp_files/2416.got.cif
#   From: 2010.05.17/outbox.cif.g08.bks.cpg/sg58_2_cif.got.tgz:2416.got - 2010.06.03 14:20:14.
