data_PCOD9444184
_publ_section_title
;
Structure prediction by ZEFSAII (Michael W. Deem and Ramdas Pophale) SiO2 
 PCOD9444184
Probable space group: P N N M
;
_chemical_formula_sum "Si O2"
_cell_formula_units_Z 48
_cell_length_a 32.003991
_cell_length_b 9.717095
_cell_length_c 7.809638
_cell_angle_alpha 90.000000
_cell_angle_beta 90.000000
_cell_angle_gamma 90.000000
_cell_volume 2428.686685
_symmetry_space_group_name_H-M "P N N M"
_symmetry_group_IT_number 58
_symmetry_cell_setting 'orthorhombic'
loop_
_space_group_symop_operation_xyz
x,y,z
-x,-y,z
1/2+x,1/2-y,1/2-z
1/2-x,1/2+y,1/2-z
-x,-y,-z
x,y,-z
1/2-x,1/2+y,1/2+z
1/2+x,1/2-y,1/2+z
loop_
_atom_site_type_symbol
_atom_site_label
_atom_site_fract_x
_atom_site_fract_y
_atom_site_fract_z
Si Si1 0.630965 0.024661 0.199779
Si Si2 0.791025 0.358419 0.705440
Si Si3 0.564254 0.401351 0.500000
Si Si4 0.527212 0.705231 0.500000
Si Si5 0.042497 0.585105 0.295593
Si Si6 0.357015 0.670827 0.694068
Si Si7 0.212106 0.962113 0.792886
O O1 0.665957 0.923628 0.276073
O O2 0.583733 0.999916 0.260693
O O3 0.644542 0.182802 0.216281
O O4 0.629058 0.991481 0.000000
O O5 0.791149 0.375184 0.500000
O O6 0.752002 0.449739 0.767776
O O7 0.786920 0.196619 0.739538
O O8 0.548396 0.556530 0.500000
O O9 0.523022 0.309579 0.500000
O O10 0.594996 0.372978 0.660779
O O11 0.540458 0.784934 0.328859
O O12 0.044588 0.617348 0.500000
O O13 0.000000 0.500000 0.269140
O O14 0.340776 0.697727 0.500000
O O15 0.328918 0.547510 0.765040
O O16 0.211853 0.959462 0.000000
#
# Coordination Sequence:
#
# PCOD9444184 Si02
#       7
#     8   8   4   4   8   8   8
#     4  10  21  36  55  84 116 149 196 245 293 359
#     4  10  22  37  56  83 116 149 190 243 295 354
#     4   9  22  38  56  90 116 153 202 253 289 375
#     4  11  21  38  64  84 127 164 201 258 315 348
#     4  10  22  37  59  90 121 158 209 253 303 370
#     4   9  20  36  56  79 114 147 193 240 289 350
#     4  10  21  37  57  82 113 148 192 239 289 358
#
# _framework density 19.763769
#
# number of rings (size 3 to 8) (size 9 to 14) (size 15 to 20)
#    0.500    1.667    0.000    2.250    3.500    2.000 
#    0.000    2.500    0.000    0.000    0.000    0.000 
#    0.000    0.000    0.000    0.000    0.000    0.000 
#
# Total GULP energy -267579.252527 kJ/mol
# GULP energy per Si atom -5574.567761 kJ/mol
# Density = 1.971879 g / cm^3
# Si number density = 19.763769 Si / 1000 Ang^3
#
#
#
# Elastic Constant Matrix: (Units=GPa)
#
#
# Indices 1 2 3 4 5 6 
#
# 1 135.9207 78.8456 1.4269 0.0000 0.0000 0.0000
# 2 78.8456 139.5724 1.9513 0.0000 0.0000 0.0000
# 3 1.4269 1.9513 19.6102 0.0000 0.0000 0.0000
# 4 0.0000 0.0000 0.0000 38.6663 0.0000 0.0000
# 5 0.0000 0.0000 0.0000 0.0000 0.6050 0.0000
# 6 0.0000 0.0000 0.0000 0.0000 0.0000 35.1527
#
#
#
# Elastic Compliance Matrix: (Units=1/GPa)
#
#
# Indices 1 2 3 4 5 6 
#
# 1 0.010944 -0.006180 -0.000181 0.000000 0.000000 0.000000
# 2 -0.006180 0.010664 -0.000611 0.000000 0.000000 0.000000
# 3 -0.000181 -0.000611 0.051068 0.000000 0.000000 0.000000
# 4 0.000000 0.000000 0.000000 0.025862 0.000000 0.000000
# 5 0.000000 0.000000 0.000000 0.000000 1.652959 0.000000
# 6 0.000000 0.000000 0.000000 0.000000 0.000000 0.028447
#
#
# Mechanical properties :
#
#
# Convention : Reuss Voigt Hill
#
# Bulk Modulus (GPa) = 17.02685 51.06123 34.04404
# Shear Modulus (GPa) = 2.75715 29.07676 15.91695
#
# Velocity S-wave (km/s) = 1.18240 3.83980 2.84097
# Velocity P-wave (km/s) = 3.24006 6.74912 5.29380
#
# Compressibility (1/GPa) = 0.05873075
#
# Stress axis : x y z
#
# Youngs Moduli (GPa) = 91.37485 93.77085 19.58178
#
# Poissons Ratio (x) = 0.57948 0.00355
# Poissons Ratio (y) = 0.56468 0.01197
# Poissons Ratio (z) = 0.01658 0.05734
#
# Static dielectric constant tensor:
#      x y z
#    x 1.733700 0.000000 0.000000 
#    y 0.000000 1.649840 0.000000 
#    z 0.000000 0.000000 1.702450 
# 
# From -- ./inp_files/10763.got.cif
#   From: 2010.05.17/outbox.cif.g08.bks.cpg/sg58_6_cif.got.tgz:10763.got - 2010.06.03 14:20:14.
