data_PCOD9444706
_publ_section_title
;
Structure prediction by ZEFSAII (Michael W. Deem and Ramdas Pophale) SiO2 
 PCOD9444706
Probable space group: P N N M
;
_chemical_formula_sum "Si O2"
_cell_formula_units_Z 64
_cell_length_a 23.520145
_cell_length_b 15.516147
_cell_length_c 9.011488
_cell_angle_alpha 90.000000
_cell_angle_beta 90.000000
_cell_angle_gamma 90.000000
_cell_volume 3288.670700
_symmetry_space_group_name_H-M "P N N M"
_symmetry_group_IT_number 58
_symmetry_cell_setting 'orthorhombic'
loop_
_space_group_symop_operation_xyz
x,y,z
-x,-y,z
1/2+x,1/2-y,1/2-z
1/2-x,1/2+y,1/2-z
-x,-y,-z
x,y,-z
1/2-x,1/2+y,1/2+z
1/2+x,1/2-y,1/2+z
loop_
_atom_site_type_symbol
_atom_site_label
_atom_site_fract_x
_atom_site_fract_y
_atom_site_fract_z
Si Si1 0.673869 0.002249 0.174492
Si Si2 0.316231 0.792293 0.169506
Si Si3 0.000551 0.901383 0.826482
Si Si4 0.549946 0.935879 0.819406
Si Si5 0.707547 0.498677 0.824173
Si Si6 0.925613 0.245317 0.322390
Si Si7 0.631263 0.359388 0.669328
Si Si8 0.814432 0.183294 0.175287
O O1 0.672193 0.106195 0.183833
O O2 0.729472 0.974925 0.265128
O O3 0.613233 0.965905 0.225511
O O4 0.681831 0.979926 0.000000
O O5 0.350606 0.735855 0.284299
O O6 0.248869 0.778790 0.191845
O O7 0.330615 0.767175 0.000000
O O8 0.936026 0.869450 0.818229
O O9 0.040531 0.837184 0.737141
O O10 0.018799 0.902196 0.000000
O O11 0.000000 0.000000 0.772907
O O12 0.544439 0.835391 0.777817
O O13 0.500000 0.000000 0.766893
O O14 0.549068 0.939783 0.000000
O O15 0.663894 0.425210 0.775643
O O16 0.688669 0.588003 0.746488
O O17 0.708602 0.510242 0.000000
O O18 0.922137 0.243210 0.500000
O O19 0.862654 0.238844 0.254252
O O20 0.647886 0.378993 0.500000
O O21 0.826246 0.175519 0.000000
#
# Coordination Sequence:
#
# PCOD9444706 Si02
#       8
#     8   8   8   8   8   8   8   8
#     4   9  19  38  62  86 118 160 201 241 302 364
#     4   9  20  36  58  87 117 155 197 245 298 355
#     4  10  23  43  63  84 117 164 207 247 304 372
#     4   9  20  38  61  89 121 160 205 252 303 361
#     4  11  22  37  60  91 123 153 197 250 302 360
#     4  11  23  37  63  97 124 158 207 260 303 354
#     4  11  23  37  59  87 119 158 201 246 302 365
#     4  10  21  40  62  85 121 161 197 240 305 368
#
# _framework density 19.460750999999998
#
# number of rings (size 3 to 8) (size 9 to 14) (size 15 to 20)
#    0.000    2.000    0.000    3.750    3.500    4.750 
#    0.000    0.625    0.000    1.875    0.000    0.000 
#    0.000    0.000    0.000    0.000    0.000    0.000 
#
# Total GULP energy -357535.621791 kJ/mol
# GULP energy per Si atom -5586.494090 kJ/mol
# Density = 1.941646 g / cm^3
# Si number density = 19.460751 Si / 1000 Ang^3
#
#
#
# Elastic Constant Matrix: (Units=GPa)
#
#
# Indices 1 2 3 4 5 6 
#
# 1 60.6494 35.7789 30.4925 0.0000 0.0000 0.0000
# 2 35.7789 65.8900 30.0797 0.0000 0.0000 0.0000
# 3 30.4925 30.0797 71.8099 0.0000 0.0000 0.0000
# 4 0.0000 0.0000 0.0000 20.6526 0.0000 0.0000
# 5 0.0000 0.0000 0.0000 0.0000 25.6121 0.0000
# 6 0.0000 0.0000 0.0000 0.0000 0.0000 28.1928
#
#
#
# Elastic Compliance Matrix: (Units=1/GPa)
#
#
# Indices 1 2 3 4 5 6 
#
# 1 0.026477 -0.011430 -0.006455 0.000000 0.000000 0.000000
# 2 -0.011430 0.023700 -0.005074 0.000000 0.000000 0.000000
# 3 -0.006455 -0.005074 0.018792 0.000000 0.000000 0.000000
# 4 0.000000 0.000000 0.000000 0.048420 0.000000 0.000000
# 5 0.000000 0.000000 0.000000 0.000000 0.039044 0.000000
# 6 0.000000 0.000000 0.000000 0.000000 0.000000 0.035470
#
#
# Mechanical properties :
#
#
# Convention : Reuss Voigt Hill
#
# Bulk Modulus (GPa) = 43.38294 43.45017 43.41655
# Shear Modulus (GPa) = 20.36631 21.69137 21.02884
#
# Velocity S-wave (km/s) = 3.23852 3.34222 3.29078
# Velocity P-wave (km/s) = 6.02702 6.10487 6.06607
#
# Compressibility (1/GPa) = 0.02305054
#
# Stress axis : x y z
#
# Youngs Moduli (GPa) = 37.76923 42.19445 53.21466
#
# Poissons Ratio (x) = 0.48230 0.34349
# Poissons Ratio (y) = 0.43172 0.27000
# Poissons Ratio (z) = 0.24379 0.21408
#
# Static dielectric constant tensor:
#      x y z
#    x 1.666070 0.000000 0.000000 
#    y 0.000000 1.678250 0.000000 
#    z 0.000000 0.000000 1.661190 
# 
# From -- ./inp_files/10095.got.cif
#   From: 2010.05.17/outbox.cif.g08.bks.cpg/sg58_6_cif.got.tgz:10095.got - 2010.06.03 14:20:14.
