data_PCOD9444027
_publ_section_title
;
Structure prediction by ZEFSAII (Michael W. Deem and Ramdas Pophale) SiO2 
 PCOD9444027
Probable space group: P N N M
;
_chemical_formula_sum "Si O2"
_cell_formula_units_Z 34
_cell_length_a 4.801119
_cell_length_b 13.376585
_cell_length_c 20.672631
_cell_angle_alpha 90.000000
_cell_angle_beta 90.000000
_cell_angle_gamma 90.000000
_cell_volume 1327.649624
_symmetry_space_group_name_H-M "P N N M"
_symmetry_group_IT_number 58
_symmetry_cell_setting 'orthorhombic'
loop_
_space_group_symop_operation_xyz
x,y,z
-x,-y,z
1/2+x,1/2-y,1/2-z
1/2-x,1/2+y,1/2-z
-x,-y,-z
x,y,-z
1/2-x,1/2+y,1/2+z
1/2+x,1/2-y,1/2+z
loop_
_atom_site_type_symbol
_atom_site_label
_atom_site_fract_x
_atom_site_fract_y
_atom_site_fract_z
Si Si1 0.829289 0.898250 0.628878
Si Si2 0.323391 0.585572 0.630110
Si Si3 0.045732 0.680407 0.743568
Si Si4 0.352062 0.789020 0.574790
Si Si5 0.000000 0.000000 0.000000
O O1 0.058415 0.817650 0.606035
O O2 0.683350 0.881505 0.698084
O O3 0.569003 0.879199 0.581657
O O4 0.000000 0.000000 0.626262
O O5 0.500000 0.500000 0.665657
O O6 0.077571 0.618405 0.677638
O O7 0.468270 0.691912 0.612632
O O8 0.290219 0.539209 0.558759
O O9 0.238132 0.780730 0.741812
O O10 0.315842 0.763649 0.500000
#
# Coordination Sequence:
#
# PCOD9444027 Si02
#       5
#     8   8   8   8   2
#     4  12  26  44  68  99 136 179 231 276 343 406
#     4  10  20  41  71 100 138 176 230 278 352 409
#     4  12  23  43  70  99 136 182 224 285 346 406
#     4  12  24  45  70  99 137 179 227 286 338 411
#     4   8  20  40  76 102 138 186 226 282 364 402
#
# _framework density 25.609165999999998
#
# number of rings (size 3 to 8) (size 9 to 14) (size 15 to 20)
#    0.706    0.000    5.882    2.118    0.000    2.824 
#    0.000    7.059    0.000    8.471    0.000    0.000 
#    0.000    0.000    0.000    0.000    0.000    0.000 
#
# Total GULP energy -189549.310545 kJ/mol
# GULP energy per Si atom -5574.979722 kJ/mol
# Density = 2.555088 g / cm^3
# Si number density = 25.609166 Si / 1000 Ang^3
#
#
#
# Elastic Constant Matrix: (Units=GPa)
#
#
# Indices 1 2 3 4 5 6 
#
# 1 95.6480 19.6569 19.0611 0.0000 0.0000 0.0000
# 2 19.6569 86.8916 5.8134 0.0000 0.0000 0.0000
# 3 19.0611 5.8134 149.2436 0.0000 0.0000 0.0000
# 4 0.0000 0.0000 0.0000 20.5370 0.0000 0.0000
# 5 0.0000 0.0000 0.0000 0.0000 2.3597 0.0000
# 6 0.0000 0.0000 0.0000 0.0000 0.0000 32.0604
#
#
#
# Elastic Compliance Matrix: (Units=1/GPa)
#
#
# Indices 1 2 3 4 5 6 
#
# 1 0.011225 -0.002450 -0.001338 0.000000 0.000000 0.000000
# 2 -0.002450 0.012073 -0.000157 0.000000 0.000000 0.000000
# 3 -0.001338 -0.000157 0.006877 0.000000 0.000000 0.000000
# 4 0.000000 0.000000 0.000000 0.048693 0.000000 0.000000
# 5 0.000000 0.000000 0.000000 0.000000 0.423788 0.000000
# 6 0.000000 0.000000 0.000000 0.000000 0.000000 0.031191
#
#
# Mechanical properties :
#
#
# Convention : Reuss Voigt Hill
#
# Bulk Modulus (GPa) = 44.87315 46.76066 45.81691
# Shear Modulus (GPa) = 9.10470 30.14155 19.62312
#
# Velocity S-wave (km/s) = 1.88758 3.43444 2.77113
# Velocity P-wave (km/s) = 4.72345 5.83319 5.30741
#
# Compressibility (1/GPa) = 0.02228504
#
# Stress axis : x y z
#
# Youngs Moduli (GPa) = 89.08555 82.82719 145.40170
#
# Poissons Ratio (x) = 0.20291 0.19458
# Poissons Ratio (y) = 0.21825 0.02289
# Poissons Ratio (z) = 0.11922 0.01304
#
# Static dielectric constant tensor:
#      x y z
#    x 2.008300 0.000000 0.000000 
#    y 0.000000 2.105090 0.000000 
#    z 0.000000 0.000000 1.992620 
# 
# From -- ./inp_files/18411.got.cif
#   From: 2010.05.17/outbox.cif.g08.bks.cpg/sg58_10_cif.got.tgz:18411.got - 2010.06.03 14:20:14.
