data_PCOD9444176
_publ_section_title
;
Structure prediction by ZEFSAII (Michael W. Deem and Ramdas Pophale) SiO2 
 PCOD9444176
Probable space group: P N N M
;
_chemical_formula_sum "Si O2"
_cell_formula_units_Z 48
_cell_length_a 14.586195
_cell_length_b 10.541794
_cell_length_c 14.306334
_cell_angle_alpha 90.000000
_cell_angle_beta 90.000000
_cell_angle_gamma 90.000000
_cell_volume 2199.808625
_symmetry_space_group_name_H-M "P N N M"
_symmetry_group_IT_number 58
_symmetry_cell_setting 'orthorhombic'
loop_
_space_group_symop_operation_xyz
x,y,z
-x,-y,z
1/2+x,1/2-y,1/2-z
1/2-x,1/2+y,1/2-z
-x,-y,-z
x,y,-z
1/2-x,1/2+y,1/2+z
1/2+x,1/2-y,1/2+z
loop_
_atom_site_type_symbol
_atom_site_label
_atom_site_fract_x
_atom_site_fract_y
_atom_site_fract_z
Si Si1 0.750520 0.858223 0.610238
Si Si2 0.595181 0.563198 0.138712
Si Si3 0.050857 0.624856 0.186721
Si Si4 0.913119 0.353385 0.393609
Si Si5 0.926979 0.098580 0.860277
Si Si6 0.215207 0.410370 0.603223
O O1 0.725201 0.840110 0.500000
O O2 0.659690 0.889385 0.668538
O O3 0.794712 0.727426 0.651440
O O4 0.823118 0.969480 0.615030
O O5 0.500000 0.500000 0.105096
O O6 0.614425 0.705691 0.104937
O O7 0.586859 0.574290 0.250137
O O8 0.027126 0.638475 0.297999
O O9 0.034239 0.758260 0.134467
O O10 0.000000 0.500000 0.151426
O O11 0.948446 0.377593 0.500000
O O12 0.834526 0.458516 0.372360
O O13 0.825262 0.078063 0.899222
O O14 0.000000 0.000000 0.896954
O O15 0.177566 0.385479 0.500000
#
# Coordination Sequence:
#
# PCOD9444176 Si02
#       6
#     8   8   8   8   8   8
#     4  10  21  38  59  81 110 147 183 227 279 326
#     4  10  21  37  57  82 112 146 185 228 276 330
#     4  10  22  38  56  82 113 145 184 227 273 327
#     4  10  21  36  55  81 112 145 184 228 274 328
#     4   9  19  35  54  78 110 146 183 227 276 325
#     4   9  19  35  54  79 110 144 184 228 276 328
#
# _framework density 21.820080000000001
#
# number of rings (size 3 to 8) (size 9 to 14) (size 15 to 20)
#    0.000    2.333    0.000    1.500    0.000    7.667 
#    0.000    1.667    0.000    0.000    0.000    0.000 
#    0.000    0.000    0.000    0.000    0.000    0.000 
#
# Total GULP energy -267387.029775 kJ/mol
# GULP energy per Si atom -5570.563120 kJ/mol
# Density = 2.177042 g / cm^3
# Si number density = 21.820080 Si / 1000 Ang^3
#
#
#
# Elastic Constant Matrix: (Units=GPa)
#
#
# Indices 1 2 3 4 5 6 
#
# 1 61.8483 89.2709 6.6587 0.0000 0.0000 0.0000
# 2 89.2709 210.9709 9.9882 0.0000 0.0000 0.0000
# 3 6.6587 9.9882 88.3358 0.0000 0.0000 0.0000
# 4 0.0000 0.0000 0.0000 12.2539 0.0000 0.0000
# 5 0.0000 0.0000 0.0000 0.0000 -42.5320 0.0000
# 6 0.0000 0.0000 0.0000 0.0000 0.0000 50.5388
#
#
#
# Elastic Compliance Matrix: (Units=1/GPa)
#
#
# Indices 1 2 3 4 5 6 
#
# 1 0.041655 -0.017572 -0.001153 0.000000 0.000000 0.000000
# 2 -0.017572 0.012178 -0.000052 0.000000 0.000000 0.000000
# 3 -0.001153 -0.000052 0.011413 0.000000 0.000000 0.000000
# 4 0.000000 0.000000 0.000000 0.081607 0.000000 0.000000
# 5 0.000000 0.000000 0.000000 0.000000 -0.023512 0.000000
# 6 0.000000 0.000000 0.000000 0.000000 0.000000 0.019787
#
#
# Mechanical properties :
#
#
# Convention : Reuss Voigt Hill
#
# Bulk Modulus (GPa) = 36.11136 63.66564 49.88850
# Shear Modulus (GPa) = 26.32789 21.06796 23.69792
#
# Velocity S-wave (km/s) = 3.47737 3.11067 3.29912
# Velocity P-wave (km/s) = 5.71912 6.49173 6.11763
#
# Compressibility (1/GPa) = 0.02769212
#
# Stress axis : x y z
#
# Youngs Moduli (GPa) = 24.00659 82.11704 87.61723
#
# Poissons Ratio (x) = 1.44292 0.10103
# Poissons Ratio (y) = 0.42183 0.00459
# Poissons Ratio (z) = 0.02768 0.00430
#
# Static dielectric constant tensor:
#      x y z
#    x 1.774230 0.000000 0.000000 
#    y 0.000000 1.835170 0.000000 
#    z 0.000000 0.000000 1.848070 
# 
# From -- ./inp_files/26811.got.cif
#   From: 2010.05.17/outbox.cif.g08.bks.cpg/sg58_14_cif.got.tgz:26811.got - 2010.06.03 14:20:14.
