data_PCOD9444846
_publ_section_title
;
Structure prediction by ZEFSAII (Michael W. Deem and Ramdas Pophale) SiO2 
 PCOD9444846
Probable space group: P N N M
;
_chemical_formula_sum "Si O2"
_cell_formula_units_Z 58
_cell_length_a 11.174062
_cell_length_b 27.488814
_cell_length_c 9.519435
_cell_angle_alpha 90.000000
_cell_angle_beta 90.000000
_cell_angle_gamma 90.000000
_cell_volume 2924.005951
_symmetry_space_group_name_H-M "P N N M"
_symmetry_group_IT_number 58
_symmetry_cell_setting 'orthorhombic'
loop_
_space_group_symop_operation_xyz
x,y,z
-x,-y,z
1/2+x,1/2-y,1/2-z
1/2-x,1/2+y,1/2-z
-x,-y,-z
x,y,-z
1/2-x,1/2+y,1/2+z
1/2+x,1/2-y,1/2+z
loop_
_atom_site_type_symbol
_atom_site_label
_atom_site_fract_x
_atom_site_fract_y
_atom_site_fract_z
Si Si1 0.167138 0.444141 0.277361
Si Si2 0.975878 0.645160 0.166871
Si Si3 0.000000 0.500000 0.500000
Si Si4 0.128619 0.108221 0.161352
Si Si5 0.358983 0.364516 0.651123
Si Si6 0.231910 0.686218 0.170125
Si Si7 0.360382 0.515780 0.839829
Si Si8 0.245136 0.287479 0.168529
O O1 0.255710 0.404710 0.347821
O O2 0.260387 0.474088 0.180545
O O3 0.069495 0.408189 0.207857
O O4 0.093839 0.479307 0.378700
O O5 0.107342 0.660245 0.213580
O O6 0.879878 0.686303 0.209728
O O7 0.976969 0.646681 0.000000
O O8 0.168520 0.152111 0.260646
O O9 0.169582 0.057858 0.229230
O O10 0.985118 0.108855 0.160453
O O11 0.170382 0.114126 0.000000
O O12 0.355237 0.337847 0.500000
O O13 0.341064 0.327062 0.777808
O O14 0.238691 0.738404 0.244513
O O15 0.239609 0.689317 0.000000
O O16 0.500000 0.500000 0.818102
O O17 0.353571 0.534241 0.000000
O O18 0.249419 0.280079 0.000000
#
# Coordination Sequence:
#
# PCOD9444846 Si02
#       8
#     8   8   2   8   8   8   8   8
#     4  11  23  43  65  97 132 174 221 276 331 401
#     4   9  22  44  66  87 128 176 215 269 333 403
#     4  12  28  40  68 100 136 172 238 274 328 416
#     4  11  25  41  65  94 132 176 219 281 334 398
#     4  10  21  42  66  92 128 172 220 270 337 391
#     4  11  24  43  64  96 134 170 222 275 335 402
#     4  11  24  42  68  99 132 173 226 283 342 407
#     4  10  22  41  67  96 125 170 219 269 333 407
#
# _framework density 19.835799999999999
#
# number of rings (size 3 to 8) (size 9 to 14) (size 15 to 20)
#    0.000    1.517    2.069    1.655    4.828    1.931 
#    1.241    0.690    0.000    0.000    0.000    0.000 
#    0.000    0.000    0.000    0.000    0.000    0.000 
#
# Total GULP energy -322982.562353 kJ/mol
# GULP energy per Si atom -5568.664868 kJ/mol
# Density = 1.979065 g / cm^3
# Si number density = 19.835800 Si / 1000 Ang^3
#
#
#
# Elastic Constant Matrix: (Units=GPa)
#
#
# Indices 1 2 3 4 5 6 
#
# 1 78.8318 29.4725 27.3334 0.0000 0.0000 0.0000
# 2 29.4725 82.0224 43.8901 0.0000 0.0000 0.0000
# 3 27.3334 43.8901 91.7534 0.0000 0.0000 0.0000
# 4 0.0000 0.0000 0.0000 6.7135 0.0000 0.0000
# 5 0.0000 0.0000 0.0000 0.0000 13.1657 0.0000
# 6 0.0000 0.0000 0.0000 0.0000 0.0000 23.1345
#
#
#
# Elastic Compliance Matrix: (Units=1/GPa)
#
#
# Indices 1 2 3 4 5 6 
#
# 1 0.015087 -0.004054 -0.002555 0.000000 0.000000 0.000000
# 2 -0.004054 0.017475 -0.007152 0.000000 0.000000 0.000000
# 3 -0.002555 -0.007152 0.015081 0.000000 0.000000 0.000000
# 4 0.000000 0.000000 0.000000 0.148954 0.000000 0.000000
# 5 0.000000 0.000000 0.000000 0.000000 0.075955 0.000000
# 6 0.000000 0.000000 0.000000 0.000000 0.000000 0.043225
#
#
# Mechanical properties :
#
#
# Convention : Reuss Voigt Hill
#
# Bulk Modulus (GPa) = 49.69751 50.44438 50.07095
# Shear Modulus (GPa) = 14.28548 18.73017 16.50782
#
# Velocity S-wave (km/s) = 2.68654 3.07622 2.88796
# Velocity P-wave (km/s) = 5.89340 6.17282 6.03473
#
# Compressibility (1/GPa) = 0.02012173
#
# Stress axis : x y z
#
# Youngs Moduli (GPa) = 66.28323 57.22391 66.30863
#
# Poissons Ratio (x) = 0.23197 0.16944
# Poissons Ratio (y) = 0.26869 0.47422
# Poissons Ratio (z) = 0.16937 0.40925
#
# Static dielectric constant tensor:
#      x y z
#    x 1.724450 0.000000 0.000000 
#    y 0.000000 1.707220 0.000000 
#    z 0.000000 0.000000 1.697720 
# 
# From -- ./inp_files/4466.got.cif
#   From: 2010.05.17/outbox.cif.g08.bks.cpg/sg58_3_cif.got.tgz:4466.got - 2010.06.03 14:20:14.
