data_PCOD9444852
_publ_section_title
;
Structure prediction by ZEFSAII (Michael W. Deem and Ramdas Pophale) SiO2 
 PCOD9444852
Probable space group: P N N M
;
_chemical_formula_sum "Si O2"
_cell_formula_units_Z 34
_cell_length_a 11.283873
_cell_length_b 11.340177
_cell_length_c 12.706498
_cell_angle_alpha 90.000000
_cell_angle_beta 90.000000
_cell_angle_gamma 90.000000
_cell_volume 1625.937678
_symmetry_space_group_name_H-M "P N N M"
_symmetry_group_IT_number 58
_symmetry_cell_setting 'orthorhombic'
loop_
_space_group_symop_operation_xyz
x,y,z
-x,-y,z
1/2+x,1/2-y,1/2-z
1/2-x,1/2+y,1/2-z
-x,-y,-z
x,y,-z
1/2-x,1/2+y,1/2+z
1/2+x,1/2-y,1/2+z
loop_
_atom_site_type_symbol
_atom_site_label
_atom_site_fract_x
_atom_site_fract_y
_atom_site_fract_z
Si Si1 0.104672 0.080165 0.202524
Si Si2 0.463413 0.851644 0.699833
Si Si3 0.500000 0.000000 0.500000
Si Si4 0.212786 0.923212 0.376981
Si Si5 0.357834 0.149474 0.117050
O O1 0.054602 0.211700 0.206651
O O2 0.229010 0.093677 0.141432
O O3 0.136491 0.020690 0.315922
O O4 0.000000 0.000000 0.155167
O O5 0.331578 0.904647 0.690523
O O6 0.546555 0.883055 0.796432
O O7 0.520074 0.899237 0.592575
O O8 0.244201 0.953105 0.500000
O O9 0.156025 0.792819 0.379476
O O10 0.394787 0.116575 0.000000
#
# Coordination Sequence:
#
# PCOD9444852 Si02
#       5
#     8   8   2   8   8
#     4  11  23  42  68 109 142 183 238 293 354 429
#     4  11  23  44  75 101 138 192 240 290 358 435
#     4  12  24  44  72  96 130 190 238 292 346 428
#     4  10  21  42  69 101 144 186 235 294 356 428
#     4  10  23  42  69 102 145 185 225 298 364 418
#
# _framework density 20.911010000000001
#
# number of rings (size 3 to 8) (size 9 to 14) (size 15 to 20)
#    0.000    1.412    3.529    1.412    1.647    1.882 
#    0.000    5.294    2.588    0.000    0.000    0.000 
#    0.000    0.000    0.000    0.000    0.000    0.000 
#
# Total GULP energy -189276.901119 kJ/mol
# GULP energy per Si atom -5566.967680 kJ/mol
# Density = 2.086342 g / cm^3
# Si number density = 20.911010 Si / 1000 Ang^3
#
#
#
# Elastic Constant Matrix: (Units=GPa)
#
#
# Indices 1 2 3 4 5 6 
#
# 1 106.0010 55.7569 88.1225 0.0000 0.0000 0.0000
# 2 55.7569 157.5998 61.9079 0.0000 0.0000 0.0000
# 3 88.1225 61.9079 203.8154 0.0000 0.0000 0.0000
# 4 0.0000 0.0000 0.0000 36.7348 0.0000 0.0000
# 5 0.0000 0.0000 0.0000 0.0000 -38.1773 0.0000
# 6 0.0000 0.0000 0.0000 0.0000 0.0000 36.0300
#
#
#
# Elastic Compliance Matrix: (Units=1/GPa)
#
#
# Indices 1 2 3 4 5 6 
#
# 1 0.016169 -0.003377 -0.005965 0.000000 0.000000 0.000000
# 2 -0.003377 0.007910 -0.000942 0.000000 0.000000 0.000000
# 3 -0.005965 -0.000942 0.007772 0.000000 0.000000 0.000000
# 4 0.000000 0.000000 0.000000 0.027222 0.000000 0.000000
# 5 0.000000 0.000000 0.000000 0.000000 -0.026194 0.000000
# 6 0.000000 0.000000 0.000000 0.000000 0.000000 0.027755
#
#
# Mechanical properties :
#
#
# Convention : Reuss Voigt Hill
#
# Bulk Modulus (GPa) = 88.64080 97.66564 93.15322
# Shear Modulus (GPa) = 58.84749 24.35944 41.60346
#
# Velocity S-wave (km/s) = 5.31065 3.41678 4.46527
# Velocity P-wave (km/s) = 8.94905 7.89763 8.43973
#
# Compressibility (1/GPa) = 0.01128149
#
# Stress axis : x y z
#
# Youngs Moduli (GPa) = 61.84487 126.41820 128.66963
#
# Poissons Ratio (x) = 0.42695 0.76755
# Poissons Ratio (y) = 0.20887 0.12127
# Poissons Ratio (z) = 0.36892 0.11915
#
# Static dielectric constant tensor:
#      x y z
#    x 1.928160 0.000000 0.000000 
#    y 0.000000 1.936860 0.000000 
#    z 0.000000 0.000000 1.713780 
# 
# From -- ./inp_files/13884.got.cif
#   From: 2010.05.17/outbox.cif.g08.bks.cpg/sg58_7_cif.got.tgz:13884.got - 2010.06.03 14:20:14.
