data_PCOD9444437
_publ_section_title
;
Structure prediction by ZEFSAII (Michael W. Deem and Ramdas Pophale) SiO2 
 PCOD9444437
Probable space group: P N N M
;
_chemical_formula_sum "Si O2"
_cell_formula_units_Z 52
_cell_length_a 9.752897
_cell_length_b 13.503981
_cell_length_c 18.778021
_cell_angle_alpha 90.000000
_cell_angle_beta 90.000000
_cell_angle_gamma 90.000000
_cell_volume 2473.120494
_symmetry_space_group_name_H-M "P N N M"
_symmetry_group_IT_number 58
_symmetry_cell_setting 'orthorhombic'
loop_
_space_group_symop_operation_xyz
x,y,z
-x,-y,z
1/2+x,1/2-y,1/2-z
1/2-x,1/2+y,1/2-z
-x,-y,-z
x,y,-z
1/2-x,1/2+y,1/2+z
1/2+x,1/2-y,1/2+z
loop_
_atom_site_type_symbol
_atom_site_label
_atom_site_fract_x
_atom_site_fract_y
_atom_site_fract_z
Si Si1 0.464736 0.855617 0.271737
Si Si2 0.243536 0.595865 0.581772
Si Si3 0.000000 0.500000 0.350981
Si Si4 0.826787 0.056078 0.712580
Si Si5 0.003546 0.618931 0.076691
Si Si6 0.317394 0.321575 0.922710
Si Si7 0.572547 0.368550 0.282798
O O1 0.521898 0.905046 0.200920
O O2 0.333868 0.926063 0.284515
O O3 0.554923 0.853218 0.344171
O O4 0.407505 0.745350 0.263941
O O5 0.291705 0.585855 0.500000
O O6 0.136542 0.508773 0.601567
O O7 0.168266 0.703718 0.585806
O O8 0.361977 0.604238 0.641279
O O9 0.873346 0.111222 0.640719
O O10 0.910633 0.109013 0.776211
O O11 0.861520 0.942053 0.724614
O O12 0.847676 0.660052 0.076267
O O13 0.000000 0.500000 0.075695
O O14 0.066580 0.650388 0.000000
O O15 0.371750 0.351368 0.000000
#
# Coordination Sequence:
#
# PCOD9444437 Si02
#       7
#     8   8   4   8   8   8   8
#     4  11  21  34  61  88 114 156 197 237 295 349
#     4  11  22  38  61  86 113 154 203 247 294 355
#     4  12  23  38  61  92 116 150 198 258 295 338
#     4  10  21  38  55  88 119 153 188 248 294 344
#     4   9  16  28  49  85 120 146 187 238 281 338
#     4   9  18  36  60  85 117 156 198 238 293 356
#     4  11  22  37  58  85 120 153 196 239 296 360
#
# _framework density 21.026067999999999
#
# number of rings (size 3 to 8) (size 9 to 14) (size 15 to 20)
#    0.000    1.692    5.385    1.154    0.000    0.000 
#    0.000    3.077    0.000    1.846    0.000    0.000 
#    0.000    0.000    0.000    0.000    0.000    0.000 
#
# Total GULP energy -289613.581536 kJ/mol
# GULP energy per Si atom -5569.491953 kJ/mol
# Density = 2.097821 g / cm^3
# Si number density = 21.026068 Si / 1000 Ang^3
#
#
#
# Elastic Constant Matrix: (Units=GPa)
#
#
# Indices 1 2 3 4 5 6 
#
# 1 24.2121 -10.6202 28.5956 0.0000 0.0000 0.0000
# 2 -10.6202 76.8372 34.2608 0.0000 0.0000 0.0000
# 3 28.5956 34.2608 158.4043 0.0000 0.0000 0.0000
# 4 0.0000 0.0000 0.0000 70.2411 0.0000 0.0000
# 5 0.0000 0.0000 0.0000 0.0000 -45.2330 0.0000
# 6 0.0000 0.0000 0.0000 0.0000 0.0000 24.3411
#
#
#
# Elastic Compliance Matrix: (Units=1/GPa)
#
#
# Indices 1 2 3 4 5 6 
#
# 1 0.066746 0.016156 -0.015544 0.000000 0.000000 0.000000
# 2 0.016156 0.018314 -0.006878 0.000000 0.000000 0.000000
# 3 -0.015544 -0.006878 0.010606 0.000000 0.000000 0.000000
# 4 0.000000 0.000000 0.000000 0.014237 0.000000 0.000000
# 5 0.000000 0.000000 0.000000 0.000000 -0.022108 0.000000
# 6 0.000000 0.000000 0.000000 0.000000 0.000000 0.041083
#
#
# Mechanical properties :
#
#
# Convention : Reuss Voigt Hill
#
# Bulk Modulus (GPa) = 12.02844 40.43622 26.23233
# Shear Modulus (GPa) = 29.56472 23.68435 26.62453
#
# Velocity S-wave (km/s) = 3.75387 3.35987 3.56232
# Velocity P-wave (km/s) = 4.95195 5.85874 5.42433
#
# Compressibility (1/GPa) = 0.08313632
#
# Stress axis : x y z
#
# Youngs Moduli (GPa) = 14.98221 54.60227 94.28205
#
# Poissons Ratio (x) = -0.88216 1.46547
# Poissons Ratio (y) = -0.24205 0.64844
# Poissons Ratio (z) = 0.23288 0.37554
#
# Static dielectric constant tensor:
#      x y z
#    x 1.779910 0.000000 0.000000 
#    y 0.000000 1.801710 0.000000 
#    z 0.000000 0.000000 1.867970 
# 
# From -- ./inp_files/26259.got.cif
#   From: 2010.05.17/outbox.cif.g08.bks.cpg/sg58_14_cif.got.tgz:26259.got - 2010.06.03 14:20:14.
