data_PCOD9444466
_publ_section_title
;
Structure prediction by ZEFSAII (Michael W. Deem and Ramdas Pophale) SiO2 
 PCOD9444466
Probable space group: P N N M
;
_chemical_formula_sum "Si O2"
_cell_formula_units_Z 32
_cell_length_a 4.970138
_cell_length_b 18.360052
_cell_length_c 14.338077
_cell_angle_alpha 90.000000
_cell_angle_beta 90.000000
_cell_angle_gamma 90.000000
_cell_volume 1308.378090
_symmetry_space_group_name_H-M "P N N M"
_symmetry_group_IT_number 58
_symmetry_cell_setting 'orthorhombic'
loop_
_space_group_symop_operation_xyz
x,y,z
-x,-y,z
1/2+x,1/2-y,1/2-z
1/2-x,1/2+y,1/2-z
-x,-y,-z
x,y,-z
1/2-x,1/2+y,1/2+z
1/2+x,1/2-y,1/2+z
loop_
_atom_site_type_symbol
_atom_site_label
_atom_site_fract_x
_atom_site_fract_y
_atom_site_fract_z
Si Si1 0.195373 0.070541 0.104035
Si Si2 0.538330 0.728985 0.388673
Si Si3 0.266252 0.048344 0.697909
Si Si4 0.029796 0.813094 0.611809
O O1 0.037294 0.145374 0.124116
O O2 0.371352 0.065917 0.197528
O O3 0.323734 0.076904 0.000000
O O4 0.000000 0.000000 0.099397
O O5 0.530847 0.739470 0.500000
O O6 0.841071 0.745363 0.361504
O O7 0.323302 0.788944 0.352536
O O8 0.141716 0.118870 0.648500
O O9 0.500000 0.000000 0.650024
O O10 0.000000 0.000000 0.707662
O O11 0.047843 0.821748 0.500000
#
# Coordination Sequence:
#
# PCOD9444466 Si02
#       4
#     8   8   8   8
#     4   9  20  39  61  86 119 155 192 239 290 342
#     4   9  19  36  59  86 115 152 194 233 285 347
#     4  11  24  39  58  86 115 150 196 237 286 349
#     4  10  21  38  59  85 117 150 190 240 287 340
#
# _framework density 24.457763
#
# number of rings (size 3 to 8) (size 9 to 14) (size 15 to 20)
#    0.000    2.250    0.000    1.500    0.000    7.500 
#    0.000    7.500    0.000    0.000    0.000    0.000 
#    0.000    0.000    0.000    0.000    0.000    0.000 
#
# Total GULP energy -178491.624465 kJ/mol
# GULP energy per Si atom -5577.863265 kJ/mol
# Density = 2.440210 g / cm^3
# Si number density = 24.457763 Si / 1000 Ang^3
#
#
#
# Elastic Constant Matrix: (Units=GPa)
#
#
# Indices 1 2 3 4 5 6 
#
# 1 71.4921 7.5324 2.3739 0.0000 0.0000 0.0000
# 2 7.5324 84.6195 8.5567 0.0000 0.0000 0.0000
# 3 2.3739 8.5567 94.8101 0.0000 0.0000 0.0000
# 4 0.0000 0.0000 0.0000 -39.7816 0.0000 0.0000
# 5 0.0000 0.0000 0.0000 0.0000 6.7741 0.0000
# 6 0.0000 0.0000 0.0000 0.0000 0.0000 38.7219
#
#
#
# Elastic Compliance Matrix: (Units=1/GPa)
#
#
# Indices 1 2 3 4 5 6 
#
# 1 0.014125 -0.001233 -0.000242 0.000000 0.000000 0.000000
# 2 -0.001233 0.012034 -0.001055 0.000000 0.000000 0.000000
# 3 -0.000242 -0.001055 0.010649 0.000000 0.000000 0.000000
# 4 0.000000 0.000000 0.000000 -0.025137 0.000000 0.000000
# 5 0.000000 0.000000 0.000000 0.000000 0.147621 0.000000
# 6 0.000000 0.000000 0.000000 0.000000 0.000000 0.025825
#
#
# Mechanical properties :
#
#
# Convention : Reuss Voigt Hill
#
# Bulk Modulus (GPa) = 31.49879 31.98309 31.74094
# Shear Modulus (GPa) = 24.90525 16.64013 20.77269
#
# Velocity S-wave (km/s) = 3.19454 2.61120 2.91749
# Velocity P-wave (km/s) = 5.14913 4.71131 4.93508
#
# Compressibility (1/GPa) = 0.03174725
#
# Stress axis : x y z
#
# Youngs Moduli (GPa) = 70.79396 83.09756 93.90816
#
# Poissons Ratio (x) = 0.10245 0.02277
# Poissons Ratio (y) = 0.08728 0.09909
# Poissons Ratio (z) = 0.01716 0.08769
#
# Static dielectric constant tensor:
#      x y z
#    x 2.000780 0.000000 0.000000 
#    y 0.000000 2.003570 0.000000 
#    z 0.000000 0.000000 2.003290 
# 
# From -- ./inp_files/18270.got.cif
#   From: 2010.05.17/outbox.cif.g08.bks.cpg/sg58_10_cif.got.tgz:18270.got - 2010.06.03 14:20:14.
