data_PCOD9444723
_publ_section_title
;
Structure prediction by ZEFSAII (Michael W. Deem and Ramdas Pophale) SiO2 
 PCOD9444723
Probable space group: P N N M
;
_chemical_formula_sum "Si O2"
_cell_formula_units_Z 64
_cell_length_a 19.236158
_cell_length_b 5.564304
_cell_length_c 28.638687
_cell_angle_alpha 90.000000
_cell_angle_beta 90.000000
_cell_angle_gamma 90.000000
_cell_volume 3065.365659
_symmetry_space_group_name_H-M "P N N M"
_symmetry_group_IT_number 58
_symmetry_cell_setting 'orthorhombic'
loop_
_space_group_symop_operation_xyz
x,y,z
-x,-y,z
1/2+x,1/2-y,1/2-z
1/2-x,1/2+y,1/2-z
-x,-y,-z
x,y,-z
1/2-x,1/2+y,1/2+z
1/2+x,1/2-y,1/2+z
loop_
_atom_site_type_symbol
_atom_site_label
_atom_site_fract_x
_atom_site_fract_y
_atom_site_fract_z
Si Si1 0.962383 0.750829 0.736076
Si Si2 0.305959 0.884195 0.123392
Si Si3 0.213177 0.145070 0.947059
Si Si4 0.573312 0.569990 0.596515
Si Si5 0.250177 0.902756 0.778813
Si Si6 0.674780 0.957977 0.612332
Si Si7 0.039895 0.247317 0.624282
Si Si8 0.630387 0.341975 0.317231
O O1 0.954051 0.770398 0.680654
O O2 0.895617 0.739352 0.768800
O O3 0.000000 0.500000 0.745244
O O4 0.000000 0.000000 0.750628
O O5 0.243152 0.697381 0.119721
O O6 0.380345 0.780669 0.108321
O O7 0.276708 0.087442 0.088302
O O8 0.305436 0.945220 0.178977
O O9 0.188917 0.414757 0.937017
O O10 0.142385 0.004988 0.932431
O O11 0.232128 0.095830 0.000000
O O12 0.500000 0.500000 0.573688
O O13 0.598383 0.836679 0.610604
O O14 0.573996 0.418527 0.644706
O O15 0.249443 0.141805 0.745830
O O16 0.175808 0.926801 0.804823
O O17 0.675074 0.152427 0.653777
O O18 0.000000 0.500000 0.613850
O O19 0.000000 0.000000 0.609267
#
# Coordination Sequence:
#
# PCOD9444723 Si02
#       8
#     8   8   8   8   8   8   8   8
#     4  10  23  37  53  84 128 179 228 273 321 390
#     4  11  23  43  67  95 135 170 223 282 340 416
#     4  10  23  43  69  98 127 170 228 283 349 413
#     4  10  22  39  62  92 134 177 223 280 341 397
#     4  12  25  37  62  97 135 179 226 280 336 392
#     4  10  21  40  63  93 129 172 231 275 350 393
#     4  10  24  42  64  95 131 175 220 269 339 406
#     4  11  22  35  54  89 128 177 232 277 325 389
#
# _framework density 20.878423999999999
#
# number of rings (size 3 to 8) (size 9 to 14) (size 15 to 20)
#    0.000    1.500    3.750    1.875    5.250    6.750 
#    0.000    0.625    0.000    0.750    0.000    0.000 
#    0.000    0.000    0.000    0.000    0.000    0.000 
#
# Total GULP energy -356416.203845 kJ/mol
# GULP energy per Si atom -5569.003185 kJ/mol
# Density = 2.083090 g / cm^3
# Si number density = 20.878424 Si / 1000 Ang^3
#
#
#
# Elastic Constant Matrix: (Units=GPa)
#
#
# Indices 1 2 3 4 5 6 
#
# 1 119.8704 38.8066 20.1389 0.0000 0.0000 0.0000
# 2 38.8066 96.3794 32.9505 0.0000 0.0000 0.0000
# 3 20.1389 32.9505 56.3924 0.0000 0.0000 0.0000
# 4 0.0000 0.0000 0.0000 11.4545 0.0000 0.0000
# 5 0.0000 0.0000 0.0000 0.0000 14.1519 0.0000
# 6 0.0000 0.0000 0.0000 0.0000 0.0000 21.7126
#
#
#
# Elastic Compliance Matrix: (Units=1/GPa)
#
#
# Indices 1 2 3 4 5 6 
#
# 1 0.009690 -0.003397 -0.001476 0.000000 0.000000 0.000000
# 2 -0.003397 0.014157 -0.007059 0.000000 0.000000 0.000000
# 3 -0.001476 -0.007059 0.022384 0.000000 0.000000 0.000000
# 4 0.000000 0.000000 0.000000 0.087302 0.000000 0.000000
# 5 0.000000 0.000000 0.000000 0.000000 0.070662 0.000000
# 6 0.000000 0.000000 0.000000 0.000000 0.000000 0.046056
#
#
# Mechanical properties :
#
#
# Convention : Reuss Voigt Hill
#
# Bulk Modulus (GPa) = 44.70614 50.71490 47.71052
# Shear Modulus (GPa) = 17.75758 21.51355 19.63556
#
# Velocity S-wave (km/s) = 2.91954 3.21350 3.07004
# Velocity P-wave (km/s) = 5.72922 6.17350 5.95551
#
# Compressibility (1/GPa) = 0.02236829
#
# Stress axis : x y z
#
# Youngs Moduli (GPa) = 103.19881 70.63764 44.67422
#
# Poissons Ratio (x) = 0.23997 0.06592
# Poissons Ratio (y) = 0.35058 0.31534
# Poissons Ratio (z) = 0.15227 0.49861
#
# Static dielectric constant tensor:
#      x y z
#    x 1.803020 0.000000 0.000000 
#    y 0.000000 1.801990 0.000000 
#    z 0.000000 0.000000 1.763390 
# 
# From -- ./inp_files/35139.got.cif
#   From: 2010.05.17/outbox.cif.g08.bks.cpg/sg58_18_cif.got.tgz:35139.got - 2010.06.03 14:20:14.
