data_PCOD9444130
_publ_section_title
;
Structure prediction by ZEFSAII (Michael W. Deem and Ramdas Pophale) SiO2 
 PCOD9444130
Probable space group: P N N M
;
_chemical_formula_sum "Si O2"
_cell_formula_units_Z 40
_cell_length_a 14.072131
_cell_length_b 5.286558
_cell_length_c 26.406250
_cell_angle_alpha 90.000000
_cell_angle_beta 90.000000
_cell_angle_gamma 90.000000
_cell_volume 1964.443766
_symmetry_space_group_name_H-M "P N N M"
_symmetry_group_IT_number 58
_symmetry_cell_setting 'orthorhombic'
loop_
_space_group_symop_operation_xyz
x,y,z
-x,-y,z
1/2+x,1/2-y,1/2-z
1/2-x,1/2+y,1/2-z
-x,-y,-z
x,y,-z
1/2-x,1/2+y,1/2+z
1/2+x,1/2-y,1/2+z
loop_
_atom_site_type_symbol
_atom_site_label
_atom_site_fract_x
_atom_site_fract_y
_atom_site_fract_z
Si Si1 0.755644 0.831479 0.876015
Si Si2 0.896218 0.628851 0.557698
Si Si3 0.062864 0.248861 0.059075
Si Si4 0.735144 0.110444 0.217928
Si Si5 0.104573 0.070837 0.656168
O O1 0.845686 0.724971 0.905319
O O2 0.687916 0.636452 0.845736
O O3 0.686499 0.957990 0.917771
O O4 0.791772 0.025976 0.832654
O O5 0.874345 0.699219 0.500000
O O6 0.902429 0.854619 0.597328
O O7 0.000000 0.500000 0.558630
O O8 0.000000 0.500000 0.063266
O O9 0.092593 0.222031 0.000000
O O10 0.000000 0.000000 0.071361
O O11 0.770578 0.364193 0.246232
O O12 0.637106 0.198257 0.191583
O O13 0.000000 0.000000 0.673390
#
# Coordination Sequence:
#
# PCOD9444130 Si02
#       5
#     8   8   8   8   8
#     4  11  23  42  72  93 138 180 227 282 342 402
#     4  10  21  35  58 102 149 185 223 263 322 413
#     4  10  24  44  68  98 134 178 231 281 333 393
#     4  11  24  45  71  95 132 175 228 285 342 402
#     4  11  23  41  69 101 141 182 220 275 344 415
#
# _framework density 20.361996999999999
#
# number of rings (size 3 to 8) (size 9 to 14) (size 15 to 20)
#    0.000    1.400    4.000    0.600    5.600    2.000 
#    0.000    1.000    8.800    0.000    0.000    0.000 
#    0.000    0.000    0.000    0.000    0.000    0.000 
#
# Total GULP energy -223030.257200 kJ/mol
# GULP energy per Si atom -5575.756430 kJ/mol
# Density = 2.031565 g / cm^3
# Si number density = 20.361997 Si / 1000 Ang^3
#
#
#
# Elastic Constant Matrix: (Units=GPa)
#
#
# Indices 1 2 3 4 5 6 
#
# 1 93.9563 38.6934 52.1312 0.0000 0.0000 0.0000
# 2 38.6934 106.0156 50.8725 0.0000 0.0000 0.0000
# 3 52.1312 50.8725 137.0172 0.0000 0.0000 0.0000
# 4 0.0000 0.0000 0.0000 31.9980 0.0000 0.0000
# 5 0.0000 0.0000 0.0000 0.0000 -5.1859 0.0000
# 6 0.0000 0.0000 0.0000 0.0000 0.0000 30.3199
#
#
#
# Elastic Compliance Matrix: (Units=1/GPa)
#
#
# Indices 1 2 3 4 5 6 
#
# 1 0.014321 -0.003178 -0.004268 0.000000 0.000000 0.000000
# 2 -0.003178 0.012183 -0.003314 0.000000 0.000000 0.000000
# 3 -0.004268 -0.003314 0.010153 0.000000 0.000000 0.000000
# 4 0.000000 0.000000 0.000000 0.031252 0.000000 0.000000
# 5 0.000000 0.000000 0.000000 0.000000 -0.192829 0.000000
# 6 0.000000 0.000000 0.000000 0.000000 0.000000 0.032982
#
#
# Mechanical properties :
#
#
# Convention : Reuss Voigt Hill
#
# Bulk Modulus (GPa) = 66.07452 68.93150 67.50301
# Shear Modulus (GPa) = -76.48487 24.44585 -26.01951
#
# Velocity S-wave (km/s) = -6.13548 3.46867 -3.57858
# Velocity P-wave (km/s) = 4.20378 7.06886 4.01852
#
# Compressibility (1/GPa) = 0.01513443
#
# Stress axis : x y z
#
# Youngs Moduli (GPa) = 69.82984 82.08231 98.49462
#
# Poissons Ratio (x) = 0.26089 0.42042
# Poissons Ratio (y) = 0.22195 0.32641
# Poissons Ratio (z) = 0.29807 0.27202
#
# Static dielectric constant tensor:
#      x y z
#    x 1.708110 0.000000 0.000000 
#    y 0.000000 1.802300 0.000000 
#    z 0.000000 0.000000 1.733090 
# 
# From -- ./inp_files/32675.got.cif
#   From: 2010.05.17/outbox.cif.g08.bks.cpg/sg58_17_cif.got.tgz:32675.got - 2010.06.03 14:20:14.
