data_PCOD9444365
_publ_section_title
;
Structure prediction by ZEFSAII (Michael W. Deem and Ramdas Pophale) SiO2 
 PCOD9444365
Probable space group: P N N M
;
_chemical_formula_sum "Si O2"
_cell_formula_units_Z 56
_cell_length_a 12.243153
_cell_length_b 16.787288
_cell_length_c 14.790787
_cell_angle_alpha 90.000000
_cell_angle_beta 90.000000
_cell_angle_gamma 90.000000
_cell_volume 3039.940623
_symmetry_space_group_name_H-M "P N N M"
_symmetry_group_IT_number 58
_symmetry_cell_setting 'orthorhombic'
loop_
_space_group_symop_operation_xyz
x,y,z
-x,-y,z
1/2+x,1/2-y,1/2-z
1/2-x,1/2+y,1/2-z
-x,-y,-z
x,y,-z
1/2-x,1/2+y,1/2+z
1/2+x,1/2-y,1/2+z
loop_
_atom_site_type_symbol
_atom_site_label
_atom_site_fract_x
_atom_site_fract_y
_atom_site_fract_z
Si Si1 0.622055 0.966926 0.895159
Si Si2 0.730592 0.526378 0.766651
Si Si3 0.064160 0.834552 0.727442
Si Si4 0.309061 0.216332 0.897892
Si Si5 0.088840 0.072279 0.396348
Si Si6 0.580462 0.073990 0.395758
Si Si7 0.049110 0.241683 0.101739
O O1 0.709109 0.001048 0.824433
O O2 0.637877 0.871346 0.889612
O O3 0.500000 0.000000 0.873654
O O4 0.643893 0.989202 0.000000
O O5 0.630453 0.585439 0.749895
O O6 0.685233 0.455263 0.829666
O O7 0.818594 0.570474 0.828889
O O8 0.143075 0.772180 0.678971
O O9 0.972548 0.855930 0.653035
O O10 0.013464 0.800865 0.818317
O O11 0.177512 0.218741 0.891292
O O12 0.334621 0.246482 0.000000
O O13 0.122639 0.087883 0.500000
O O14 0.000000 0.000000 0.400053
O O15 0.616906 0.063995 0.500000
O O16 0.532791 0.162830 0.388975
O O17 0.500000 0.000000 0.375440
O O18 0.013774 0.219343 0.000000
#
# Coordination Sequence:
#
# PCOD9444365 Si02
#       7
#     8   8   8   8   8   8   8
#     4  10  23  40  59  85 115 153 201 245 285 342
#     4  11  21  36  60  85 115 155 191 237 294 353
#     4  11  22  35  60  89 115 153 193 238 295 344
#     4  10  21  39  62  83 114 157 198 239 289 353
#     4   9  19  35  56  86 119 145 185 238 284 339
#     4  10  21  37  59  86 115 152 196 239 289 352
#     4  10  22  40  59  87 121 154 196 242 291 352
#
# _framework density 18.421412
#
# number of rings (size 3 to 8) (size 9 to 14) (size 15 to 20)
#    0.000    1.857    1.429    2.143    4.000    1.714 
#    0.000    0.000    0.000    6.000    0.000    0.000 
#    0.000    0.000    0.000    0.000    0.000    0.000 
#
# Total GULP energy -312461.544408 kJ/mol
# GULP energy per Si atom -5579.670436 kJ/mol
# Density = 1.837948 g / cm^3
# Si number density = 18.421412 Si / 1000 Ang^3
#
#
#
# Elastic Constant Matrix: (Units=GPa)
#
#
# Indices 1 2 3 4 5 6 
#
# 1 59.3012 29.0720 75.2291 0.0000 0.0000 0.0000
# 2 29.0720 57.4848 45.1508 0.0000 0.0000 0.0000
# 3 75.2291 45.1508 144.6034 0.0000 0.0000 0.0000
# 4 0.0000 0.0000 0.0000 80.6971 0.0000 0.0000
# 5 0.0000 0.0000 0.0000 0.0000 35.9234 0.0000
# 6 0.0000 0.0000 0.0000 0.0000 0.0000 23.8537
#
#
#
# Elastic Compliance Matrix: (Units=1/GPa)
#
#
# Indices 1 2 3 4 5 6 
#
# 1 0.051426 -0.006617 -0.024688 0.000000 0.000000 0.000000
# 2 -0.006617 0.023900 -0.004020 0.000000 0.000000 0.000000
# 3 -0.024688 -0.004020 0.021014 0.000000 0.000000 0.000000
# 4 0.000000 0.000000 0.000000 0.012392 0.000000 0.000000
# 5 0.000000 0.000000 0.000000 0.000000 0.027837 0.000000
# 6 0.000000 0.000000 0.000000 0.000000 0.000000 0.041922
#
#
# Mechanical properties :
#
#
# Convention : Reuss Voigt Hill
#
# Bulk Modulus (GPa) = 38.92513 62.25477 50.58995
# Shear Modulus (GPa) = 19.40204 35.55735 27.47969
#
# Velocity S-wave (km/s) = 3.24888 4.39819 3.86648
# Velocity P-wave (km/s) = 5.93716 7.72401 6.88876
#
# Compressibility (1/GPa) = 0.02569034
#
# Stress axis : x y z
#
# Youngs Moduli (GPa) = 19.44542 41.84139 47.58622
#
# Poissons Ratio (x) = 0.27686 1.17481
# Poissons Ratio (y) = 0.12867 0.19130
# Poissons Ratio (z) = 0.48007 0.16820
#
# Static dielectric constant tensor:
#      x y z
#    x 1.633760 0.000000 0.000000 
#    y 0.000000 1.661030 0.000000 
#    z 0.000000 0.000000 1.618170 
# 
# From -- ./inp_files/21267.got.cif
#   From: 2010.05.17/outbox.cif.g08.bks.cpg/sg58_11_cif.got.tgz:21267.got - 2010.06.03 14:20:14.
