data_PCOD9444356
_publ_section_title
;
Structure prediction by ZEFSAII (Michael W. Deem and Ramdas Pophale) SiO2 
 PCOD9444356
Probable space group: P N N M
;
_chemical_formula_sum "Si O2"
_cell_formula_units_Z 58
_cell_length_a 14.288880
_cell_length_b 8.947146
_cell_length_c 23.209264
_cell_angle_alpha 90.000000
_cell_angle_beta 90.000000
_cell_angle_gamma 90.000000
_cell_volume 2967.181290
_symmetry_space_group_name_H-M "P N N M"
_symmetry_group_IT_number 58
_symmetry_cell_setting 'orthorhombic'
loop_
_space_group_symop_operation_xyz
x,y,z
-x,-y,z
1/2+x,1/2-y,1/2-z
1/2-x,1/2+y,1/2-z
-x,-y,-z
x,y,-z
1/2-x,1/2+y,1/2+z
1/2+x,1/2-y,1/2+z
loop_
_atom_site_type_symbol
_atom_site_label
_atom_site_fract_x
_atom_site_fract_y
_atom_site_fract_z
Si Si1 0.907810 0.151256 0.894222
Si Si2 0.461716 0.327720 0.181266
Si Si3 0.500000 0.500000 0.500000
Si Si4 0.570825 0.132181 0.642367
Si Si5 0.670817 0.569823 0.724491
Si Si6 0.097841 0.911094 0.435852
Si Si7 0.354840 0.760969 0.763944
Si Si8 0.292706 0.066391 0.568438
O O1 0.884172 0.063781 0.835700
O O2 0.828125 0.277285 0.905236
O O3 0.004193 0.243485 0.885353
O O4 0.924994 0.050459 0.949363
O O5 0.500000 0.500000 0.182125
O O6 0.386689 0.321547 0.232562
O O7 0.415383 0.303622 0.119020
O O8 0.552295 0.232264 0.197267
O O9 0.620563 0.188480 0.699420
O O10 0.500000 0.000000 0.659297
O O11 0.644712 0.062666 0.597760
O O12 0.676287 0.411422 0.756644
O O13 0.771842 0.637787 0.713431
O O14 0.115377 0.846194 0.500000
O O15 0.184133 0.023099 0.422830
O O16 0.000000 0.000000 0.439313
O O17 0.310795 0.070523 0.500000
#
# Coordination Sequence:
#
# PCOD9444356 Si02
#       8
#     8   8   2   8   8   8   8   8
#     4  11  23  38  59  88 124 165 210 266 318 397
#     4   9  19  35  56  85 117 160 197 256 316 372
#     4  12  24  40  62  80 126 174 208 254 334 388
#     4  10  22  37  63  89 128 160 207 266 325 384
#     4  11  24  38  61  88 127 161 215 261 325 382
#     4   9  18  33  57  84 120 154 197 253 312 366
#     4  11  23  39  60  91 124 169 207 266 321 391
#     4  10  21  37  58  94 121 160 212 265 320 384
#
# _framework density 19.547170999999999
#
# number of rings (size 3 to 8) (size 9 to 14) (size 15 to 20)
#    0.000    1.793    2.069    1.655   11.586    0.828 
#    0.000    0.000    0.000    0.000    0.000    0.000 
#    0.000    4.966    0.000    0.000    0.000    0.000 
#
# Total GULP energy -323219.023286 kJ/mol
# GULP energy per Si atom -5572.741781 kJ/mol
# Density = 1.950268 g / cm^3
# Si number density = 19.547171 Si / 1000 Ang^3
#
#
#
# Elastic Constant Matrix: (Units=GPa)
#
#
# Indices 1 2 3 4 5 6 
#
# 1 84.9160 13.3968 12.9361 0.0000 0.0000 0.0000
# 2 13.3968 28.6798 2.3959 0.0000 0.0000 0.0000
# 3 12.9361 2.3959 112.8465 0.0000 0.0000 0.0000
# 4 0.0000 0.0000 0.0000 12.4438 0.0000 0.0000
# 5 0.0000 0.0000 0.0000 0.0000 18.2942 0.0000
# 6 0.0000 0.0000 0.0000 0.0000 0.0000 23.7491
#
#
#
# Elastic Compliance Matrix: (Units=1/GPa)
#
#
# Indices 1 2 3 4 5 6 
#
# 1 0.012917 -0.005920 -0.001355 0.000000 0.000000 0.000000
# 2 -0.005920 0.037643 -0.000121 0.000000 0.000000 0.000000
# 3 -0.001355 -0.000121 0.009019 0.000000 0.000000 0.000000
# 4 0.000000 0.000000 0.000000 0.080361 0.000000 0.000000
# 5 0.000000 0.000000 0.000000 0.000000 0.054662 0.000000
# 6 0.000000 0.000000 0.000000 0.000000 0.000000 0.042107
#
#
# Mechanical properties :
#
#
# Convention : Reuss Voigt Hill
#
# Bulk Modulus (GPa) = 22.32760 31.54444 26.93602
# Shear Modulus (GPa) = 18.76658 24.07832 21.42245
#
# Velocity S-wave (km/s) = 3.10186 3.51352 3.31408
# Velocity P-wave (km/s) = 4.92706 5.71247 5.33424
#
# Compressibility (1/GPa) = 0.04478762
#
# Stress axis : x y z
#
# Youngs Moduli (GPa) = 77.41850 26.56510 110.87113
#
# Poissons Ratio (x) = 0.15728 0.15023
# Poissons Ratio (y) = 0.45835 0.01337
# Poissons Ratio (z) = 0.10490 0.00320
#
# Static dielectric constant tensor:
#      x y z
#    x 1.695490 0.000000 0.000000 
#    y 0.000000 1.711420 0.000000 
#    z 0.000000 0.000000 1.703780 
# 
# From -- ./inp_files/32192.got.cif
#   From: 2010.05.17/outbox.cif.g08.bks.cpg/sg58_17_cif.got.tgz:32192.got - 2010.06.03 14:20:14.
