data_PCOD9444491
_publ_section_title
;
Structure prediction by ZEFSAII (Michael W. Deem and Ramdas Pophale) SiO2 
 PCOD9444491
Probable space group: P N N M
;
_chemical_formula_sum "Si O2"
_cell_formula_units_Z 56
_cell_length_a 14.749457
_cell_length_b 22.293762
_cell_length_c 8.749721
_cell_angle_alpha 90.000000
_cell_angle_beta 90.000000
_cell_angle_gamma 90.000000
_cell_volume 2877.090994
_symmetry_space_group_name_H-M "P N N M"
_symmetry_group_IT_number 58
_symmetry_cell_setting 'orthorhombic'
loop_
_space_group_symop_operation_xyz
x,y,z
-x,-y,z
1/2+x,1/2-y,1/2-z
1/2-x,1/2+y,1/2-z
-x,-y,-z
x,y,-z
1/2-x,1/2+y,1/2+z
1/2+x,1/2-y,1/2+z
loop_
_atom_site_type_symbol
_atom_site_label
_atom_site_fract_x
_atom_site_fract_y
_atom_site_fract_z
Si Si1 0.398251 0.219010 0.180728
Si Si2 0.290472 0.111180 0.680046
Si Si3 0.776681 0.608004 0.181913
Si Si4 0.097828 0.851643 0.817634
Si Si5 0.908646 0.715841 0.181922
Si Si6 0.605695 0.000930 0.182544
Si Si7 0.392797 0.642729 0.318504
O O1 0.329976 0.175091 0.266646
O O2 0.389059 0.287280 0.237041
O O3 0.500861 0.200317 0.224829
O O4 0.383179 0.215311 0.000000
O O5 0.301924 0.103526 0.500000
O O6 0.185156 0.109609 0.726464
O O7 0.346607 0.060513 0.767976
O O8 0.679741 0.606931 0.263850
O O9 0.827642 0.670673 0.218622
O O10 0.841419 0.555006 0.237248
O O11 0.764141 0.605224 0.000000
O O12 0.996410 0.873908 0.779368
O O13 0.100047 0.842670 0.000000
O O14 0.885713 0.785454 0.210172
O O15 0.928824 0.710378 0.000000
O O16 0.500000 0.000000 0.227063
O O17 0.610890 0.008275 0.000000
O O18 0.378831 0.633380 0.500000
#
# Coordination Sequence:
#
# PCOD9444491 Si02
#       7
#     8   8   8   8   8   8   8
#     4  11  21  34  56  86 120 155 192 237 287 342
#     4  12  24  38  59  85 115 152 193 239 290 344
#     4  11  22  37  60  88 119 154 192 237 288 342
#     4  10  21  38  60  86 118 154 192 236 285 339
#     4   9  19  35  56  85 120 155 189 231 286 342
#     4  11  25  44  64  86 114 150 193 238 283 337
#     4   9  19  37  59  85 118 153 190 234 285 340
#
# _framework density 19.464105
#
# number of rings (size 3 to 8) (size 9 to 14) (size 15 to 20)
#    0.000    1.571    0.000    6.429    0.000    8.571 
#    0.000    0.714    0.000    4.286    0.000    0.000 
#    0.000    0.000    0.000    0.000    0.000    0.000 
#
# Total GULP energy -313124.065843 kJ/mol
# GULP energy per Si atom -5591.501176 kJ/mol
# Density = 1.941980 g / cm^3
# Si number density = 19.464105 Si / 1000 Ang^3
#
#
#
# Elastic Constant Matrix: (Units=GPa)
#
#
# Indices 1 2 3 4 5 6 
#
# 1 114.1520 24.8781 14.1693 0.0000 0.0000 0.0000
# 2 24.8781 18.4011 -4.2040 0.0000 0.0000 0.0000
# 3 14.1693 -4.2040 23.2584 0.0000 0.0000 0.0000
# 4 0.0000 0.0000 0.0000 28.9205 0.0000 0.0000
# 5 0.0000 0.0000 0.0000 0.0000 31.1558 0.0000
# 6 0.0000 0.0000 0.0000 0.0000 0.0000 28.0449
#
#
#
# Elastic Compliance Matrix: (Units=1/GPa)
#
#
# Indices 1 2 3 4 5 6 
#
# 1 0.015913 -0.024752 -0.014168 0.000000 0.000000 0.000000
# 2 -0.024752 0.095184 0.032284 0.000000 0.000000 0.000000
# 3 -0.014168 0.032284 0.057462 0.000000 0.000000 0.000000
# 4 0.000000 0.000000 0.000000 0.034578 0.000000 0.000000
# 5 0.000000 0.000000 0.000000 0.000000 0.032097 0.000000
# 6 0.000000 0.000000 0.000000 0.000000 0.000000 0.035657
#
#
# Mechanical properties :
#
#
# Convention : Reuss Voigt Hill
#
# Bulk Modulus (GPa) = 6.43970 25.05539 15.74754
# Shear Modulus (GPa) = 14.88424 25.68879 20.28652
#
# Velocity S-wave (km/s) = 2.76832 3.63685 3.23190
# Velocity P-wave (km/s) = 3.67884 5.52595 4.69414
#
# Compressibility (1/GPa) = 0.15528684
#
# Stress axis : x y z
#
# Youngs Moduli (GPa) = 62.84067 10.50596 17.40276
#
# Poissons Ratio (x) = 0.26004 0.24657
# Poissons Ratio (y) = 1.55541 -0.56183
# Poissons Ratio (z) = 0.89036 -0.33917
#
# Static dielectric constant tensor:
#      x y z
#    x 1.689620 0.000000 0.000000 
#    y 0.000000 1.666460 0.000000 
#    z 0.000000 0.000000 1.644470 
# 
# From -- ./inp_files/6303.got.cif
#   From: 2010.05.17/outbox.cif.g08.bks.cpg/sg58_4_cif.got.tgz:6303.got - 2010.06.03 14:20:14.
