data_PCOD9444891
_publ_section_title
;
Structure prediction by ZEFSAII (Michael W. Deem and Ramdas Pophale) SiO2 
 PCOD9444891
Probable space group: P N N M
;
_chemical_formula_sum "Si O2"
_cell_formula_units_Z 28
_cell_length_a 7.006769
_cell_length_b 14.437998
_cell_length_c 10.701240
_cell_angle_alpha 90.000000
_cell_angle_beta 90.000000
_cell_angle_gamma 90.000000
_cell_volume 1082.577213
_symmetry_space_group_name_H-M "P N N M"
_symmetry_group_IT_number 58
_symmetry_cell_setting 'orthorhombic'
loop_
_space_group_symop_operation_xyz
x,y,z
-x,-y,z
1/2+x,1/2-y,1/2-z
1/2-x,1/2+y,1/2-z
-x,-y,-z
x,y,-z
1/2-x,1/2+y,1/2+z
1/2+x,1/2-y,1/2+z
loop_
_atom_site_type_symbol
_atom_site_label
_atom_site_fract_x
_atom_site_fract_y
_atom_site_fract_z
Si Si1 0.369842 0.218657 0.862347
Si Si2 0.269871 0.720511 0.000000
Si Si3 0.268097 0.511298 0.000000
Si Si4 0.360411 0.894045 0.264861
Si Si5 0.660734 0.579117 0.500000
O O1 0.423427 0.136630 0.768921
O O2 0.239736 0.300462 0.815748
O O3 0.576810 0.265861 0.888934
O O4 0.311358 0.182991 0.000000
O O5 0.799819 0.382659 0.000000
O O6 0.125688 0.807494 0.000000
O O7 0.500000 0.500000 0.000000
O O8 0.189765 0.462924 0.875758
O O9 0.275955 0.928534 0.131131
O O10 0.500000 0.500000 0.500000
#
# Coordination Sequence:
#
# PCOD9444891 Si02
#       5
#     8   4   4   8   4
#     4   9  19  37  54  89 135 163 217 281 334 402
#     4   8  18  36  53  89 133 152 209 301 311 403
#     4  12  18  33  67  92 116 175 233 269 349 408
#     4  11  20  36  63  93 126 174 216 279 339 410
#     4  10  22  35  58  98 131 162 223 280 339 400
#
# _framework density 25.864204000000001
#
# number of rings (size 3 to 8) (size 9 to 14) (size 15 to 20)
#    0.857    1.143    5.714    0.857    0.000    1.143 
#    0.000    0.000    0.000   13.714    0.000   12.000 
#    0.000    0.000    0.000    0.000    0.000    0.000 
#
# Total GULP energy -156380.523434 kJ/mol
# GULP energy per Si atom -5585.018694 kJ/mol
# Density = 2.580534 g / cm^3
# Si number density = 25.864204 Si / 1000 Ang^3
#
#
#
# Elastic Constant Matrix: (Units=GPa)
#
#
# Indices 1 2 3 4 5 6 
#
# 1 80.7715 47.7291 34.0105 0.0000 0.0000 0.0000
# 2 47.7291 179.4329 90.5250 0.0000 0.0000 0.0000
# 3 34.0105 90.5250 221.6608 0.0000 0.0000 0.0000
# 4 0.0000 0.0000 0.0000 45.4028 0.0000 0.0000
# 5 0.0000 0.0000 0.0000 0.0000 13.3384 0.0000
# 6 0.0000 0.0000 0.0000 0.0000 0.0000 58.9024
#
#
#
# Elastic Compliance Matrix: (Units=1/GPa)
#
#
# Indices 1 2 3 4 5 6 
#
# 1 0.014811 -0.003518 -0.000836 0.000000 0.000000 0.000000
# 2 -0.003518 0.007855 -0.002668 0.000000 0.000000 0.000000
# 3 -0.000836 -0.002668 0.005729 0.000000 0.000000 0.000000
# 4 0.000000 0.000000 0.000000 0.022025 0.000000 0.000000
# 5 0.000000 0.000000 0.000000 0.000000 0.074971 0.000000
# 6 0.000000 0.000000 0.000000 0.000000 0.000000 0.016977
#
#
# Mechanical properties :
#
#
# Convention : Reuss Voigt Hill
#
# Bulk Modulus (GPa) = 69.67876 91.82160 80.75018
# Shear Modulus (GPa) = 31.01786 44.16879 37.59332
#
# Velocity S-wave (km/s) = 3.46679 4.13694 3.81660
# Velocity P-wave (km/s) = 6.55923 7.64183 7.12113
#
# Compressibility (1/GPa) = 0.01435158
#
# Stress axis : x y z
#
# Youngs Moduli (GPa) = 67.51521 127.30673 174.54171
#
# Poissons Ratio (x) = 0.44789 0.14588
# Poissons Ratio (y) = 0.23753 0.46570
# Poissons Ratio (z) = 0.05643 0.33967
#
# Static dielectric constant tensor:
#      x y z
#    x 2.028000 0.000000 0.000000 
#    y 0.000000 2.135180 0.000000 
#    z 0.000000 0.000000 2.086880 
# 
# From -- ./inp_files/12307.got.cif
#   From: 2010.05.17/outbox.cif.g08.bks.cpg/sg58_7_cif.got.tgz:12307.got - 2010.06.03 14:20:14.
