data_PCOD9444522
_publ_section_title
;
Structure prediction by ZEFSAII (Michael W. Deem and Ramdas Pophale) SiO2 
 PCOD9444522
Probable space group: P N N M
;
_chemical_formula_sum "Si O2"
_cell_formula_units_Z 46
_cell_length_a 25.240282
_cell_length_b 12.773227
_cell_length_c 7.860803
_cell_angle_alpha 90.000000
_cell_angle_beta 90.000000
_cell_angle_gamma 90.000000
_cell_volume 2534.321720
_symmetry_space_group_name_H-M "P N N M"
_symmetry_group_IT_number 58
_symmetry_cell_setting 'orthorhombic'
loop_
_space_group_symop_operation_xyz
x,y,z
-x,-y,z
1/2+x,1/2-y,1/2-z
1/2-x,1/2+y,1/2-z
-x,-y,-z
x,y,-z
1/2-x,1/2+y,1/2+z
1/2+x,1/2-y,1/2+z
loop_
_atom_site_type_symbol
_atom_site_label
_atom_site_fract_x
_atom_site_fract_y
_atom_site_fract_z
Si Si1 0.500000 0.500000 0.500000
Si Si2 0.686620 0.492760 0.203991
Si Si3 0.619161 0.984730 0.000000
Si Si4 0.307299 0.952968 0.697630
Si Si5 0.411594 0.368608 0.681336
Si Si6 0.641264 0.274617 0.307638
Si Si7 0.430717 0.784494 0.000000
Si Si8 0.943527 0.270404 0.500000
O O1 0.459763 0.449261 0.645485
O O2 0.745866 0.531092 0.242076
O O3 0.641533 0.566865 0.280496
O O4 0.676276 0.376462 0.273190
O O5 0.680533 0.491485 0.000000
O O6 0.656123 0.987176 0.167555
O O7 0.581312 0.885589 0.000000
O O8 0.586774 0.093768 0.000000
O O9 0.315214 0.985165 0.500000
O O10 0.324181 0.830968 0.708586
O O11 0.405273 0.310713 0.500000
O O12 0.424332 0.292130 0.834432
O O13 0.619403 0.279914 0.500000
O O14 0.595524 0.267385 0.166806
O O15 0.493191 0.775099 0.000000
#
# Coordination Sequence:
#
# PCOD9444522 Si02
#       8
#     2   8   4   8   8   8   4   4
#     4   8  24  40  56  80 126 160 196 238 308 354
#     4  11  21  38  63  92 124 158 200 253 308 366
#     4  10  23  43  63  90 119 166 210 252 315 357
#     4   9  22  41  60  88 125 159 202 250 308 369
#     4  10  24  41  58  92 126 159 199 251 307 374
#     4  10  21  38  61  88 119 163 206 247 301 372
#     4  10  23  41  63  87 122 161 214 258 294 374
#     4  12  25  40  65  92 125 163 207 265 307 355
#
# _framework density 18.150814
#
# number of rings (size 3 to 8) (size 9 to 14) (size 15 to 20)
#    0.522    1.391    1.739    0.783    4.870    3.130 
#    0.000    1.739    0.000    5.217    0.000    0.000 
#    0.000    0.000    0.000    0.000    0.000    0.000 
#
# Total GULP energy -256198.900912 kJ/mol
# GULP energy per Si atom -5569.541324 kJ/mol
# Density = 1.810950 g / cm^3
# Si number density = 18.150814 Si / 1000 Ang^3
#
#
#
# Elastic Constant Matrix: (Units=GPa)
#
#
# Indices 1 2 3 4 5 6 
#
# 1 97.0753 39.1892 60.5158 0.0000 0.0000 0.0000
# 2 39.1892 41.6909 43.7664 0.0000 0.0000 0.0000
# 3 60.5158 43.7664 138.3542 0.0000 0.0000 0.0000
# 4 0.0000 0.0000 0.0000 -0.7397 0.0000 0.0000
# 5 0.0000 0.0000 0.0000 0.0000 26.3069 0.0000
# 6 0.0000 0.0000 0.0000 0.0000 0.0000 16.4278
#
#
#
# Elastic Compliance Matrix: (Units=1/GPa)
#
#
# Indices 1 2 3 4 5 6 
#
# 1 0.017801 -0.012815 -0.003732 0.000000 0.000000 0.000000
# 2 -0.012815 0.045137 -0.008673 0.000000 0.000000 0.000000
# 3 -0.003732 -0.008673 0.011604 0.000000 0.000000 0.000000
# 4 0.000000 0.000000 0.000000 -1.351930 0.000000 0.000000
# 5 0.000000 0.000000 0.000000 0.000000 0.038013 0.000000
# 6 0.000000 0.000000 0.000000 0.000000 0.000000 0.060872
#
#
# Mechanical properties :
#
#
# Convention : Reuss Voigt Hill
#
# Bulk Modulus (GPa) = 41.49173 62.67370 52.08271
# Shear Modulus (GPa) = -4.46418 17.30893 6.42238
#
# Velocity S-wave (km/s) = -1.56998 3.09142 1.88309
# Velocity P-wave (km/s) = 4.42974 6.88091 5.78660
#
# Compressibility (1/GPa) = 0.02410119
#
# Stress axis : x y z
#
# Youngs Moduli (GPa) = 56.17524 22.15478 86.17668
#
# Poissons Ratio (x) = 0.28391 0.32165
# Poissons Ratio (y) = 0.71988 0.74743
# Poissons Ratio (z) = 0.20967 0.19215
#
# Static dielectric constant tensor:
#      x y z
#    x 1.585690 0.000000 0.000000 
#    y 0.000000 1.595840 0.000000 
#    z 0.000000 0.000000 1.647280 
# 
# From -- ./inp_files/9771.got.cif
#   From: 2010.05.17/outbox.cif.g08.bks.cpg/sg58_5_cif.got.tgz:9771.got - 2010.06.03 14:20:14.
