data_PCOD9444689
_publ_section_title
;
Structure prediction by ZEFSAII (Michael W. Deem and Ramdas Pophale) SiO2 
 PCOD9444689
Probable space group: P N N M
;
_chemical_formula_sum "Si O2"
_cell_formula_units_Z 48
_cell_length_a 31.346314
_cell_length_b 9.710588
_cell_length_c 7.689225
_cell_angle_alpha 90.000000
_cell_angle_beta 90.000000
_cell_angle_gamma 90.000000
_cell_volume 2340.531968
_symmetry_space_group_name_H-M "P N N M"
_symmetry_group_IT_number 58
_symmetry_cell_setting 'orthorhombic'
loop_
_space_group_symop_operation_xyz
x,y,z
-x,-y,z
1/2+x,1/2-y,1/2-z
1/2-x,1/2+y,1/2-z
-x,-y,-z
x,y,-z
1/2-x,1/2+y,1/2+z
1/2+x,1/2-y,1/2+z
loop_
_atom_site_type_symbol
_atom_site_label
_atom_site_fract_x
_atom_site_fract_y
_atom_site_fract_z
Si Si1 0.470003 0.705555 0.500000
Si Si2 0.563720 0.603694 0.500000
Si Si3 0.544315 0.080329 0.793390
Si Si4 0.289318 0.836969 0.789385
Si Si5 0.635838 0.968093 0.209582
Si Si6 0.629788 0.663397 0.199231
Si Si7 0.208096 0.015659 0.205927
O O1 0.521146 0.694077 0.500000
O O2 0.450726 0.554233 0.500000
O O3 0.455901 0.787091 0.671506
O O4 0.591942 0.631448 0.330482
O O5 0.586539 0.993895 0.743996
O O6 0.500000 0.000000 0.763124
O O7 0.546687 0.111646 0.000000
O O8 0.331977 0.915042 0.725057
O O9 0.286771 0.678261 0.735421
O O10 0.248895 0.928127 0.732049
O O11 0.289766 0.838581 0.000000
O O12 0.648817 0.812322 0.254778
O O13 0.637929 0.976085 0.000000
O O14 0.665743 0.547013 0.209790
O O15 0.614675 0.676200 0.000000
O O16 0.203834 0.992571 0.000000
#
# Coordination Sequence:
#
# PCOD9444689 Si02
#       7
#     4   4   8   8   8   8   8
#     4  11  25  42  64  92 139 168 217 282 331 382
#     4  11  26  44  62  98 130 173 226 267 323 407
#     4  10  21  39  66  96 128 170 223 271 328 393
#     4  10  22  40  63  91 128 171 215 266 324 386
#     4   9  20  38  62  93 126 166 218 268 320 391
#     4  11  23  43  68  90 130 174 214 268 332 382
#     4  11  23  40  62  94 132 167 219 270 317 393
#
# _framework density 20.508158000000002
#
# number of rings (size 3 to 8) (size 9 to 14) (size 15 to 20)
#    0.000    1.667    0.833    2.750    2.333    6.000 
#    1.500    1.667    0.000    0.000    0.000    0.000 
#    0.000    0.000    0.000    0.000    0.000    0.000 
#
# Total GULP energy -268279.560204 kJ/mol
# GULP energy per Si atom -5589.157504 kJ/mol
# Density = 2.046148 g / cm^3
# Si number density = 20.508158 Si / 1000 Ang^3
#
#
#
# Elastic Constant Matrix: (Units=GPa)
#
#
# Indices 1 2 3 4 5 6 
#
# 1 85.6334 49.6925 18.7424 0.0000 0.0000 0.0000
# 2 49.6925 134.6046 24.2016 0.0000 0.0000 0.0000
# 3 18.7424 24.2016 70.4641 0.0000 0.0000 0.0000
# 4 0.0000 0.0000 0.0000 36.5477 0.0000 0.0000
# 5 0.0000 0.0000 0.0000 0.0000 -44.3195 0.0000
# 6 0.0000 0.0000 0.0000 0.0000 0.0000 32.3022
#
#
#
# Elastic Compliance Matrix: (Units=1/GPa)
#
#
# Indices 1 2 3 4 5 6 
#
# 1 0.015190 -0.005203 -0.002253 0.000000 0.000000 0.000000
# 2 -0.005203 0.009700 -0.001948 0.000000 0.000000 0.000000
# 3 -0.002253 -0.001948 0.015460 0.000000 0.000000 0.000000
# 4 0.000000 0.000000 0.000000 0.027362 0.000000 0.000000
# 5 0.000000 0.000000 0.000000 0.000000 -0.022563 0.000000
# 6 0.000000 0.000000 0.000000 0.000000 0.000000 0.030958
#
#
# Mechanical properties :
#
#
# Convention : Reuss Voigt Hill
#
# Bulk Modulus (GPa) = 46.42002 52.88612 49.65307
# Shear Modulus (GPa) = 48.97452 18.11044 33.54248
#
# Velocity S-wave (km/s) = 4.89207 2.97490 4.04860
# Velocity P-wave (km/s) = 7.38876 6.13546 6.79109
#
# Compressibility (1/GPa) = 0.02154243
#
# Stress axis : x y z
#
# Youngs Moduli (GPa) = 65.83323 103.09251 64.68311
#
# Poissons Ratio (x) = 0.53635 0.14576
# Poissons Ratio (y) = 0.34250 0.12599
# Poissons Ratio (z) = 0.14835 0.20080
#
# Static dielectric constant tensor:
#      x y z
#    x 1.719680 0.000000 0.000000 
#    y 0.000000 1.702690 0.000000 
#    z 0.000000 0.000000 1.740710 
# 
# From -- ./inp_files/10791.got.cif
#   From: 2010.05.17/outbox.cif.g08.bks.cpg/sg58_6_cif.got.tgz:10791.got - 2010.06.03 14:20:14.
