data_PCOD9444803
_publ_section_title
;
Structure prediction by ZEFSAII (Michael W. Deem and Ramdas Pophale) SiO2 
 PCOD9444803
Probable space group: P N N M
;
_chemical_formula_sum "Si O2"
_cell_formula_units_Z 48
_cell_length_a 7.414524
_cell_length_b 28.683948
_cell_length_c 11.225438
_cell_angle_alpha 90.000000
_cell_angle_beta 90.000000
_cell_angle_gamma 90.000000
_cell_volume 2387.401692
_symmetry_space_group_name_H-M "P N N M"
_symmetry_group_IT_number 58
_symmetry_cell_setting 'orthorhombic'
loop_
_space_group_symop_operation_xyz
x,y,z
-x,-y,z
1/2+x,1/2-y,1/2-z
1/2-x,1/2+y,1/2-z
-x,-y,-z
x,y,-z
1/2-x,1/2+y,1/2+z
1/2+x,1/2-y,1/2+z
loop_
_atom_site_type_symbol
_atom_site_label
_atom_site_fract_x
_atom_site_fract_y
_atom_site_fract_z
Si Si1 0.500000 0.946459 0.139227
Si Si2 0.217087 0.887922 0.727497
Si Si3 0.782277 0.051701 0.500000
Si Si4 0.217087 0.112078 0.727496
Si Si5 0.215495 0.214587 0.360678
Si Si6 0.784504 0.214586 0.360678
Si Si7 0.217723 0.051701 0.500000
O O1 0.327860 0.914388 0.171754
O O2 0.672140 0.914388 0.171754
O O3 0.500000 0.000000 0.191421
O O4 0.500001 0.952562 0.000000
O O5 0.265461 0.919469 0.614759
O O6 0.273854 0.835789 0.690287
O O7 1.000000 0.888064 0.747457
O O8 0.000000 0.049059 0.500000
O O9 0.709460 1.000000 0.500000
O O10 0.273853 0.164211 0.690287
O O11 0.265461 0.080531 0.614759
O O12 0.280644 0.223300 0.500000
O O13 0.249999 0.250000 0.250000
O O14 0.999999 0.212446 0.372344
O O15 0.719354 0.223299 0.500000
#
# Coordination Sequence:
#
# PCOD9444803 Si02
#       7
#     8   8   4   8   8   8   4
#     4  11  26  43  61  93 133 170 215 265 317 388
#     4  10  21  41  65  89 125 166 211 263 320 382
#     4   9  16  31  61  93 118 151 199 256 315 370
#     4  10  21  41  65  89 125 166 211 263 320 382
#     4  10  22  41  64  92 128 169 214 270 328 387
#     4  10  22  41  64  92 128 169 214 270 328 387
#     4   9  16  31  61  93 118 151 199 256 315 370
#
# _framework density 20.105540000000001
#
# number of rings (size 3 to 8) (size 9 to 14) (size 15 to 20)
#    0.000    2.000    1.667    1.000    2.333    5.333 
#    0.000    6.667    0.000    0.000    0.000    0.000 
#    0.000    0.000    0.000    0.000    0.000    0.000 
#
# Total GULP energy -267263.106971 kJ/mol
# GULP energy per Si atom -5567.981395 kJ/mol
# Density = 2.005978 g / cm^3
# Si number density = 20.105540 Si / 1000 Ang^3
#
#
#
# Elastic Constant Matrix: (Units=GPa)
#
#
# Indices 1 2 3 4 5 6 
#
# 1 81.0415 30.1956 32.4595 0.0000 0.0000 0.0000
# 2 30.1956 210.8713 92.5070 0.0000 0.0000 0.0000
# 3 32.4595 92.5070 142.0670 0.0000 0.0000 0.0000
# 4 0.0000 0.0000 0.0000 22.0698 0.0000 0.0000
# 5 0.0000 0.0000 0.0000 0.0000 34.1660 0.0000
# 6 0.0000 0.0000 0.0000 0.0000 0.0000 21.7244
#
#
#
# Elastic Compliance Matrix: (Units=1/GPa)
#
#
# Indices 1 2 3 4 5 6 
#
# 1 0.013684 -0.000823 -0.002591 0.000000 0.000000 0.000000
# 2 -0.000823 0.006688 -0.004167 0.000000 0.000000 0.000000
# 3 -0.002591 -0.004167 0.010344 0.000000 0.000000 0.000000
# 4 0.000000 0.000000 0.000000 0.045311 0.000000 0.000000
# 5 0.000000 0.000000 0.000000 0.000000 0.029269 0.000000
# 6 0.000000 0.000000 0.000000 0.000000 0.000000 0.046031
#
#
# Mechanical properties :
#
#
# Convention : Reuss Voigt Hill
#
# Bulk Modulus (GPa) = 64.28842 82.70044 73.49443
# Shear Modulus (GPa) = 29.12526 34.17991 31.65259
#
# Velocity S-wave (km/s) = 3.81020 4.12761 3.97208
# Velocity P-wave (km/s) = 7.16950 7.99616 7.59409
#
# Compressibility (1/GPa) = 0.01555490
#
# Stress axis : x y z
#
# Youngs Moduli (GPa) = 73.08031 149.52060 96.67356
#
# Poissons Ratio (x) = 0.12305 0.25044
# Poissons Ratio (y) = 0.06014 0.40283
# Poissons Ratio (z) = 0.18932 0.62304
#
# Static dielectric constant tensor:
#      x y z
#    x 1.758550 0.000000 0.000000 
#    y 0.000000 1.709320 0.000000 
#    z 0.000000 0.000000 1.787920 
# 
# From -- ./inp_files/3050.got.cif
#   From: 2010.05.17/outbox.cif.g08.bks.cpg/sg58_2_cif.got.tgz:3050.got - 2010.06.03 14:20:14.
