data_PCOD9444274
_publ_section_title
;
Structure prediction by ZEFSAII (Michael W. Deem and Ramdas Pophale) SiO2 
 PCOD9444274
Probable space group: P N N M
;
_chemical_formula_sum "Si O2"
_cell_formula_units_Z 64
_cell_length_a 20.820824
_cell_length_b 17.176627
_cell_length_c 9.533014
_cell_angle_alpha 90.000000
_cell_angle_beta 90.000000
_cell_angle_gamma 90.000000
_cell_volume 3409.306360
_symmetry_space_group_name_H-M "P N N M"
_symmetry_group_IT_number 58
_symmetry_cell_setting 'orthorhombic'
loop_
_space_group_symop_operation_xyz
x,y,z
-x,-y,z
1/2+x,1/2-y,1/2-z
1/2-x,1/2+y,1/2-z
-x,-y,-z
x,y,-z
1/2-x,1/2+y,1/2+z
1/2+x,1/2-y,1/2+z
loop_
_atom_site_type_symbol
_atom_site_label
_atom_site_fract_x
_atom_site_fract_y
_atom_site_fract_z
Si Si1 0.998046 0.315487 0.333110
Si Si2 0.735935 0.907365 0.337660
Si Si3 0.115196 0.568819 0.665930
Si Si4 0.133735 0.388058 0.333083
Si Si5 0.879043 0.884062 0.662919
Si Si6 0.499713 0.335291 0.667362
Si Si7 0.899638 0.070469 0.662599
Si Si8 0.244110 0.904934 0.662341
O O1 0.993674 0.296835 0.500000
O O2 0.071817 0.336347 0.300311
O O3 0.975829 0.245003 0.236371
O O4 0.952134 0.389258 0.307207
O O5 0.723548 0.888758 0.500000
O O6 0.674160 0.890194 0.244858
O O7 0.804564 0.870574 0.298712
O O8 0.746547 0.001121 0.328658
O O9 0.127271 0.572986 0.500000
O O10 0.115163 0.477485 0.703892
O O11 0.144067 0.384821 0.500000
O O12 0.199881 0.368330 0.255329
O O13 0.889083 0.858911 0.500000
O O14 0.929440 0.847349 0.768404
O O15 0.890987 0.977294 0.665586
O O16 0.499214 0.335143 0.500000
O O17 0.454315 0.401691 0.732894
O O18 0.915239 0.091116 0.500000
O O19 0.830403 0.107836 0.700327
O O20 0.252371 0.883003 0.500000
#
# Coordination Sequence:
#
# PCOD9444274 Si02
#       8
#     8   8   8   8   8   8   8   8
#     4  10  21  37  53  70 101 143 177 204 246 306
#     4   8  15  29  51  79 106 130 160 201 249 302
#     4   9  17  31  54  81 104 129 166 211 254 297
#     4   9  17  31  54  81 104 129 166 211 254 297
#     4   9  18  35  58  79 101 134 171 203 246 309
#     4  12  25  36  49  74 105 134 171 218 258 292
#     4   9  18  35  58  79 101 134 171 203 246 309
#     4   8  15  29  51  79 106 130 160 201 249 302
#
# _framework density 18.772145999999999
#
# number of rings (size 3 to 8) (size 9 to 14) (size 15 to 20)
#    0.000    2.750    0.000    3.375    0.000    5.500 
#    0.000    3.750    0.000    3.750    0.000    0.000 
#    0.000    0.000    0.000    0.000    0.000    0.000 
#
# Total GULP energy -356872.455290 kJ/mol
# GULP energy per Si atom -5576.132114 kJ/mol
# Density = 1.872942 g / cm^3
# Si number density = 18.772146 Si / 1000 Ang^3
#
#
#
# Elastic Constant Matrix: (Units=GPa)
#
#
# Indices 1 2 3 4 5 6 
#
# 1 83.3273 7.6204 42.6419 0.0000 0.0000 0.0000
# 2 7.6204 19.8736 16.0262 0.0000 0.0000 0.0000
# 3 42.6419 16.0262 54.9755 0.0000 0.0000 0.0000
# 4 0.0000 0.0000 0.0000 33.1910 0.0000 0.0000
# 5 0.0000 0.0000 0.0000 0.0000 29.4346 0.0000
# 6 0.0000 0.0000 0.0000 0.0000 0.0000 3.9455
#
#
#
# Elastic Compliance Matrix: (Units=1/GPa)
#
#
# Indices 1 2 3 4 5 6 
#
# 1 0.020521 0.006494 -0.017810 0.000000 0.000000 0.000000
# 2 0.006494 0.067837 -0.024812 0.000000 0.000000 0.000000
# 3 -0.017810 -0.024812 0.039238 0.000000 0.000000 0.000000
# 4 0.000000 0.000000 0.000000 0.030129 0.000000 0.000000
# 5 0.000000 0.000000 0.000000 0.000000 0.033974 0.000000
# 6 0.000000 0.000000 0.000000 0.000000 0.000000 0.253451
#
#
# Mechanical properties :
#
#
# Convention : Reuss Voigt Hill
#
# Bulk Modulus (GPa) = 18.07083 32.30594 25.18839
# Shear Modulus (GPa) = 9.33091 19.44007 14.38549
#
# Velocity S-wave (km/s) = 2.23191 3.22154 2.77125
# Velocity P-wave (km/s) = 4.03599 5.57536 4.86692
#
# Compressibility (1/GPa) = 0.05533779
#
# Stress axis : x y z
#
# Youngs Moduli (GPa) = 48.72977 14.74128 25.48565
#
# Poissons Ratio (x) = -0.09572 0.45391
# Poissons Ratio (y) = -0.31643 0.63236
# Poissons Ratio (z) = 0.86790 0.36576
#
# Static dielectric constant tensor:
#      x y z
#    x 1.658670 0.000000 0.000000 
#    y 0.000000 1.694970 0.000000 
#    z 0.000000 0.000000 1.617310 
# 
# From -- ./inp_files/9265.got.cif
#   From: 2010.05.17/outbox.cif.g08.bks.cpg/sg58_5_cif.got.tgz:9265.got - 2010.06.03 14:20:14.
