data_PCOD9444521
_publ_section_title
;
Structure prediction by ZEFSAII (Michael W. Deem and Ramdas Pophale) SiO2 
 PCOD9444521
Probable space group: P N N M
;
_chemical_formula_sum "Si O2"
_cell_formula_units_Z 48
_cell_length_a 11.385611
_cell_length_b 23.891420
_cell_length_c 8.977737
_cell_angle_alpha 90.000000
_cell_angle_beta 90.000000
_cell_angle_gamma 90.000000
_cell_volume 2442.109783
_symmetry_space_group_name_H-M "P N N M"
_symmetry_group_IT_number 58
_symmetry_cell_setting 'orthorhombic'
loop_
_space_group_symop_operation_xyz
x,y,z
-x,-y,z
1/2+x,1/2-y,1/2-z
1/2-x,1/2+y,1/2-z
-x,-y,-z
x,y,-z
1/2-x,1/2+y,1/2+z
1/2+x,1/2-y,1/2+z
loop_
_atom_site_type_symbol
_atom_site_label
_atom_site_fract_x
_atom_site_fract_y
_atom_site_fract_z
Si Si1 0.810400 0.587442 0.822167
Si Si2 0.786407 0.971760 0.322169
Si Si3 0.835340 0.182082 0.822264
Si Si4 0.582085 0.375102 0.321484
Si Si5 0.059388 0.585834 0.323485
Si Si6 0.690041 0.801463 0.175867
O O1 0.718561 0.537577 0.786329
O O2 0.764552 0.645249 0.755425
O O3 0.935405 0.572666 0.750118
O O4 0.822389 0.590700 0.000000
O O5 0.785320 0.965574 0.500000
O O6 0.890119 0.934236 0.255108
O O7 0.666263 0.946631 0.253812
O O8 0.831116 0.245658 0.767493
O O9 0.959458 0.153333 0.781876
O O10 0.822027 0.179615 0.000000
O O11 0.587069 0.383009 0.500000
O O12 0.688494 0.332710 0.282273
O O13 0.058890 0.573850 0.500000
O O14 0.089716 0.651654 0.303924
O O15 0.696338 0.787814 0.000000
#
# Coordination Sequence:
#
# PCOD9444521 Si02
#       6
#     8   8   8   8   8   8
#     4  11  24  39  57  86 123 157 195 243 292 346
#     4  10  21  38  61  88 117 155 198 240 293 350
#     4  11  24  39  58  87 117 154 200 242 292 348
#     4   9  21  41  61  83 115 154 195 242 294 348
#     4  10  21  38  62  91 119 153 196 242 294 348
#     4   9  20  39  60  84 115 150 189 239 296 349
#
# _framework density 19.655137
#
# number of rings (size 3 to 8) (size 9 to 14) (size 15 to 20)
#    0.000    2.000    0.000    3.500    2.333   10.000 
#    0.000    3.333    0.000    0.000    0.000    0.000 
#    0.000    0.000    0.000    0.000    0.000    0.000 
#
# Total GULP energy -268219.710256 kJ/mol
# GULP energy per Si atom -5587.910630 kJ/mol
# Density = 1.961040 g / cm^3
# Si number density = 19.655137 Si / 1000 Ang^3
#
#
#
# Elastic Constant Matrix: (Units=GPa)
#
#
# Indices 1 2 3 4 5 6 
#
# 1 24.2973 -14.8618 -3.2392 0.0000 0.0000 0.0000
# 2 -14.8618 67.3323 17.2624 0.0000 0.0000 0.0000
# 3 -3.2392 17.2624 27.0404 0.0000 0.0000 0.0000
# 4 0.0000 0.0000 0.0000 30.2966 0.0000 0.0000
# 5 0.0000 0.0000 0.0000 0.0000 128.3771 0.0000
# 6 0.0000 0.0000 0.0000 0.0000 0.0000 15.6872
#
#
#
# Elastic Compliance Matrix: (Units=1/GPa)
#
#
# Indices 1 2 3 4 5 6 
#
# 1 0.047613 0.010818 -0.001202 0.000000 0.000000 0.000000
# 2 0.010818 0.020216 -0.011610 0.000000 0.000000 0.000000
# 3 -0.001202 -0.011610 0.044249 0.000000 0.000000 0.000000
# 4 0.000000 0.000000 0.000000 0.033007 0.000000 0.000000
# 5 0.000000 0.000000 0.000000 0.000000 0.007790 0.000000
# 6 0.000000 0.000000 0.000000 0.000000 0.000000 0.063746
#
#
# Mechanical properties :
#
#
# Convention : Reuss Voigt Hill
#
# Bulk Modulus (GPa) = 9.25161 12.99922 11.12541
# Shear Modulus (GPa) = 19.48257 42.83942 31.16100
#
# Velocity S-wave (km/s) = 3.15178 4.67363 3.98601
# Velocity P-wave (km/s) = 4.23818 5.97928 5.18237
#
# Compressibility (1/GPa) = 0.10808929
#
# Stress axis : x y z
#
# Youngs Moduli (GPa) = 21.00257 49.46617 22.59927
#
# Poissons Ratio (x) = -0.53510 0.02717
# Poissons Ratio (y) = -0.22720 0.26237
# Poissons Ratio (z) = 0.02525 0.57429
#
# Static dielectric constant tensor:
#      x y z
#    x 1.677830 0.000000 0.000000 
#    y 0.000000 1.679030 0.000000 
#    z 0.000000 0.000000 1.649640 
# 
# From -- ./inp_files/4227.got.cif
#   From: 2010.05.17/outbox.cif.g08.bks.cpg/sg58_3_cif.got.tgz:4227.got - 2010.06.03 14:20:14.
