data_PCOD9444848
_publ_section_title
;
Structure prediction by ZEFSAII (Michael W. Deem and Ramdas Pophale) SiO2 
 PCOD9444848
Probable space group: P N N M
;
_chemical_formula_sum "Si O2"
_cell_formula_units_Z 44
_cell_length_a 8.442100
_cell_length_b 8.128127
_cell_length_c 33.093094
_cell_angle_alpha 90.000000
_cell_angle_beta 90.000000
_cell_angle_gamma 90.000000
_cell_volume 2270.797178
_symmetry_space_group_name_H-M "P N N M"
_symmetry_group_IT_number 58
_symmetry_cell_setting 'orthorhombic'
loop_
_space_group_symop_operation_xyz
x,y,z
-x,-y,z
1/2+x,1/2-y,1/2-z
1/2-x,1/2+y,1/2-z
-x,-y,-z
x,y,-z
1/2-x,1/2+y,1/2+z
1/2+x,1/2-y,1/2+z
loop_
_atom_site_type_symbol
_atom_site_label
_atom_site_fract_x
_atom_site_fract_y
_atom_site_fract_z
Si Si1 0.676874 0.963221 0.136779
Si Si2 0.324232 0.563306 0.716250
Si Si3 0.387258 0.840907 0.454349
Si Si4 0.171052 0.919845 0.379715
Si Si5 0.000000 0.000000 0.086427
Si Si6 0.680133 0.048020 0.298119
O O1 0.705868 0.017522 0.183227
O O2 0.669816 0.766877 0.135217
O O3 0.835420 0.018064 0.112214
O O4 0.500000 0.000000 0.121179
O O5 0.500000 0.500000 0.707207
O O6 0.314660 0.756914 0.708810
O O7 0.283308 0.528682 0.762452
O O8 0.328984 0.808978 0.500000
O O9 0.255794 0.901331 0.422633
O O10 0.469243 0.671012 0.438222
O O11 0.500000 0.000000 0.455890
O O12 0.265915 0.006213 0.343029
O O13 0.000000 0.000000 0.383182
O O14 0.500000 0.000000 0.292308
#
# Coordination Sequence:
#
# PCOD9444848 Si02
#       6
#     8   8   8   8   4   8
#     4  10  22  38  62  89 123 167 210 254 315 372
#     4  11  22  38  56  84 123 162 210 260 307 368
#     4  10  22  41  67  95 124 165 208 258 330 385
#     4  10  23  39  59  90 122 157 208 258 314 380
#     4  10  21  42  66  96 128 166 210 268 313 386
#     4  11  23  38  57  85 118 164 209 256 313 370
#
# _framework density 19.376453000000001
#
# number of rings (size 3 to 8) (size 9 to 14) (size 15 to 20)
#    0.000    1.636    0.909    3.000    2.545    6.182 
#    0.000    0.000    0.000    2.727    0.000    0.000 
#    0.000    0.000    0.000    0.000    0.000    0.000 
#
# Total GULP energy -245136.791742 kJ/mol
# GULP energy per Si atom -5571.290721 kJ/mol
# Density = 1.933235 g / cm^3
# Si number density = 19.376453 Si / 1000 Ang^3
#
#
#
# Elastic Constant Matrix: (Units=GPa)
#
#
# Indices 1 2 3 4 5 6 
#
# 1 109.9906 27.0892 54.1623 0.0000 0.0000 0.0000
# 2 27.0892 55.4154 47.2816 0.0000 0.0000 0.0000
# 3 54.1623 47.2816 131.9864 0.0000 0.0000 0.0000
# 4 0.0000 0.0000 0.0000 31.6579 0.0000 0.0000
# 5 0.0000 0.0000 0.0000 0.0000 37.5243 0.0000
# 6 0.0000 0.0000 0.0000 0.0000 0.0000 36.1163
#
#
#
# Elastic Compliance Matrix: (Units=1/GPa)
#
#
# Indices 1 2 3 4 5 6 
#
# 1 0.011597 -0.002317 -0.003929 0.000000 0.000000 0.000000
# 2 -0.002317 0.026452 -0.008525 0.000000 0.000000 0.000000
# 3 -0.003929 -0.008525 0.012243 0.000000 0.000000 0.000000
# 4 0.000000 0.000000 0.000000 0.031588 0.000000 0.000000
# 5 0.000000 0.000000 0.000000 0.000000 0.026649 0.000000
# 6 0.000000 0.000000 0.000000 0.000000 0.000000 0.027688
#
#
# Mechanical properties :
#
#
# Convention : Reuss Voigt Hill
#
# Bulk Modulus (GPa) = 48.19309 61.60649 54.89979
# Shear Modulus (GPa) = 28.95599 32.31699 30.63649
#
# Velocity S-wave (km/s) = 3.86993 4.08836 3.98064
# Velocity P-wave (km/s) = 6.70033 7.35865 7.03720
#
# Compressibility (1/GPa) = 0.02074986
#
# Stress axis : x y z
#
# Youngs Moduli (GPa) = 86.22891 37.80444 81.68023
#
# Poissons Ratio (x) = 0.08758 0.32093
# Poissons Ratio (y) = 0.19977 0.69634
# Poissons Ratio (z) = 0.33880 0.32229
#
# Static dielectric constant tensor:
#      x y z
#    x 7.014010 0.000000 0.000000 
#    y 0.000000 1.684320 0.000000 
#    z 0.000000 0.000000 1.729960 
# 
# From -- ./inp_files/34461.got.cif
#   From: 2010.05.17/outbox.cif.g08.bks.cpg/sg58_18_cif.got.tgz:34461.got - 2010.06.03 14:20:14.
