data_PCOD9444574
_publ_section_title
;
Structure prediction by ZEFSAII (Michael W. Deem and Ramdas Pophale) SiO2 
 PCOD9444574
Probable space group: P N N M
;
_chemical_formula_sum "Si O2"
_cell_formula_units_Z 58
_cell_length_a 10.453248
_cell_length_b 8.028206
_cell_length_c 31.387489
_cell_angle_alpha 90.000000
_cell_angle_beta 90.000000
_cell_angle_gamma 90.000000
_cell_volume 2634.064076
_symmetry_space_group_name_H-M "P N N M"
_symmetry_group_IT_number 58
_symmetry_cell_setting 'orthorhombic'
loop_
_space_group_symop_operation_xyz
x,y,z
-x,-y,z
1/2+x,1/2-y,1/2-z
1/2-x,1/2+y,1/2-z
-x,-y,-z
x,y,-z
1/2-x,1/2+y,1/2+z
1/2+x,1/2-y,1/2+z
loop_
_atom_site_type_symbol
_atom_site_label
_atom_site_fract_x
_atom_site_fract_y
_atom_site_fract_z
Si Si1 0.367836 0.103101 0.883775
Si Si2 0.360019 0.090012 0.712183
Si Si3 0.252567 0.243538 0.798512
Si Si4 0.761470 0.634007 0.548776
Si Si5 0.003588 0.188764 0.845981
Si Si6 0.984274 0.311144 0.064352
Si Si7 0.535269 0.691325 0.044677
Si Si8 0.500000 0.500000 0.500000
O O1 0.325940 0.161906 0.837877
O O2 0.390291 0.261947 0.913560
O O3 0.500000 0.000000 0.880380
O O4 0.270491 0.996197 0.912838
O O5 0.312311 0.179152 0.754836
O O6 0.379597 0.226193 0.675043
O O7 0.500000 0.000000 0.717591
O O8 0.260396 0.943577 0.700918
O O9 0.107409 0.186850 0.808099
O O10 0.714396 0.580782 0.500000
O O11 0.668597 0.779409 0.563657
O O12 0.905211 0.700980 0.544110
O O13 0.038299 0.296635 0.887570
O O14 0.000000 0.000000 0.860815
O O15 0.000000 0.500000 0.048597
O O16 0.026611 0.149503 0.037243
O O17 0.500000 0.500000 0.044521
O O18 0.604885 0.732633 0.000000
#
# Coordination Sequence:
#
# PCOD9444574 Si02
#       8
#     8   8   8   8   8   8   8   2
#     4  10  21  38  64  91 125 163 212 270 319 387
#     4  10  23  42  65  96 127 164 213 263 329 400
#     4  11  22  40  65  92 125 166 211 265 333 389
#     4  10  21  39  59  87 122 171 214 259 327 375
#     4  11  23  43  66  94 131 173 217 272 333 397
#     4  12  25  44  65  95 137 173 225 276 322 394
#     4   9  19  37  57  87 124 166 212 258 308 373
#     4  12  26  44  64  98 132 178 228 270 330 382
#
# _framework density 22.019204999999999
#
# number of rings (size 3 to 8) (size 9 to 14) (size 15 to 20)
#    0.000    1.517    1.379    3.931    0.000    3.862 
#    0.000    6.207    0.000    0.000    0.000    0.000 
#    0.000    0.000    0.000    0.000    0.000    0.000 
#
# Total GULP energy -323232.591059 kJ/mol
# GULP energy per Si atom -5572.975708 kJ/mol
# Density = 2.196909 g / cm^3
# Si number density = 22.019205 Si / 1000 Ang^3
#
#
#
# Elastic Constant Matrix: (Units=GPa)
#
#
# Indices 1 2 3 4 5 6 
#
# 1 34.1144 28.9941 25.2762 0.0000 0.0000 0.0000
# 2 28.9941 150.9779 61.2450 0.0000 0.0000 0.0000
# 3 25.2762 61.2450 138.4669 0.0000 0.0000 0.0000
# 4 0.0000 0.0000 0.0000 85.1034 0.0000 0.0000
# 5 0.0000 0.0000 0.0000 0.0000 34.4421 0.0000
# 6 0.0000 0.0000 0.0000 0.0000 0.0000 28.8157
#
#
#
# Elastic Compliance Matrix: (Units=1/GPa)
#
#
# Indices 1 2 3 4 5 6 
#
# 1 0.037121 -0.005338 -0.004415 0.000000 0.000000 0.000000
# 2 -0.005338 0.008839 -0.002935 0.000000 0.000000 0.000000
# 3 -0.004415 -0.002935 0.009326 0.000000 0.000000 0.000000
# 4 0.000000 0.000000 0.000000 0.011750 0.000000 0.000000
# 5 0.000000 0.000000 0.000000 0.000000 0.029034 0.000000
# 6 0.000000 0.000000 0.000000 0.000000 0.000000 0.034703
#
#
# Mechanical properties :
#
#
# Convention : Reuss Voigt Hill
#
# Bulk Modulus (GPa) = 33.43366 61.62109 47.52738
# Shear Modulus (GPa) = 30.09849 43.54183 36.82016
#
# Velocity S-wave (km/s) = 3.70120 4.45167 4.09367
# Velocity P-wave (km/s) = 5.78636 7.38032 6.63141
#
# Compressibility (1/GPa) = 0.02990997
#
# Stress axis : x y z
#
# Youngs Moduli (GPa) = 26.93882 113.13143 107.22437
#
# Poissons Ratio (x) = 0.60386 0.47343
# Poissons Ratio (y) = 0.14379 0.31474
# Poissons Ratio (z) = 0.11894 0.33208
#
# Static dielectric constant tensor:
#      x y z
#    x 1.861010 0.000000 0.000000 
#    y 0.000000 1.849250 0.000000 
#    z 0.000000 0.000000 1.785370 
# 
# From -- ./inp_files/33592.got.cif
#   From: 2010.05.17/outbox.cif.g08.bks.cpg/sg58_17_cif.got.tgz:33592.got - 2010.06.03 14:20:14.
