data_PCOD9444993
_publ_section_title
;
Structure prediction by ZEFSAII (Michael W. Deem and Ramdas Pophale) SiO2 
 PCOD9444993
Probable space group: P N N M
;
_chemical_formula_sum "Si O2"
_cell_formula_units_Z 32
_cell_length_a 7.335179
_cell_length_b 7.517447
_cell_length_c 27.815088
_cell_angle_alpha 90.000000
_cell_angle_beta 90.000000
_cell_angle_gamma 90.000000
_cell_volume 1533.774558
_symmetry_space_group_name_H-M "P N N M"
_symmetry_group_IT_number 58
_symmetry_cell_setting 'orthorhombic'
loop_
_space_group_symop_operation_xyz
x,y,z
-x,-y,z
1/2+x,1/2-y,1/2-z
1/2-x,1/2+y,1/2-z
-x,-y,-z
x,y,-z
1/2-x,1/2+y,1/2+z
1/2+x,1/2-y,1/2+z
loop_
_atom_site_type_symbol
_atom_site_label
_atom_site_fract_x
_atom_site_fract_y
_atom_site_fract_z
Si Si1 0.657642 0.622888 0.604543
Si Si2 0.000000 0.000000 0.744727
Si Si3 0.292550 0.929013 0.000000
Si Si4 0.500000 0.000000 0.422006
Si Si5 0.649747 0.144135 0.198937
Si Si6 0.283475 0.507106 0.000000
O O1 0.500000 0.500000 0.625197
O O2 0.708283 0.533702 0.552749
O O3 0.823058 0.629781 0.641565
O O4 0.578373 0.823977 0.602573
O O5 0.160668 0.909356 0.775752
O O6 0.912006 0.841156 0.713613
O O7 0.500000 0.000000 0.000000
O O8 0.259025 0.717862 0.000000
O O9 0.670744 0.065356 0.454869
O O10 0.500000 0.000000 0.214504
O O11 0.500000 0.500000 0.000000
#
# Coordination Sequence:
#
# PCOD9444993 Si02
#       6
#     8   4   4   4   8   4
#     4  11  24  42  69  98 140 186 228 286 346 419
#     4  12  26  48  78 102 146 182 232 306 364 418
#     4  10  22  39  60 100 135 179 233 279 339 406
#     4   9  22  40  56  92 132 168 230 276 332 399
#     4  12  26  47  74 109 141 184 238 295 361 431
#     4   9  19  37  60  84 123 179 227 278 330 395
#
# _framework density 20.863562999999999
#
# number of rings (size 3 to 8) (size 9 to 14) (size 15 to 20)
#    0.000    1.250    3.750    1.875    3.500    4.000 
#    9.000    0.000    0.000    0.000    0.000    0.000 
#    0.000    0.000    0.000    0.000    0.000    0.000 
#
# Total GULP energy -178373.478801 kJ/mol
# GULP energy per Si atom -5574.171213 kJ/mol
# Density = 2.081608 g / cm^3
# Si number density = 20.863563 Si / 1000 Ang^3
#
#
#
# Elastic Constant Matrix: (Units=GPa)
#
#
# Indices 1 2 3 4 5 6 
#
# 1 134.4649 38.2381 47.9206 0.0000 0.0000 0.0000
# 2 38.2381 119.7655 38.1970 0.0000 0.0000 0.0000
# 3 47.9206 38.1970 92.9619 0.0000 0.0000 0.0000
# 4 0.0000 0.0000 0.0000 16.4991 0.0000 0.0000
# 5 0.0000 0.0000 0.0000 0.0000 47.8753 0.0000
# 6 0.0000 0.0000 0.0000 0.0000 0.0000 45.5486
#
#
#
# Elastic Compliance Matrix: (Units=1/GPa)
#
#
# Indices 1 2 3 4 5 6 
#
# 1 0.009393 -0.001674 -0.004154 0.000000 0.000000 0.000000
# 2 -0.001674 0.009907 -0.003208 0.000000 0.000000 0.000000
# 3 -0.004154 -0.003208 0.014217 0.000000 0.000000 0.000000
# 4 0.000000 0.000000 0.000000 0.060609 0.000000 0.000000
# 5 0.000000 0.000000 0.000000 0.000000 0.020888 0.000000
# 6 0.000000 0.000000 0.000000 0.000000 0.000000 0.021955
#
#
# Mechanical properties :
#
#
# Convention : Reuss Voigt Hill
#
# Bulk Modulus (GPa) = 64.74652 66.21153 65.47903
# Shear Modulus (GPa) = 31.21303 36.84039 34.02671
#
# Velocity S-wave (km/s) = 3.87208 4.20667 4.04284
# Velocity P-wave (km/s) = 7.14782 7.44306 7.29694
#
# Compressibility (1/GPa) = 0.01544485
#
# Stress axis : x y z
#
# Youngs Moduli (GPa) = 106.45676 100.93649 70.34018
#
# Poissons Ratio (x) = 0.16898 0.29222
# Poissons Ratio (y) = 0.17822 0.22563
# Poissons Ratio (z) = 0.44226 0.32378
#
# Static dielectric constant tensor:
#      x y z
#    x 1.691580 0.000000 0.000000 
#    y 0.000000 1.709780 0.000000 
#    z 0.000000 0.000000 1.848700 
# 
# From -- ./inp_files/34044.got.cif
#   From: 2010.05.17/outbox.cif.g08.bks.cpg/sg58_18_cif.got.tgz:34044.got - 2010.06.03 14:20:14.
