data_PCOD9444769
_publ_section_title
;
Structure prediction by ZEFSAII (Michael W. Deem and Ramdas Pophale) SiO2 
 PCOD9444769
Probable space group: P N N M
;
_chemical_formula_sum "Si O2"
_cell_formula_units_Z 52
_cell_length_a 5.132265
_cell_length_b 21.039571
_cell_length_c 22.264492
_cell_angle_alpha 90.000000
_cell_angle_beta 90.000000
_cell_angle_gamma 90.000000
_cell_volume 2404.134404
_symmetry_space_group_name_H-M "P N N M"
_symmetry_group_IT_number 58
_symmetry_cell_setting 'orthorhombic'
loop_
_space_group_symop_operation_xyz
x,y,z
-x,-y,z
1/2+x,1/2-y,1/2-z
1/2-x,1/2+y,1/2-z
-x,-y,-z
x,y,-z
1/2-x,1/2+y,1/2+z
1/2+x,1/2-y,1/2+z
loop_
_atom_site_type_symbol
_atom_site_label
_atom_site_fract_x
_atom_site_fract_y
_atom_site_fract_z
Si Si1 0.874487 0.159871 0.203957
Si Si2 0.013659 0.431520 0.749880
Si Si3 0.339996 0.567623 0.631618
Si Si4 0.507904 0.160020 0.357101
Si Si5 0.256544 0.456488 0.069243
Si Si6 0.480551 0.729003 0.177344
Si Si7 0.745122 0.955781 0.000000
O O1 0.802609 0.093084 0.236139
O O2 0.618090 0.199261 0.185708
O O3 0.009562 0.132815 0.145739
O O4 0.019697 0.200926 0.254273
O O5 0.928890 0.379838 0.797791
O O6 0.000000 0.500000 0.779059
O O7 0.864679 0.436034 0.686613
O O8 0.500000 0.500000 0.632204
O O9 0.234691 0.577228 0.564575
O O10 0.657247 0.107767 0.397907
O O11 0.233108 0.195854 0.366898
O O12 0.729423 0.212786 0.344401
O O13 0.500000 0.500000 0.093398
O O14 0.000000 0.500000 0.068761
O O15 0.327879 0.440544 0.000000
O O16 0.500000 0.000000 0.000000
O O17 0.000000 0.000000 0.000000
#
# Coordination Sequence:
#
# PCOD9444769 Si02
#       7
#     8   8   8   8   8   8   4
#     4  11  23  40  61  89 127 167 213 260 320 397
#     4  11  21  34  58  93 128 155 199 267 331 376
#     4  11  22  40  65  95 130 169 213 273 335 395
#     4  11  23  39  61  91 129 166 210 260 317 376
#     4  10  21  40  67  96 128 170 213 259 323 390
#     4  11  24  39  60  90 124 174 211 256 315 382
#     4  10  24  42  64  92 130 172 212 258 328 399
#
# _framework density 21.629405999999999
#
# number of rings (size 3 to 8) (size 9 to 14) (size 15 to 20)
#    0.000    1.231    3.077    3.692    4.308    0.000 
#    0.000    0.000    3.385    0.000    0.000    0.000 
#    0.000    0.000    0.000    0.000    0.000    0.000 
#
# Total GULP energy -289736.633115 kJ/mol
# GULP energy per Si atom -5571.858329 kJ/mol
# Density = 2.158018 g / cm^3
# Si number density = 21.629406 Si / 1000 Ang^3
#
#
#
# Elastic Constant Matrix: (Units=GPa)
#
#
# Indices 1 2 3 4 5 6 
#
# 1 99.7152 35.6032 6.6445 0.0000 0.0000 0.0000
# 2 35.6032 80.5045 13.3650 0.0000 0.0000 0.0000
# 3 6.6445 13.3650 72.6991 0.0000 0.0000 0.0000
# 4 0.0000 0.0000 0.0000 7.0338 0.0000 0.0000
# 5 0.0000 0.0000 0.0000 0.0000 19.4923 0.0000
# 6 0.0000 0.0000 0.0000 0.0000 0.0000 50.9076
#
#
#
# Elastic Compliance Matrix: (Units=1/GPa)
#
#
# Indices 1 2 3 4 5 6 
#
# 1 0.011910 -0.005247 -0.000124 0.000000 0.000000 0.000000
# 2 -0.005247 0.015124 -0.002301 0.000000 0.000000 0.000000
# 3 -0.000124 -0.002301 0.014190 0.000000 0.000000 0.000000
# 4 0.000000 0.000000 0.000000 0.142170 0.000000 0.000000
# 5 0.000000 0.000000 0.000000 0.000000 0.051302 0.000000
# 6 0.000000 0.000000 0.000000 0.000000 0.000000 0.019643
#
#
# Mechanical properties :
#
#
# Convention : Reuss Voigt Hill
#
# Bulk Modulus (GPa) = 38.63887 40.46048 39.54967
# Shear Modulus (GPa) = 17.96561 28.64049 23.30305
#
# Velocity S-wave (km/s) = 2.88516 3.64283 3.28590
# Velocity P-wave (km/s) = 5.38532 6.03659 5.72023
#
# Compressibility (1/GPa) = 0.02588068
#
# Stress axis : x y z
#
# Youngs Moduli (GPa) = 83.96208 66.12009 70.47390
#
# Poissons Ratio (x) = 0.34691 0.00874
# Poissons Ratio (y) = 0.44052 0.16215
# Poissons Ratio (z) = 0.01041 0.15213
#
# Static dielectric constant tensor:
#      x y z
#    x 1.903490 0.000000 0.000000 
#    y 0.000000 1.854190 0.000000 
#    z 0.000000 0.000000 1.888200 
# 
# From -- ./inp_files/28203.got.cif
#   From: 2010.05.17/outbox.cif.g08.bks.cpg/sg58_15_cif.got.tgz:28203.got - 2010.06.03 14:20:14.
