data_PCOD9444458
_publ_section_title
;
Structure prediction by ZEFSAII (Michael W. Deem and Ramdas Pophale) SiO2 
 PCOD9444458
Probable space group: P N N M
;
_chemical_formula_sum "Si O2"
_cell_formula_units_Z 64
_cell_length_a 21.675756
_cell_length_b 9.332066
_cell_length_c 15.462081
_cell_angle_alpha 90.000000
_cell_angle_beta 90.000000
_cell_angle_gamma 90.000000
_cell_volume 3127.663337
_symmetry_space_group_name_H-M "P N N M"
_symmetry_group_IT_number 58
_symmetry_cell_setting 'orthorhombic'
loop_
_space_group_symop_operation_xyz
x,y,z
-x,-y,z
1/2+x,1/2-y,1/2-z
1/2-x,1/2+y,1/2-z
-x,-y,-z
x,y,-z
1/2-x,1/2+y,1/2+z
1/2+x,1/2-y,1/2+z
loop_
_atom_site_type_symbol
_atom_site_label
_atom_site_fract_x
_atom_site_fract_y
_atom_site_fract_z
Si Si1 0.697578 0.117774 0.785175
Si Si2 0.896258 0.853044 0.713666
Si Si3 0.560704 0.576280 0.354206
Si Si4 0.147772 0.913302 0.404056
Si Si5 0.117806 0.601923 0.604421
Si Si6 0.789827 0.502907 0.094986
Si Si7 0.010859 0.657480 0.736857
Si Si8 0.307160 0.335965 0.593694
O O1 0.670117 0.277741 0.787140
O O2 0.689062 0.069365 0.685900
O O3 0.766456 0.110074 0.825099
O O4 0.656305 0.022646 0.849693
O O5 0.896275 0.974759 0.641571
O O6 0.947092 0.729410 0.706671
O O7 0.913025 0.946371 0.796376
O O8 0.500000 0.500000 0.394778
O O9 0.541028 0.718356 0.298080
O O10 0.621476 0.621248 0.405120
O O11 0.123436 0.896249 0.500000
O O12 0.151095 0.751894 0.370230
O O13 0.216459 0.973844 0.405473
O O14 0.114191 0.583013 0.500000
O O15 0.052937 0.621992 0.653623
O O16 0.804231 0.335445 0.097597
O O17 0.812491 0.558946 0.000000
O O18 0.000000 0.500000 0.779606
O O19 0.279797 0.381650 0.500000
#
# Coordination Sequence:
#
# PCOD9444458 Si02
#       8
#     8   8   8   8   8   8   8   8
#     4  12  24  39  67  97 133 171 216 275 335 398
#     4  11  22  38  62  92 123 175 218 266 332 392
#     4  10  23  43  67  92 130 170 230 281 335 394
#     4  10  21  38  58  87 129 169 213 264 323 389
#     4  11  24  40  61  94 135 177 218 272 327 389
#     4  10  23  40  63  96 131 170 216 268 333 402
#     4  11  22  40  62  92 123 175 227 268 321 394
#     4  11  24  41  67 100 132 175 224 272 337 402
#
# _framework density 20.462561000000001
#
# number of rings (size 3 to 8) (size 9 to 14) (size 15 to 20)
#    0.000    1.250    3.750    1.875    1.750    1.500 
#    0.000    3.125    0.000    1.125    0.000    0.000 
#    0.000    0.000    0.000    0.000    0.000    0.000 
#
# Total GULP energy -356642.288172 kJ/mol
# GULP energy per Si atom -5572.535753 kJ/mol
# Density = 2.041599 g / cm^3
# Si number density = 20.462561 Si / 1000 Ang^3
#
#
#
# Elastic Constant Matrix: (Units=GPa)
#
#
# Indices 1 2 3 4 5 6 
#
# 1 78.9624 27.9467 27.7760 0.0000 0.0000 0.0000
# 2 27.9467 107.8725 40.5985 0.0000 0.0000 0.0000
# 3 27.7760 40.5985 109.6452 0.0000 0.0000 0.0000
# 4 0.0000 0.0000 0.0000 14.2070 0.0000 0.0000
# 5 0.0000 0.0000 0.0000 0.0000 34.2230 0.0000
# 6 0.0000 0.0000 0.0000 0.0000 0.0000 27.1455
#
#
#
# Elastic Compliance Matrix: (Units=1/GPa)
#
#
# Indices 1 2 3 4 5 6 
#
# 1 0.014585 -0.002775 -0.002667 0.000000 0.000000 0.000000
# 2 -0.002775 0.011299 -0.003481 0.000000 0.000000 0.000000
# 3 -0.002667 -0.003481 0.011085 0.000000 0.000000 0.000000
# 4 0.000000 0.000000 0.000000 0.070388 0.000000 0.000000
# 5 0.000000 0.000000 0.000000 0.000000 0.029220 0.000000
# 6 0.000000 0.000000 0.000000 0.000000 0.000000 0.036838
#
#
# Mechanical properties :
#
#
# Convention : Reuss Voigt Hill
#
# Bulk Modulus (GPa) = 52.29303 54.34694 53.31999
# Shear Modulus (GPa) = 25.29920 28.45902 26.87911
#
# Velocity S-wave (km/s) = 3.52001 3.73337 3.62826
# Velocity P-wave (km/s) = 6.49089 6.72316 6.60805
#
# Compressibility (1/GPa) = 0.01912301
#
# Stress axis : x y z
#
# Youngs Moduli (GPa) = 68.56593 88.50292 90.21297
#
# Poissons Ratio (x) = 0.24556 0.24062
# Poissons Ratio (y) = 0.19024 0.31402
# Poissons Ratio (z) = 0.18289 0.30806
#
# Static dielectric constant tensor:
#      x y z
#    x 1.752810 0.000000 0.000000 
#    y 0.000000 1.781100 0.000000 
#    z 0.000000 0.000000 1.780910 
# 
# From -- ./inp_files/23532.got.cif
#   From: 2010.05.17/outbox.cif.g08.bks.cpg/sg58_12_cif.got.tgz:23532.got - 2010.06.03 14:20:14.
