data_PCOD9444462
_publ_section_title
;
Structure prediction by ZEFSAII (Michael W. Deem and Ramdas Pophale) SiO2 
 PCOD9444462
Probable space group: P N N M
;
_chemical_formula_sum "Si O2"
_cell_formula_units_Z 40
_cell_length_a 12.371942
_cell_length_b 8.143944
_cell_length_c 18.667890
_cell_angle_alpha 90.000000
_cell_angle_beta 90.000000
_cell_angle_gamma 90.000000
_cell_volume 1880.909445
_symmetry_space_group_name_H-M "P N N M"
_symmetry_group_IT_number 58
_symmetry_cell_setting 'orthorhombic'
loop_
_space_group_symop_operation_xyz
x,y,z
-x,-y,z
1/2+x,1/2-y,1/2-z
1/2-x,1/2+y,1/2-z
-x,-y,-z
x,y,-z
1/2-x,1/2+y,1/2+z
1/2+x,1/2-y,1/2+z
loop_
_atom_site_type_symbol
_atom_site_label
_atom_site_fract_x
_atom_site_fract_y
_atom_site_fract_z
Si Si1 0.874036 0.701575 0.722371
Si Si2 0.767346 0.693816 0.915026
Si Si3 0.492999 0.688663 0.651606
Si Si4 0.687185 0.907713 0.316776
Si Si5 0.628459 0.021837 0.921008
O O1 0.967224 0.800660 0.762740
O O2 0.764178 0.801269 0.733817
O O3 0.875008 0.529404 0.763455
O O4 0.863480 0.659765 0.639298
O O5 0.889478 0.739432 0.890125
O O6 0.745741 0.528526 0.869403
O O7 0.689470 0.851256 0.901591
O O8 0.763331 0.662320 0.000000
O O9 0.500000 0.500000 0.630541
O O10 0.601605 0.793756 0.641690
O O11 0.500000 0.000000 0.925597
O O12 0.669727 0.069849 0.000000
#
# Coordination Sequence:
#
# PCOD9444462 Si02
#       5
#     8   8   8   8   8
#     4  11  21  36  58  82 116 152 190 242 296 350
#     4  10  22  40  60  85 119 157 199 250 305 364
#     4  11  23  38  60  91 119 154 203 249 305 369
#     4  11  22  37  59  87 119 154 198 247 299 366
#     4  10  21  38  59  82 112 152 196 241 294 353
#
# _framework density 21.266309
#
# number of rings (size 3 to 8) (size 9 to 14) (size 15 to 20)
#    0.000    1.400    0.000    8.400    0.000    4.400 
#    0.000    0.000    0.000    4.200    0.000    0.000 
#    0.000    0.000    0.000    0.000    0.000    0.000 
#
# Total GULP energy -223051.434506 kJ/mol
# GULP energy per Si atom -5576.285863 kJ/mol
# Density = 2.121791 g / cm^3
# Si number density = 21.266309 Si / 1000 Ang^3
#
#
#
# Elastic Constant Matrix: (Units=GPa)
#
#
# Indices 1 2 3 4 5 6 
#
# 1 36.2119 0.2208 -0.8224 0.0000 0.0000 0.0000
# 2 0.2208 54.8248 4.1676 0.0000 0.0000 0.0000
# 3 -0.8224 4.1676 87.1112 0.0000 0.0000 0.0000
# 4 0.0000 0.0000 0.0000 21.2427 0.0000 0.0000
# 5 0.0000 0.0000 0.0000 0.0000 18.3390 0.0000
# 6 0.0000 0.0000 0.0000 0.0000 0.0000 33.2032
#
#
#
# Elastic Compliance Matrix: (Units=1/GPa)
#
#
# Indices 1 2 3 4 5 6 
#
# 1 0.027622 -0.000132 0.000267 0.000000 0.000000 0.000000
# 2 -0.000132 0.018307 -0.000877 0.000000 0.000000 0.000000
# 3 0.000267 -0.000877 0.011524 0.000000 0.000000 0.000000
# 4 0.000000 0.000000 0.000000 0.047075 0.000000 0.000000
# 5 0.000000 0.000000 0.000000 0.000000 0.054529 0.000000
# 6 0.000000 0.000000 0.000000 0.000000 0.000000 0.030118
#
#
# Mechanical properties :
#
#
# Convention : Reuss Voigt Hill
#
# Bulk Modulus (GPa) = 17.86664 20.58663 19.22664
# Shear Modulus (GPa) = 23.88754 26.19579 25.04166
#
# Velocity S-wave (km/s) = 3.35514 3.51351 3.43523
# Velocity P-wave (km/s) = 4.84034 5.11479 4.97945
#
# Compressibility (1/GPa) = 0.05597022
#
# Stress axis : x y z
#
# Youngs Moduli (GPa) = 36.20288 54.62351 86.77493
#
# Poissons Ratio (x) = 0.00718 -0.02317
# Poissons Ratio (y) = 0.00476 0.07611
# Poissons Ratio (z) = -0.00967 0.04791
#
# Static dielectric constant tensor:
#      x y z
#    x 1.874090 0.000000 0.000000 
#    y 0.000000 1.823000 0.000000 
#    z 0.000000 0.000000 1.848640 
# 
# From -- ./inp_files/24970.got.cif
#   From: 2010.05.17/outbox.cif.g08.bks.cpg/sg58_13_cif.got.tgz:24970.got - 2010.06.03 14:20:14.
