data_PCOD9444902
_publ_section_title
;
Structure prediction by ZEFSAII (Michael W. Deem and Ramdas Pophale) SiO2 
 PCOD9444902
Probable space group: P N N M
;
_chemical_formula_sum "Si O2"
_cell_formula_units_Z 56
_cell_length_a 15.554008
_cell_length_b 17.089464
_cell_length_c 12.855198
_cell_angle_alpha 90.000000
_cell_angle_beta 90.000000
_cell_angle_gamma 90.000000
_cell_volume 3417.035807
_symmetry_space_group_name_H-M "P N N M"
_symmetry_group_IT_number 58
_symmetry_cell_setting 'orthorhombic'
loop_
_space_group_symop_operation_xyz
x,y,z
-x,-y,z
1/2+x,1/2-y,1/2-z
1/2-x,1/2+y,1/2-z
-x,-y,-z
x,y,-z
1/2-x,1/2+y,1/2+z
1/2+x,1/2-y,1/2+z
loop_
_atom_site_type_symbol
_atom_site_label
_atom_site_fract_x
_atom_site_fract_y
_atom_site_fract_z
Si Si1 0.000000 0.088681 0.125522
Si Si2 0.661175 0.851459 0.748313
Si Si3 0.669038 0.311617 0.373631
Si Si4 0.661175 0.148541 0.748313
Si Si5 0.500000 0.905031 0.122336
Si Si6 0.330962 0.311617 0.373632
Si Si7 0.895710 0.500000 0.122640
O O1 0.085845 0.136063 0.152547
O O2 0.914155 0.136063 0.152547
O O3 0.000000 0.084187 0.000000
O O4 0.000000 0.000000 0.166423
O O5 0.747359 0.847663 0.817322
O O6 0.582245 0.864320 0.826668
O O7 0.656223 0.773570 0.678094
O O8 0.649616 0.924948 0.672395
O O9 0.678150 0.307414 0.500000
O O10 0.656223 0.226430 0.321906
O O11 0.582245 0.135680 0.826669
O O12 0.747359 0.152337 0.817322
O O13 0.649616 0.075052 0.672395
O O14 0.500000 0.000000 0.138934
O O15 0.500000 0.893296 0.000000
O O16 0.321850 0.307414 0.500000
O O17 0.000000 0.500000 0.141373
O O18 0.885041 0.500000 0.000000
#
# Coordination Sequence:
#
# PCOD9444902 Si02
#       7
#     8   8   8   8   8   8   8
#     4   9  19  34  52  77 104 140 184 224 269 308
#     4  11  20  37  55  81 115 146 186 223 284 339
#     4  10  22  36  56  81 111 146 187 237 276 324
#     4  11  20  37  55  81 115 146 186 223 284 339
#     4  11  21  34  54  84 118 146 180 225 284 346
#     4  10  22  36  56  81 111 146 187 237 276 324
#     4  11  22  36  58  85 114 147 183 228 282 341
#
# _framework density 16.388473000000001
#
# number of rings (size 3 to 8) (size 9 to 14) (size 15 to 20)
#    0.000    1.571    2.857    2.571    2.000    0.000 
#    0.000    0.000    0.000    0.000    0.000    1.000 
#    0.000    0.000    0.000    0.000    0.000    0.000 
#
# Total GULP energy -312280.761132 kJ/mol
# GULP energy per Si atom -5576.442163 kJ/mol
# Density = 1.635117 g / cm^3
# Si number density = 16.388473 Si / 1000 Ang^3
#
#
#
# Elastic Constant Matrix: (Units=GPa)
#
#
# Indices 1 2 3 4 5 6 
#
# 1 172.6596 106.2098 79.1419 0.0000 0.0000 0.0000
# 2 106.2098 140.4991 71.4190 0.0000 0.0000 0.0000
# 3 79.1419 71.4190 146.4305 0.0000 0.0000 0.0000
# 4 0.0000 0.0000 0.0000 8.1356 0.0000 0.0000
# 5 0.0000 0.0000 0.0000 0.0000 9.8438 0.0000
# 6 0.0000 0.0000 0.0000 0.0000 0.0000 28.0841
#
#
#
# Elastic Compliance Matrix: (Units=1/GPa)
#
#
# Indices 1 2 3 4 5 6 
#
# 1 0.011544 -0.007386 -0.002637 0.000000 0.000000 0.000000
# 2 -0.007386 0.014190 -0.002929 0.000000 0.000000 0.000000
# 3 -0.002637 -0.002929 0.009683 0.000000 0.000000 0.000000
# 4 0.000000 0.000000 0.000000 0.122917 0.000000 0.000000
# 5 0.000000 0.000000 0.000000 0.000000 0.101587 0.000000
# 6 0.000000 0.000000 0.000000 0.000000 0.000000 0.035607
#
#
# Mechanical properties :
#
#
# Convention : Reuss Voigt Hill
#
# Bulk Modulus (GPa) = 105.11886 108.12561 106.62224
# Shear Modulus (GPa) = 15.40347 22.73394 19.06870
#
# Velocity S-wave (km/s) = 3.06910 3.72854 3.41478
# Velocity P-wave (km/s) = 8.76586 9.20086 8.98600
#
# Compressibility (1/GPa) = 0.00951304
#
# Stress axis : x y z
#
# Youngs Moduli (GPa) = 86.62579 70.47264 103.27732
#
# Poissons Ratio (x) = 0.52053 0.27230
# Poissons Ratio (y) = 0.63985 0.30248
# Poissons Ratio (z) = 0.22840 0.20640
#
# Static dielectric constant tensor:
#      x y z
#    x 1.530320 0.000000 0.000000 
#    y 0.000000 1.543040 0.000000 
#    z 0.000000 0.000000 1.535080 
# 
# From -- ./inp_files/22309.got.cif
#   From: 2010.05.17/outbox.cif.g08.bks.cpg/sg58_12_cif.got.tgz:22309.got - 2010.06.03 14:20:14.
