data_PCOD9444247
_publ_section_title
;
Structure prediction by ZEFSAII (Michael W. Deem and Ramdas Pophale) SiO2 
 PCOD9444247
Probable space group: P N N M
;
_chemical_formula_sum "Si O2"
_cell_formula_units_Z 56
_cell_length_a 9.749366
_cell_length_b 20.945549
_cell_length_c 12.811724
_cell_angle_alpha 90.000000
_cell_angle_beta 90.000000
_cell_angle_gamma 90.000000
_cell_volume 2616.228647
_symmetry_space_group_name_H-M "P N N M"
_symmetry_group_IT_number 58
_symmetry_cell_setting 'orthorhombic'
loop_
_space_group_symop_operation_xyz
x,y,z
-x,-y,z
1/2+x,1/2-y,1/2-z
1/2-x,1/2+y,1/2-z
-x,-y,-z
x,y,-z
1/2-x,1/2+y,1/2+z
1/2+x,1/2-y,1/2+z
loop_
_atom_site_type_symbol
_atom_site_label
_atom_site_fract_x
_atom_site_fract_y
_atom_site_fract_z
Si Si1 0.345264 0.020015 0.879480
Si Si2 0.165614 0.680379 0.884488
Si Si3 0.595910 0.552417 0.682284
Si Si4 0.450821 0.608427 0.115914
Si Si5 0.928886 0.340909 0.338512
Si Si6 0.193662 0.793470 0.611829
Si Si7 0.240335 0.324512 0.657668
O O1 0.347885 0.095800 0.869214
O O2 0.500000 0.000000 0.855363
O O3 0.238947 0.985065 0.804439
O O4 0.314698 0.001803 0.000000
O O5 0.298501 0.635214 0.868448
O O6 0.069816 0.666588 0.786713
O O7 0.212786 0.754672 0.879924
O O8 0.110026 0.667865 0.000000
O O9 0.500000 0.500000 0.624863
O O10 0.512531 0.569264 0.787613
O O11 0.648096 0.619887 0.634145
O O12 0.548275 0.670365 0.111952
O O13 0.458539 0.577977 0.000000
O O14 0.843467 0.280530 0.378165
O O15 0.086113 0.341144 0.377808
O O16 0.261912 0.806277 0.500000
O O17 0.264783 0.817727 0.716310
#
# Coordination Sequence:
#
# PCOD9444247 Si02
#       7
#     8   8   8   8   8   8   8
#     4  11  24  41  62  87 120 166 210 249 300 364
#     4  10  21  37  62  94 123 154 199 254 318 380
#     4  11  23  41  62  88 125 166 211 256 295 357
#     4   9  18  36  63  90 115 152 202 256 312 369
#     4  11  20  37  61  85 119 160 201 249 310 365
#     4   9  18  33  57  85 113 147 194 250 308 364
#     4  10  21  36  60  88 123 160 199 253 308 363
#
# _framework density 21.404857
#
# number of rings (size 3 to 8) (size 9 to 14) (size 15 to 20)
#    0.000    1.857    2.857    1.286    0.000    2.286 
#    0.000    0.714    0.000    0.857    0.000    0.000 
#    0.000    0.000    0.000    0.000    0.000    0.000 
#
# Total GULP energy -312456.708265 kJ/mol
# GULP energy per Si atom -5579.584076 kJ/mol
# Density = 2.135614 g / cm^3
# Si number density = 21.404857 Si / 1000 Ang^3
#
#
#
# Elastic Constant Matrix: (Units=GPa)
#
#
# Indices 1 2 3 4 5 6 
#
# 1 80.4905 21.6606 24.2390 0.0000 0.0000 0.0000
# 2 21.6606 106.1475 4.6946 0.0000 0.0000 0.0000
# 3 24.2390 4.6946 110.7439 0.0000 0.0000 0.0000
# 4 0.0000 0.0000 0.0000 -4.5148 0.0000 0.0000
# 5 0.0000 0.0000 0.0000 0.0000 5149.6893 0.0000
# 6 0.0000 0.0000 0.0000 0.0000 0.0000 16.5464
#
#
#
# Elastic Compliance Matrix: (Units=1/GPa)
#
#
# Indices 1 2 3 4 5 6 
#
# 1 0.014051 -0.002736 -0.002960 0.000000 0.000000 0.000000
# 2 -0.002736 0.009971 0.000176 0.000000 0.000000 0.000000
# 3 -0.002960 0.000176 0.009670 0.000000 0.000000 0.000000
# 4 0.000000 0.000000 0.000000 -0.221492 0.000000 0.000000
# 5 0.000000 0.000000 0.000000 0.000000 0.000194 0.000000
# 6 0.000000 0.000000 0.000000 0.000000 0.000000 0.060436
#
#
# Mechanical properties :
#
#
# Convention : Reuss Voigt Hill
#
# Bulk Modulus (GPa) = 44.14312 44.28560 44.21436
# Shear Modulus (GPa) = -46.04977 1048.79669 501.37346
#
# Velocity S-wave (km/s) = -4.64332 22.15952 15.32129
# Velocity P-wave (km/s) = 2.84244 25.98962 18.26719
#
# Compressibility (1/GPa) = 0.02265359
#
# Stress axis : x y z
#
# Youngs Moduli (GPa) = 71.16701 100.28616 103.41119
#
# Poissons Ratio (x) = 0.27443 0.30605
# Poissons Ratio (y) = 0.19475 -0.01822
# Poissons Ratio (z) = 0.21062 -0.01767
#
# Static dielectric constant tensor:
#      x y z
#    x 1.754480 0.000000 0.000000 
#    y 0.000000 1.799180 0.000000 
#    z 0.000000 0.000000 1.820470 
# 
# From -- ./inp_files/20099.got.cif
#   From: 2010.05.17/outbox.cif.g08.bks.cpg/sg58_11_cif.got.tgz:20099.got - 2010.06.03 14:20:14.
