data_PCOD9444171
_publ_section_title
;
Structure prediction by ZEFSAII (Michael W. Deem and Ramdas Pophale) SiO2 
 PCOD9444171
Probable space group: P N N M
;
_chemical_formula_sum "Si O2"
_cell_formula_units_Z 40
_cell_length_a 12.684147
_cell_length_b 17.540168
_cell_length_c 7.336051
_cell_angle_alpha 90.000000
_cell_angle_beta 90.000000
_cell_angle_gamma 90.000000
_cell_volume 1632.139807
_symmetry_space_group_name_H-M "P N N M"
_symmetry_group_IT_number 58
_symmetry_cell_setting 'orthorhombic'
loop_
_space_group_symop_operation_xyz
x,y,z
-x,-y,z
1/2+x,1/2-y,1/2-z
1/2-x,1/2+y,1/2-z
-x,-y,-z
x,y,-z
1/2-x,1/2+y,1/2+z
1/2+x,1/2-y,1/2+z
loop_
_atom_site_type_symbol
_atom_site_label
_atom_site_fract_x
_atom_site_fract_y
_atom_site_fract_z
Si Si1 0.042553 0.582133 0.709406
Si Si2 0.358949 0.440629 0.779389
Si Si3 0.074186 0.110258 0.720263
Si Si4 0.174760 0.346415 0.220891
Si Si5 0.220017 0.695832 0.704990
O O1 0.071539 0.564846 0.500000
O O2 0.141954 0.631204 0.786535
O O3 0.000000 0.500000 0.786896
O O4 0.943657 0.640573 0.715017
O O5 0.452689 0.383698 0.722599
O O6 0.391066 0.525104 0.728656
O O7 0.242109 0.420175 0.723663
O O8 0.360591 0.438674 0.000000
O O9 0.079670 0.118339 0.500000
O O10 0.161844 0.163111 0.802678
O O11 0.250140 0.277786 0.287506
O O12 0.169672 0.340548 0.000000
O O13 0.178151 0.710245 0.500000
#
# Coordination Sequence:
#
# PCOD9444171 Si02
#       5
#     8   8   8   8   8
#     4  10  22  40  60  83 114 152 190 229 280 339
#     4   8  16  32  54  80 105 135 177 225 270 317
#     4   9  17  32  57  81 102 136 183 222 263 327
#     4  10  21  36  55  79 111 146 183 228 277 326
#     4  10  22  36  52  79 115 146 177 226 282 325
#
# _framework density 24.507702999999999
#
# number of rings (size 3 to 8) (size 9 to 14) (size 15 to 20)
#    0.000    2.600    0.000    2.400    2.800    2.000 
#    0.000    3.000    0.000    0.000    0.000    0.000 
#    0.000    0.000    0.000    0.000    0.000    0.000 
#
# Total GULP energy -222988.718671 kJ/mol
# GULP energy per Si atom -5574.717967 kJ/mol
# Density = 2.445192 g / cm^3
# Si number density = 24.507703 Si / 1000 Ang^3
#
#
#
# Elastic Constant Matrix: (Units=GPa)
#
#
# Indices 1 2 3 4 5 6 
#
# 1 82.1023 6.4523 -4.1167 0.0000 0.0000 0.0000
# 2 6.4523 63.6164 1.1459 0.0000 0.0000 0.0000
# 3 -4.1167 1.1459 95.2484 0.0000 0.0000 0.0000
# 4 0.0000 0.0000 0.0000 3.9603 0.0000 0.0000
# 5 0.0000 0.0000 0.0000 0.0000 26.4263 0.0000
# 6 0.0000 0.0000 0.0000 0.0000 0.0000 52.2372
#
#
#
# Elastic Compliance Matrix: (Units=1/GPa)
#
#
# Indices 1 2 3 4 5 6 
#
# 1 0.012306 -0.001258 0.000547 0.000000 0.000000 0.000000
# 2 -0.001258 0.015851 -0.000245 0.000000 0.000000 0.000000
# 3 0.000547 -0.000245 0.010525 0.000000 0.000000 0.000000
# 4 0.000000 0.000000 0.000000 0.252505 0.000000 0.000000
# 5 0.000000 0.000000 0.000000 0.000000 0.037841 0.000000
# 6 0.000000 0.000000 0.000000 0.000000 0.000000 0.019143
#
#
# Mechanical properties :
#
#
# Convention : Reuss Voigt Hill
#
# Bulk Modulus (GPa) = 27.19551 27.54778 27.37165
# Shear Modulus (GPa) = 13.79913 32.35714 23.07813
#
# Velocity S-wave (km/s) = 2.37545 3.63751 3.07199
# Velocity P-wave (km/s) = 4.31793 5.37651 4.87603
#
# Compressibility (1/GPa) = 0.03677077
#
# Stress axis : x y z
#
# Youngs Moduli (GPa) = 81.25974 63.08660 95.00774
#
# Poissons Ratio (x) = 0.07936 -0.05197
# Poissons Ratio (y) = 0.10223 0.02328
# Poissons Ratio (z) = -0.04445 0.01546
#
# Static dielectric constant tensor:
#      x y z
#    x 1.927920 0.000000 0.000000 
#    y 0.000000 2.052960 0.000000 
#    z 0.000000 0.000000 1.996080 
# 
# From -- ./inp_files/3799.got.cif
#   From: 2010.05.17/outbox.cif.g08.bks.cpg/sg58_2_cif.got.tgz:3799.got - 2010.06.03 14:20:14.
