data_PCOD9444632
_publ_section_title
;
Structure prediction by ZEFSAII (Michael W. Deem and Ramdas Pophale) SiO2 
 PCOD9444632
Probable space group: P N N M
;
_chemical_formula_sum "Si O2"
_cell_formula_units_Z 48
_cell_length_a 15.223769
_cell_length_b 19.112534
_cell_length_c 8.765683
_cell_angle_alpha 90.000000
_cell_angle_beta 90.000000
_cell_angle_gamma 90.000000
_cell_volume 2550.505224
_symmetry_space_group_name_H-M "P N N M"
_symmetry_group_IT_number 58
_symmetry_cell_setting 'orthorhombic'
loop_
_space_group_symop_operation_xyz
x,y,z
-x,-y,z
1/2+x,1/2-y,1/2-z
1/2-x,1/2+y,1/2-z
-x,-y,-z
x,y,-z
1/2-x,1/2+y,1/2+z
1/2+x,1/2-y,1/2+z
loop_
_atom_site_type_symbol
_atom_site_label
_atom_site_fract_x
_atom_site_fract_y
_atom_site_fract_z
Si Si1 0.112315 0.926587 0.682511
Si Si2 0.246807 0.322075 0.681148
Si Si3 0.748659 0.330053 0.320007
Si Si4 0.392890 0.067313 0.681727
Si Si5 0.592670 0.411445 0.817563
Si Si6 0.082339 0.416699 0.317461
O O1 0.125780 0.919490 0.500000
O O2 0.179772 0.877984 0.770283
O O3 0.011069 0.906450 0.714777
O O4 0.121520 0.008914 0.719517
O O5 0.250674 0.309812 0.500000
O O6 0.259963 0.249586 0.767771
O O7 0.152427 0.356591 0.717312
O O8 0.761094 0.336639 0.500000
O O9 0.818305 0.379714 0.235276
O O10 0.652659 0.357289 0.271205
O O11 0.392364 0.059657 0.500000
O O12 0.488362 0.093328 0.738106
O O13 0.381271 0.991068 0.757794
O O14 0.604252 0.402043 0.000000
O O15 0.070339 0.420684 0.500000
#
# Coordination Sequence:
#
# PCOD9444632 Si02
#       6
#     8   8   8   8   8   8
#     4   9  19  37  62  88 115 149 186 228 279 336
#     4  11  24  39  57  83 116 153 190 233 283 337
#     4  12  25  39  57  82 115 154 192 235 286 338
#     4  11  22  38  62  88 115 149 191 237 284 338
#     4   9  19  38  62  87 115 148 187 230 279 336
#     4  10  21  39  62  88 117 149 190 237 285 337
#
# _framework density 18.819800000000001
#
# number of rings (size 3 to 8) (size 9 to 14) (size 15 to 20)
#    0.000    1.667    0.000    7.000    0.000    8.000 
#    0.000    3.333    0.000    0.000    0.000    0.000 
#    0.000    0.000    0.000    0.000    0.000    0.000 
#
# Total GULP energy -268354.962603 kJ/mol
# GULP energy per Si atom -5590.728388 kJ/mol
# Density = 1.877697 g / cm^3
# Si number density = 18.819800 Si / 1000 Ang^3
#
#
#
# Elastic Constant Matrix: (Units=GPa)
#
#
# Indices 1 2 3 4 5 6 
#
# 1 23.6683 5.1535 8.1259 0.0000 0.0000 0.0000
# 2 5.1535 15.6843 4.8871 0.0000 0.0000 0.0000
# 3 8.1259 4.8871 50.8796 0.0000 0.0000 0.0000
# 4 0.0000 0.0000 0.0000 51.6594 0.0000 0.0000
# 5 0.0000 0.0000 0.0000 0.0000 -30.5618 0.0000
# 6 0.0000 0.0000 0.0000 0.0000 0.0000 -4.2280
#
#
#
# Elastic Compliance Matrix: (Units=1/GPa)
#
#
# Indices 1 2 3 4 5 6 
#
# 1 0.047363 -0.013613 -0.006257 0.000000 0.000000 0.000000
# 2 -0.013613 0.069638 -0.004515 0.000000 0.000000 0.000000
# 3 -0.006257 -0.004515 0.021087 0.000000 0.000000 0.000000
# 4 0.000000 0.000000 0.000000 0.019358 0.000000 0.000000
# 5 0.000000 0.000000 0.000000 0.000000 -0.032721 0.000000
# 6 0.000000 0.000000 0.000000 0.000000 0.000000 -0.236516
#
#
# Mechanical properties :
#
#
# Convention : Reuss Voigt Hill
#
# Bulk Modulus (GPa) = 11.19582 14.06280 12.62931
# Shear Modulus (GPa) = -150.37369 8.17829 -71.09770
#
# Velocity S-wave (km/s) = -8.94848 2.08687 -6.15306
# Velocity P-wave (km/s) = 10.04018 3.64626 6.61475
#
# Compressibility (1/GPa) = 0.08931907
#
# Stress axis : x y z
#
# Youngs Moduli (GPa) = 21.11371 14.36004 47.42225
#
# Poissons Ratio (x) = 0.19548 0.29671
# Poissons Ratio (y) = 0.28742 0.21410
# Poissons Ratio (z) = 0.13210 0.06483
#
# Static dielectric constant tensor:
#      x y z
#    x 1.642660 0.000000 0.000000 
#    y 0.000000 1.621450 0.000000 
#    z 0.000000 0.000000 1.629830 
# 
# From -- ./inp_files/5820.got.cif
#   From: 2010.05.17/outbox.cif.g08.bks.cpg/sg58_3_cif.got.tgz:5820.got - 2010.06.03 14:20:14.
