data_PCOD9444409
_publ_section_title
;
Structure prediction by ZEFSAII (Michael W. Deem and Ramdas Pophale) SiO2 
 PCOD9444409
Probable space group: P N N M
;
_chemical_formula_sum "Si O2"
_cell_formula_units_Z 64
_cell_length_a 10.880640
_cell_length_b 32.965312
_cell_length_c 8.414313
_cell_angle_alpha 90.000000
_cell_angle_beta 90.000000
_cell_angle_gamma 90.000000
_cell_volume 3018.076856
_symmetry_space_group_name_H-M "P N N M"
_symmetry_group_IT_number 58
_symmetry_cell_setting 'orthorhombic'
loop_
_space_group_symop_operation_xyz
x,y,z
-x,-y,z
1/2+x,1/2-y,1/2-z
1/2-x,1/2+y,1/2-z
-x,-y,-z
x,y,-z
1/2-x,1/2+y,1/2+z
1/2+x,1/2-y,1/2+z
loop_
_atom_site_type_symbol
_atom_site_label
_atom_site_fract_x
_atom_site_fract_y
_atom_site_fract_z
Si Si1 0.545848 0.711261 0.684222
Si Si2 0.280199 0.828353 0.320007
Si Si3 0.983180 0.298628 0.679613
Si Si4 0.101293 0.134432 0.188298
Si Si5 0.855536 0.090693 0.688078
Si Si6 0.896653 0.467330 0.692074
Si Si7 0.859865 0.003749 0.187444
Si Si8 0.365395 0.119918 0.685580
O O1 0.578802 0.703655 0.500000
O O2 0.652708 0.694911 0.796989
O O3 0.530869 0.758565 0.714944
O O4 0.428344 0.682239 0.715220
O O5 0.326766 0.822763 0.500000
O O6 0.375447 0.811322 0.195390
O O7 0.248991 0.875351 0.294417
O O8 0.947989 0.288606 0.500000
O O9 0.911770 0.338457 0.736282
O O10 0.219869 0.119634 0.280933
O O11 0.981264 0.110005 0.244589
O O12 0.120082 0.127943 0.000000
O O13 0.869588 0.082255 0.500000
O O14 0.826175 0.050403 0.783629
O O15 0.894401 0.468918 0.500000
O O16 0.757841 0.478729 0.750079
O O17 0.922334 0.421281 0.743915
O O18 0.000000 0.500000 0.745321
O O19 0.868787 0.993976 0.000000
O O20 0.000000 0.000000 0.253674
O O21 0.391969 0.121325 0.500000
#
# Coordination Sequence:
#
# PCOD9444409 Si02
#       8
#     8   8   8   8   8   8   8   8
#     4  10  22  41  65  94 125 163 209 260 316 373
#     4  10  22  41  62  90 127 162 205 256 311 374
#     4  12  26  42  64  90 124 168 213 261 313 375
#     4  10  21  40  66  94 129 169 210 256 313 378
#     4  10  21  37  62  94 127 162 203 257 315 368
#     4  10  23  43  65  93 128 169 215 265 324 392
#     4  10  21  37  61  91 124 164 210 262 316 382
#     4  12  26  43  65  93 128 167 212 262 318 382
#
# _framework density 21.205555
#
# number of rings (size 3 to 8) (size 9 to 14) (size 15 to 20)
#    0.000    1.500    0.000    4.500    3.500    5.000 
#    0.000    0.000    0.000    0.000    0.000    0.000 
#    0.000    0.000    0.000    0.000    0.000    0.000 
#
# Total GULP energy -357609.437961 kJ/mol
# GULP energy per Si atom -5587.647468 kJ/mol
# Density = 2.115729 g / cm^3
# Si number density = 21.205555 Si / 1000 Ang^3
#
#
#
# Elastic Constant Matrix: (Units=GPa)
#
#
# Indices 1 2 3 4 5 6 
#
# 1 44.5274 17.4920 4.9671 0.0000 0.0000 0.0000
# 2 17.4920 92.2198 -4.9800 0.0000 0.0000 0.0000
# 3 4.9671 -4.9800 27.2211 0.0000 0.0000 0.0000
# 4 0.0000 0.0000 0.0000 31.4667 0.0000 0.0000
# 5 0.0000 0.0000 0.0000 0.0000 29.1331 0.0000
# 6 0.0000 0.0000 0.0000 0.0000 0.0000 16.4027
#
#
#
# Elastic Compliance Matrix: (Units=1/GPa)
#
#
# Indices 1 2 3 4 5 6 
#
# 1 0.025055 -0.005049 -0.005495 0.000000 0.000000 0.000000
# 2 -0.005049 0.011969 0.003111 0.000000 0.000000 0.000000
# 3 -0.005495 0.003111 0.038308 0.000000 0.000000 0.000000
# 4 0.000000 0.000000 0.000000 0.031780 0.000000 0.000000
# 5 0.000000 0.000000 0.000000 0.000000 0.034325 0.000000
# 6 0.000000 0.000000 0.000000 0.000000 0.000000 0.060965
#
#
# Mechanical properties :
#
#
# Convention : Reuss Voigt Hill
#
# Bulk Modulus (GPa) = 16.53843 22.10293 19.32068
# Shear Modulus (GPa) = 21.05933 25.16643 23.11288
#
# Velocity S-wave (km/s) = 3.15477 3.44871 3.30501
# Velocity P-wave (km/s) = 4.59197 5.12874 4.86776
#
# Compressibility (1/GPa) = 0.06046522
#
# Stress axis : x y z
#
# Youngs Moduli (GPa) = 39.91288 83.54670 26.10407
#
# Poissons Ratio (x) = 0.42183 0.14345
# Poissons Ratio (y) = 0.20152 -0.08121
# Poissons Ratio (z) = 0.21934 -0.25992
#
# Static dielectric constant tensor:
#      x y z
#    x 1.798170 0.000000 0.000000 
#    y 0.000000 1.771650 0.000000 
#    z 0.000000 0.000000 1.716880 
# 
# From -- ./inp_files/4799.got.cif
#   From: 2010.05.17/outbox.cif.g08.bks.cpg/sg58_3_cif.got.tgz:4799.got - 2010.06.03 14:20:14.
