data_PCOD9444104
_publ_section_title
;
Structure prediction by ZEFSAII (Michael W. Deem and Ramdas Pophale) SiO2 
 PCOD9444104
Probable space group: P N N M
;
_chemical_formula_sum "Si O2"
_cell_formula_units_Z 64
_cell_length_a 9.128167
_cell_length_b 24.818282
_cell_length_c 14.200361
_cell_angle_alpha 90.000000
_cell_angle_beta 90.000000
_cell_angle_gamma 90.000000
_cell_volume 3217.026786
_symmetry_space_group_name_H-M "P N N M"
_symmetry_group_IT_number 58
_symmetry_cell_setting 'orthorhombic'
loop_
_space_group_symop_operation_xyz
x,y,z
-x,-y,z
1/2+x,1/2-y,1/2-z
1/2-x,1/2+y,1/2-z
-x,-y,-z
x,y,-z
1/2-x,1/2+y,1/2+z
1/2+x,1/2-y,1/2+z
loop_
_atom_site_type_symbol
_atom_site_label
_atom_site_fract_x
_atom_site_fract_y
_atom_site_fract_z
Si Si1 0.625822 0.206158 0.223743
Si Si2 0.117419 0.958109 0.890221
Si Si3 0.062804 0.440879 0.394821
Si Si4 0.881327 0.165646 0.106142
Si Si5 0.785706 0.146272 0.387342
Si Si6 0.873719 0.370234 0.256813
Si Si7 0.539636 0.060885 0.387959
Si Si8 0.068788 0.176325 0.275337
O O1 0.718681 0.170591 0.149117
O O2 0.699444 0.191039 0.324507
O O3 0.459528 0.185908 0.229588
O O4 0.633446 0.267239 0.188731
O O5 0.279106 0.951766 0.847142
O O6 0.065281 0.896448 0.891604
O O7 0.141052 0.975374 0.000000
O O8 0.000000 0.000000 0.849418
O O9 0.087086 0.417366 0.500000
O O10 0.000000 0.500000 0.404926
O O11 0.944565 0.407070 0.337715
O O12 0.984020 0.194628 0.180786
O O13 0.887313 0.185360 0.000000
O O14 0.785139 0.156109 0.500000
O O15 0.698199 0.089696 0.370150
O O16 0.949367 0.149053 0.343877
O O17 0.701918 0.361898 0.252866
O O18 0.927337 0.398623 0.161470
O O19 0.521476 0.060835 0.500000
O O20 0.500000 0.000000 0.354671
#
# Coordination Sequence:
#
# PCOD9444104 Si02
#       8
#     8   8   8   8   8   8   8   8
#     4  10  21  41  61  80 115 158 205 255 293 345
#     4   9  18  34  56  80 112 153 193 235 287 348
#     4  10  21  35  54  84 120 154 192 235 284 354
#     4  10  21  39  59  83 116 156 199 243 296 356
#     4   9  20  40  63  86 117 156 201 252 305 359
#     4  11  21  36  59  86 118 156 198 242 302 364
#     4   9  19  39  65  87 111 150 199 251 302 356
#     4  11  24  38  56  89 124 156 199 255 304 351
#
# _framework density 19.894145999999999
#
# number of rings (size 3 to 8) (size 9 to 14) (size 15 to 20)
#    0.000    2.125    1.250    1.875    1.750    2.000 
#    0.000    4.375    0.000    2.250    0.000    0.000 
#    0.000    0.000    0.000    0.000    0.000    0.000 
#
# Total GULP energy -356516.653402 kJ/mol
# GULP energy per Si atom -5570.572709 kJ/mol
# Density = 1.984887 g / cm^3
# Si number density = 19.894146 Si / 1000 Ang^3
#
#
#
# Elastic Constant Matrix: (Units=GPa)
#
#
# Indices 1 2 3 4 5 6 
#
# 1 119.2398 36.2973 39.5106 0.0000 0.0000 0.0000
# 2 36.2973 82.7742 18.7793 0.0000 0.0000 0.0000
# 3 39.5106 18.7793 96.8660 0.0000 0.0000 0.0000
# 4 0.0000 0.0000 0.0000 -13.0021 0.0000 0.0000
# 5 0.0000 0.0000 0.0000 0.0000 41.9310 0.0000
# 6 0.0000 0.0000 0.0000 0.0000 0.0000 30.0432
#
#
#
# Elastic Compliance Matrix: (Units=1/GPa)
#
#
# Indices 1 2 3 4 5 6 
#
# 1 0.010780 -0.003901 -0.003641 0.000000 0.000000 0.000000
# 2 -0.003901 0.014049 -0.001132 0.000000 0.000000 0.000000
# 3 -0.003641 -0.001132 0.012028 0.000000 0.000000 0.000000
# 4 0.000000 0.000000 0.000000 -0.076911 0.000000 0.000000
# 5 0.000000 0.000000 0.000000 0.000000 0.023849 0.000000
# 6 0.000000 0.000000 0.000000 0.000000 0.000000 0.033285
#
#
# Mechanical properties :
#
#
# Convention : Reuss Voigt Hill
#
# Bulk Modulus (GPa) = 51.26027 54.22829 52.74428
# Shear Modulus (GPa) = 122.15226 25.41395 73.78310
#
# Velocity S-wave (km/s) = 7.84439 3.57803 6.09659
# Velocity P-wave (km/s) = 10.38597 6.66238 8.72513
#
# Compressibility (1/GPa) = 0.01950828
#
# Stress axis : x y z
#
# Youngs Moduli (GPa) = 92.76033 71.18092 83.13839
#
# Poissons Ratio (x) = 0.27770 0.30270
# Poissons Ratio (y) = 0.36189 0.09414
# Poissons Ratio (z) = 0.33773 0.08060
#
# Static dielectric constant tensor:
#      x y z
#    x 1.732030 0.000000 0.000000 
#    y 0.000000 1.762500 0.000000 
#    z 0.000000 0.000000 1.729400 
# 
# From -- ./inp_files/20298.got.cif
#   From: 2010.05.17/outbox.cif.g08.bks.cpg/sg58_11_cif.got.tgz:20298.got - 2010.06.03 14:20:14.
