data_PCOD9444343
_publ_section_title
;
Structure prediction by ZEFSAII (Michael W. Deem and Ramdas Pophale) SiO2 
 PCOD9444343
Probable space group: P N N M
;
_chemical_formula_sum "Si O2"
_cell_formula_units_Z 58
_cell_length_a 29.627806
_cell_length_b 12.322672
_cell_length_c 8.732269
_cell_angle_alpha 90.000000
_cell_angle_beta 90.000000
_cell_angle_gamma 90.000000
_cell_volume 3188.096708
_symmetry_space_group_name_H-M "P N N M"
_symmetry_group_IT_number 58
_symmetry_cell_setting 'orthorhombic'
loop_
_space_group_symop_operation_xyz
x,y,z
-x,-y,z
1/2+x,1/2-y,1/2-z
1/2-x,1/2+y,1/2-z
-x,-y,-z
x,y,-z
1/2-x,1/2+y,1/2+z
1/2+x,1/2-y,1/2+z
loop_
_atom_site_type_symbol
_atom_site_label
_atom_site_fract_x
_atom_site_fract_y
_atom_site_fract_z
Si Si1 0.419705 0.805772 0.318082
Si Si2 0.636479 0.003393 0.815761
Si Si3 0.222240 0.353291 0.315727
Si Si4 0.318533 0.422260 0.184411
Si Si5 0.010393 0.775812 0.330399
Si Si6 0.834367 0.839946 0.183937
Si Si7 0.111335 0.736943 0.312910
Si Si8 0.000000 0.000000 0.500000
O O1 0.418211 0.816170 0.500000
O O2 0.468621 0.768712 0.264110
O O3 0.382152 0.715541 0.272751
O O4 0.402608 0.918004 0.245487
O O5 0.630151 0.879915 0.764080
O O6 0.684149 0.057754 0.770876
O O7 0.634882 0.004361 0.000000
O O8 0.224710 0.349460 0.500000
O O9 0.270100 0.384725 0.246185
O O10 0.203943 0.239221 0.251516
O O11 0.330043 0.540547 0.248775
O O12 0.356165 0.334858 0.234143
O O13 0.317787 0.425995 0.000000
O O14 0.008593 0.721594 0.500000
O O15 0.059739 0.753514 0.262820
O O16 0.005249 0.903403 0.369110
O O17 0.830749 0.842599 0.000000
O O18 0.110662 0.739309 0.500000
#
# Coordination Sequence:
#
# PCOD9444343 Si02
#       8
#     8   8   8   8   8   8   8   2
#     4  10  21  37  58  86 115 151 191 242 296 343
#     4   9  19  38  61  82 111 152 194 236 284 347
#     4  10  21  38  59  85 112 149 194 240 294 354
#     4  11  23  36  60  87 117 152 190 242 300 356
#     4   9  19  35  59  84 111 152 196 236 283 341
#     4  10  22  39  58  81 114 150 196 242 284 349
#     4   9  20  37  57  85 115 151 193 237 287 350
#     4   8  20  32  62  82 112 156 190 252 270 340
#
# _framework density 18.192672999999999
#
# number of rings (size 3 to 8) (size 9 to 14) (size 15 to 20)
#    0.414    1.931    0.000    1.655    3.862    2.759 
#    0.000    6.552    0.000    0.000    0.000    0.000 
#    0.000    0.000    0.000    0.000    0.000    0.000 
#
# Total GULP energy -323006.145258 kJ/mol
# GULP energy per Si atom -5569.071470 kJ/mol
# Density = 1.815127 g / cm^3
# Si number density = 18.192673 Si / 1000 Ang^3
#
#
#
# Elastic Constant Matrix: (Units=GPa)
#
#
# Indices 1 2 3 4 5 6 
#
# 1 106.2598 70.4129 25.3738 0.0000 0.0000 0.0000
# 2 70.4129 162.9462 33.4893 0.0000 0.0000 0.0000
# 3 25.3738 33.4893 32.1606 0.0000 0.0000 0.0000
# 4 0.0000 0.0000 0.0000 12.6255 0.0000 0.0000
# 5 0.0000 0.0000 0.0000 0.0000 25.2195 0.0000
# 6 0.0000 0.0000 0.0000 0.0000 0.0000 8.9842
#
#
#
# Elastic Compliance Matrix: (Units=1/GPa)
#
#
# Indices 1 2 3 4 5 6 
#
# 1 0.014059 -0.004829 -0.006063 0.000000 0.000000 0.000000
# 2 -0.004829 0.009467 -0.006048 0.000000 0.000000 0.000000
# 3 -0.006063 -0.006048 0.042176 0.000000 0.000000 0.000000
# 4 0.000000 0.000000 0.000000 0.079205 0.000000 0.000000
# 5 0.000000 0.000000 0.000000 0.000000 0.039652 0.000000
# 6 0.000000 0.000000 0.000000 0.000000 0.000000 0.111306
#
#
# Mechanical properties :
#
#
# Convention : Reuss Voigt Hill
#
# Bulk Modulus (GPa) = 31.42643 62.21319 46.81981
# Shear Modulus (GPa) = 14.69072 20.83856 17.76464
#
# Velocity S-wave (km/s) = 2.84475 3.38810 3.12825
# Velocity P-wave (km/s) = 5.30112 7.04107 6.23212
#
# Compressibility (1/GPa) = 0.03182035
#
# Stress axis : x y z
#
# Youngs Moduli (GPa) = 71.13057 105.63381 23.71039
#
# Poissons Ratio (x) = 0.51009 0.14377
# Poissons Ratio (y) = 0.34348 0.14340
# Poissons Ratio (z) = 0.43130 0.63887
#
# Static dielectric constant tensor:
#      x y z
#    x 1.616890 0.000000 0.000000 
#    y 0.000000 1.602320 0.000000 
#    z 0.000000 0.000000 1.621130 
# 
# From -- ./inp_files/10902.got.cif
#   From: 2010.05.17/outbox.cif.g08.bks.cpg/sg58_6_cif.got.tgz:10902.got - 2010.06.03 14:20:14.
