data_PCOD9444131
_publ_section_title
;
Structure prediction by ZEFSAII (Michael W. Deem and Ramdas Pophale) SiO2 
 PCOD9444131
Probable space group: P N N M
;
_chemical_formula_sum "Si O2"
_cell_formula_units_Z 40
_cell_length_a 8.201980
_cell_length_b 7.452876
_cell_length_c 26.341955
_cell_angle_alpha 90.000000
_cell_angle_beta 90.000000
_cell_angle_gamma 90.000000
_cell_volume 1610.239979
_symmetry_space_group_name_H-M "P N N M"
_symmetry_group_IT_number 58
_symmetry_cell_setting 'orthorhombic'
loop_
_space_group_symop_operation_xyz
x,y,z
-x,-y,z
1/2+x,1/2-y,1/2-z
1/2-x,1/2+y,1/2-z
-x,-y,-z
x,y,-z
1/2-x,1/2+y,1/2+z
1/2+x,1/2-y,1/2+z
loop_
_atom_site_type_symbol
_atom_site_label
_atom_site_fract_x
_atom_site_fract_y
_atom_site_fract_z
Si Si1 0.519867 0.210406 0.758552
Si Si2 0.724427 0.178940 0.446309
Si Si3 0.161451 0.884273 0.652811
Si Si4 0.838205 0.254507 0.055545
Si Si5 0.328644 0.235519 0.331688
O O1 0.378587 0.290562 0.794696
O O2 0.487184 0.285505 0.701755
O O3 0.679800 0.240530 0.792319
O O4 0.500000 0.000000 0.754840
O O5 0.796574 0.237848 0.500000
O O6 0.809187 0.241491 0.395141
O O7 0.534953 0.231733 0.444828
O O8 0.727993 0.960138 0.445822
O O9 0.311843 0.021397 0.657858
O O10 0.000000 0.000000 0.640746
O O11 0.802532 0.180597 0.112338
O O12 0.792146 0.173104 0.000000
#
# Coordination Sequence:
#
# PCOD9444131 Si02
#       5
#     8   8   8   8   8
#     4  11  23  36  53  80 112 146 179 214 267 318
#     4   8  14  26  50  80 104 134 173 224 273 312
#     4   9  19  34  50  77 112 139 179 220 263 322
#     4   8  15  28  51  80 105 131 174 224 275 316
#     4  10  21  35  58  81 107 143 175 224 268 316
#
# _framework density 24.841016
#
# number of rings (size 3 to 8) (size 9 to 14) (size 15 to 20)
#    0.000    2.800    0.000    2.400    8.400    0.400 
#    0.000    3.000    0.000    2.400    0.000    2.800 
#    0.000    0.000    0.000    0.000    0.000    0.000 
#
# Total GULP energy -223005.940709 kJ/mol
# GULP energy per Si atom -5575.148518 kJ/mol
# Density = 2.478448 g / cm^3
# Si number density = 24.841016 Si / 1000 Ang^3
#
#
#
# Elastic Constant Matrix: (Units=GPa)
#
#
# Indices 1 2 3 4 5 6 
#
# 1 48.6504 -2.9866 56.3227 0.0000 0.0000 0.0000
# 2 -2.9866 44.9445 16.8075 0.0000 0.0000 0.0000
# 3 56.3227 16.8075 291.5166 0.0000 0.0000 0.0000
# 4 0.0000 0.0000 0.0000 6.7821 0.0000 0.0000
# 5 0.0000 0.0000 0.0000 0.0000 36.4550 0.0000
# 6 0.0000 0.0000 0.0000 0.0000 0.0000 11.2752
#
#
#
# Elastic Compliance Matrix: (Units=1/GPa)
#
#
# Indices 1 2 3 4 5 6 
#
# 1 0.027111 0.003843 -0.005460 0.000000 0.000000 0.000000
# 2 0.003843 0.023285 -0.002085 0.000000 0.000000 0.000000
# 3 -0.005460 -0.002085 0.004605 0.000000 0.000000 0.000000
# 4 0.000000 0.000000 0.000000 0.147446 0.000000 0.000000
# 5 0.000000 0.000000 0.000000 0.000000 0.027431 0.000000
# 6 0.000000 0.000000 0.000000 0.000000 0.000000 0.088690
#
#
# Mechanical properties :
#
#
# Convention : Reuss Voigt Hill
#
# Bulk Modulus (GPa) = 21.00896 58.37763 39.69329
# Shear Modulus (GPa) = 14.62681 31.90033 23.26357
#
# Velocity S-wave (km/s) = 2.42919 3.58743 3.06355
# Velocity P-wave (km/s) = 4.04273 6.38052 5.34110
#
# Compressibility (1/GPa) = 0.04759874
#
# Stress axis : x y z
#
# Youngs Moduli (GPa) = 36.88481 42.94652 217.13688
#
# Poissons Ratio (x) = -0.16506 1.18550
# Poissons Ratio (y) = -0.14176 0.45274
# Poissons Ratio (z) = 0.20138 0.08955
#
# Static dielectric constant tensor:
#      x y z
#    x 2.041860 0.000000 0.000000 
#    y 0.000000 1.986000 0.000000 
#    z 0.000000 0.000000 2.106490 
# 
# From -- ./inp_files/33149.got.cif
#   From: 2010.05.17/outbox.cif.g08.bks.cpg/sg58_17_cif.got.tgz:33149.got - 2010.06.03 14:20:14.
