data_PCOD9444971
_publ_section_title
;
Structure prediction by ZEFSAII (Michael W. Deem and Ramdas Pophale) SiO2 
 PCOD9444971
Probable space group: P N N M
;
_chemical_formula_sum "Si O2"
_cell_formula_units_Z 58
_cell_length_a 9.354760
_cell_length_b 26.704775
_cell_length_c 9.438540
_cell_angle_alpha 90.000000
_cell_angle_beta 90.000000
_cell_angle_gamma 90.000000
_cell_volume 2357.905491
_symmetry_space_group_name_H-M "P N N M"
_symmetry_group_IT_number 58
_symmetry_cell_setting 'orthorhombic'
loop_
_space_group_symop_operation_xyz
x,y,z
-x,-y,z
1/2+x,1/2-y,1/2-z
1/2-x,1/2+y,1/2-z
-x,-y,-z
x,y,-z
1/2-x,1/2+y,1/2+z
1/2+x,1/2-y,1/2+z
loop_
_atom_site_type_symbol
_atom_site_label
_atom_site_fract_x
_atom_site_fract_y
_atom_site_fract_z
Si Si1 0.383088 0.753638 0.169328
Si Si2 0.161840 0.520791 0.852839
Si Si3 0.777187 0.560344 0.654718
Si Si4 0.256381 0.161007 0.832540
Si Si5 0.997452 0.379639 0.161893
Si Si6 0.339130 0.304822 0.839814
Si Si7 0.500000 0.500000 0.000000
Si Si8 0.997917 0.906421 0.730917
O O1 0.302478 0.706088 0.237361
O O2 0.581361 0.846984 0.220125
O O3 0.545664 0.737709 0.201844
O O4 0.368324 0.756031 0.000000
O O5 0.223011 0.496153 0.713931
O O6 0.128375 0.578586 0.856000
O O7 0.000000 0.500000 0.860430
O O8 0.241613 0.504002 0.000000
O O9 0.844523 0.564059 0.500000
O O10 0.867307 0.591684 0.770964
O O11 0.615815 0.578126 0.654556
O O12 0.146483 0.115172 0.799673
O O13 0.252689 0.171148 0.000000
O O14 0.200168 0.299986 0.258901
O O15 0.024453 0.361360 0.000000
O O16 0.424183 0.357272 0.836994
O O17 0.293941 0.294855 0.000000
O O18 0.485684 0.546213 0.874871
#
# Coordination Sequence:
#
# PCOD9444971 Si02
#       8
#     8   8   8   8   8   8   2   8
#     4  10  23  42  72 105 142 184 238 291 377 457
#     4   8  17  33  53  77 110 159 218 275 334 404
#     4  11  23  39  59  92 131 172 228 301 361 422
#     4  11  24  44  67 101 145 192 236 309 377 449
#     4  10  22  38  63  90 127 176 237 293 358 432
#     4  10  22  45  71 105 143 183 235 306 364 448
#     4  12  28  48  74 106 144 220 258 314 356 454
#     4  11  27  44  72 101 144 194 260 297 370 435
#
# _framework density 24.598102000000001
#
# number of rings (size 3 to 8) (size 9 to 14) (size 15 to 20)
#    0.000    1.793    0.690    2.897    5.793    7.448 
#    0.000    2.069    0.000    0.000    0.000    0.000 
#    0.000    0.000    0.000    0.000    0.000    0.000 
#
# Total GULP energy -323440.755834 kJ/mol
# GULP energy per Si atom -5576.564756 kJ/mol
# Density = 2.454212 g / cm^3
# Si number density = 24.598102 Si / 1000 Ang^3
#
#
#
# Elastic Constant Matrix: (Units=GPa)
#
#
# Indices 1 2 3 4 5 6 
#
# 1 128.3647 26.6070 53.3931 0.0000 0.0000 0.0000
# 2 26.6070 110.0214 5.3023 0.0000 0.0000 0.0000
# 3 53.3931 5.3023 100.8935 0.0000 0.0000 0.0000
# 4 0.0000 0.0000 0.0000 27.3264 0.0000 0.0000
# 5 0.0000 0.0000 0.0000 0.0000 35.9226 0.0000
# 6 0.0000 0.0000 0.0000 0.0000 0.0000 45.3677
#
#
#
# Elastic Compliance Matrix: (Units=1/GPa)
#
#
# Indices 1 2 3 4 5 6 
#
# 1 0.010532 -0.002284 -0.005454 0.000000 0.000000 0.000000
# 2 -0.002284 0.009608 0.000704 0.000000 0.000000 0.000000
# 3 -0.005454 0.000704 0.012761 0.000000 0.000000 0.000000
# 4 0.000000 0.000000 0.000000 0.036595 0.000000 0.000000
# 5 0.000000 0.000000 0.000000 0.000000 0.027838 0.000000
# 6 0.000000 0.000000 0.000000 0.000000 0.000000 0.022042
#
#
# Mechanical properties :
#
#
# Convention : Reuss Voigt Hill
#
# Bulk Modulus (GPa) = 53.09983 56.65382 54.87682
# Shear Modulus (GPa) = 35.78582 38.65515 37.22048
#
# Velocity S-wave (km/s) = 3.81835 3.96848 3.89414
# Velocity P-wave (km/s) = 6.40886 6.63929 6.52509
#
# Compressibility (1/GPa) = 0.01883245
#
# Stress axis : x y z
#
# Youngs Moduli (GPa) = 94.94699 104.08407 78.36672
#
# Poissons Ratio (x) = 0.23775 0.42738
# Poissons Ratio (y) = 0.21688 -0.05516
# Poissons Ratio (z) = 0.51780 -0.07326
#
# Static dielectric constant tensor:
#      x y z
#    x 1.942580 0.000000 0.000000 
#    y 0.000000 2.150610 0.000000 
#    z 0.000000 0.000000 1.893880 
# 
# From -- ./inp_files/4447.got.cif
#   From: 2010.05.17/outbox.cif.g08.bks.cpg/sg58_3_cif.got.tgz:4447.got - 2010.06.03 14:20:14.
