data_PCOD9444010
_publ_section_title
;
Structure prediction by ZEFSAII (Michael W. Deem and Ramdas Pophale) SiO2 
 PCOD9444010
Probable space group: P N N M
;
_chemical_formula_sum "Si O2"
_cell_formula_units_Z 60
_cell_length_a 11.843582
_cell_length_b 20.043500
_cell_length_c 12.207107
_cell_angle_alpha 90.000000
_cell_angle_beta 90.000000
_cell_angle_gamma 90.000000
_cell_volume 2897.806505
_symmetry_space_group_name_H-M "P N N M"
_symmetry_group_IT_number 58
_symmetry_cell_setting 'orthorhombic'
loop_
_space_group_symop_operation_xyz
x,y,z
-x,-y,z
1/2+x,1/2-y,1/2-z
1/2-x,1/2+y,1/2-z
-x,-y,-z
x,y,-z
1/2-x,1/2+y,1/2+z
1/2+x,1/2-y,1/2+z
loop_
_atom_site_type_symbol
_atom_site_label
_atom_site_fract_x
_atom_site_fract_y
_atom_site_fract_z
Si Si1 0.689958 0.566261 0.210354
Si Si2 0.862069 0.982176 0.500000
Si Si3 0.118635 0.039205 0.875039
Si Si4 0.157140 0.133109 0.311660
Si Si5 0.663722 0.675909 0.378278
Si Si6 0.075691 0.277197 0.623325
Si Si7 0.413663 0.180684 0.685399
Si Si8 0.934641 0.562911 0.877462
O O1 0.628845 0.539733 0.099808
O O2 0.697286 0.508263 0.301700
O O3 0.638037 0.628415 0.275652
O O4 0.817999 0.581845 0.177454
O O5 0.850304 0.924434 0.403568
O O6 0.112730 0.106113 0.804358
O O7 0.153944 0.048909 0.000000
O O8 0.000000 0.000000 0.874062
O O9 0.093311 0.199352 0.349616
O O10 0.288329 0.152780 0.297056
O O11 0.640294 0.646327 0.500000
O O12 0.798348 0.691234 0.371329
O O13 0.601523 0.746851 0.368929
O O14 0.034440 0.284762 0.500000
O O15 0.987343 0.309149 0.705952
O O16 0.482235 0.125149 0.618906
O O17 0.000000 0.500000 0.825958
O O18 0.900501 0.539618 0.000000
#
# Coordination Sequence:
#
# PCOD9444010 Si02
#       8
#     8   4   8   8   8   8   8   8
#     4  11  21  39  62  97 132 160 212 268 321 378
#     4  10  20  40  68  96 128 172 204 263 334 374
#     4  10  23  42  64  89 123 169 215 261 319 388
#     4  10  22  41  67  93 128 165 221 266 322 386
#     4  10  22  41  63  87 129 174 215 258 312 397
#     4  10  21  41  63  90 126 169 213 264 318 391
#     4  11  23  39  65  96 124 173 218 264 329 381
#     4  11  22  37  65  99 133 165 212 273 326 386
#
# _framework density 20.705317000000001
#
# number of rings (size 3 to 8) (size 9 to 14) (size 15 to 20)
#    0.000    1.600    2.667    2.400    5.600    0.533 
#    1.200    6.000    1.467    2.000    0.000    0.000 
#    0.000    0.000    0.000    0.000    0.000    0.000 
#
# Total GULP energy -334103.878879 kJ/mol
# GULP energy per Si atom -5568.397981 kJ/mol
# Density = 2.065819 g / cm^3
# Si number density = 20.705317 Si / 1000 Ang^3
#
#
#
# Elastic Constant Matrix: (Units=GPa)
#
#
# Indices 1 2 3 4 5 6 
#
# 1 68.5569 11.0698 17.3482 0.0000 0.0000 0.0000
# 2 11.0698 95.9813 45.5817 0.0000 0.0000 0.0000
# 3 17.3482 45.5817 171.7967 0.0000 0.0000 0.0000
# 4 0.0000 0.0000 0.0000 16.2349 0.0000 0.0000
# 5 0.0000 0.0000 0.0000 0.0000 1.6563 0.0000
# 6 0.0000 0.0000 0.0000 0.0000 0.0000 22.8772
#
#
#
# Elastic Compliance Matrix: (Units=1/GPa)
#
#
# Indices 1 2 3 4 5 6 
#
# 1 0.015081 -0.001163 -0.001214 0.000000 0.000000 0.000000
# 2 -0.001163 0.012010 -0.003069 0.000000 0.000000 0.000000
# 3 -0.001214 -0.003069 0.006758 0.000000 0.000000 0.000000
# 4 0.000000 0.000000 0.000000 0.061596 0.000000 0.000000
# 5 0.000000 0.000000 0.000000 0.000000 0.603766 0.000000
# 6 0.000000 0.000000 0.000000 0.000000 0.000000 0.043712
#
#
# Mechanical properties :
#
#
# Convention : Reuss Voigt Hill
#
# Bulk Modulus (GPa) = 43.55973 53.81492 48.68733
# Shear Modulus (GPa) = 6.56626 25.64269 16.10448
#
# Velocity S-wave (km/s) = 1.78274 3.52299 2.79192
# Velocity P-wave (km/s) = 5.03202 6.52656 5.82740
#
# Compressibility (1/GPa) = 0.02295698
#
# Stress axis : x y z
#
# Youngs Moduli (GPa) = 66.30654 83.26138 147.97686
#
# Poissons Ratio (x) = 0.09680 0.17971
# Poissons Ratio (y) = 0.07709 0.45418
# Poissons Ratio (z) = 0.08053 0.25555
#
# Static dielectric constant tensor:
#      x y z
#    x 1.812030 0.000000 0.000000 
#    y 0.000000 1.763280 0.000000 
#    z 0.000000 0.000000 1.728110 
# 
# From -- ./inp_files/14638.got.cif
#   From: 2010.05.17/outbox.cif.g08.bks.cpg/sg58_8_cif.got.tgz:14638.got - 2010.06.03 14:20:14.
