data_PCOD9444795
_publ_section_title
;
Structure prediction by ZEFSAII (Michael W. Deem and Ramdas Pophale) SiO2 
 PCOD9444795
Probable space group: P N N M
;
_chemical_formula_sum "Si O2"
_cell_formula_units_Z 58
_cell_length_a 11.151690
_cell_length_b 29.056014
_cell_length_c 7.754704
_cell_angle_alpha 90.000000
_cell_angle_beta 90.000000
_cell_angle_gamma 90.000000
_cell_volume 2512.707578
_symmetry_space_group_name_H-M "P N N M"
_symmetry_group_IT_number 58
_symmetry_cell_setting 'orthorhombic'
loop_
_space_group_symop_operation_xyz
x,y,z
-x,-y,z
1/2+x,1/2-y,1/2-z
1/2-x,1/2+y,1/2-z
-x,-y,-z
x,y,-z
1/2-x,1/2+y,1/2+z
1/2+x,1/2-y,1/2+z
loop_
_atom_site_type_symbol
_atom_site_label
_atom_site_fract_x
_atom_site_fract_y
_atom_site_fract_z
Si Si1 0.270353 0.204675 0.207420
Si Si2 0.714846 0.194506 0.698445
Si Si3 0.983941 0.358679 0.301668
Si Si4 0.197129 0.981571 0.803072
Si Si5 0.500000 0.500000 0.000000
Si Si6 0.859301 0.886081 0.793927
Si Si7 0.376563 0.383484 0.704700
Si Si8 0.634712 0.946683 0.690792
O O1 0.241310 0.255267 0.274912
O O2 0.388404 0.178176 0.274625
O O3 0.164261 0.168037 0.233761
O O4 0.286716 0.210479 0.000000
O O5 0.676489 0.199949 0.500000
O O6 0.611972 0.165026 0.789421
O O7 0.831287 0.162474 0.707476
O O8 0.947767 0.364502 0.500000
O O9 0.969679 0.410045 0.229591
O O10 0.209458 0.926993 0.770927
O O11 0.106038 0.998454 0.654398
O O12 0.322107 0.009374 0.798037
O O13 0.148374 0.986540 0.000000
O O14 0.752722 0.913882 0.707159
O O15 0.991672 0.898292 0.732280
O O16 0.850468 0.894982 0.000000
O O17 0.386126 0.374250 0.500000
O O18 0.617484 0.964057 0.500000
#
# Coordination Sequence:
#
# PCOD9444795 Si02
#       8
#     8   8   8   8   2   8   8   8
#     4   8  18  36  59  87 118 158 201 256 315 375
#     4  11  23  38  60  88 123 160 208 265 316 372
#     4  10  21  41  64  85 119 162 210 256 314 380
#     4  11  23  39  60  92 133 170 214 262 322 382
#     4  12  22  36  64  98 126 172 210 264 316 388
#     4   9  18  36  59  85 122 162 203 249 310 375
#     4  10  23  39  59  87 124 171 207 250 312 381
#     4  11  21  37  62  93 123 159 208 258 315 379
#
# _framework density 23.082671000000001
#
# number of rings (size 3 to 8) (size 9 to 14) (size 15 to 20)
#    0.000    1.931    0.690    3.931    2.897    1.655 
#    0.000    6.897    0.000    4.138    0.000    0.000 
#    0.000    0.000    0.000    0.000    0.000    0.000 
#
# Total GULP energy -323325.965951 kJ/mol
# GULP energy per Si atom -5574.585620 kJ/mol
# Density = 2.303013 g / cm^3
# Si number density = 23.082671 Si / 1000 Ang^3
#
#
#
# Elastic Constant Matrix: (Units=GPa)
#
#
# Indices 1 2 3 4 5 6 
#
# 1 41.1433 2.9877 -8.6499 0.0000 0.0000 0.0000
# 2 2.9877 100.4864 1.2485 0.0000 0.0000 0.0000
# 3 -8.6499 1.2485 83.7231 0.0000 0.0000 0.0000
# 4 0.0000 0.0000 0.0000 17.0800 0.0000 0.0000
# 5 0.0000 0.0000 0.0000 0.0000 19.4223 0.0000
# 6 0.0000 0.0000 0.0000 0.0000 0.0000 21.5382
#
#
#
# Elastic Compliance Matrix: (Units=1/GPa)
#
#
# Indices 1 2 3 4 5 6 
#
# 1 0.024905 -0.000773 0.002585 0.000000 0.000000 0.000000
# 2 -0.000773 0.009977 -0.000229 0.000000 0.000000 0.000000
# 3 0.002585 -0.000229 0.012215 0.000000 0.000000 0.000000
# 4 0.000000 0.000000 0.000000 0.058548 0.000000 0.000000
# 5 0.000000 0.000000 0.000000 0.000000 0.051487 0.000000
# 6 0.000000 0.000000 0.000000 0.000000 0.000000 0.046429
#
#
# Mechanical properties :
#
#
# Convention : Reuss Voigt Hill
#
# Bulk Modulus (GPa) = 19.89516 24.05837 21.97676
# Shear Modulus (GPa) = 23.02568 26.92586 24.97577
#
# Velocity S-wave (km/s) = 3.16180 3.41911 3.29297
# Velocity P-wave (km/s) = 4.68691 5.10219 4.89895
#
# Compressibility (1/GPa) = 0.05026348
#
# Stress axis : x y z
#
# Youngs Moduli (GPa) = 40.15298 100.22643 81.86941
#
# Poissons Ratio (x) = 0.07743 -0.21160
# Poissons Ratio (y) = 0.03102 0.01872
# Poissons Ratio (z) = -0.10378 0.02291
#
# Static dielectric constant tensor:
#      x y z
#    x 1.867880 0.000000 0.000000 
#    y 0.000000 1.886350 0.000000 
#    z 0.000000 0.000000 1.707930 
# 
# From -- ./inp_files/4592.got.cif
#   From: 2010.05.17/outbox.cif.g08.bks.cpg/sg58_3_cif.got.tgz:4592.got - 2010.06.03 14:20:14.
