data_PCOD9444935
_publ_section_title
;
Structure prediction by ZEFSAII (Michael W. Deem and Ramdas Pophale) SiO2 
 PCOD9444935
Probable space group: P N N M
;
_chemical_formula_sum "Si O2"
_cell_formula_units_Z 40
_cell_length_a 18.179737
_cell_length_b 5.570005
_cell_length_c 18.617542
_cell_angle_alpha 90.000000
_cell_angle_beta 90.000000
_cell_angle_gamma 90.000000
_cell_volume 1885.235128
_symmetry_space_group_name_H-M "P N N M"
_symmetry_group_IT_number 58
_symmetry_cell_setting 'orthorhombic'
loop_
_space_group_symop_operation_xyz
x,y,z
-x,-y,z
1/2+x,1/2-y,1/2-z
1/2-x,1/2+y,1/2-z
-x,-y,-z
x,y,-z
1/2-x,1/2+y,1/2+z
1/2+x,1/2-y,1/2+z
loop_
_atom_site_type_symbol
_atom_site_label
_atom_site_fract_x
_atom_site_fract_y
_atom_site_fract_z
Si Si1 0.321340 0.019201 0.838249
Si Si2 0.544066 0.745538 0.784270
Si Si3 0.420105 0.455793 0.626475
Si Si4 0.776513 0.297400 0.922092
Si Si5 0.819931 0.685152 0.191531
O O1 0.385327 0.216689 0.836779
O O2 0.244343 0.120236 0.808343
O O3 0.293418 0.875799 0.907374
O O4 0.345191 0.851839 0.772381
O O5 0.500000 0.500000 0.802833
O O6 0.570382 0.694966 0.701454
O O7 0.500000 0.000000 0.787811
O O8 0.500000 0.500000 0.593784
O O9 0.354475 0.342284 0.580784
O O10 0.389348 0.714853 0.649081
O O11 0.784426 0.472189 0.854401
O O12 0.769119 0.416662 0.000000
#
# Coordination Sequence:
#
# PCOD9444935 Si02
#       5
#     8   8   8   8   8
#     4  11  20  38  65  89 127 164 221 275 326 383
#     4  11  23  37  67 106 130 162 219 282 338 387
#     4  10  22  37  61  91 134 168 213 263 321 388
#     4  11  25  39  60  92 128 174 220 266 327 387
#     4  11  20  36  64  93 123 172 222 272 321 378
#
# _framework density 21.217513
#
# number of rings (size 3 to 8) (size 9 to 14) (size 15 to 20)
#    0.000    1.200    4.000    3.600    2.800    3.600 
#    0.000    1.000    0.000    1.200    0.000    0.000 
#    0.000    0.000    0.000    0.000    0.000    0.000 
#
# Total GULP energy -222929.650529 kJ/mol
# GULP energy per Si atom -5573.241263 kJ/mol
# Density = 2.116922 g / cm^3
# Si number density = 21.217513 Si / 1000 Ang^3
#
#
#
# Elastic Constant Matrix: (Units=GPa)
#
#
# Indices 1 2 3 4 5 6 
#
# 1 99.1955 24.1823 18.3268 0.0000 0.0000 0.0000
# 2 24.1823 64.2064 6.4818 0.0000 0.0000 0.0000
# 3 18.3268 6.4818 59.1150 0.0000 0.0000 0.0000
# 4 0.0000 0.0000 0.0000 3.5453 0.0000 0.0000
# 5 0.0000 0.0000 0.0000 0.0000 2.6967 0.0000
# 6 0.0000 0.0000 0.0000 0.0000 0.0000 38.2569
#
#
#
# Elastic Compliance Matrix: (Units=1/GPa)
#
#
# Indices 1 2 3 4 5 6 
#
# 1 0.011659 -0.004071 -0.003168 0.000000 0.000000 0.000000
# 2 -0.004071 0.017171 -0.000621 0.000000 0.000000 0.000000
# 3 -0.003168 -0.000621 0.017966 0.000000 0.000000 0.000000
# 4 0.000000 0.000000 0.000000 0.282061 0.000000 0.000000
# 5 0.000000 0.000000 0.000000 0.000000 0.370820 0.000000
# 6 0.000000 0.000000 0.000000 0.000000 0.000000 0.026139
#
#
# Mechanical properties :
#
#
# Convention : Reuss Voigt Hill
#
# Bulk Modulus (GPa) = 32.17894 35.61096 33.89495
# Shear Modulus (GPa) = 6.64987 20.46820 13.55903
#
# Velocity S-wave (km/s) = 1.77227 3.10931 2.53068
# Velocity P-wave (km/s) = 4.40307 5.45074 4.95468
#
# Compressibility (1/GPa) = 0.03107623
#
# Stress axis : x y z
#
# Youngs Moduli (GPa) = 85.77102 58.23836 55.65953
#
# Poissons Ratio (x) = 0.23711 0.17633
# Poissons Ratio (y) = 0.34920 0.03454
# Poissons Ratio (z) = 0.27173 0.03614
#
# Static dielectric constant tensor:
#      x y z
#    x 1.810550 0.000000 0.000000 
#    y 0.000000 1.867360 0.000000 
#    z 0.000000 0.000000 1.768970 
# 
# From -- ./inp_files/24161.got.cif
#   From: 2010.05.17/outbox.cif.g08.bks.cpg/sg58_13_cif.got.tgz:24161.got - 2010.06.03 14:20:14.
