data_PCOD9444526
_publ_section_title
;
Structure prediction by ZEFSAII (Michael W. Deem and Ramdas Pophale) SiO2 
 PCOD9444526
Probable space group: P N N M
;
_chemical_formula_sum "Si O2"
_cell_formula_units_Z 64
_cell_length_a 25.218295
_cell_length_b 14.665412
_cell_length_c 8.950991
_cell_angle_alpha 90.000000
_cell_angle_beta 90.000000
_cell_angle_gamma 90.000000
_cell_volume 3310.404849
_symmetry_space_group_name_H-M "P N N M"
_symmetry_group_IT_number 58
_symmetry_cell_setting 'orthorhombic'
loop_
_space_group_symop_operation_xyz
x,y,z
-x,-y,z
1/2+x,1/2-y,1/2-z
1/2-x,1/2+y,1/2-z
-x,-y,-z
x,y,-z
1/2-x,1/2+y,1/2+z
1/2+x,1/2-y,1/2+z
loop_
_atom_site_type_symbol
_atom_site_label
_atom_site_fract_x
_atom_site_fract_y
_atom_site_fract_z
Si Si1 0.547421 0.210362 0.821169
Si Si2 0.437423 0.153758 0.322010
Si Si3 0.769795 0.763548 0.673381
Si Si4 0.604913 0.041112 0.323883
Si Si5 0.338749 0.256729 0.177540
Si Si6 0.123158 0.127449 0.679164
Si Si7 0.667509 0.543895 0.678828
Si Si8 0.786584 0.545092 0.326798
O O1 0.490791 0.194302 0.746579
O O2 0.585405 0.128615 0.766861
O O3 0.574676 0.306391 0.780381
O O4 0.543103 0.206891 0.000000
O O5 0.436614 0.167235 0.500000
O O6 0.386387 0.200362 0.249048
O O7 0.432529 0.045453 0.293873
O O8 0.756610 0.783177 0.500000
O O9 0.718462 0.782189 0.772936
O O10 0.822788 0.817303 0.713990
O O11 0.782354 0.655443 0.682128
O O12 0.603438 0.061202 0.500000
O O13 0.664514 0.015884 0.274360
O O14 0.341351 0.359351 0.242690
O O15 0.342878 0.257774 0.000000
O O16 0.121988 0.112570 0.500000
O O17 0.127198 0.032240 0.764074
O O18 0.665765 0.555628 0.500000
O O19 0.727859 0.512416 0.717173
O O20 0.796822 0.520528 0.500000
#
# Coordination Sequence:
#
# PCOD9444526 Si02
#       8
#     8   8   8   8   8   8   8   8
#     4  11  23  42  64  89 121 159 202 252 301 356
#     4  11  25  43  61  86 120 161 204 254 307 358
#     4   9  18  36  58  84 121 160 192 242 303 353
#     4  11  23  37  58  88 122 160 200 244 298 359
#     4  11  23  40  62  89 119 158 205 252 302 360
#     4  10  21  38  61  89 122 158 199 246 302 358
#     4  10  22  39  60  88 124 161 198 248 304 358
#     4   9  18  35  56  83 120 158 195 238 292 351
#
# _framework density 19.332982999999999
#
# number of rings (size 3 to 8) (size 9 to 14) (size 15 to 20)
#    0.000    1.750    1.250    3.750    1.750    7.500 
#    0.000    0.625    0.000    3.750    0.000    0.000 
#    0.000    0.000    0.000    0.000    0.000    0.000 
#
# Total GULP energy -357742.486134 kJ/mol
# GULP energy per Si atom -5589.726346 kJ/mol
# Density = 1.928898 g / cm^3
# Si number density = 19.332983 Si / 1000 Ang^3
#
#
#
# Elastic Constant Matrix: (Units=GPa)
#
#
# Indices 1 2 3 4 5 6 
#
# 1 62.7510 2.3414 22.8154 0.0000 0.0000 0.0000
# 2 2.3414 26.1387 14.2781 0.0000 0.0000 0.0000
# 3 22.8154 14.2781 46.4874 0.0000 0.0000 0.0000
# 4 0.0000 0.0000 0.0000 -2.7552 0.0000 0.0000
# 5 0.0000 0.0000 0.0000 0.0000 44.4295 0.0000
# 6 0.0000 0.0000 0.0000 0.0000 0.0000 28.4857
#
#
#
# Elastic Compliance Matrix: (Units=1/GPa)
#
#
# Indices 1 2 3 4 5 6 
#
# 1 0.019781 0.004243 -0.011012 0.000000 0.000000 0.000000
# 2 0.004243 0.046880 -0.016481 0.000000 0.000000 0.000000
# 3 -0.011012 -0.016481 0.031978 0.000000 0.000000 0.000000
# 4 0.000000 0.000000 0.000000 -0.362956 0.000000 0.000000
# 5 0.000000 0.000000 0.000000 0.000000 0.022508 0.000000
# 6 0.000000 0.000000 0.000000 0.000000 0.000000 0.035105
#
#
# Mechanical properties :
#
#
# Convention : Reuss Voigt Hill
#
# Bulk Modulus (GPa) = 19.17927 23.80520 21.49224
# Shear Modulus (GPa) = -35.00777 20.42817 -7.28980
#
# Velocity S-wave (km/s) = -4.25994 3.25414 -1.94392
# Velocity P-wave (km/s) = 3.77546 5.14385 2.47033
#
# Compressibility (1/GPa) = 0.05213963
#
# Stress axis : x y z
#
# Youngs Moduli (GPa) = 50.55265 21.33104 31.27193
#
# Poissons Ratio (x) = -0.09051 0.34436
# Poissons Ratio (y) = -0.21450 0.51540
# Poissons Ratio (z) = 0.55667 0.35156
#
# Static dielectric constant tensor:
#      x y z
#    x 1.666590 0.000000 0.000000 
#    y 0.000000 1.679480 0.000000 
#    z 0.000000 0.000000 1.641280 
# 
# From -- ./inp_files/10045.got.cif
#   From: 2010.05.17/outbox.cif.g08.bks.cpg/sg58_6_cif.got.tgz:10045.got - 2010.06.03 14:20:14.
