data_PCOD9444031
_publ_section_title
;
Structure prediction by ZEFSAII (Michael W. Deem and Ramdas Pophale) SiO2 
 PCOD9444031
Probable space group: P N N M
;
_chemical_formula_sum "Si O2"
_cell_formula_units_Z 36
_cell_length_a 8.680835
_cell_length_b 14.319507
_cell_length_c 14.200746
_cell_angle_alpha 90.000000
_cell_angle_beta 90.000000
_cell_angle_gamma 90.000000
_cell_volume 1765.227673
_symmetry_space_group_name_H-M "P N N M"
_symmetry_group_IT_number 58
_symmetry_cell_setting 'orthorhombic'
loop_
_space_group_symop_operation_xyz
x,y,z
-x,-y,z
1/2+x,1/2-y,1/2-z
1/2-x,1/2+y,1/2-z
-x,-y,-z
x,y,-z
1/2-x,1/2+y,1/2+z
1/2+x,1/2-y,1/2+z
loop_
_atom_site_type_symbol
_atom_site_label
_atom_site_fract_x
_atom_site_fract_y
_atom_site_fract_z
Si Si1 0.315983 0.010926 0.295737
Si Si2 0.302021 0.259890 0.500000
Si Si3 0.796051 0.166605 0.202870
Si Si4 0.089792 0.100637 0.000000
Si Si5 0.676977 0.966030 0.500000
Si Si6 0.663813 0.327297 0.692885
O O1 0.256396 0.995859 0.402214
O O2 0.260726 0.113297 0.267499
O O3 0.500000 0.000000 0.294873
O O4 0.246875 0.939952 0.220532
O O5 0.236374 0.294762 0.398593
O O6 0.464196 0.315585 0.500000
O O7 0.317063 0.147592 0.500000
O O8 0.721800 0.223113 0.289543
O O9 0.980473 0.173146 0.208092
O O10 0.186506 0.121568 0.093254
O O11 0.000000 0.000000 0.000000
O O12 0.500000 0.000000 0.500000
#
# Coordination Sequence:
#
# PCOD9444031 Si02
#       6
#     8   4   8   4   4   8
#     4  11  23  41  64  93 125 167 216 259 314 375
#     4  10  20  42  63  90 126 175 209 250 321 389
#     4  11  23  39  66  90 127 165 210 265 311 382
#     4  10  22  38  65  89 127 171 215 253 315 405
#     4  10  22  38  65  90 126 170 215 247 312 396
#     4  11  22  41  62  94 125 166 213 256 320 372
#
# _framework density 20.393968999999998
#
# number of rings (size 3 to 8) (size 9 to 14) (size 15 to 20)
#    0.000    1.333    2.222    4.667    9.333    0.000 
#    0.000   10.000    0.000    0.000    0.000    0.000 
#    0.000    0.000    0.000    0.000    0.000    0.000 
#
# Total GULP energy -200675.748259 kJ/mol
# GULP energy per Si atom -5574.326341 kJ/mol
# Density = 2.034755 g / cm^3
# Si number density = 20.393969 Si / 1000 Ang^3
#
#
#
# Elastic Constant Matrix: (Units=GPa)
#
#
# Indices 1 2 3 4 5 6 
#
# 1 44.5078 -9.6572 3.6099 0.0000 0.0000 0.0000
# 2 -9.6572 75.0473 2.7652 0.0000 0.0000 0.0000
# 3 3.6099 2.7652 108.1826 0.0000 0.0000 0.0000
# 4 0.0000 0.0000 0.0000 38.9101 0.0000 0.0000
# 5 0.0000 0.0000 0.0000 0.0000 -19.9906 0.0000
# 6 0.0000 0.0000 0.0000 0.0000 0.0000 39.9619
#
#
#
# Elastic Compliance Matrix: (Units=1/GPa)
#
#
# Indices 1 2 3 4 5 6 
#
# 1 0.023191 0.003016 -0.000851 0.000000 0.000000 0.000000
# 2 0.003016 0.013730 -0.000452 0.000000 0.000000 0.000000
# 3 -0.000851 -0.000452 0.009284 0.000000 0.000000 0.000000
# 4 0.000000 0.000000 0.000000 0.025700 0.000000 0.000000
# 5 0.000000 0.000000 0.000000 0.000000 -0.050023 0.000000
# 6 0.000000 0.000000 0.000000 0.000000 0.000000 0.025024
#
#
# Mechanical properties :
#
#
# Convention : Reuss Voigt Hill
#
# Bulk Modulus (GPa) = 20.14878 24.57483 22.36181
# Shear Modulus (GPa) = 83.30220 27.17760 55.23990
#
# Velocity S-wave (km/s) = 6.39806 3.65448 5.21010
# Velocity P-wave (km/s) = 8.03003 5.46655 6.86894
#
# Compressibility (1/GPa) = 0.04963080
#
# Stress axis : x y z
#
# Youngs Moduli (GPa) = 43.11955 72.83524 107.71720
#
# Poissons Ratio (x) = -0.21964 0.09166
# Poissons Ratio (y) = -0.13003 0.04864
# Poissons Ratio (z) = 0.03669 0.03289
#
# Static dielectric constant tensor:
#      x y z
#    x 1.691310 0.000000 0.000000 
#    y 0.000000 1.677590 0.000000 
#    z 0.000000 0.000000 1.816620 
# 
# From -- ./inp_files/19428.got.cif
#   From: 2010.05.17/outbox.cif.g08.bks.cpg/sg58_10_cif.got.tgz:19428.got - 2010.06.03 14:20:14.
