data_PCOD9444423
_publ_section_title
;
Structure prediction by ZEFSAII (Michael W. Deem and Ramdas Pophale) SiO2 
 PCOD9444423
Probable space group: P N N M
;
_chemical_formula_sum "Si O2"
_cell_formula_units_Z 48
_cell_length_a 8.390092
_cell_length_b 17.249235
_cell_length_c 15.494624
_cell_angle_alpha 90.000000
_cell_angle_beta 90.000000
_cell_angle_gamma 90.000000
_cell_volume 2242.423334
_symmetry_space_group_name_H-M "P N N M"
_symmetry_group_IT_number 58
_symmetry_cell_setting 'orthorhombic'
loop_
_space_group_symop_operation_xyz
x,y,z
-x,-y,z
1/2+x,1/2-y,1/2-z
1/2-x,1/2+y,1/2-z
-x,-y,-z
x,y,-z
1/2-x,1/2+y,1/2+z
1/2+x,1/2-y,1/2+z
loop_
_atom_site_type_symbol
_atom_site_label
_atom_site_fract_x
_atom_site_fract_y
_atom_site_fract_z
Si Si1 0.452961 0.654899 0.207354
Si Si2 0.763223 0.051853 0.270571
Si Si3 0.223638 0.591011 0.903093
Si Si4 0.389682 0.832792 0.405515
Si Si5 0.821179 0.295288 0.665536
Si Si6 0.078946 0.416779 0.594731
O O1 0.554694 0.580130 0.233131
O O2 0.386609 0.637799 0.111948
O O3 0.296832 0.666583 0.265192
O O4 0.563369 0.730661 0.208508
O O5 0.680856 0.116487 0.329730
O O6 0.696011 0.066533 0.174953
O O7 0.722942 0.974180 0.326642
O O8 0.078527 0.652384 0.897575
O O9 0.216714 0.556751 0.000000
O O10 0.345034 0.863209 0.500000
O O11 0.305558 0.749713 0.395377
O O12 0.941217 0.355687 0.621373
O O13 0.147268 0.394194 0.500000
O O14 0.000000 0.500000 0.584913
#
# Coordination Sequence:
#
# PCOD9444423 Si02
#       6
#     8   8   8   8   8   8
#     4  11  23  38  62  91 123 169 210 254 315 381
#     4  11  22  39  64  91 129 168 207 261 321 383
#     4  11  23  39  63  99 136 166 204 256 319 392
#     4  10  21  37  62  94 127 168 210 253 315 387
#     4  11  22  41  62  88 126 167 214 263 311 372
#     4  11  24  42  65  89 117 161 215 268 318 370
#
# _framework density 21.405414
#
# number of rings (size 3 to 8) (size 9 to 14) (size 15 to 20)
#    0.000    1.167    0.000    8.000    0.000    6.000 
#    0.000    3.333    0.000    4.000    0.000    0.000 
#    0.000    0.000    0.000    0.000    0.000    0.000 
#
# Total GULP energy -267532.640562 kJ/mol
# GULP energy per Si atom -5573.596678 kJ/mol
# Density = 2.135669 g / cm^3
# Si number density = 21.405414 Si / 1000 Ang^3
#
#
#
# Elastic Constant Matrix: (Units=GPa)
#
#
# Indices 1 2 3 4 5 6 
#
# 1 93.1970 46.3884 55.5437 0.0000 0.0000 0.0000
# 2 46.3884 98.5406 36.6826 0.0000 0.0000 0.0000
# 3 55.5437 36.6826 162.1942 0.0000 0.0000 0.0000
# 4 0.0000 0.0000 0.0000 22.9684 0.0000 0.0000
# 5 0.0000 0.0000 0.0000 0.0000 22.0895 0.0000
# 6 0.0000 0.0000 0.0000 0.0000 0.0000 31.1278
#
#
#
# Elastic Compliance Matrix: (Units=1/GPa)
#
#
# Indices 1 2 3 4 5 6 
#
# 1 0.016261 -0.006095 -0.004190 0.000000 0.000000 0.000000
# 2 -0.006095 0.013366 -0.000936 0.000000 0.000000 0.000000
# 3 -0.004190 -0.000936 0.007812 0.000000 0.000000 0.000000
# 4 0.000000 0.000000 0.000000 0.043538 0.000000 0.000000
# 5 0.000000 0.000000 0.000000 0.000000 0.045270 0.000000
# 6 0.000000 0.000000 0.000000 0.000000 0.000000 0.032126
#
#
# Mechanical properties :
#
#
# Convention : Reuss Voigt Hill
#
# Bulk Modulus (GPa) = 66.67982 70.12903 68.40443
# Shear Modulus (GPa) = 26.90874 29.59163 28.25019
#
# Velocity S-wave (km/s) = 3.54941 3.72215 3.63680
# Velocity P-wave (km/s) = 6.92938 7.16281 7.04706
#
# Compressibility (1/GPa) = 0.01499704
#
# Stress axis : x y z
#
# Youngs Moduli (GPa) = 61.49674 74.81847 128.00903
#
# Poissons Ratio (x) = 0.45603 0.53637
# Poissons Ratio (y) = 0.37483 0.11976
# Poissons Ratio (z) = 0.25768 0.07000
#
# Static dielectric constant tensor:
#      x y z
#    x 1.836930 0.000000 0.000000 
#    y 0.000000 1.824910 0.000000 
#    z 0.000000 0.000000 1.878230 
# 
# From -- ./inp_files/19832.got.cif
#   From: 2010.05.17/outbox.cif.g08.bks.cpg/sg58_10_cif.got.tgz:19832.got - 2010.06.03 14:20:14.
