data_PCOD9444813
_publ_section_title
;
Structure prediction by ZEFSAII (Michael W. Deem and Ramdas Pophale) SiO2 
 PCOD9444813
Probable space group: P N N M
;
_chemical_formula_sum "Si O2"
_cell_formula_units_Z 32
_cell_length_a 7.492949
_cell_length_b 13.895661
_cell_length_c 11.955317
_cell_angle_alpha 90.000000
_cell_angle_beta 90.000000
_cell_angle_gamma 90.000000
_cell_volume 1244.781380
_symmetry_space_group_name_H-M "P N N M"
_symmetry_group_IT_number 58
_symmetry_cell_setting 'orthorhombic'
loop_
_space_group_symop_operation_xyz
x,y,z
-x,-y,z
1/2+x,1/2-y,1/2-z
1/2-x,1/2+y,1/2-z
-x,-y,-z
x,y,-z
1/2-x,1/2+y,1/2+z
1/2+x,1/2-y,1/2+z
loop_
_atom_site_type_symbol
_atom_site_label
_atom_site_fract_x
_atom_site_fract_y
_atom_site_fract_z
Si Si1 0.710201 0.883994 0.878745
Si Si2 0.370775 0.407383 0.878699
Si Si3 0.724397 0.306321 0.874936
Si Si4 0.795042 0.595879 0.344901
O O1 0.738400 0.844003 0.751950
O O2 0.497184 0.897067 0.882759
O O3 0.784579 0.993712 0.878784
O O4 0.765602 0.838948 0.000000
O O5 0.500000 0.500000 0.861877
O O6 0.508031 0.318365 0.874873
O O7 0.218868 0.403553 0.788459
O O8 0.290529 0.414439 0.000000
O O9 0.792269 0.196630 0.878513
O O10 0.773879 0.348852 0.000000
#
# Coordination Sequence:
#
# PCOD9444813 Si02
#       4
#     8   8   8   8
#     4  11  24  43  65  93 130 171 214 263 323 379
#     4  10  21  41  66  94 129 169 210 263 322 379
#     4  11  23  42  67  96 129 167 214 264 321 381
#     4  11  22  40  67  92 126 170 214 263 315 377
#
# _framework density 25.707325000000001
#
# number of rings (size 3 to 8) (size 9 to 14) (size 15 to 20)
#    0.000    1.250    2.500    4.500    0.000    4.000 
#    0.000   10.000    0.000    0.000    0.000    0.000 
#    0.000    0.000    0.000    0.000    0.000    0.000 
#
# Total GULP energy -178286.580188 kJ/mol
# GULP energy per Si atom -5571.455631 kJ/mol
# Density = 2.564881 g / cm^3
# Si number density = 25.707325 Si / 1000 Ang^3
#
#
#
# Elastic Constant Matrix: (Units=GPa)
#
#
# Indices 1 2 3 4 5 6 
#
# 1 34.4067 -12.9532 50.5107 0.0000 0.0000 0.0000
# 2 -12.9532 132.6601 53.9004 0.0000 0.0000 0.0000
# 3 50.5107 53.9004 338.1419 0.0000 0.0000 0.0000
# 4 0.0000 0.0000 0.0000 13.3033 0.0000 0.0000
# 5 0.0000 0.0000 0.0000 0.0000 1993.5966 0.0000
# 6 0.0000 0.0000 0.0000 0.0000 0.0000 15.9488
#
#
#
# Elastic Compliance Matrix: (Units=1/GPa)
#
#
# Indices 1 2 3 4 5 6 
#
# 1 0.042909 0.007264 -0.007568 0.000000 0.000000 0.000000
# 2 0.007264 0.009290 -0.002566 0.000000 0.000000 0.000000
# 3 -0.007568 -0.002566 0.004497 0.000000 0.000000 0.000000
# 4 0.000000 0.000000 0.000000 0.075169 0.000000 0.000000
# 5 0.000000 0.000000 0.000000 0.000000 0.000502 0.000000
# 6 0.000000 0.000000 0.000000 0.000000 0.000000 0.062701
#
#
# Mechanical properties :
#
#
# Convention : Reuss Voigt Hill
#
# Bulk Modulus (GPa) = 19.62436 76.45828 48.04132
# Shear Modulus (GPa) = 22.95782 432.15312 227.55547
#
# Velocity S-wave (km/s) = 2.99163 12.97960 9.41859
# Velocity P-wave (km/s) = 4.42532 15.95096 11.70505
#
# Compressibility (1/GPa) = 0.05095709
#
# Stress axis : x y z
#
# Youngs Moduli (GPa) = 23.30539 107.64326 222.38156
#
# Poissons Ratio (x) = -0.78197 1.68288
# Poissons Ratio (y) = -0.16930 0.57063
# Poissons Ratio (z) = 0.17636 0.27621
#
# Static dielectric constant tensor:
#      x y z
#    x 1.948800 0.000000 0.000000 
#    y 0.000000 2.218830 0.000000 
#    z 0.000000 0.000000 2.058430 
# 
# From -- ./inp_files/3593.got.cif
#   From: 2010.05.17/outbox.cif.g08.bks.cpg/sg58_2_cif.got.tgz:3593.got - 2010.06.03 14:20:14.
