data_PCOD9444051
_publ_section_title
;
Structure prediction by ZEFSAII (Michael W. Deem and Ramdas Pophale) SiO2 
 PCOD9444051
Probable space group: P N N M
;
_chemical_formula_sum "Si O2"
_cell_formula_units_Z 46
_cell_length_a 5.087025
_cell_length_b 18.685009
_cell_length_c 23.402673
_cell_angle_alpha 90.000000
_cell_angle_beta 90.000000
_cell_angle_gamma 90.000000
_cell_volume 2224.449997
_symmetry_space_group_name_H-M "P N N M"
_symmetry_group_IT_number 58
_symmetry_cell_setting 'orthorhombic'
loop_
_space_group_symop_operation_xyz
x,y,z
-x,-y,z
1/2+x,1/2-y,1/2-z
1/2-x,1/2+y,1/2-z
-x,-y,-z
x,y,-z
1/2-x,1/2+y,1/2+z
1/2+x,1/2-y,1/2+z
loop_
_atom_site_type_symbol
_atom_site_label
_atom_site_fract_x
_atom_site_fract_y
_atom_site_fract_z
Si Si1 0.191038 0.057482 0.404698
Si Si2 0.000000 0.500000 0.801467
Si Si3 0.558497 0.692598 0.936231
Si Si4 0.000000 0.500000 0.000000
Si Si5 0.123196 0.345630 0.753319
Si Si6 0.442050 0.286140 0.564477
Si Si7 0.879986 0.799812 0.185656
O O1 0.275308 0.025649 0.344842
O O2 0.035547 0.130279 0.395345
O O3 0.432275 0.059131 0.448770
O O4 0.000000 0.000000 0.434872
O O5 0.077960 0.428115 0.768544
O O6 0.853321 0.719871 0.934241
O O7 0.355548 0.758371 0.928856
O O8 0.510441 0.663383 0.000000
O O9 0.910711 0.321624 0.705379
O O10 0.089736 0.286544 0.804222
O O11 0.414105 0.334357 0.729310
O O12 0.468089 0.317732 0.500000
O O13 0.536713 0.324558 0.622212
#
# Coordination Sequence:
#
# PCOD9444051 Si02
#       7
#     8   4   8   2   8   8   8
#     4  11  24  33  52  73 114 161 201 244 284 333
#     4  11  26  39  56  88 113 154 203 260 294 340
#     4  10  21  33  52  78 117 154 193 234 275 337
#     4  10  22  36  44  70 108 160 216 224 284 334
#     4  10  23  39  61  84 117 155 201 242 295 352
#     4  10  21  36  59  88 112 145 194 247 295 352
#     4  10  21  40  62  85 114 156 194 242 298 362
#
# _framework density 20.679269000000001
#
# number of rings (size 3 to 8) (size 9 to 14) (size 15 to 20)
#    0.000    1.739    0.870    2.348    9.739    1.391 
#    0.000    0.000    0.000    0.000    0.000    3.652 
#    0.000    0.000    0.000    0.000    0.000    0.000 
#
# Total GULP energy -256225.505995 kJ/mol
# GULP energy per Si atom -5570.119696 kJ/mol
# Density = 2.063220 g / cm^3
# Si number density = 20.679269 Si / 1000 Ang^3
#
#
#
# Elastic Constant Matrix: (Units=GPa)
#
#
# Indices 1 2 3 4 5 6 
#
# 1 43.7815 -2.6239 -16.3456 0.0000 0.0000 0.0000
# 2 -2.6239 70.9557 13.4774 0.0000 0.0000 0.0000
# 3 -16.3456 13.4774 85.9071 0.0000 0.0000 0.0000
# 4 0.0000 0.0000 0.0000 18.7717 0.0000 0.0000
# 5 0.0000 0.0000 0.0000 0.0000 55.6067 0.0000
# 6 0.0000 0.0000 0.0000 0.0000 0.0000 20.0958
#
#
#
# Elastic Compliance Matrix: (Units=1/GPa)
#
#
# Indices 1 2 3 4 5 6 
#
# 1 0.024587 0.000021 0.004675 0.000000 0.000000 0.000000
# 2 0.000021 0.014526 -0.002275 0.000000 0.000000 0.000000
# 3 0.004675 -0.002275 0.012887 0.000000 0.000000 0.000000
# 4 0.000000 0.000000 0.000000 0.053272 0.000000 0.000000
# 5 0.000000 0.000000 0.000000 0.000000 0.017983 0.000000
# 6 0.000000 0.000000 0.000000 0.000000 0.000000 0.049762
#
#
# Mechanical properties :
#
#
# Convention : Reuss Voigt Hill
#
# Bulk Modulus (GPa) = 17.59232 21.07334 19.33283
# Shear Modulus (GPa) = 26.72052 32.63728 29.67890
#
# Velocity S-wave (km/s) = 3.59854 3.97704 3.79251
# Velocity P-wave (km/s) = 5.07855 5.59481 5.34291
#
# Compressibility (1/GPa) = 0.05684299
#
# Stress axis : x y z
#
# Youngs Moduli (GPa) = 40.67137 68.84125 77.59833
#
# Poissons Ratio (x) = -0.00146 -0.36277
# Poissons Ratio (y) = -0.00086 0.17653
# Poissons Ratio (z) = -0.19014 0.15660
#
# Static dielectric constant tensor:
#      x y z
#    x 1.885730 0.000000 0.000000 
#    y 0.000000 1.745300 0.000000 
#    z 0.000000 0.000000 1.807750 
# 
# From -- ./inp_files/30980.got.cif
#   From: 2010.05.17/outbox.cif.g08.bks.cpg/sg58_16_cif.got.tgz:30980.got - 2010.06.03 14:20:14.
