data_PCOD9444892
_publ_section_title
;
Structure prediction by ZEFSAII (Michael W. Deem and Ramdas Pophale) SiO2 
 PCOD9444892
Probable space group: P N N M
;
_chemical_formula_sum "Si O2"
_cell_formula_units_Z 48
_cell_length_a 9.912703
_cell_length_b 9.079395
_cell_length_c 29.386815
_cell_angle_alpha 90.000000
_cell_angle_beta 90.000000
_cell_angle_gamma 90.000000
_cell_volume 2644.852906
_symmetry_space_group_name_H-M "P N N M"
_symmetry_group_IT_number 58
_symmetry_cell_setting 'orthorhombic'
loop_
_space_group_symop_operation_xyz
x,y,z
-x,-y,z
1/2+x,1/2-y,1/2-z
1/2-x,1/2+y,1/2-z
-x,-y,-z
x,y,-z
1/2-x,1/2+y,1/2+z
1/2+x,1/2-y,1/2+z
loop_
_atom_site_type_symbol
_atom_site_label
_atom_site_fract_x
_atom_site_fract_y
_atom_site_fract_z
Si Si1 0.838771 0.869730 0.949504
Si Si2 0.342458 0.966934 0.427449
Si Si3 0.201862 0.486609 0.819949
Si Si4 0.500000 0.500000 0.366959
Si Si5 0.641638 0.409211 0.000000
Si Si6 0.014276 0.751601 0.794240
Si Si7 0.000000 0.000000 0.718162
Si Si8 0.855265 0.564150 0.500000
O O1 0.805423 0.700328 0.940905
O O2 0.905091 0.919608 0.903015
O O3 0.724110 0.990691 0.958093
O O4 0.911241 0.869143 0.000000
O O5 0.326002 0.995876 0.373896
O O6 0.500000 0.000000 0.439161
O O7 0.235681 0.057750 0.456532
O O8 0.127551 0.624123 0.795196
O O9 0.360544 0.491635 0.809711
O O10 0.124936 0.337508 0.803805
O O11 0.450952 0.368870 0.334151
O O12 0.500000 0.500000 0.000000
O O13 0.624971 0.235765 0.000000
O O14 0.000362 0.853681 0.749930
O O15 0.000000 0.500000 0.500000
#
# Coordination Sequence:
#
# PCOD9444892 Si02
#       8
#     8   8   8   4   4   8   4   4
#     4  10  22  35  59  87 128 158 213 258 306 361
#     4  12  23  41  65  95 131 171 220 261 314 378
#     4  11  22  41  64  95 128 161 211 269 313 389
#     4  11  19  36  61  94 116 163 210 261 315 360
#     4  12  27  42  68  92 132 179 214 260 318 374
#     4  10  22  41  65  88 128 160 207 265 318 392
#     4  11  24  40  67  93 121 165 206 258 345 382
#     4  10  24  41  56  82 126 172 204 254 307 369
#
# _framework density 18.148458000000002
#
# number of rings (size 3 to 8) (size 9 to 14) (size 15 to 20)
#    0.500    0.667    4.167    2.500    5.833    0.000 
#    0.000    0.000    0.000    0.000    0.000    0.000 
#    0.000    0.000    0.000    0.000    0.000    0.000 
#
# Total GULP energy -267248.478314 kJ/mol
# GULP energy per Si atom -5567.676632 kJ/mol
# Density = 1.810715 g / cm^3
# Si number density = 18.148458 Si / 1000 Ang^3
#
#
#
# Elastic Constant Matrix: (Units=GPa)
#
#
# Indices 1 2 3 4 5 6 
#
# 1 91.9335 34.2460 29.5035 0.0000 0.0000 0.0000
# 2 34.2460 148.7692 21.8229 0.0000 0.0000 0.0000
# 3 29.5035 21.8229 63.1499 0.0000 0.0000 0.0000
# 4 0.0000 0.0000 0.0000 25.0542 0.0000 0.0000
# 5 0.0000 0.0000 0.0000 0.0000 -75.0076 0.0000
# 6 0.0000 0.0000 0.0000 0.0000 0.0000 30.9002
#
#
#
# Elastic Compliance Matrix: (Units=1/GPa)
#
#
# Indices 1 2 3 4 5 6 
#
# 1 0.013504 -0.002300 -0.005514 0.000000 0.000000 0.000000
# 2 -0.002300 0.007472 -0.001508 0.000000 0.000000 0.000000
# 3 -0.005514 -0.001508 0.018933 0.000000 0.000000 0.000000
# 4 0.000000 0.000000 0.000000 0.039913 0.000000 0.000000
# 5 0.000000 0.000000 0.000000 0.000000 -0.013332 0.000000
# 6 0.000000 0.000000 0.000000 0.000000 0.000000 0.032362
#
#
# Mechanical properties :
#
#
# Convention : Reuss Voigt Hill
#
# Bulk Modulus (GPa) = 47.02493 52.77748 49.90121
# Shear Modulus (GPa) = 40.13349 10.74138 25.43744
#
# Velocity S-wave (km/s) = 4.70765 2.43546 3.74790
# Velocity P-wave (km/s) = 7.45096 6.08710 6.80329
#
# Compressibility (1/GPa) = 0.02126531
#
# Stress axis : x y z
#
# Youngs Moduli (GPa) = 74.05386 133.82630 52.81880
#
# Poissons Ratio (x) = 0.30775 0.29125
# Poissons Ratio (y) = 0.17030 0.07964
# Poissons Ratio (z) = 0.40835 0.20179
#
# Static dielectric constant tensor:
#      x y z
#    x 1.678640 0.000000 0.000000 
#    y 0.000000 1.709120 0.000000 
#    z 0.000000 0.000000 1.609000 
# 
# From -- ./inp_files/34667.got.cif
#   From: 2010.05.17/outbox.cif.g08.bks.cpg/sg58_18_cif.got.tgz:34667.got - 2010.06.03 14:20:14.
