data_PCOD9444823
_publ_section_title
;
Structure prediction by ZEFSAII (Michael W. Deem and Ramdas Pophale) SiO2 
 PCOD9444823
Probable space group: P N N M
;
_chemical_formula_sum "Si O2"
_cell_formula_units_Z 58
_cell_length_a 13.383487
_cell_length_b 24.417936
_cell_length_c 7.860104
_cell_angle_alpha 90.000000
_cell_angle_beta 90.000000
_cell_angle_gamma 90.000000
_cell_volume 2568.659421
_symmetry_space_group_name_H-M "P N N M"
_symmetry_group_IT_number 58
_symmetry_cell_setting 'orthorhombic'
loop_
_space_group_symop_operation_xyz
x,y,z
-x,-y,z
1/2+x,1/2-y,1/2-z
1/2-x,1/2+y,1/2-z
-x,-y,-z
x,y,-z
1/2-x,1/2+y,1/2+z
1/2+x,1/2-y,1/2+z
loop_
_atom_site_type_symbol
_atom_site_label
_atom_site_fract_x
_atom_site_fract_y
_atom_site_fract_z
Si Si1 0.566230 0.845447 0.698660
Si Si2 0.538885 0.376362 0.294544
Si Si3 0.000000 0.500000 0.500000
Si Si4 0.155588 0.321232 0.209274
Si Si5 0.622725 0.970828 0.311323
Si Si6 0.169895 0.900294 0.699130
Si Si7 0.780641 0.798408 0.202585
Si Si8 0.160468 0.022597 0.196451
O O1 0.565134 0.831237 0.500000
O O2 0.458624 0.827726 0.769982
O O3 0.574024 0.911081 0.712984
O O4 0.668796 0.819963 0.767039
O O5 0.530667 0.372453 0.500000
O O6 0.429821 0.364049 0.221495
O O7 0.630495 0.338223 0.234789
O O8 0.570567 0.438467 0.246969
O O9 0.915204 0.505566 0.347464
O O10 0.231480 0.369175 0.262066
O O11 0.200279 0.263047 0.265100
O O12 0.154337 0.322700 0.000000
O O13 0.602486 0.993271 0.500000
O O14 0.740504 0.962479 0.297707
O O15 0.183935 0.912426 0.500000
O O16 0.149100 0.957779 0.789699
O O17 0.793439 0.797041 0.000000
O O18 0.178333 0.037629 0.000000
#
# Coordination Sequence:
#
# PCOD9444823 Si02
#       8
#     8   8   2   8   8   8   8   8
#     4  10  22  41  66  93 128 165 217 274 331 400
#     4  10  22  40  64  91 124 167 218 274 331 394
#     4  12  26  40  64  94 138 176 226 272 332 406
#     4   9  22  42  62  91 128 170 209 266 337 400
#     4  11  24  41  65  97 133 179 226 279 336 402
#     4  11  24  40  62  92 133 171 217 272 334 403
#     4  10  21  41  68  90 123 168 214 268 333 399
#     4  11  22  41  64  93 130 172 221 274 331 401
#
# _framework density 22.579871000000001
#
# number of rings (size 3 to 8) (size 9 to 14) (size 15 to 20)
#    0.000    1.655    2.069    1.448    4.828    3.310 
#    0.000    2.759    0.000    0.000    0.000    0.000 
#    0.000    0.000    0.000    0.000    0.000    0.000 
#
# Total GULP energy -323554.232917 kJ/mol
# GULP energy per Si atom -5578.521257 kJ/mol
# Density = 2.252848 g / cm^3
# Si number density = 22.579871 Si / 1000 Ang^3
#
#
#
# Elastic Constant Matrix: (Units=GPa)
#
#
# Indices 1 2 3 4 5 6 
#
# 1 139.5329 31.7084 14.0066 0.0000 0.0000 0.0000
# 2 31.7084 53.0282 17.3637 0.0000 0.0000 0.0000
# 3 14.0066 17.3637 70.6375 0.0000 0.0000 0.0000
# 4 0.0000 0.0000 0.0000 3.1055 0.0000 0.0000
# 5 0.0000 0.0000 0.0000 0.0000 27.4793 0.0000
# 6 0.0000 0.0000 0.0000 0.0000 0.0000 31.2091
#
#
#
# Elastic Compliance Matrix: (Units=1/GPa)
#
#
# Indices 1 2 3 4 5 6 
#
# 1 0.008308 -0.004816 -0.000464 0.000000 0.000000 0.000000
# 2 -0.004816 0.023300 -0.004773 0.000000 0.000000 0.000000
# 3 -0.000464 -0.004773 0.015422 0.000000 0.000000 0.000000
# 4 0.000000 0.000000 0.000000 0.322008 0.000000 0.000000
# 5 0.000000 0.000000 0.000000 0.000000 0.036391 0.000000
# 6 0.000000 0.000000 0.000000 0.000000 0.000000 0.032042
#
#
# Mechanical properties :
#
#
# Convention : Reuss Voigt Hill
#
# Bulk Modulus (GPa) = 37.13895 43.26180 40.20038
# Shear Modulus (GPa) = 10.71695 25.70011 18.20853
#
# Velocity S-wave (km/s) = 2.18095 3.37736 2.84281
# Velocity P-wave (km/s) = 4.77761 5.86599 5.34955
#
# Compressibility (1/GPa) = 0.02692591
#
# Stress axis : x y z
#
# Youngs Moduli (GPa) = 120.37056 42.91786 64.84297
#
# Poissons Ratio (x) = 0.20669 0.03006
# Poissons Ratio (y) = 0.57969 0.30947
# Poissons Ratio (z) = 0.05579 0.20483
#
# Static dielectric constant tensor:
#      x y z
#    x 1.865590 0.000000 0.000000 
#    y 0.000000 1.881270 0.000000 
#    z 0.000000 0.000000 1.838130 
# 
# From -- ./inp_files/4456.got.cif
#   From: 2010.05.17/outbox.cif.g08.bks.cpg/sg58_3_cif.got.tgz:4456.got - 2010.06.03 14:20:14.
