data_PCOD9444336
_publ_section_title
;
Structure prediction by ZEFSAII (Michael W. Deem and Ramdas Pophale) SiO2 
 PCOD9444336
Probable space group: P N N M
;
_chemical_formula_sum "Si O2"
_cell_formula_units_Z 48
_cell_length_a 17.705605
_cell_length_b 7.259299
_cell_length_c 14.531860
_cell_angle_alpha 90.000000
_cell_angle_beta 90.000000
_cell_angle_gamma 90.000000
_cell_volume 1867.784044
_symmetry_space_group_name_H-M "P N N M"
_symmetry_group_IT_number 58
_symmetry_cell_setting 'orthorhombic'
loop_
_space_group_symop_operation_xyz
x,y,z
-x,-y,z
1/2+x,1/2-y,1/2-z
1/2-x,1/2+y,1/2-z
-x,-y,-z
x,y,-z
1/2-x,1/2+y,1/2+z
1/2+x,1/2-y,1/2+z
loop_
_atom_site_type_symbol
_atom_site_label
_atom_site_fract_x
_atom_site_fract_y
_atom_site_fract_z
Si Si1 0.550361 0.684669 0.604836
Si Si2 0.016079 0.711259 0.691260
Si Si3 0.341518 0.113623 0.894524
Si Si4 0.706286 0.839269 0.601476
Si Si5 0.857371 0.781120 0.697278
Si Si6 0.169587 0.245690 0.900824
O O1 0.500000 0.500000 0.605004
O O2 0.541066 0.762517 0.500000
O O3 0.524483 0.785438 0.698213
O O4 0.642215 0.686345 0.618573
O O5 0.941539 0.822129 0.660772
O O6 0.000000 0.500000 0.662898
O O7 0.096517 0.753440 0.645916
O O8 0.258125 0.196914 0.896349
O O9 0.342556 0.933483 0.829975
O O10 0.361141 0.064997 0.000000
O O11 0.738214 0.799413 0.500000
O O12 0.778735 0.866142 0.664943
O O13 0.663237 0.033059 0.599505
O O14 0.864797 0.813892 0.805360
O O15 0.140037 0.177941 0.000000
#
# Coordination Sequence:
#
# PCOD9444336 Si02
#       6
#     8   8   8   8   8   8
#     4  10  22  40  61  87 123 163 203 253 312 373
#     4  10  22  37  57  86 119 159 202 252 309 364
#     4  10  22  40  60  84 118 159 202 247 300 363
#     4  10  21  38  59  84 115 151 196 249 301 354
#     4  11  21  35  59  87 115 153 200 252 303 358
#     4  10  21  37  58  84 116 154 195 245 302 361
#
# _framework density 25.698905
#
# number of rings (size 3 to 8) (size 9 to 14) (size 15 to 20)
#    0.000    1.833    0.000    4.500    0.000    8.667 
#    0.000    3.333    0.000    3.500    0.000    0.000 
#    0.000    0.000    0.000    0.000    0.000    0.000 
#
# Total GULP energy -268249.336892 kJ/mol
# GULP energy per Si atom -5588.527852 kJ/mol
# Density = 2.564041 g / cm^3
# Si number density = 25.698905 Si / 1000 Ang^3
#
#
#
# Elastic Constant Matrix: (Units=GPa)
#
#
# Indices 1 2 3 4 5 6 
#
# 1 143.0452 -6.1032 40.4325 0.0000 0.0000 0.0000
# 2 -6.1032 56.8900 4.7705 0.0000 0.0000 0.0000
# 3 40.4325 4.7705 108.0054 0.0000 0.0000 0.0000
# 4 0.0000 0.0000 0.0000 28.1312 0.0000 0.0000
# 5 0.0000 0.0000 0.0000 0.0000 11.8083 0.0000
# 6 0.0000 0.0000 0.0000 0.0000 0.0000 26.6644
#
#
#
# Elastic Compliance Matrix: (Units=1/GPa)
#
#
# Indices 1 2 3 4 5 6 
#
# 1 0.007886 0.001098 -0.003001 0.000000 0.000000 0.000000
# 2 0.001098 0.017796 -0.001197 0.000000 0.000000 0.000000
# 3 -0.003001 -0.001197 0.010435 0.000000 0.000000 0.000000
# 4 0.000000 0.000000 0.000000 0.035548 0.000000 0.000000
# 5 0.000000 0.000000 0.000000 0.000000 0.084686 0.000000
# 6 0.000000 0.000000 0.000000 0.000000 0.000000 0.037503
#
#
# Mechanical properties :
#
#
# Convention : Reuss Voigt Hill
#
# Bulk Modulus (GPa) = 33.42597 42.90444 38.16521
# Shear Modulus (GPa) = 23.80662 31.24352 27.52507
#
# Velocity S-wave (km/s) = 3.04693 3.49055 3.27626
# Velocity P-wave (km/s) = 5.04117 5.74252 5.40324
#
# Compressibility (1/GPa) = 0.02991686
#
# Stress axis : x y z
#
# Youngs Moduli (GPa) = 126.81100 56.19269 95.83194
#
# Poissons Ratio (x) = -0.06168 0.28755
# Poissons Ratio (y) = -0.13919 0.11470
# Poissons Ratio (z) = 0.38050 0.06726
#
# Static dielectric constant tensor:
#      x y z
#    x 2.039510 0.000000 0.000000 
#    y 0.000000 2.049180 0.000000 
#    z 0.000000 0.000000 1.988370 
# 
# From -- ./inp_files/22755.got.cif
#   From: 2010.05.17/outbox.cif.g08.bks.cpg/sg58_12_cif.got.tgz:22755.got - 2010.06.03 14:20:14.
