data_PCOD9444662
_publ_section_title
;
Structure prediction by ZEFSAII (Michael W. Deem and Ramdas Pophale) SiO2 
 PCOD9444662
Probable space group: P N N M
;
_chemical_formula_sum "Si O2"
_cell_formula_units_Z 64
_cell_length_a 8.506625
_cell_length_b 10.572906
_cell_length_c 32.238971
_cell_angle_alpha 90.000000
_cell_angle_beta 90.000000
_cell_angle_gamma 90.000000
_cell_volume 2899.564879
_symmetry_space_group_name_H-M "P N N M"
_symmetry_group_IT_number 58
_symmetry_cell_setting 'orthorhombic'
loop_
_space_group_symop_operation_xyz
x,y,z
-x,-y,z
1/2+x,1/2-y,1/2-z
1/2-x,1/2+y,1/2-z
-x,-y,-z
x,y,-z
1/2-x,1/2+y,1/2+z
1/2+x,1/2-y,1/2+z
loop_
_atom_site_type_symbol
_atom_site_label
_atom_site_fract_x
_atom_site_fract_y
_atom_site_fract_z
Si Si1 0.197386 0.275192 0.228927
Si Si2 0.595421 0.872433 0.160638
Si Si3 0.817168 0.490077 0.575444
Si Si4 0.318247 0.751574 0.546033
Si Si5 0.191007 0.988850 0.679950
Si Si6 0.915923 0.137295 0.391620
Si Si7 0.428462 0.357845 0.398096
Si Si8 0.641743 0.760595 0.311649
O O1 0.307320 0.184362 0.199601
O O2 0.251489 0.418141 0.220380
O O3 0.221410 0.259908 0.277716
O O4 0.018821 0.260737 0.214631
O O5 0.696910 0.925919 0.121735
O O6 0.507155 0.755139 0.135368
O O7 0.500000 0.000000 0.172917
O O8 0.735607 0.394545 0.544501
O O9 0.734359 0.624742 0.577272
O O10 0.000000 0.500000 0.567130
O O11 0.357021 0.797558 0.500000
O O12 0.167621 0.818945 0.566767
O O13 0.462146 0.743119 0.578580
O O14 0.299889 0.106432 0.670952
O O15 0.219742 0.895328 0.641584
O O16 0.000000 0.000000 0.683573
O O17 0.000000 0.000000 0.397533
O O18 0.500000 0.500000 0.401198
O O19 0.390528 0.327706 0.350612
#
# Coordination Sequence:
#
# PCOD9444662 Si02
#       8
#     8   8   8   8   8   8   8   8
#     4  11  24  39  57  90 127 168 222 274 323 373
#     4   9  19  38  63  92 128 168 218 271 321 381
#     4   9  19  34  60  95 127 163 208 261 323 382
#     4  10  21  39  63  91 126 167 211 262 322 391
#     4  10  22  41  63  89 125 171 221 266 319 383
#     4   9  19  38  64  95 129 167 215 265 318 386
#     4  10  22  41  65  93 129 172 212 261 326 390
#     4  12  25  41  62  89 128 174 218 268 321 383
#
# _framework density 22.072278000000001
#
# number of rings (size 3 to 8) (size 9 to 14) (size 15 to 20)
#    0.000    2.000    0.000    4.125    0.000   16.250 
#    0.000    0.000    0.000    1.500    0.000    0.000 
#    0.000    0.000    0.000    0.000    0.000    0.000 
#
# Total GULP energy -356334.152467 kJ/mol
# GULP energy per Si atom -5567.721132 kJ/mol
# Density = 2.202204 g / cm^3
# Si number density = 22.072278 Si / 1000 Ang^3
#
#
#
# Elastic Constant Matrix: (Units=GPa)
#
#
# Indices 1 2 3 4 5 6 
#
# 1 87.1916 27.8695 10.5005 0.0000 0.0000 0.0000
# 2 27.8695 85.3289 26.4188 0.0000 0.0000 0.0000
# 3 10.5005 26.4188 84.2761 0.0000 0.0000 0.0000
# 4 0.0000 0.0000 0.0000 10.9680 0.0000 0.0000
# 5 0.0000 0.0000 0.0000 0.0000 6.1236 0.0000
# 6 0.0000 0.0000 0.0000 0.0000 0.0000 34.3607
#
#
#
# Elastic Compliance Matrix: (Units=1/GPa)
#
#
# Indices 1 2 3 4 5 6 
#
# 1 0.012813 -0.004087 -0.000315 0.000000 0.000000 0.000000
# 2 -0.004087 0.014283 -0.003968 0.000000 0.000000 0.000000
# 3 -0.000315 -0.003968 0.013149 0.000000 0.000000 0.000000
# 4 0.000000 0.000000 0.000000 0.091174 0.000000 0.000000
# 5 0.000000 0.000000 0.000000 0.000000 0.163304 0.000000
# 6 0.000000 0.000000 0.000000 0.000000 0.000000 0.029103
#
#
# Mechanical properties :
#
#
# Convention : Reuss Voigt Hill
#
# Bulk Modulus (GPa) = 42.54624 42.93046 42.73835
# Shear Modulus (GPa) = 14.35122 23.09097 18.72109
#
# Velocity S-wave (km/s) = 2.55265 3.23794 2.91550
# Velocity P-wave (km/s) = 5.29205 5.78543 5.54423
#
# Compressibility (1/GPa) = 0.02350384
#
# Stress axis : x y z
#
# Youngs Moduli (GPa) = 78.04302 70.01357 76.05164
#
# Poissons Ratio (x) = 0.28618 0.02397
# Poissons Ratio (y) = 0.31900 0.30178
# Poissons Ratio (z) = 0.02460 0.27782
#
# Static dielectric constant tensor:
#      x y z
#    x 1.872210 0.000000 0.000000 
#    y 0.000000 1.925880 0.000000 
#    z 0.000000 0.000000 1.853090 
# 
# From -- ./inp_files/34733.got.cif
#   From: 2010.05.17/outbox.cif.g08.bks.cpg/sg58_18_cif.got.tgz:34733.got - 2010.06.03 14:20:14.
