data_PCOD9444384
_publ_section_title
;
Structure prediction by ZEFSAII (Michael W. Deem and Ramdas Pophale) SiO2 
 PCOD9444384
Probable space group: P N N M
;
_chemical_formula_sum "Si O2"
_cell_formula_units_Z 48
_cell_length_a 10.874971
_cell_length_b 23.178653
_cell_length_c 9.303726
_cell_angle_alpha 90.000000
_cell_angle_beta 90.000000
_cell_angle_gamma 90.000000
_cell_volume 2345.163969
_symmetry_space_group_name_H-M "P N N M"
_symmetry_group_IT_number 58
_symmetry_cell_setting 'orthorhombic'
loop_
_space_group_symop_operation_xyz
x,y,z
-x,-y,z
1/2+x,1/2-y,1/2-z
1/2-x,1/2+y,1/2-z
-x,-y,-z
x,y,-z
1/2-x,1/2+y,1/2+z
1/2+x,1/2-y,1/2+z
loop_
_atom_site_type_symbol
_atom_site_label
_atom_site_fract_x
_atom_site_fract_y
_atom_site_fract_z
Si Si1 0.192610 0.308234 0.333267
Si Si2 0.177295 0.574273 0.332494
Si Si3 0.942636 0.117122 0.166994
Si Si4 0.182837 0.189805 0.168365
Si Si5 0.937123 0.593414 0.166106
Si Si6 0.815091 0.019128 0.334089
O O1 0.155160 0.305469 0.500000
O O2 0.322116 0.342199 0.326343
O O3 0.203982 0.245349 0.264939
O O4 0.097799 0.346622 0.242228
O O5 0.167812 0.558849 0.500000
O O6 0.211922 0.641567 0.320276
O O7 0.284634 0.536886 0.259487
O O8 0.049720 0.565348 0.250740
O O9 0.915103 0.061534 0.264052
O O10 0.058095 0.156127 0.209652
O O11 0.960355 0.099459 0.000000
O O12 0.172297 0.206765 0.000000
O O13 0.814018 0.554817 0.170592
O O14 0.971567 0.601486 0.000000
O O15 0.842138 0.005835 0.500000
#
# Coordination Sequence:
#
# PCOD9444384 Si02
#       6
#     8   8   8   8   8   8
#     4  10  21  37  60  87 112 146 193 238 285 343
#     4  11  23  37  57  87 120 154 194 239 286 343
#     4   9  20  40  61  81 111 152 192 231 286 348
#     4  10  23  40  57  83 118 155 191 234 290 343
#     4  10  21  38  60  85 116 153 192 239 294 342
#     4  10  21  38  60  86 115 151 192 240 292 341
#
# _framework density 20.467652999999999
#
# number of rings (size 3 to 8) (size 9 to 14) (size 15 to 20)
#    0.000    2.000    0.000    2.500    2.333    7.333 
#    0.000    3.333    0.000    0.000    0.000    0.000 
#    0.000    0.000    0.000    0.000    0.000    0.000 
#
# Total GULP energy -268386.604890 kJ/mol
# GULP energy per Si atom -5591.387602 kJ/mol
# Density = 2.042107 g / cm^3
# Si number density = 20.467653 Si / 1000 Ang^3
#
#
#
# Elastic Constant Matrix: (Units=GPa)
#
#
# Indices 1 2 3 4 5 6 
#
# 1 54.0028 -5.6650 19.3774 0.0000 0.0000 0.0000
# 2 -5.6650 83.4454 58.0000 0.0000 0.0000 0.0000
# 3 19.3774 58.0000 128.7193 0.0000 0.0000 0.0000
# 4 0.0000 0.0000 0.0000 37.9220 0.0000 0.0000
# 5 0.0000 0.0000 0.0000 0.0000 17.8326 0.0000
# 6 0.0000 0.0000 0.0000 0.0000 0.0000 14.6870
#
#
#
# Elastic Compliance Matrix: (Units=1/GPa)
#
#
# Indices 1 2 3 4 5 6 
#
# 1 0.021066 0.005292 -0.005556 0.000000 0.000000 0.000000
# 2 0.005292 0.018778 -0.009258 0.000000 0.000000 0.000000
# 3 -0.005556 -0.009258 0.012777 0.000000 0.000000 0.000000
# 4 0.000000 0.000000 0.000000 0.026370 0.000000 0.000000
# 5 0.000000 0.000000 0.000000 0.000000 0.056077 0.000000
# 6 0.000000 0.000000 0.000000 0.000000 0.000000 0.068088
#
#
# Mechanical properties :
#
#
# Convention : Reuss Voigt Hill
#
# Bulk Modulus (GPa) = 29.78210 45.51027 37.64619
# Shear Modulus (GPa) = 21.42325 27.05199 24.23762
#
# Velocity S-wave (km/s) = 3.23877 3.63946 3.44494
# Velocity P-wave (km/s) = 5.34495 6.32015 5.85290
#
# Compressibility (1/GPa) = 0.03357721
#
# Stress axis : x y z
#
# Youngs Moduli (GPa) = 47.46945 53.25406 78.26743
#
# Poissons Ratio (x) = -0.28181 0.43483
# Poissons Ratio (y) = -0.25120 0.72459
# Poissons Ratio (z) = 0.26373 0.49302
#
# Static dielectric constant tensor:
#      x y z
#    x 1.738430 0.000000 0.000000 
#    y 0.000000 1.708220 0.000000 
#    z 0.000000 0.000000 1.691540 
# 
# From -- ./inp_files/4204.got.cif
#   From: 2010.05.17/outbox.cif.g08.bks.cpg/sg58_3_cif.got.tgz:4204.got - 2010.06.03 14:20:14.
