data_PCOD9444906
_publ_section_title
;
Structure prediction by ZEFSAII (Michael W. Deem and Ramdas Pophale) SiO2 
 PCOD9444906
Probable space group: P N N M
;
_chemical_formula_sum "Si O2"
_cell_formula_units_Z 48
_cell_length_a 5.537731
_cell_length_b 17.278948
_cell_length_c 19.451417
_cell_angle_alpha 90.000000
_cell_angle_beta 90.000000
_cell_angle_gamma 90.000000
_cell_volume 1861.231516
_symmetry_space_group_name_H-M "P N N M"
_symmetry_group_IT_number 58
_symmetry_cell_setting 'orthorhombic'
loop_
_space_group_symop_operation_xyz
x,y,z
-x,-y,z
1/2+x,1/2-y,1/2-z
1/2-x,1/2+y,1/2-z
-x,-y,-z
x,y,-z
1/2-x,1/2+y,1/2+z
1/2+x,1/2-y,1/2+z
loop_
_atom_site_type_symbol
_atom_site_label
_atom_site_fract_x
_atom_site_fract_y
_atom_site_fract_z
Si Si1 0.840703 0.906055 0.237825
Si Si2 0.117536 0.274090 0.193040
Si Si3 0.290577 0.303089 0.577037
Si Si4 0.066682 0.822420 0.572491
Si Si5 0.352767 0.904217 0.809383
Si Si6 0.253013 0.046236 0.608966
O O1 0.856531 0.812465 0.225688
O O2 0.627703 0.934340 0.186835
O O3 0.732318 0.928401 0.311780
O O4 0.114870 0.935186 0.229044
O O5 0.297259 0.326238 0.144741
O O6 0.102870 0.326782 0.261272
O O7 0.935326 0.249802 0.131401
O O8 0.392663 0.306566 0.500000
O O9 0.026501 0.265009 0.572064
O O10 0.249706 0.383158 0.616000
O O11 0.197864 0.839821 0.500000
O O12 0.825812 0.875078 0.571930
O O13 0.500000 0.000000 0.590534
O O14 0.000000 0.000000 0.599428
#
# Coordination Sequence:
#
# PCOD9444906 Si02
#       6
#     8   8   8   8   8   8
#     4  11  21  38  62  92 116 162 208 279 336 381
#     4  11  20  35  63  93 124 163 214 274 354 396
#     4  10  22  36  57  96 137 168 202 262 338 421
#     4  11  23  40  61  90 129 177 219 272 330 392
#     4  11  20  34  63  89 124 156 208 254 348 394
#     4  12  27  45  62  88 129 182 237 274 305 376
#
# _framework density 25.789377999999999
#
# number of rings (size 3 to 8) (size 9 to 14) (size 15 to 20)
#    0.000    1.000    3.333    5.500    2.333    0.667 
#    0.000    0.000    0.000    0.000    0.000    0.000 
#    0.000   90.667    0.000    0.000    0.000    0.000 
#
# Total GULP energy -267343.102588 kJ/mol
# GULP energy per Si atom -5569.647971 kJ/mol
# Density = 2.573068 g / cm^3
# Si number density = 25.789378 Si / 1000 Ang^3
#
#
#
# Elastic Constant Matrix: (Units=GPa)
#
#
# Indices 1 2 3 4 5 6 
#
# 1 142.0637 21.2972 17.7928 0.0000 0.0000 0.0000
# 2 21.2972 30.3965 -3.3528 0.0000 0.0000 0.0000
# 3 17.7928 -3.3528 144.8348 0.0000 0.0000 0.0000
# 4 0.0000 0.0000 0.0000 -6.0496 0.0000 0.0000
# 5 0.0000 0.0000 0.0000 0.0000 23.6035 0.0000
# 6 0.0000 0.0000 0.0000 0.0000 0.0000 42.5432
#
#
#
# Elastic Compliance Matrix: (Units=1/GPa)
#
#
# Indices 1 2 3 4 5 6 
#
# 1 0.008043 -0.005759 -0.001121 0.000000 0.000000 0.000000
# 2 -0.005759 0.037106 0.001566 0.000000 0.000000 0.000000
# 3 -0.001121 0.001566 0.007078 0.000000 0.000000 0.000000
# 4 0.000000 0.000000 0.000000 -0.165301 0.000000 0.000000
# 5 0.000000 0.000000 0.000000 0.000000 0.042367 0.000000
# 6 0.000000 0.000000 0.000000 0.000000 0.000000 0.023506
#
#
# Mechanical properties :
#
#
# Convention : Reuss Voigt Hill
#
# Bulk Modulus (GPa) = 24.03852 43.19662 33.61757
# Shear Modulus (GPa) = -220.19699 30.78994 -94.70352
#
# Velocity S-wave (km/s) = -9.25031 3.45903 -6.06643
# Velocity P-wave (km/s) = 10.23472 5.72183 6.00043
#
# Compressibility (1/GPa) = 0.04159990
#
# Stress axis : x y z
#
# Youngs Moduli (GPa) = 124.33355 26.94963 141.27409
#
# Poissons Ratio (x) = 0.15520 0.15842
# Poissons Ratio (y) = 0.71603 -0.22130
# Poissons Ratio (z) = 0.13942 -0.04222
#
# Static dielectric constant tensor:
#      x y z
#    x 2.245810 0.000000 0.000000 
#    y 0.000000 2.394520 0.000000 
#    z 0.000000 0.000000 2.026330 
# 
# From -- ./inp_files/28142.got.cif
#   From: 2010.05.17/outbox.cif.g08.bks.cpg/sg58_15_cif.got.tgz:28142.got - 2010.06.03 14:20:14.
