data_PCOD9444610
_publ_section_title
;
Structure prediction by ZEFSAII (Michael W. Deem and Ramdas Pophale) SiO2 
 PCOD9444610
Probable space group: P N N M
;
_chemical_formula_sum "Si O2"
_cell_formula_units_Z 58
_cell_length_a 27.102908
_cell_length_b 13.157913
_cell_length_c 7.462228
_cell_angle_alpha 90.000000
_cell_angle_beta 90.000000
_cell_angle_gamma 90.000000
_cell_volume 2661.162627
_symmetry_space_group_name_H-M "P N N M"
_symmetry_group_IT_number 58
_symmetry_cell_setting 'orthorhombic'
loop_
_space_group_symop_operation_xyz
x,y,z
-x,-y,z
1/2+x,1/2-y,1/2-z
1/2-x,1/2+y,1/2-z
-x,-y,-z
x,y,-z
1/2-x,1/2+y,1/2+z
1/2+x,1/2-y,1/2+z
loop_
_atom_site_type_symbol
_atom_site_label
_atom_site_fract_x
_atom_site_fract_y
_atom_site_fract_z
Si Si1 0.338707 0.759380 0.284189
Si Si2 0.500000 0.000000 0.500000
Si Si3 0.315374 0.984220 0.795569
Si Si4 0.441663 0.668095 0.716959
Si Si5 0.574691 0.964987 0.218609
Si Si6 0.290380 0.546357 0.281407
Si Si7 0.050877 0.761000 0.704862
Si Si8 0.608095 0.537120 0.709956
O O1 0.338410 0.767088 0.500000
O O2 0.395150 0.737301 0.228864
O O3 0.307034 0.660368 0.236032
O O4 0.317510 0.862551 0.208020
O O5 0.460460 0.965990 0.339692
O O6 0.368487 0.019557 0.726763
O O7 0.263848 0.019673 0.712560
O O8 0.315169 0.021819 0.000000
O O9 0.444873 0.668451 0.500000
O O10 0.494172 0.705819 0.782680
O O11 0.427289 0.553566 0.778989
O O12 0.559173 0.851100 0.281549
O O13 0.569048 0.978446 0.000000
O O14 0.288202 0.538517 0.500000
O O15 0.336170 0.475850 0.219343
O O16 0.065719 0.749627 0.500000
O O17 0.084004 0.853092 0.775222
O O18 0.612201 0.513622 0.500000
#
# Coordination Sequence:
#
# PCOD9444610 Si02
#       8
#     8   2   8   8   8   8   8   8
#     4   9  19  35  59  85 110 145 200 244 290 362
#     4  12  26  44  72  82 122 172 202 248 306 358
#     4  10  21  39  60  83 121 155 187 244 307 354
#     4   9  19  34  55  82 112 151 200 248 289 349
#     4  10  26  43  60  94 125 157 204 252 300 365
#     4   8  17  37  60  83 113 156 193 243 307 354
#     4  11  23  36  53  83 122 157 190 240 307 362
#     4   9  18  35  58  83 112 150 203 248 291 360
#
# _framework density 21.794986000000002
#
# number of rings (size 3 to 8) (size 9 to 14) (size 15 to 20)
#    0.000    2.483    0.000    2.690    4.828    3.862 
#    0.000    4.828    0.000    0.000    0.000    0.000 
#    0.000    0.000    0.000    0.000    0.000    0.000 
#
# Total GULP energy -323214.083870 kJ/mol
# GULP energy per Si atom -5572.656618 kJ/mol
# Density = 2.174538 g / cm^3
# Si number density = 21.794986 Si / 1000 Ang^3
#
#
#
# Elastic Constant Matrix: (Units=GPa)
#
#
# Indices 1 2 3 4 5 6 
#
# 1 182.7689 58.8432 11.4254 0.0000 0.0000 0.0000
# 2 58.8432 65.8495 -2.1942 0.0000 0.0000 0.0000
# 3 11.4254 -2.1942 76.0691 0.0000 0.0000 0.0000
# 4 0.0000 0.0000 0.0000 25.2240 0.0000 0.0000
# 5 0.0000 0.0000 0.0000 0.0000 -8.0128 0.0000
# 6 0.0000 0.0000 0.0000 0.0000 0.0000 23.4413
#
#
#
# Elastic Compliance Matrix: (Units=1/GPa)
#
#
# Indices 1 2 3 4 5 6 
#
# 1 0.007823 -0.007037 -0.001378 0.000000 0.000000 0.000000
# 2 -0.007037 0.021530 0.001678 0.000000 0.000000 0.000000
# 3 -0.001378 0.001678 0.013401 0.000000 0.000000 0.000000
# 4 0.000000 0.000000 0.000000 0.039645 0.000000 0.000000
# 5 0.000000 0.000000 0.000000 0.000000 -0.124800 0.000000
# 6 0.000000 0.000000 0.000000 0.000000 0.000000 0.042660
#
#
# Mechanical properties :
#
#
# Convention : Reuss Voigt Hill
#
# Bulk Modulus (GPa) = 34.15184 51.20402 42.67793
# Shear Modulus (GPa) = 212.83303 25.23803 119.03553
#
# Velocity S-wave (km/s) = 9.89264 3.40659 7.39828
# Velocity P-wave (km/s) = 12.09088 6.24641 9.62307
#
# Compressibility (1/GPa) = 0.02928100
#
# Stress axis : x y z
#
# Youngs Moduli (GPa) = 127.82874 46.44703 74.61957
#
# Poissons Ratio (x) = 0.32683 0.10282
# Poissons Ratio (y) = 0.89947 -0.12520
# Poissons Ratio (z) = 0.17614 -0.07793
#
# Static dielectric constant tensor:
#      x y z
#    x 1.800880 0.000000 0.000000 
#    y 0.000000 1.868690 0.000000 
#    z 0.000000 0.000000 1.838640 
# 
# From -- ./inp_files/10423.got.cif
#   From: 2010.05.17/outbox.cif.g08.bks.cpg/sg58_6_cif.got.tgz:10423.got - 2010.06.03 14:20:14.
