data_PCOD9444659
_publ_section_title
;
Structure prediction by ZEFSAII (Michael W. Deem and Ramdas Pophale) SiO2 
 PCOD9444659
Probable space group: P N N M
;
_chemical_formula_sum "Si O2"
_cell_formula_units_Z 64
_cell_length_a 14.571664
_cell_length_b 22.939246
_cell_length_c 9.463300
_cell_angle_alpha 90.000000
_cell_angle_beta 90.000000
_cell_angle_gamma 90.000000
_cell_volume 3163.230907
_symmetry_space_group_name_H-M "P N N M"
_symmetry_group_IT_number 58
_symmetry_cell_setting 'orthorhombic'
loop_
_space_group_symop_operation_xyz
x,y,z
-x,-y,z
1/2+x,1/2-y,1/2-z
1/2-x,1/2+y,1/2-z
-x,-y,-z
x,y,-z
1/2-x,1/2+y,1/2+z
1/2+x,1/2-y,1/2+z
loop_
_atom_site_type_symbol
_atom_site_label
_atom_site_fract_x
_atom_site_fract_y
_atom_site_fract_z
Si Si1 0.542222 0.200899 0.332553
Si Si2 0.894980 0.020275 0.658783
Si Si3 0.746965 0.414052 0.832832
Si Si4 0.653878 0.113238 0.157426
Si Si5 0.889256 0.245337 0.662907
Si Si6 0.310735 0.699487 0.663385
Si Si7 0.133634 0.866681 0.839180
Si Si8 0.395884 0.017566 0.165750
O O1 0.529448 0.198830 0.500000
O O2 0.594167 0.144367 0.275107
O O3 0.447894 0.208268 0.249890
O O4 0.606335 0.257123 0.298209
O O5 0.872714 0.043062 0.500000
O O6 0.886115 0.070696 0.773214
O O7 0.827146 0.966190 0.685203
O O8 0.000000 0.000000 0.658241
O O9 0.705474 0.356239 0.761518
O O10 0.840834 0.435286 0.756916
O O11 0.761783 0.405377 0.000000
O O12 0.756032 0.138312 0.159515
O O13 0.657679 0.043870 0.176755
O O14 0.613980 0.123658 0.000000
O O15 0.918015 0.243309 0.500000
O O16 0.782717 0.262872 0.668227
O O17 0.903926 0.183856 0.739687
O O18 0.324027 0.680608 0.500000
O O19 0.099949 0.860884 0.000000
O O20 0.500000 0.000000 0.207388
O O21 0.398044 0.035294 0.000000
#
# Coordination Sequence:
#
# PCOD9444659 Si02
#       8
#     8   8   8   8   8   8   8   8
#     4  11  24  42  64  94 125 160 206 257 307 362
#     4  10  23  42  62  89 124 164 206 249 306 370
#     4  11  24  40  62  91 124 160 203 255 307 357
#     4  10  21  39  63  91 122 161 206 254 306 362
#     4  11  24  43  65  90 123 166 206 249 310 370
#     4  10  24  44  63  85 123 167 204 245 305 370
#     4  11  22  39  65  94 122 157 207 261 307 359
#     4  10  22  41  64  89 122 164 207 247 301 370
#
# _framework density 20.232476999999999
#
# number of rings (size 3 to 8) (size 9 to 14) (size 15 to 20)
#    0.000    1.500    2.500    1.500    3.500    4.000 
#    0.000    0.000    0.000    0.000    0.000    0.000 
#    0.000    0.000    0.000    0.000    0.000    0.000 
#
# Total GULP energy -357686.443626 kJ/mol
# GULP energy per Si atom -5588.850682 kJ/mol
# Density = 2.018643 g / cm^3
# Si number density = 20.232477 Si / 1000 Ang^3
#
#
#
# Elastic Constant Matrix: (Units=GPa)
#
#
# Indices 1 2 3 4 5 6 
#
# 1 44.8413 -15.2802 13.0228 0.0000 0.0000 0.0000
# 2 -15.2802 51.8259 41.6563 0.0000 0.0000 0.0000
# 3 13.0228 41.6563 101.0341 0.0000 0.0000 0.0000
# 4 0.0000 0.0000 0.0000 38.5974 0.0000 0.0000
# 5 0.0000 0.0000 0.0000 0.0000 -221.5231 0.0000
# 6 0.0000 0.0000 0.0000 0.0000 0.0000 25.8329
#
#
#
# Elastic Compliance Matrix: (Units=1/GPa)
#
#
# Indices 1 2 3 4 5 6 
#
# 1 0.032407 0.019312 -0.012140 0.000000 0.000000 0.000000
# 2 0.019312 0.040368 -0.019133 0.000000 0.000000 0.000000
# 3 -0.012140 -0.019133 0.019351 0.000000 0.000000 0.000000
# 4 0.000000 0.000000 0.000000 0.025909 0.000000 0.000000
# 5 0.000000 0.000000 0.000000 0.000000 -0.004514 0.000000
# 6 0.000000 0.000000 0.000000 0.000000 0.000000 0.038710
#
#
# Mechanical properties :
#
#
# Convention : Reuss Voigt Hill
#
# Bulk Modulus (GPa) = 14.66151 30.72212 22.69181
# Shear Modulus (GPa) = 25.14000 -20.86508 2.13746
#
# Velocity S-wave (km/s) = 3.52882 -3.21482 1.02895
# Velocity P-wave (km/s) = 4.88525 1.19894 3.55690
#
# Compressibility (1/GPa) = 0.06820579
#
# Stress axis : x y z
#
# Youngs Moduli (GPa) = 30.85720 24.77218 51.67731
#
# Poissons Ratio (x) = -0.47841 0.62734
# Poissons Ratio (y) = -0.59593 0.98874
# Poissons Ratio (z) = 0.37459 0.47396
#
# Static dielectric constant tensor:
#      x y z
#    x 1.724830 0.000000 0.000000 
#    y 0.000000 1.690640 0.000000 
#    z 0.000000 0.000000 1.696600 
# 
# From -- ./inp_files/6811.got.cif
#   From: 2010.05.17/outbox.cif.g08.bks.cpg/sg58_4_cif.got.tgz:6811.got - 2010.06.03 14:20:14.
