data_PCOD9444288
_publ_section_title
;
Structure prediction by ZEFSAII (Michael W. Deem and Ramdas Pophale) SiO2 
 PCOD9444288
Probable space group: P N N M
;
_chemical_formula_sum "Si O2"
_cell_formula_units_Z 48
_cell_length_a 9.630069
_cell_length_b 11.364837
_cell_length_c 24.284883
_cell_angle_alpha 90.000000
_cell_angle_beta 90.000000
_cell_angle_gamma 90.000000
_cell_volume 2657.838730
_symmetry_space_group_name_H-M "P N N M"
_symmetry_group_IT_number 58
_symmetry_cell_setting 'orthorhombic'
loop_
_space_group_symop_operation_xyz
x,y,z
-x,-y,z
1/2+x,1/2-y,1/2-z
1/2-x,1/2+y,1/2-z
-x,-y,-z
x,y,-z
1/2-x,1/2+y,1/2+z
1/2+x,1/2-y,1/2+z
loop_
_atom_site_type_symbol
_atom_site_label
_atom_site_fract_x
_atom_site_fract_y
_atom_site_fract_z
Si Si1 0.962258 0.137192 0.434555
Si Si2 0.360307 0.027963 0.321389
Si Si3 0.185511 0.247865 0.358048
Si Si4 0.268161 0.784593 0.647022
Si Si5 0.963925 0.136809 0.164953
Si Si6 0.454434 0.204121 0.770679
O O1 0.958073 0.150010 0.500000
O O2 0.816191 0.172004 0.406259
O O3 0.078000 0.222525 0.407168
O O4 0.000000 0.000000 0.421968
O O5 0.255054 0.120940 0.346604
O O6 0.417517 0.094300 0.267707
O O7 0.500000 0.000000 0.356349
O O8 0.292659 0.901427 0.316329
O O9 0.316987 0.334011 0.364000
O O10 0.096670 0.289587 0.305003
O O11 0.411246 0.714873 0.638994
O O12 0.165226 0.707980 0.683849
O O13 0.953448 0.186952 0.227596
O O14 0.000000 0.000000 0.164116
#
# Coordination Sequence:
#
# PCOD9444288 Si02
#       6
#     8   8   8   8   8   8
#     4  10  21  39  66  92 112 143 192 253 311 355
#     4  11  20  33  53  80 122 156 187 226 290 347
#     4  10  21  37  55  84 118 154 192 243 282 349
#     4  11  22  38  56  84 124 158 188 248 288 340
#     4  11  23  36  56  82 122 159 200 232 282 353
#     4  10  23  31  53  82 118 167 193 226 280 346
#
# _framework density 18.059785999999999
#
# number of rings (size 3 to 8) (size 9 to 14) (size 15 to 20)
#    0.000    1.500    5.000    2.000    4.667    0.000 
#    0.000    3.333    0.000    6.000    0.000    0.000 
#    0.000    0.000    0.000    0.000    0.000    0.000 
#
# Total GULP energy -267502.138984 kJ/mol
# GULP energy per Si atom -5572.961229 kJ/mol
# Density = 1.801868 g / cm^3
# Si number density = 18.059786 Si / 1000 Ang^3
#
#
#
# Elastic Constant Matrix: (Units=GPa)
#
#
# Indices 1 2 3 4 5 6 
#
# 1 121.6753 33.2387 45.0568 0.0000 0.0000 0.0000
# 2 33.2387 109.4533 32.8732 0.0000 0.0000 0.0000
# 3 45.0568 32.8732 86.0495 0.0000 0.0000 0.0000
# 4 0.0000 0.0000 0.0000 -3.4772 0.0000 0.0000
# 5 0.0000 0.0000 0.0000 0.0000 6.6319 0.0000
# 6 0.0000 0.0000 0.0000 0.0000 0.0000 21.2156
#
#
#
# Elastic Compliance Matrix: (Units=1/GPa)
#
#
# Indices 1 2 3 4 5 6 
#
# 1 0.010479 -0.001733 -0.004825 0.000000 0.000000 0.000000
# 2 -0.001733 0.010607 -0.003145 0.000000 0.000000 0.000000
# 3 -0.004825 -0.003145 0.015349 0.000000 0.000000 0.000000
# 4 0.000000 0.000000 0.000000 -0.287592 0.000000 0.000000
# 5 0.000000 0.000000 0.000000 0.000000 0.150787 0.000000
# 6 0.000000 0.000000 0.000000 0.000000 0.000000 0.047135
#
#
# Mechanical properties :
#
#
# Convention : Reuss Voigt Hill
#
# Bulk Modulus (GPa) = 58.72129 59.94618 59.33374
# Shear Modulus (GPa) = -177.59660 18.60802 -79.49429
#
# Velocity S-wave (km/s) = -9.92732 3.21340 -6.64175
# Velocity P-wave (km/s) = 9.94066 6.85807 5.08839
#
# Compressibility (1/GPa) = 0.01702960
#
# Stress axis : x y z
#
# Youngs Moduli (GPa) = 95.43231 94.27642 65.15141
#
# Poissons Ratio (x) = 0.16339 0.31433
# Poissons Ratio (y) = 0.16539 0.20488
# Poissons Ratio (z) = 0.46043 0.29647
#
# Static dielectric constant tensor:
#      x y z
#    x 1.095370 0.000000 0.000000 
#    y 0.000000 1.642230 0.000000 
#    z 0.000000 0.000000 1.594720 
# 
# From -- ./inp_files/33241.got.cif
#   From: 2010.05.17/outbox.cif.g08.bks.cpg/sg58_17_cif.got.tgz:33241.got - 2010.06.03 14:20:14.
