data_PCOD9444465
_publ_section_title
;
Structure prediction by ZEFSAII (Michael W. Deem and Ramdas Pophale) SiO2 
 PCOD9444465
Probable space group: P N N M
;
_chemical_formula_sum "Si O2"
_cell_formula_units_Z 58
_cell_length_a 12.452017
_cell_length_b 29.687673
_cell_length_c 7.724569
_cell_angle_alpha 90.000000
_cell_angle_beta 90.000000
_cell_angle_gamma 90.000000
_cell_volume 2855.552305
_symmetry_space_group_name_H-M "P N N M"
_symmetry_group_IT_number 58
_symmetry_cell_setting 'orthorhombic'
loop_
_space_group_symop_operation_xyz
x,y,z
-x,-y,z
1/2+x,1/2-y,1/2-z
1/2-x,1/2+y,1/2-z
-x,-y,-z
x,y,-z
1/2-x,1/2+y,1/2+z
1/2+x,1/2-y,1/2+z
loop_
_atom_site_type_symbol
_atom_site_label
_atom_site_fract_x
_atom_site_fract_y
_atom_site_fract_z
Si Si1 0.515000 0.131462 0.201027
Si Si2 0.827201 0.480478 0.293853
Si Si3 0.500000 0.000000 0.500000
Si Si4 0.653680 0.211750 0.298481
Si Si5 0.863997 0.162927 0.294880
Si Si6 0.097189 0.189062 0.702006
Si Si7 0.225056 0.618070 0.294166
Si Si8 0.724889 0.080546 0.793108
O O1 0.561170 0.181959 0.210661
O O2 0.395499 0.128145 0.274447
O O3 0.610610 0.100141 0.276817
O O4 0.504749 0.117584 0.000000
O O5 0.860660 0.481576 0.500000
O O6 0.758261 0.435285 0.271599
O O7 0.768624 0.527817 0.255657
O O8 0.922528 0.478953 0.155303
O O9 0.649661 0.198713 0.500000
O O10 0.768560 0.195044 0.226327
O O11 0.637304 0.264635 0.284673
O O12 0.870106 0.170758 0.500000
O O13 0.820279 0.112397 0.269678
O O14 0.981852 0.173401 0.224578
O O15 0.084280 0.199755 0.500000
O O16 0.184073 0.149676 0.718040
O O17 0.224926 0.627599 0.500000
O O18 0.722051 0.085954 0.000000
#
# Coordination Sequence:
#
# PCOD9444465 Si02
#       8
#     8   8   2   8   8   8   8   8
#     4   9  18  34  57  85 117 152 190 239 304 355
#     4  10  22  39  58  92 132 165 211 258 312 370
#     4  12  22  32  64  94 122 180 202 256 308 380
#     4  10  21  38  59  85 113 151 197 245 305 368
#     4   9  21  40  60  83 116 154 199 253 302 361
#     4  11  24  40  59  84 118 157 203 252 302 363
#     4  10  22  40  59  84 126 166 196 251 308 365
#     4   9  18  36  62  88 118 156 197 249 301 361
#
# _framework density 20.311306999999999
#
# number of rings (size 3 to 8) (size 9 to 14) (size 15 to 20)
#    0.000    2.207    0.000    1.862    3.862    4.414 
#    4.966    0.690    0.000    4.138    0.000    0.000 
#    0.000    0.000    0.000    0.000    0.000    0.000 
#
# Total GULP energy -323081.153174 kJ/mol
# GULP energy per Si atom -5570.364710 kJ/mol
# Density = 2.026508 g / cm^3
# Si number density = 20.311307 Si / 1000 Ang^3
#
#
#
# Elastic Constant Matrix: (Units=GPa)
#
#
# Indices 1 2 3 4 5 6 
#
# 1 103.9172 72.8199 -1.0925 0.0000 0.0000 0.0000
# 2 72.8199 142.4202 5.9210 0.0000 0.0000 0.0000
# 3 -1.0925 5.9210 47.2061 0.0000 0.0000 0.0000
# 4 0.0000 0.0000 0.0000 25.7933 0.0000 0.0000
# 5 0.0000 0.0000 0.0000 0.0000 17.9702 0.0000
# 6 0.0000 0.0000 0.0000 0.0000 0.0000 17.5108
#
#
#
# Elastic Compliance Matrix: (Units=1/GPa)
#
#
# Indices 1 2 3 4 5 6 
#
# 1 0.015078 -0.007764 0.001323 0.000000 0.000000 0.000000
# 2 -0.007764 0.011057 -0.001566 0.000000 0.000000 0.000000
# 3 0.001323 -0.001566 0.021411 0.000000 0.000000 0.000000
# 4 0.000000 0.000000 0.000000 0.038770 0.000000 0.000000
# 5 0.000000 0.000000 0.000000 0.000000 0.055648 0.000000
# 6 0.000000 0.000000 0.000000 0.000000 0.000000 0.057108
#
#
# Mechanical properties :
#
#
# Convention : Reuss Voigt Hill
#
# Bulk Modulus (GPa) = 31.71671 49.87114 40.79392
# Shear Modulus (GPa) = 22.16353 26.64787 24.40570
#
# Velocity S-wave (km/s) = 3.30690 3.62605 3.47014
# Velocity P-wave (km/s) = 5.49818 6.49135 6.01530
#
# Compressibility (1/GPa) = 0.03152912
#
# Stress axis : x y z
#
# Youngs Moduli (GPa) = 66.32262 90.44423 46.70541
#
# Poissons Ratio (x) = 0.70224 -0.06178
# Poissons Ratio (y) = 0.51495 0.07316
# Poissons Ratio (z) = -0.08773 0.14168
#
# Static dielectric constant tensor:
#      x y z
#    x 1.726530 0.000000 0.000000 
#    y 0.000000 1.714180 0.000000 
#    z 0.000000 0.000000 1.757960 
# 
# From -- ./inp_files/4614.got.cif
#   From: 2010.05.17/outbox.cif.g08.bks.cpg/sg58_3_cif.got.tgz:4614.got - 2010.06.03 14:20:14.
