data_PCOD9444692
_publ_section_title
;
Structure prediction by ZEFSAII (Michael W. Deem and Ramdas Pophale) SiO2 
 PCOD9444692
Probable space group: P N N M
;
_chemical_formula_sum "Si O2"
_cell_formula_units_Z 48
_cell_length_a 13.751134
_cell_length_b 11.205007
_cell_length_c 13.909461
_cell_angle_alpha 90.000000
_cell_angle_beta 90.000000
_cell_angle_gamma 90.000000
_cell_volume 2143.191348
_symmetry_space_group_name_H-M "P N N M"
_symmetry_group_IT_number 58
_symmetry_cell_setting 'orthorhombic'
loop_
_space_group_symop_operation_xyz
x,y,z
-x,-y,z
1/2+x,1/2-y,1/2-z
1/2-x,1/2+y,1/2-z
-x,-y,-z
x,y,-z
1/2-x,1/2+y,1/2+z
1/2+x,1/2-y,1/2+z
loop_
_atom_site_type_symbol
_atom_site_label
_atom_site_fract_x
_atom_site_fract_y
_atom_site_fract_z
Si Si1 0.270479 0.521851 0.892764
Si Si2 0.703347 0.242773 0.210544
Si Si3 0.048409 0.870505 0.394353
Si Si4 0.882747 0.507668 0.609350
Si Si5 0.098311 0.355076 0.885825
Si Si6 0.087274 0.691000 0.760386
O O1 0.314285 0.623932 0.827187
O O2 0.337666 0.404844 0.890897
O O3 0.161071 0.477370 0.875802
O O4 0.275093 0.572011 0.000000
O O5 0.820843 0.236627 0.198361
O O6 0.656375 0.133431 0.150473
O O7 0.662337 0.231855 0.318519
O O8 0.024575 0.819737 0.500000
O O9 0.028609 0.779848 0.310144
O O10 0.000000 0.000000 0.387338
O O11 0.847296 0.487000 0.500000
O O12 0.863415 0.405673 0.688559
O O13 0.000000 0.500000 0.605853
O O14 0.007653 0.644931 0.836432
O O15 0.093459 0.329059 0.000000
#
# Coordination Sequence:
#
# PCOD9444692 Si02
#       6
#     8   8   8   8   8   8
#     4  10  22  42  69 101 140 184 236 300 365 435
#     4  12  24  43  72 103 143 190 244 301 365 443
#     4  10  21  39  68 103 135 178 240 304 360 422
#     4  11  25  45  71 106 143 185 239 305 379 441
#     4  11  25  47  70 105 149 196 244 297 372 444
#     4  12  25  43  75 103 147 192 247 300 369 442
#
# _framework density 22.396507
#
# number of rings (size 3 to 8) (size 9 to 14) (size 15 to 20)
#    0.000    1.000    3.333    3.000    0.000    2.000 
#    0.000    5.000    0.000    1.500    0.000    0.000 
#    0.000    0.000    0.000    0.000    0.000    0.000 
#
# Total GULP energy -268068.003322 kJ/mol
# GULP energy per Si atom -5584.750069 kJ/mol
# Density = 2.234553 g / cm^3
# Si number density = 22.396507 Si / 1000 Ang^3
#
#
#
# Elastic Constant Matrix: (Units=GPa)
#
#
# Indices 1 2 3 4 5 6 
#
# 1 145.1081 40.1830 54.5135 0.0000 0.0000 0.0000
# 2 40.1830 84.8889 69.2189 0.0000 0.0000 0.0000
# 3 54.5135 69.2189 176.4534 0.0000 0.0000 0.0000
# 4 0.0000 0.0000 0.0000 7.8157 0.0000 0.0000
# 5 0.0000 0.0000 0.0000 0.0000 29.9985 0.0000
# 6 0.0000 0.0000 0.0000 0.0000 0.0000 46.8712
#
#
#
# Elastic Compliance Matrix: (Units=1/GPa)
#
#
# Indices 1 2 3 4 5 6 
#
# 1 0.008187 -0.002666 -0.001484 0.000000 0.000000 0.000000
# 2 -0.002666 0.018188 -0.006311 0.000000 0.000000 0.000000
# 3 -0.001484 -0.006311 0.008601 0.000000 0.000000 0.000000
# 4 0.000000 0.000000 0.000000 0.127948 0.000000 0.000000
# 5 0.000000 0.000000 0.000000 0.000000 0.033335 0.000000
# 6 0.000000 0.000000 0.000000 0.000000 0.000000 0.021335
#
#
# Mechanical properties :
#
#
# Convention : Reuss Voigt Hill
#
# Bulk Modulus (GPa) = 71.14713 81.58680 76.36696
# Shear Modulus (GPa) = 20.55914 33.10608 26.83261
#
# Velocity S-wave (km/s) = 3.03308 3.84888 3.46507
# Velocity P-wave (km/s) = 6.64094 7.50062 7.08383
#
# Compressibility (1/GPa) = 0.01405538
#
# Stress axis : x y z
#
# Youngs Moduli (GPa) = 122.14602 54.98070 116.26073
#
# Poissons Ratio (x) = 0.14656 0.17248
# Poissons Ratio (y) = 0.32560 0.73376
# Poissons Ratio (z) = 0.18122 0.34700
#
# Static dielectric constant tensor:
#      x y z
#    x 1.960180 0.000000 0.000000 
#    y 0.000000 1.833090 0.000000 
#    z 0.000000 0.000000 1.861450 
# 
# From -- ./inp_files/16979.got.cif
#   From: 2010.05.17/outbox.cif.g08.bks.cpg/sg58_9_cif.got.tgz:16979.got - 2010.06.03 14:20:14.
