data_PCOD9444645
_publ_section_title
;
Structure prediction by ZEFSAII (Michael W. Deem and Ramdas Pophale) SiO2 
 PCOD9444645
Probable space group: P N N M
;
_chemical_formula_sum "Si O2"
_cell_formula_units_Z 56
_cell_length_a 19.093518
_cell_length_b 15.625922
_cell_length_c 9.339999
_cell_angle_alpha 90.000000
_cell_angle_beta 90.000000
_cell_angle_gamma 90.000000
_cell_volume 2786.624408
_symmetry_space_group_name_H-M "P N N M"
_symmetry_group_IT_number 58
_symmetry_cell_setting 'orthorhombic'
loop_
_space_group_symop_operation_xyz
x,y,z
-x,-y,z
1/2+x,1/2-y,1/2-z
1/2-x,1/2+y,1/2-z
-x,-y,-z
x,y,-z
1/2-x,1/2+y,1/2+z
1/2+x,1/2-y,1/2+z
loop_
_atom_site_type_symbol
_atom_site_label
_atom_site_fract_x
_atom_site_fract_y
_atom_site_fract_z
Si Si1 0.845460 0.633581 0.673978
Si Si2 0.752733 0.470425 0.671568
Si Si3 0.616916 0.490553 0.835392
Si Si4 0.257227 0.213553 0.672358
Si Si5 0.414504 0.225688 0.331748
Si Si6 0.502058 0.898398 0.166028
Si Si7 0.499975 0.638846 0.163589
O O1 0.845243 0.633950 0.500000
O O2 0.809169 0.543227 0.714886
O O3 0.800523 0.716604 0.718929
O O4 0.926523 0.635643 0.718153
O O5 0.756468 0.459763 0.500000
O O6 0.677728 0.506423 0.723248
O O7 0.756244 0.378228 0.749433
O O8 0.574658 0.403278 0.801926
O O9 0.558183 0.563923 0.833617
O O10 0.643323 0.485004 0.000000
O O11 0.250102 0.200825 0.500000
O O12 0.334757 0.251527 0.700342
O O13 0.421532 0.218447 0.500000
O O14 0.433837 0.137177 0.256288
O O15 0.470871 0.290624 0.268224
O O16 0.500000 0.000000 0.172469
O O17 0.511672 0.873913 0.000000
O O18 0.495864 0.670663 0.000000
#
# Coordination Sequence:
#
# PCOD9444645 Si02
#       7
#     8   8   8   8   8   8   8
#     4   9  20  39  61  84 115 159 202 242 294 362
#     4  11  22  37  60  88 118 150 195 252 301 351
#     4   9  19  36  57  83 115 153 192 232 285 353
#     4  10  22  40  59  82 117 162 202 237 298 369
#     4  11  23  37  57  85 119 152 192 251 307 349
#     4  10  21  39  63  86 112 154 207 253 297 360
#     4   9  19  36  58  82 112 153 197 232 278 353
#
# _framework density 20.095998999999999
#
# number of rings (size 3 to 8) (size 9 to 14) (size 15 to 20)
#    0.000    2.143    0.000    3.429    2.000    4.857 
#    0.000    4.286    0.000    0.000    0.000    0.000 
#    0.000    0.000    0.000    0.000    0.000    0.000 
#
# Total GULP energy -312631.411047 kJ/mol
# GULP energy per Si atom -5582.703769 kJ/mol
# Density = 2.005026 g / cm^3
# Si number density = 20.095999 Si / 1000 Ang^3
#
#
#
# Elastic Constant Matrix: (Units=GPa)
#
#
# Indices 1 2 3 4 5 6 
#
# 1 81.0676 13.6468 23.1850 0.0000 0.0000 0.0000
# 2 13.6468 78.1554 11.3531 0.0000 0.0000 0.0000
# 3 23.1850 11.3531 30.8559 0.0000 0.0000 0.0000
# 4 0.0000 0.0000 0.0000 22.2942 0.0000 0.0000
# 5 0.0000 0.0000 0.0000 0.0000 38.8389 0.0000
# 6 0.0000 0.0000 0.0000 0.0000 0.0000 29.9101
#
#
#
# Elastic Compliance Matrix: (Units=1/GPa)
#
#
# Indices 1 2 3 4 5 6 
#
# 1 0.015800 -0.001093 -0.011470 0.000000 0.000000 0.000000
# 2 -0.001093 0.013593 -0.004180 0.000000 0.000000 0.000000
# 3 -0.011470 -0.004180 0.042565 0.000000 0.000000 0.000000
# 4 0.000000 0.000000 0.000000 0.044855 0.000000 0.000000
# 5 0.000000 0.000000 0.000000 0.000000 0.025747 0.000000
# 6 0.000000 0.000000 0.000000 0.000000 0.000000 0.033434
#
#
# Mechanical properties :
#
#
# Convention : Reuss Voigt Hill
#
# Bulk Modulus (GPa) = 25.99277 31.82763 28.91020
# Shear Modulus (GPa) = 22.49180 27.66824 25.08002
#
# Velocity S-wave (km/s) = 3.34910 3.71456 3.53655
# Velocity P-wave (km/s) = 5.28372 5.85401 5.57616
#
# Compressibility (1/GPa) = 0.03847224
#
# Stress axis : x y z
#
# Youngs Moduli (GPa) = 63.29256 73.56692 23.49337
#
# Poissons Ratio (x) = 0.08038 0.26946
# Poissons Ratio (y) = 0.06916 0.09821
# Poissons Ratio (z) = 0.72595 0.30754
#
# Static dielectric constant tensor:
#      x y z
#    x 1.719120 0.000000 0.000000 
#    y 0.000000 1.759610 0.000000 
#    z 0.000000 0.000000 1.667370 
# 
# From -- ./inp_files/9038.got.cif
#   From: 2010.05.17/outbox.cif.g08.bks.cpg/sg58_5_cif.got.tgz:9038.got - 2010.06.03 14:20:14.
