data_PCOD9444837
_publ_section_title
;
Structure prediction by ZEFSAII (Michael W. Deem and Ramdas Pophale) SiO2 
 PCOD9444837
Probable space group: P N N M
;
_chemical_formula_sum "Si O2"
_cell_formula_units_Z 34
_cell_length_a 16.766370
_cell_length_b 9.979198
_cell_length_c 9.851059
_cell_angle_alpha 90.000000
_cell_angle_beta 90.000000
_cell_angle_gamma 90.000000
_cell_volume 1648.229207
_symmetry_space_group_name_H-M "P N N M"
_symmetry_group_IT_number 58
_symmetry_cell_setting 'orthorhombic'
loop_
_space_group_symop_operation_xyz
x,y,z
-x,-y,z
1/2+x,1/2-y,1/2-z
1/2-x,1/2+y,1/2-z
-x,-y,-z
x,y,-z
1/2-x,1/2+y,1/2+z
1/2+x,1/2-y,1/2+z
loop_
_atom_site_type_symbol
_atom_site_label
_atom_site_fract_x
_atom_site_fract_y
_atom_site_fract_z
Si Si1 0.500000 0.000000 0.000000
Si Si2 0.047445 0.858821 0.718149
Si Si3 0.818705 0.081657 0.500000
Si Si4 0.913114 0.651515 0.298447
Si Si5 0.870266 0.581497 0.000000
Si Si6 0.292703 0.735887 0.000000
Si Si7 0.392226 0.240187 0.500000
O O1 0.567724 0.016921 0.120426
O O2 0.127236 0.873247 0.628065
O O3 0.069241 0.804265 0.866471
O O4 0.984775 0.751119 0.658247
O O5 0.000000 0.000000 0.721949
O O6 0.724584 0.118063 0.500000
O O7 0.811735 0.921172 0.500000
O O8 0.906974 0.637820 0.138467
O O9 0.833341 0.707450 0.364719
O O10 0.890684 0.422453 0.000000
O O11 0.201141 0.772410 0.000000
#
# Coordination Sequence:
#
# PCOD9444837 Si02
#       7
#     2   8   4   8   4   4   4
#     4  10  22  36  64  92 126 166 218 250 320 372
#     4  12  23  40  67  94 127 166 217 261 320 380
#     4  11  22  43  66  97 124 173 214 270 323 385
#     4  11  22  41  66  93 127 171 213 268 314 387
#     4  11  25  42  65  94 137 167 217 268 328 377
#     4  10  21  42  63  89 127 166 213 264 328 376
#     4  11  25  40  61  94 130 166 208 271 321 390
#
# _framework density 20.628198000000001
#
# number of rings (size 3 to 8) (size 9 to 14) (size 15 to 20)
#    0.000    0.941    2.353    5.647    0.000    1.412 
#    0.000    0.000   10.353    0.000    0.000    0.000 
#    0.000    0.000    0.000    0.000    0.000    0.000 
#
# Total GULP energy -189404.836584 kJ/mol
# GULP energy per Si atom -5570.730488 kJ/mol
# Density = 2.058125 g / cm^3
# Si number density = 20.628198 Si / 1000 Ang^3
#
#
#
# Elastic Constant Matrix: (Units=GPa)
#
#
# Indices 1 2 3 4 5 6 
#
# 1 106.4663 34.3667 47.6153 0.0000 0.0000 0.0000
# 2 34.3667 53.5321 19.2212 0.0000 0.0000 0.0000
# 3 47.6153 19.2212 180.9713 0.0000 0.0000 0.0000
# 4 0.0000 0.0000 0.0000 -9.5897 0.0000 0.0000
# 5 0.0000 0.0000 0.0000 0.0000 29.9656 0.0000
# 6 0.0000 0.0000 0.0000 0.0000 0.0000 28.0994
#
#
#
# Elastic Compliance Matrix: (Units=1/GPa)
#
#
# Indices 1 2 3 4 5 6 
#
# 1 0.012944 -0.007368 -0.002623 0.000000 0.000000 0.000000
# 2 -0.007368 0.023615 -0.000570 0.000000 0.000000 0.000000
# 3 -0.002623 -0.000570 0.006276 0.000000 0.000000 0.000000
# 4 0.000000 0.000000 0.000000 -0.104278 0.000000 0.000000
# 5 0.000000 0.000000 0.000000 0.000000 0.033372 0.000000
# 6 0.000000 0.000000 0.000000 0.000000 0.000000 0.035588
#
#
# Mechanical properties :
#
#
# Convention : Reuss Voigt Hill
#
# Bulk Modulus (GPa) = 46.05318 60.37514 53.21416
# Shear Modulus (GPa) = 139.36659 25.67948 82.52304
#
# Velocity S-wave (km/s) = 8.22848 3.53210 6.33181
# Velocity P-wave (km/s) = 10.61372 6.77983 8.90554
#
# Compressibility (1/GPa) = 0.02171403
#
# Stress axis : x y z
#
# Youngs Moduli (GPa) = 77.25474 42.34582 159.32659
#
# Poissons Ratio (x) = 0.31201 0.41794
# Poissons Ratio (y) = 0.56922 0.09075
# Poissons Ratio (z) = 0.20265 0.02412
#
# Static dielectric constant tensor:
#      x y z
#    x 1.738260 0.000000 0.000000 
#    y 0.000000 1.845980 0.000000 
#    z 0.000000 0.000000 1.729910 
# 
# From -- ./inp_files/8704.got.cif
#   From: 2010.05.17/outbox.cif.g08.bks.cpg/sg58_5_cif.got.tgz:8704.got - 2010.06.03 14:20:14.
