data_PCOD9444243
_publ_section_title
;
Structure prediction by ZEFSAII (Michael W. Deem and Ramdas Pophale) SiO2 
 PCOD9444243
Probable space group: P N N M
;
_chemical_formula_sum "Si O2"
_cell_formula_units_Z 48
_cell_length_a 8.873396
_cell_length_b 19.213898
_cell_length_c 14.061185
_cell_angle_alpha 90.000000
_cell_angle_beta 90.000000
_cell_angle_gamma 90.000000
_cell_volume 2397.326944
_symmetry_space_group_name_H-M "P N N M"
_symmetry_group_IT_number 58
_symmetry_cell_setting 'orthorhombic'
loop_
_space_group_symop_operation_xyz
x,y,z
-x,-y,z
1/2+x,1/2-y,1/2-z
1/2-x,1/2+y,1/2-z
-x,-y,-z
x,y,-z
1/2-x,1/2+y,1/2+z
1/2+x,1/2-y,1/2+z
loop_
_atom_site_type_symbol
_atom_site_label
_atom_site_fract_x
_atom_site_fract_y
_atom_site_fract_z
Si Si1 0.382215 0.299889 0.213972
Si Si2 0.253050 0.947432 0.893769
Si Si3 0.929841 0.671062 0.300641
Si Si4 0.295714 0.079602 0.230951
Si Si5 0.447607 0.579692 0.109335
Si Si6 0.964874 0.857692 0.890424
O O1 0.204196 0.300611 0.232960
O O2 0.465458 0.234787 0.165808
O O3 0.432009 0.369439 0.159156
O O4 0.456493 0.303636 0.319390
O O5 0.346007 0.876030 0.879397
O O6 0.078471 0.924307 0.884713
O O7 0.300388 0.002617 0.814121
O O8 0.278131 0.975707 0.000000
O O9 0.046001 0.616836 0.254239
O O10 0.201719 0.083421 0.327464
O O11 0.194870 0.121332 0.153334
O O12 0.500000 0.500000 0.112966
O O13 0.425299 0.599901 0.000000
O O14 0.956233 0.836484 0.000000
#
# Coordination Sequence:
#
# PCOD9444243 Si02
#       6
#     8   8   8   8   8   8
#     4  10  21  40  58  80 114 151 194 243 291 339
#     4  10  21  36  59  93 126 154 188 233 288 350
#     4  11  23  38  58  82 116 157 195 238 293 348
#     4  11  20  35  60  88 123 155 188 238 293 349
#     4  10  21  39  63  87 112 150 198 242 288 346
#     4   9  18  34  59  88 118 152 188 229 284 351
#
# _framework density 20.022300999999999
#
# number of rings (size 3 to 8) (size 9 to 14) (size 15 to 20)
#    0.000    1.833    0.000    6.500    0.000    4.000 
#    0.000    7.500    0.000    5.000    0.000    0.000 
#    0.000    0.000    0.000    0.000    0.000    0.000 
#
# Total GULP energy -267837.307473 kJ/mol
# GULP energy per Si atom -5579.943906 kJ/mol
# Density = 1.997673 g / cm^3
# Si number density = 20.022301 Si / 1000 Ang^3
#
#
#
# Elastic Constant Matrix: (Units=GPa)
#
#
# Indices 1 2 3 4 5 6 
#
# 1 124.5499 44.2931 36.2192 0.0000 0.0000 0.0000
# 2 44.2931 63.4057 11.1197 0.0000 0.0000 0.0000
# 3 36.2192 11.1197 106.5828 0.0000 0.0000 0.0000
# 4 0.0000 0.0000 0.0000 12.6725 0.0000 0.0000
# 5 0.0000 0.0000 0.0000 0.0000 3.2218 0.0000
# 6 0.0000 0.0000 0.0000 0.0000 0.0000 36.0145
#
#
#
# Elastic Compliance Matrix: (Units=1/GPa)
#
#
# Indices 1 2 3 4 5 6 
#
# 1 0.011645 -0.007580 -0.003167 0.000000 0.000000 0.000000
# 2 -0.007580 0.020999 0.000385 0.000000 0.000000 0.000000
# 3 -0.003167 0.000385 0.010418 0.000000 0.000000 0.000000
# 4 0.000000 0.000000 0.000000 0.078911 0.000000 0.000000
# 5 0.000000 0.000000 0.000000 0.000000 0.310383 0.000000
# 6 0.000000 0.000000 0.000000 0.000000 0.000000 0.027767
#
#
# Mechanical properties :
#
#
# Convention : Reuss Voigt Hill
#
# Bulk Modulus (GPa) = 44.76303 53.08915 48.92609
# Shear Modulus (GPa) = 10.23976 23.90885 17.07431
#
# Velocity S-wave (km/s) = 2.26391 3.45934 2.92338
# Velocity P-wave (km/s) = 5.40729 6.52140 5.99030
#
# Compressibility (1/GPa) = 0.02233986
#
# Stress axis : x y z
#
# Youngs Moduli (GPa) = 85.87182 47.62167 95.98518
#
# Poissons Ratio (x) = 0.36096 0.30394
# Poissons Ratio (y) = 0.65088 -0.03695
# Poissons Ratio (z) = 0.27192 -0.01833
#
# Static dielectric constant tensor:
#      x y z
#    x 1.726180 0.000000 0.000000 
#    y 0.000000 1.760940 0.000000 
#    z 0.000000 0.000000 1.678860 
# 
# From -- ./inp_files/19991.got.cif
#   From: 2010.05.17/outbox.cif.g08.bks.cpg/sg58_10_cif.got.tgz:19991.got - 2010.06.03 14:20:14.
