data_PCOD9445547
_publ_section_title
;
Structure prediction by ZEFSAII (Michael W. Deem and Ramdas Pophale) SiO2 
 PCOD9445547
Probable space group: P N N M
;
_chemical_formula_sum "Si O2"
_cell_formula_units_Z 32
_cell_length_a 11.395013
_cell_length_b 11.409385
_cell_length_c 11.236893
_cell_angle_alpha 90.000000
_cell_angle_beta 90.000000
_cell_angle_gamma 90.000000
_cell_volume 1460.909475
_symmetry_space_group_name_H-M "P N N M"
_symmetry_group_IT_number 58
_symmetry_cell_setting 'orthorhombic'
loop_
_space_group_symop_operation_xyz
x,y,z
-x,-y,z
1/2+x,1/2-y,1/2-z
1/2-x,1/2+y,1/2-z
-x,-y,-z
x,y,-z
1/2-x,1/2+y,1/2+z
1/2+x,1/2-y,1/2+z
loop_
_atom_site_type_symbol
_atom_site_label
_atom_site_fract_x
_atom_site_fract_y
_atom_site_fract_z
Si Si1 0.317780 0.004418 0.500000
Si Si2 0.435022 0.622595 0.289602
Si Si3 0.191884 0.529332 0.731398
Si Si4 0.504910 0.790806 0.500000
Si Si5 0.531070 0.165538 0.861604
O O1 0.406722 0.893603 0.500000
O O2 0.266641 0.001141 0.633333
O O3 0.378590 0.132204 0.500000
O O4 0.500000 0.500000 0.279909
O O5 0.301539 0.594339 0.325697
O O6 0.491022 0.706421 0.388306
O O7 0.444912 0.700607 0.171163
O O8 0.146613 0.409550 0.671952
O O9 0.076448 0.611242 0.715822
O O10 0.502806 0.149202 0.000000
#
# Coordination Sequence:
#
# PCOD9445547 Si02
#       5
#     4   8   8   4   8
#     4  11  20  44  79  94 129 191 232 278 336 416
#     4  12  28  44  68 108 141 177 228 291 346 401
#     4  11  24  46  71 101 134 184 229 280 352 402
#     4  11  21  46  70 101 136 176 236 283 332 412
#     4  11  25  47  70  98 139 184 232 277 344 420
#
# _framework density 21.904164000000002
#
# number of rings (size 3 to 8) (size 9 to 14) (size 15 to 20)
#    0.000    0.750    5.000    3.375    8.750    0.500 
#    0.000    0.000    0.000    0.000    0.000    0.000 
#    0.000    0.000    0.000    0.000    0.000    0.000 
#
# Total GULP energy -178694.190460 kJ/mol
# GULP energy per Si atom -5584.193452 kJ/mol
# Density = 2.185431 g / cm^3
# Si number density = 21.904164 Si / 1000 Ang^3
#
#
#
# Elastic Constant Matrix: (Units=GPa)
#
#
# Indices 1 2 3 4 5 6 
#
# 1 45.2964 34.4257 -9.7618 0.0000 0.0000 0.0000
# 2 34.4257 163.7402 25.7441 0.0000 0.0000 0.0000
# 3 -9.7618 25.7441 102.7698 0.0000 0.0000 0.0000
# 4 0.0000 0.0000 0.0000 13.5061 0.0000 0.0000
# 5 0.0000 0.0000 0.0000 0.0000 8.2769 0.0000
# 6 0.0000 0.0000 0.0000 0.0000 0.0000 6.0436
#
#
#
# Elastic Compliance Matrix: (Units=1/GPa)
#
#
# Indices 1 2 3 4 5 6 
#
# 1 0.027991 -0.006561 0.004302 0.000000 0.000000 0.000000
# 2 -0.006561 0.007896 -0.002601 0.000000 0.000000 0.000000
# 3 0.004302 -0.002601 0.010791 0.000000 0.000000 0.000000
# 4 0.000000 0.000000 0.000000 0.074041 0.000000 0.000000
# 5 0.000000 0.000000 0.000000 0.000000 0.120818 0.000000
# 6 0.000000 0.000000 0.000000 0.000000 0.000000 0.165463
#
#
# Mechanical properties :
#
#
# Convention : Reuss Voigt Hill
#
# Bulk Modulus (GPa) = 27.05850 45.84692 36.45271
# Shear Modulus (GPa) = 11.65397 22.99189 17.32293
#
# Velocity S-wave (km/s) = 2.30911 3.24336 2.81526
# Velocity P-wave (km/s) = 4.41466 5.91624 5.21973
#
# Compressibility (1/GPa) = 0.03695696
#
# Stress axis : x y z
#
# Youngs Moduli (GPa) = 35.72612 126.65119 92.67193
#
# Poissons Ratio (x) = 0.83101 -0.39871
# Poissons Ratio (y) = 0.23441 0.24105
# Poissons Ratio (z) = -0.15371 0.32944
#
# Static dielectric constant tensor:
#      x y z
#    x 1.804540 0.000000 0.000000 
#    y 0.000000 1.758930 0.000000 
#    z 0.000000 0.000000 1.855120 
# 
# From -- ./inp_files/13787.got.cif
#   From: 2010.05.17/outbox.cif.g08.bks.cpg/sg58_7_cif.got.tgz:13787.got - 2010.06.03 14:20:14.
