data_PCOD9445459
_publ_section_title
;
Structure prediction by ZEFSAII (Michael W. Deem and Ramdas Pophale) SiO2 
 PCOD9445459
Probable space group: P N N M
;
_chemical_formula_sum "Si O2"
_cell_formula_units_Z 32
_cell_length_a 14.276993
_cell_length_b 9.073277
_cell_length_c 11.587747
_cell_angle_alpha 90.000000
_cell_angle_beta 90.000000
_cell_angle_gamma 90.000000
_cell_volume 1501.066459
_symmetry_space_group_name_H-M "P N N M"
_symmetry_group_IT_number 58
_symmetry_cell_setting 'orthorhombic'
loop_
_space_group_symop_operation_xyz
x,y,z
-x,-y,z
1/2+x,1/2-y,1/2-z
1/2-x,1/2+y,1/2-z
-x,-y,-z
x,y,-z
1/2-x,1/2+y,1/2+z
1/2+x,1/2-y,1/2+z
loop_
_atom_site_type_symbol
_atom_site_label
_atom_site_fract_x
_atom_site_fract_y
_atom_site_fract_z
Si Si1 0.418368 0.896770 0.702726
Si Si2 0.443684 0.642490 0.863493
Si Si3 0.130289 0.852305 0.000000
Si Si4 0.095076 0.183107 0.000000
Si Si5 0.223326 0.607662 0.131269
O O1 0.462035 0.800223 0.805088
O O2 0.383082 0.775698 0.613003
O O3 0.500000 0.000000 0.651238
O O4 0.332813 0.008564 0.721264
O O5 0.500000 0.500000 0.816543
O O6 0.332840 0.617307 0.846727
O O7 0.462730 0.651848 0.000000
O O8 0.176130 0.767764 0.109587
O O9 0.018446 0.831558 0.000000
O O10 0.144120 0.025792 0.000000
O O11 0.211820 0.542934 0.000000
#
# Coordination Sequence:
#
# PCOD9445459 Si02
#       5
#     8   8   4   4   8
#     4  12  22  37  66  94 125 157 203 262 321 370
#     4  10  25  45  62  83 127 177 214 248 297 374
#     4   9  19  34  64  91 129 153 196 255 325 383
#     4  11  20  35  62 102 126 149 195 264 336 369
#     4   9  19  42  63  87 127 160 202 261 316 369
#
# _framework density 21.318176000000001
#
# number of rings (size 3 to 8) (size 9 to 14) (size 15 to 20)
#    0.750    1.000    3.750    0.375    3.500    4.500 
#    0.000    0.000    0.000    0.000    0.000    0.000 
#    0.000    0.000    0.000    0.000    0.000    0.000 
#
# Total GULP energy -178432.629032 kJ/mol
# GULP energy per Si atom -5576.019657 kJ/mol
# Density = 2.126965 g / cm^3
# Si number density = 21.318176 Si / 1000 Ang^3
#
#
#
# Elastic Constant Matrix: (Units=GPa)
#
#
# Indices 1 2 3 4 5 6 
#
# 1 69.0827 51.6642 -1.5716 0.0000 0.0000 0.0000
# 2 51.6642 175.6700 40.5039 0.0000 0.0000 0.0000
# 3 -1.5716 40.5039 46.6852 0.0000 0.0000 0.0000
# 4 0.0000 0.0000 0.0000 14.9053 0.0000 0.0000
# 5 0.0000 0.0000 0.0000 0.0000 8.8640 0.0000
# 6 0.0000 0.0000 0.0000 0.0000 0.0000 22.1703
#
#
#
# Elastic Compliance Matrix: (Units=1/GPa)
#
#
# Indices 1 2 3 4 5 6 
#
# 1 0.020400 -0.007698 0.007365 0.000000 0.000000 0.000000
# 2 -0.007698 0.010021 -0.008953 0.000000 0.000000 0.000000
# 3 0.007365 -0.008953 0.029436 0.000000 0.000000 0.000000
# 4 0.000000 0.000000 0.000000 0.067090 0.000000 0.000000
# 5 0.000000 0.000000 0.000000 0.000000 0.112816 0.000000
# 6 0.000000 0.000000 0.000000 0.000000 0.000000 0.045105
#
#
# Mechanical properties :
#
#
# Convention : Reuss Voigt Hill
#
# Bulk Modulus (GPa) = 24.22187 52.51455 38.36821
# Shear Modulus (GPa) = 15.76291 22.57735 19.17013
#
# Velocity S-wave (km/s) = 2.72216 3.25786 3.00198
# Velocity P-wave (km/s) = 4.61161 6.23207 5.48205
#
# Compressibility (1/GPa) = 0.04128501
#
# Stress axis : x y z
#
# Youngs Moduli (GPa) = 49.02015 99.79389 33.97250
#
# Poissons Ratio (x) = 0.76819 -0.25022
# Poissons Ratio (y) = 0.37734 0.30416
# Poissons Ratio (z) = -0.36104 0.89346
#
# Static dielectric constant tensor:
#      x y z
#    x 1.757300 0.000000 0.000000 
#    y 0.000000 1.806850 0.000000 
#    z 0.000000 0.000000 1.821040 
# 
# From -- ./inp_files/15200.got.cif
#   From: 2010.05.17/outbox.cif.g08.bks.cpg/sg58_8_cif.got.tgz:15200.got - 2010.06.03 14:20:14.
