data_PCOD9445261
_publ_section_title
;
Structure prediction by ZEFSAII (Michael W. Deem and Ramdas Pophale) SiO2 
 PCOD9445261
Probable space group: P N N M
;
_chemical_formula_sum "Si O2"
_cell_formula_units_Z 56
_cell_length_a 15.930169
_cell_length_b 11.245820
_cell_length_c 14.269305
_cell_angle_alpha 90.000000
_cell_angle_beta 90.000000
_cell_angle_gamma 90.000000
_cell_volume 2556.314786
_symmetry_space_group_name_H-M "P N N M"
_symmetry_group_IT_number 58
_symmetry_cell_setting 'orthorhombic'
loop_
_space_group_symop_operation_xyz
x,y,z
-x,-y,z
1/2+x,1/2-y,1/2-z
1/2-x,1/2+y,1/2-z
-x,-y,-z
x,y,-z
1/2-x,1/2+y,1/2+z
1/2+x,1/2-y,1/2+z
loop_
_atom_site_type_symbol
_atom_site_label
_atom_site_fract_x
_atom_site_fract_y
_atom_site_fract_z
Si Si1 0.478819 0.139683 0.893975
Si Si2 0.716773 0.368327 0.892847
Si Si3 0.671566 0.097648 0.393392
Si Si4 0.138457 0.054045 0.787958
Si Si5 0.780728 0.323912 0.392197
Si Si6 0.473007 0.775078 0.698611
Si Si7 0.638182 0.695273 0.613008
O O1 0.379367 0.161109 0.884599
O O2 0.517916 0.213590 0.809911
O O3 0.500000 0.000000 0.882599
O O4 0.504444 0.173182 0.000000
O O5 0.788790 0.468905 0.890360
O O6 0.647054 0.417475 0.822042
O O7 0.769219 0.249671 0.866547
O O8 0.687114 0.357119 0.000000
O O9 0.645069 0.123114 0.500000
O O10 0.745503 0.192406 0.370679
O O11 0.591505 0.122350 0.330694
O O12 0.230306 0.087976 0.826523
O O13 0.072932 0.150905 0.827360
O O14 0.122419 0.923220 0.825996
O O15 0.757769 0.350747 0.500000
O O16 0.562191 0.780196 0.646714
O O17 0.633545 0.676407 0.500000
#
# Coordination Sequence:
#
# PCOD9445261 Si02
#       7
#     8   8   8   8   8   8   8
#     4  10  23  40  61  94 132 172 219 267 318 381
#     4  10  24  42  64  93 125 165 212 265 316 376
#     4   9  20  39  63  91 121 161 210 259 317 381
#     4  11  24  39  65  93 128 168 210 258 320 384
#     4   9  19  38  63  90 120 162 212 259 306 369
#     4  11  24  38  63  96 127 172 206 263 325 387
#     4  11  25  44  66  95 131 165 211 269 323 381
#
# _framework density 21.906535999999999
#
# number of rings (size 3 to 8) (size 9 to 14) (size 15 to 20)
#    0.000    1.857    0.000    2.143   10.000    2.857 
#    0.000    5.000    0.000    1.714    0.000    0.000 
#    0.000    0.000    0.000    0.000    0.000    0.000 
#
# Total GULP energy -312865.626387 kJ/mol
# GULP energy per Si atom -5586.886185 kJ/mol
# Density = 2.185668 g / cm^3
# Si number density = 21.906536 Si / 1000 Ang^3
#
#
#
# Elastic Constant Matrix: (Units=GPa)
#
#
# Indices 1 2 3 4 5 6 
#
# 1 31.9027 6.5058 36.5562 0.0000 0.0000 0.0000
# 2 6.5058 36.0661 9.6462 0.0000 0.0000 0.0000
# 3 36.5562 9.6462 98.2611 0.0000 0.0000 0.0000
# 4 0.0000 0.0000 0.0000 26.4785 0.0000 0.0000
# 5 0.0000 0.0000 0.0000 0.0000 28.8500 0.0000
# 6 0.0000 0.0000 0.0000 0.0000 0.0000 15.9871
#
#
#
# Elastic Compliance Matrix: (Units=1/GPa)
#
#
# Indices 1 2 3 4 5 6 
#
# 1 0.055370 -0.004599 -0.020148 0.000000 0.000000 0.000000
# 2 -0.004599 0.028857 -0.001122 0.000000 0.000000 0.000000
# 3 -0.020148 -0.001122 0.017783 0.000000 0.000000 0.000000
# 4 0.000000 0.000000 0.000000 0.037767 0.000000 0.000000
# 5 0.000000 0.000000 0.000000 0.000000 0.034662 0.000000
# 6 0.000000 0.000000 0.000000 0.000000 0.000000 0.062550
#
#
# Mechanical properties :
#
#
# Convention : Reuss Voigt Hill
#
# Bulk Modulus (GPa) = 19.89196 30.18292 25.03744
# Shear Modulus (GPa) = 16.36751 21.83122 19.09936
#
# Velocity S-wave (km/s) = 2.73637 3.16026 2.95593
# Velocity P-wave (km/s) = 4.36849 5.20810 4.80666
#
# Compressibility (1/GPa) = 0.05027156
#
# Stress axis : x y z
#
# Youngs Moduli (GPa) = 18.06032 34.65417 56.23428
#
# Poissons Ratio (x) = 0.15938 1.13300
# Poissons Ratio (y) = 0.08306 0.06308
# Poissons Ratio (z) = 0.36388 0.03887
#
# Static dielectric constant tensor:
#      x y z
#    x 1.773680 0.000000 0.000000 
#    y 0.000000 1.822510 0.000000 
#    z 0.000000 0.000000 1.832120 
# 
# From -- ./inp_files/22174.got.cif
#   From: 2010.05.17/outbox.cif.g08.bks.cpg/sg58_12_cif.got.tgz:22174.got - 2010.06.03 14:20:14.
