data_PCOD9445316
_publ_section_title
;
Structure prediction by ZEFSAII (Michael W. Deem and Ramdas Pophale) SiO2 
 PCOD9445316
Probable space group: P N N M
;
_chemical_formula_sum "Si O2"
_cell_formula_units_Z 44
_cell_length_a 16.470821
_cell_length_b 5.201283
_cell_length_c 26.622766
_cell_angle_alpha 90.000000
_cell_angle_beta 90.000000
_cell_angle_gamma 90.000000
_cell_volume 2280.756423
_symmetry_space_group_name_H-M "P N N M"
_symmetry_group_IT_number 58
_symmetry_cell_setting 'orthorhombic'
loop_
_space_group_symop_operation_xyz
x,y,z
-x,-y,z
1/2+x,1/2-y,1/2-z
1/2-x,1/2+y,1/2-z
-x,-y,-z
x,y,-z
1/2-x,1/2+y,1/2+z
1/2+x,1/2-y,1/2+z
loop_
_atom_site_type_symbol
_atom_site_label
_atom_site_fract_x
_atom_site_fract_y
_atom_site_fract_z
Si Si1 0.443129 0.250632 0.500000
Si Si2 0.444179 0.249765 0.302650
Si Si3 0.204752 0.808942 0.731254
Si Si4 0.051566 0.751581 0.439597
Si Si5 0.275397 0.217022 0.886764
Si Si6 0.332183 0.213885 0.598439
O O1 0.500000 0.500000 0.500000
O O2 0.387079 0.249066 0.549343
O O3 0.500000 0.000000 0.500000
O O4 0.500000 0.500000 0.308067
O O5 0.383650 0.282947 0.255795
O O6 0.388854 0.219728 0.352238
O O7 0.500000 0.000000 0.296927
O O8 0.260711 0.592390 0.757621
O O9 0.208139 0.752356 0.672373
O O10 0.060395 0.759818 0.500000
O O11 0.139851 0.740795 0.415452
O O12 0.000000 0.500000 0.426328
O O13 0.000000 0.000000 0.423784
O O14 0.214951 0.444336 0.903358
O O15 0.232143 0.945339 0.896789
#
# Coordination Sequence:
#
# PCOD9445316 Si02
#       6
#     4   8   8   8   8   8
#     4  12  26  46  66  98 138 174 220 280 324 388
#     4  12  24  41  66  96 128 172 214 261 324 389
#     4  12  23  44  64  94 131 170 215 263 323 372
#     4  10  23  42  65  95 130 166 207 264 325 378
#     4  12  24  42  70  97 132 171 220 270 321 396
#     4  12  25  42  68  99 132 175 216 268 329 387
#
# _framework density 19.291844999999999
#
# number of rings (size 3 to 8) (size 9 to 14) (size 15 to 20)
#    0.000    0.364    3.636    5.455    2.545    1.455 
#    0.000    0.000    0.000    0.000    0.000    0.000 
#    0.000    0.000    0.000    0.000    0.000    0.000 
#
# Total GULP energy -246368.066564 kJ/mol
# GULP energy per Si atom -5599.274240 kJ/mol
# Density = 1.924794 g / cm^3
# Si number density = 19.291845 Si / 1000 Ang^3
#
#
#
# Elastic Constant Matrix: (Units=GPa)
#
#
# Indices 1 2 3 4 5 6 
#
# 1 104.7689 9.1992 22.1066 0.0000 0.0000 0.0000
# 2 9.1992 66.5093 -14.0845 0.0000 0.0000 0.0000
# 3 22.1066 -14.0845 71.4840 0.0000 0.0000 0.0000
# 4 0.0000 0.0000 0.0000 13.8151 0.0000 0.0000
# 5 0.0000 0.0000 0.0000 0.0000 44.4502 0.0000
# 6 0.0000 0.0000 0.0000 0.0000 0.0000 47.5938
#
#
#
# Elastic Compliance Matrix: (Units=1/GPa)
#
#
# Indices 1 2 3 4 5 6 
#
# 1 0.010521 -0.002238 -0.003694 0.000000 0.000000 0.000000
# 2 -0.002238 0.016166 0.003877 0.000000 0.000000 0.000000
# 3 -0.003694 0.003877 0.015896 0.000000 0.000000 0.000000
# 4 0.000000 0.000000 0.000000 0.072384 0.000000 0.000000
# 5 0.000000 0.000000 0.000000 0.000000 0.022497 0.000000
# 6 0.000000 0.000000 0.000000 0.000000 0.000000 0.021011
#
#
# Mechanical properties :
#
#
# Convention : Reuss Voigt Hill
#
# Bulk Modulus (GPa) = 25.99240 30.80051 28.39645
# Shear Modulus (GPa) = 28.50482 36.20790 32.35636
#
# Velocity S-wave (km/s) = 3.84807 4.33696 4.09981
# Velocity P-wave (km/s) = 5.76594 6.40931 6.09612
#
# Compressibility (1/GPa) = 0.03847279
#
# Stress axis : x y z
#
# Youngs Moduli (GPa) = 95.04956 61.85806 62.91054
#
# Poissons Ratio (x) = 0.13841 0.23242
# Poissons Ratio (y) = 0.21268 -0.24391
# Poissons Ratio (z) = 0.35116 -0.23983
#
# Static dielectric constant tensor:
#      x y z
#    x 1.630350 0.000000 0.000000 
#    y 0.000000 1.644340 0.000000 
#    z 0.000000 0.000000 1.661850 
# 
# From -- ./inp_files/33662.got.cif
#   From: 2010.05.17/outbox.cif.g08.bks.cpg/sg58_17_cif.got.tgz:33662.got - 2010.06.03 14:20:14.
