data_PCOD9445492
_publ_section_title
;
Structure prediction by ZEFSAII (Michael W. Deem and Ramdas Pophale) SiO2 
 PCOD9445492
Probable space group: P N N M
;
_chemical_formula_sum "Si O2"
_cell_formula_units_Z 40
_cell_length_a 16.769972
_cell_length_b 6.818008
_cell_length_c 16.031210
_cell_angle_alpha 90.000000
_cell_angle_beta 90.000000
_cell_angle_gamma 90.000000
_cell_volume 1832.973335
_symmetry_space_group_name_H-M "P N N M"
_symmetry_group_IT_number 58
_symmetry_cell_setting 'orthorhombic'
loop_
_space_group_symop_operation_xyz
x,y,z
-x,-y,z
1/2+x,1/2-y,1/2-z
1/2-x,1/2+y,1/2-z
-x,-y,-z
x,y,-z
1/2-x,1/2+y,1/2+z
1/2+x,1/2-y,1/2+z
loop_
_atom_site_type_symbol
_atom_site_label
_atom_site_fract_x
_atom_site_fract_y
_atom_site_fract_z
Si Si1 0.268861 0.238959 0.137905
Si Si2 0.426246 0.404638 0.140184
Si Si3 0.123721 0.976616 0.904612
Si Si4 0.336363 0.087361 0.689550
Si Si5 0.437552 0.727327 0.256750
O O1 0.356627 0.279384 0.100940
O O2 0.287972 0.185477 0.234323
O O3 0.219090 0.440193 0.136486
O O4 0.213011 0.070317 0.101429
O O5 0.500000 0.500000 0.090200
O O6 0.388664 0.588214 0.191569
O O7 0.476519 0.287944 0.211887
O O8 0.127861 0.758793 0.867084
O O9 0.071638 0.117435 0.844868
O O10 0.097884 0.978238 0.000000
O O11 0.400409 0.937952 0.729962
#
# Coordination Sequence:
#
# PCOD9445492 Si02
#       5
#     8   8   8   8   8
#     4  11  19  33  59  85 115 148 203 252 285 341
#     4   8  17  35  56  91 113 147 197 250 288 338
#     4  11  23  36  54  86 124 157 196 245 302 357
#     4  11  18  33  58  84 109 152 198 245 290 344
#     4   8  19  35  56  82 119 147 192 246 298 344
#
# _framework density 21.822467
#
# number of rings (size 3 to 8) (size 9 to 14) (size 15 to 20)
#    1.200    0.800    4.000    1.200    0.000    4.000 
#    0.000    2.000    0.000    5.400    0.000    7.000 
#    0.000    0.000    0.000    0.000    0.000    0.000 
#
# Total GULP energy -222838.213288 kJ/mol
# GULP energy per Si atom -5570.955332 kJ/mol
# Density = 2.177280 g / cm^3
# Si number density = 21.822467 Si / 1000 Ang^3
#
#
#
# Elastic Constant Matrix: (Units=GPa)
#
#
# Indices 1 2 3 4 5 6 
#
# 1 122.7120 47.4111 5.8140 0.0000 0.0000 0.0000
# 2 47.4111 124.3813 21.1969 0.0000 0.0000 0.0000
# 3 5.8140 21.1969 97.2991 0.0000 0.0000 0.0000
# 4 0.0000 0.0000 0.0000 25.5719 0.0000 0.0000
# 5 0.0000 0.0000 0.0000 0.0000 -10.6062 0.0000
# 6 0.0000 0.0000 0.0000 0.0000 0.0000 49.7953
#
#
#
# Elastic Compliance Matrix: (Units=1/GPa)
#
#
# Indices 1 2 3 4 5 6 
#
# 1 0.009562 -0.003684 0.000231 0.000000 0.000000 0.000000
# 2 -0.003684 0.009769 -0.001908 0.000000 0.000000 0.000000
# 3 0.000231 -0.001908 0.010679 0.000000 0.000000 0.000000
# 4 0.000000 0.000000 0.000000 0.039105 0.000000 0.000000
# 5 0.000000 0.000000 0.000000 0.000000 -0.094285 0.000000
# 6 0.000000 0.000000 0.000000 0.000000 0.000000 0.020082
#
#
# Mechanical properties :
#
#
# Convention : Reuss Voigt Hill
#
# Bulk Modulus (GPa) = 51.84460 54.80405 53.32432
# Shear Modulus (GPa) = 414.43179 30.95022 222.69100
#
# Velocity S-wave (km/s) = 13.79576 3.77008 10.11277
# Velocity P-wave (km/s) = 16.66052 6.64225 12.68251
#
# Compressibility (1/GPa) = 0.01928841
#
# Stress axis : x y z
#
# Youngs Moduli (GPa) = 104.58526 102.36205 93.63771
#
# Poissons Ratio (x) = 0.37711 -0.02165
# Poissons Ratio (y) = 0.38530 0.17867
# Poissons Ratio (z) = -0.02418 0.19532
#
# Static dielectric constant tensor:
#      x y z
#    x 1.938210 0.000000 0.000000 
#    y 0.000000 1.798770 0.000000 
#    z 0.000000 0.000000 1.767250 
# 
# From -- ./inp_files/30332.got.cif
#   From: 2010.05.17/outbox.cif.g08.bks.cpg/sg58_16_cif.got.tgz:30332.got - 2010.06.03 14:20:14.
