data_PCOD9445769
_publ_section_title
;
Structure prediction by ZEFSAII (Michael W. Deem and Ramdas Pophale) SiO2 
 PCOD9445769
Probable space group: P N N M
;
_chemical_formula_sum "Si O2"
_cell_formula_units_Z 28
_cell_length_a 7.731261
_cell_length_b 8.433482
_cell_length_c 17.669028
_cell_angle_alpha 90.000000
_cell_angle_beta 90.000000
_cell_angle_gamma 90.000000
_cell_volume 1152.046254
_symmetry_space_group_name_H-M "P N N M"
_symmetry_group_IT_number 58
_symmetry_cell_setting 'orthorhombic'
loop_
_space_group_symop_operation_xyz
x,y,z
-x,-y,z
1/2+x,1/2-y,1/2-z
1/2-x,1/2+y,1/2-z
-x,-y,-z
x,y,-z
1/2-x,1/2+y,1/2+z
1/2+x,1/2-y,1/2+z
loop_
_atom_site_type_symbol
_atom_site_label
_atom_site_fract_x
_atom_site_fract_y
_atom_site_fract_z
Si Si1 0.000000 0.000000 0.645506
Si Si2 0.148973 0.384090 0.795205
Si Si3 0.092849 0.332629 0.617707
Si Si4 0.506330 0.686954 0.581246
O O1 0.169818 0.973030 0.696967
O O2 0.998526 0.834753 0.599771
O O3 0.103859 0.343365 0.709261
O O4 0.000000 0.500000 0.824613
O O5 0.120808 0.237837 0.851301
O O6 0.288528 0.294323 0.593236
O O7 0.000000 0.500000 0.593173
O O8 0.500000 0.500000 0.576895
O O9 0.454408 0.758772 0.500000
#
# Coordination Sequence:
#
# PCOD9445769 Si02
#       4
#     4   8   8   8
#     4  12  24  42  69 108 133 188 240 286 366 404
#     4  11  24  43  69 103 139 184 237 297 352 414
#     4  11  25  43  72 107 144 185 241 302 346 427
#     4  11  25  46  71 101 148 193 230 295 367 425
#
# _framework density 24.304579
#
# number of rings (size 3 to 8) (size 9 to 14) (size 15 to 20)
#    0.000    0.857    2.857    3.429   12.000    1.143 
#    0.000    2.857    0.000    0.000    0.000    0.000 
#    0.000    0.000    0.000    0.000    0.000    0.000 
#
# Total GULP energy -156334.190972 kJ/mol
# GULP energy per Si atom -5583.363963 kJ/mol
# Density = 2.424926 g / cm^3
# Si number density = 24.304579 Si / 1000 Ang^3
#
#
#
# Elastic Constant Matrix: (Units=GPa)
#
#
# Indices 1 2 3 4 5 6 
#
# 1 121.0552 31.4217 2.8094 0.0000 0.0000 0.0000
# 2 31.4217 141.5916 16.2147 0.0000 0.0000 0.0000
# 3 2.8094 16.2147 103.2690 0.0000 0.0000 0.0000
# 4 0.0000 0.0000 0.0000 9.2687 0.0000 0.0000
# 5 0.0000 0.0000 0.0000 0.0000 28.1451 0.0000
# 6 0.0000 0.0000 0.0000 0.0000 0.0000 35.3070
#
#
#
# Elastic Compliance Matrix: (Units=1/GPa)
#
#
# Indices 1 2 3 4 5 6 
#
# 1 0.008766 -0.001953 0.000068 0.000000 0.000000 0.000000
# 2 -0.001953 0.007627 -0.001144 0.000000 0.000000 0.000000
# 3 0.000068 -0.001144 0.009861 0.000000 0.000000 0.000000
# 4 0.000000 0.000000 0.000000 0.107890 0.000000 0.000000
# 5 0.000000 0.000000 0.000000 0.000000 0.035530 0.000000
# 6 0.000000 0.000000 0.000000 0.000000 0.000000 0.028323
#
#
# Mechanical properties :
#
#
# Convention : Reuss Voigt Hill
#
# Bulk Modulus (GPa) = 49.51560 51.86750 50.69155
# Shear Modulus (GPa) = 23.72044 35.57549 29.64796
#
# Velocity S-wave (km/s) = 3.12743 3.83003 3.49643
# Velocity P-wave (km/s) = 5.78432 6.39889 6.09935
#
# Compressibility (1/GPa) = 0.02019565
#
# Stress axis : x y z
#
# Youngs Moduli (GPa) = 114.07600 131.11210 101.40667
#
# Poissons Ratio (x) = 0.25608 -0.00692
# Poissons Ratio (y) = 0.22281 0.11605
# Poissons Ratio (z) = -0.00778 0.15005
#
# Static dielectric constant tensor:
#      x y z
#    x 1.665330 0.000000 0.000000 
#    y 0.000000 2.137580 0.000000 
#    z 0.000000 0.000000 1.940230 
# 
# From -- ./inp_files/24714.got.cif
#   From: 2010.05.17/outbox.cif.g08.bks.cpg/sg58_13_cif.got.tgz:24714.got - 2010.06.03 14:20:14.
