data_PCOD9445210
_publ_section_title
;
Structure prediction by ZEFSAII (Michael W. Deem and Ramdas Pophale) SiO2 
 PCOD9445210
Probable space group: P N N M
;
_chemical_formula_sum "Si O2"
_cell_formula_units_Z 48
_cell_length_a 11.236171
_cell_length_b 13.085583
_cell_length_c 13.990827
_cell_angle_alpha 90.000000
_cell_angle_beta 90.000000
_cell_angle_gamma 90.000000
_cell_volume 2057.097152
_symmetry_space_group_name_H-M "P N N M"
_symmetry_group_IT_number 58
_symmetry_cell_setting 'orthorhombic'
loop_
_space_group_symop_operation_xyz
x,y,z
-x,-y,z
1/2+x,1/2-y,1/2-z
1/2-x,1/2+y,1/2-z
-x,-y,-z
x,y,-z
1/2-x,1/2+y,1/2+z
1/2+x,1/2-y,1/2+z
loop_
_atom_site_type_symbol
_atom_site_label
_atom_site_fract_x
_atom_site_fract_y
_atom_site_fract_z
Si Si1 0.741463 0.860932 0.606918
Si Si2 0.480112 0.170497 0.107725
Si Si3 0.699392 0.022858 0.892944
Si Si4 0.489767 0.248065 0.687885
Si Si5 0.108479 0.433682 0.888859
Si Si6 0.397540 0.565487 0.736957
O O1 0.781658 0.836456 0.500000
O O2 0.622887 0.796393 0.629791
O O3 0.834829 0.855325 0.691372
O O4 0.711998 0.983367 0.610599
O O5 0.386809 0.076285 0.112059
O O6 0.454713 0.238264 0.200409
O O7 0.610941 0.118932 0.118192
O O8 0.469683 0.214540 0.000000
O O9 0.800097 0.004502 0.814737
O O10 0.750065 0.028034 0.000000
O O11 0.600611 0.172249 0.665049
O O12 0.531535 0.361436 0.663631
O O13 0.000000 0.500000 0.845456
O O14 0.081197 0.411540 0.000000
O O15 0.500000 0.500000 0.787010
#
# Coordination Sequence:
#
# PCOD9445210 Si02
#       6
#     8   8   8   8   8   8
#     4  10  22  43  66  90 126 168 213 263 317 380
#     4   9  18  36  67  96 119 162 213 257 312 372
#     4   9  19  39  64  92 128 164 202 258 315 375
#     4  11  21  36  65  93 124 167 216 262 314 369
#     4   8  16  33  62  94 117 152 208 264 307 359
#     4  12  27  42  60  92 136 171 209 260 323 382
#
# _framework density 23.333850999999999
#
# number of rings (size 3 to 8) (size 9 to 14) (size 15 to 20)
#    0.000    2.167    1.667    3.500    4.667    5.333 
#    0.000    1.667    0.000    0.000    0.000    0.000 
#    0.000    0.000    0.000    0.000    0.000    0.000 
#
# Total GULP energy -267929.370203 kJ/mol
# GULP energy per Si atom -5581.861879 kJ/mol
# Density = 2.328074 g / cm^3
# Si number density = 23.333851 Si / 1000 Ang^3
#
#
#
# Elastic Constant Matrix: (Units=GPa)
#
#
# Indices 1 2 3 4 5 6 
#
# 1 75.1917 3.1667 23.3754 0.0000 0.0000 0.0000
# 2 3.1667 29.2692 -17.7652 0.0000 0.0000 0.0000
# 3 23.3754 -17.7652 104.0801 0.0000 0.0000 0.0000
# 4 0.0000 0.0000 0.0000 6.7637 0.0000 0.0000
# 5 0.0000 0.0000 0.0000 0.0000 -3.3003 0.0000
# 6 0.0000 0.0000 0.0000 0.0000 0.0000 23.3678
#
#
#
# Elastic Compliance Matrix: (Units=1/GPa)
#
#
# Indices 1 2 3 4 5 6 
#
# 1 0.014708 -0.004012 -0.003988 0.000000 0.000000 0.000000
# 2 -0.004012 0.039209 0.007593 0.000000 0.000000 0.000000
# 3 -0.003988 0.007593 0.011800 0.000000 0.000000 0.000000
# 4 0.000000 0.000000 0.000000 0.147849 0.000000 0.000000
# 5 0.000000 0.000000 0.000000 0.000000 -0.303000 0.000000
# 6 0.000000 0.000000 0.000000 0.000000 0.000000 0.042794
#
#
# Mechanical properties :
#
#
# Convention : Reuss Voigt Hill
#
# Bulk Modulus (GPa) = 15.40749 25.12163 20.26456
# Shear Modulus (GPa) = -206.67154 18.68384 -93.99385
#
# Velocity S-wave (km/s) = -9.42146 2.83277 -6.35371
# Velocity P-wave (km/s) = 10.57045 4.63562 6.71734
#
# Compressibility (1/GPa) = 0.06490349
#
# Stress axis : x y z
#
# Youngs Moduli (GPa) = 67.98971 25.50459 84.74727
#
# Poissons Ratio (x) = 0.10232 0.33798
# Poissons Ratio (y) = 0.27277 -0.64353
# Poissons Ratio (z) = 0.27115 -0.19367
#
# Static dielectric constant tensor:
#      x y z
#    x 1.936910 0.000000 0.000000 
#    y 0.000000 1.931870 0.000000 
#    z 0.000000 0.000000 1.876890 
# 
# From -- ./inp_files/21169.got.cif
#   From: 2010.05.17/outbox.cif.g08.bks.cpg/sg58_11_cif.got.tgz:21169.got - 2010.06.03 14:20:14.
