data_PCOD9445949
_publ_section_title
;
Structure prediction by ZEFSAII (Michael W. Deem and Ramdas Pophale) SiO2 
 PCOD9445949
Probable space group: P N N M
;
_chemical_formula_sum "Si O2"
_cell_formula_units_Z 64
_cell_length_a 15.000000
_cell_length_b 24.000000
_cell_length_c 9.000000
_cell_angle_alpha 90.000000
_cell_angle_beta 90.000000
_cell_angle_gamma 90.000000
_cell_volume 3240.000000
_symmetry_space_group_name_H-M "P N N M"
_symmetry_group_IT_number 58
_symmetry_cell_setting 'orthorhombic'
loop_
_space_group_symop_operation_xyz
x,y,z
-x,-y,z
1/2+x,1/2-y,1/2-z
1/2-x,1/2+y,1/2-z
-x,-y,-z
x,y,-z
1/2-x,1/2+y,1/2+z
1/2+x,1/2-y,1/2+z
loop_
_atom_site_type_symbol
_atom_site_label
_atom_site_fract_x
_atom_site_fract_y
_atom_site_fract_z
Si Si1 0.720039 0.101025 0.177232
Si Si2 0.419599 0.366934 0.318569
Si Si3 0.932130 0.949000 0.830788
Si Si4 0.226367 0.195117 0.681223
Si Si5 0.738344 0.430452 0.177950
Si Si6 0.902061 0.709083 0.323272
Si Si7 0.102488 0.496103 0.179306
Si Si8 0.420572 0.237504 0.321231
O O1 0.822954 0.108595 0.227147
O O2 0.667196 0.158924 0.199385
O O3 0.660537 0.054727 0.257429
O O4 0.721908 0.089364 0.000000
O O5 0.420387 0.370703 0.500000
O O6 0.506667 0.399838 0.264028
O O7 0.426669 0.302320 0.277817
O O8 0.842959 0.965137 0.744667
O O9 0.906465 0.934839 0.000000
O O10 0.000000 0.000000 0.835851
O O11 0.224871 0.196731 0.500000
O O12 0.217825 0.131855 0.729624
O O13 0.148010 0.235426 0.732644
O O14 0.323735 0.216323 0.726641
O O15 0.836756 0.450628 0.220072
O O16 0.734047 0.432383 0.000000
O O17 0.917065 0.713598 0.500000
O O18 0.996770 0.703705 0.244566
O O19 0.000000 0.500000 0.231542
O O20 0.099976 0.491650 0.000000
O O21 0.424145 0.234194 0.500000
#
# Coordination Sequence:
#
# PCOD9445949 Si02
#       8
#     8   8   8   8   8   8   8   8
#     4  10  20  37  60  82 109 145 185 227 274 329
#     4   9  17  33  56  82 110 143 183 224 268 327
#     4  10  20  34  55  82 110 140 177 222 271 322
#     4   9  18  35  57  79 108 147 182 215 268 332
#     4  10  21  37  56  79 109 145 183 224 273 325
#     4  10  20  35  55  83 114 142 179 228 275 322
#     4  10  23  40  57  80 110 145 188 235 275 320
#     4  10  19  33  56  80 105 145 188 220 266 331
#
# _framework density 19.753086
#
# number of rings (size 3 to 8) (size 9 to 14) (size 15 to 20)
#    0.000    2.250    1.250    1.500    1.750    2.500 
#    0.000    2.500    0.000    0.000    0.000    0.000 
#    0.000    0.000    0.000    0.000    0.000    0.000 
#
# Total GULP energy -356989.426194 kJ/mol
# GULP energy per Si atom -5577.959784 kJ/mol
# Density = 1.970813 g / cm^3
# Si number density = 19.753086 Si / 1000 Ang^3
#
#
#
# Elastic Constant Matrix: (Units=GPa)
#
#
# Indices 1 2 3 4 5 6 
#
# 1 106.9839 -3.0157 7.9742 0.0000 0.0000 0.0000
# 2 -3.0157 32.4709 8.5117 0.0000 0.0000 0.0000
# 3 7.9742 8.5117 -4.2105 0.0000 0.0000 0.0000
# 4 0.0000 0.0000 0.0000 16.1029 0.0000 0.0000
# 5 0.0000 0.0000 0.0000 0.0000 21.9628 0.0000
# 6 0.0000 0.0000 0.0000 0.0000 0.0000 31.1236
#
#
#
# Elastic Compliance Matrix: (Units=1/GPa)
#
#
# Indices 1 2 3 4 5 6 
#
# 1 0.008430 -0.002224 0.011470 0.000000 0.000000 0.000000
# 2 -0.002224 0.020716 0.037668 0.000000 0.000000 0.000000
# 3 0.011470 0.037668 -0.139633 0.000000 0.000000 0.000000
# 4 0.000000 0.000000 0.000000 0.062100 0.000000 0.000000
# 5 0.000000 0.000000 0.000000 0.000000 0.045532 0.000000
# 6 0.000000 0.000000 0.000000 0.000000 0.000000 0.032130
#
#
# Mechanical properties :
#
#
# Convention : Reuss Voigt Hill
#
# Bulk Modulus (GPa) = -60.02442 18.02053 -21.00194
# Shear Modulus (GPa) = -71.32054 21.95612 -24.68221
#
# Velocity S-wave (km/s) = -6.01535 3.33758 -3.53871
# Velocity P-wave (km/s) = 8.87126 4.89849 5.22991
#
# Compressibility (1/GPa) = -0.01665989
#
# Stress axis : x y z
#
# Youngs Moduli (GPa) = 118.62941 48.27115 -7.16162
#
# Poissons Ratio (x) = 0.10734 0.08214
# Poissons Ratio (y) = 0.26379 0.26976
# Poissons Ratio (z) = -1.36063 -1.81827
#
# Static dielectric constant tensor:
#      x y z
#    x 1.679320 0.000000 0.000000 
#    y 0.000000 1.757880 0.000000 
#    z 0.000000 0.000000 1.664590 
# 
# From -- ./inp_files/6740.got.cif
#   From: 2010.05.17/outbox.ucp.g08.bks.cvg/sg58_4_cif.got.tgz:6740.got - 2010.06.11 16:41:41.
