data_PCOD9445870
_publ_section_title
;
Structure prediction by ZEFSAII (Michael W. Deem and Ramdas Pophale) SiO2 
 PCOD9445870
Probable space group: P N N M
;
_chemical_formula_sum "Si O2"
_cell_formula_units_Z 48
_cell_length_a 30.603556
_cell_length_b 10.566521
_cell_length_c 7.382138
_cell_angle_alpha 90.000000
_cell_angle_beta 90.000000
_cell_angle_gamma 90.000000
_cell_volume 2387.184976
_symmetry_space_group_name_H-M "P N N M"
_symmetry_group_IT_number 58
_symmetry_cell_setting 'orthorhombic'
loop_
_space_group_symop_operation_xyz
x,y,z
-x,-y,z
1/2+x,1/2-y,1/2-z
1/2-x,1/2+y,1/2-z
-x,-y,-z
x,y,-z
1/2-x,1/2+y,1/2+z
1/2+x,1/2-y,1/2+z
loop_
_atom_site_type_symbol
_atom_site_label
_atom_site_fract_x
_atom_site_fract_y
_atom_site_fract_z
Si Si1 0.617910 0.518367 0.279899
Si Si2 0.027801 0.877271 0.221016
Si Si3 0.284442 0.493184 0.283706
Si Si4 0.287016 0.779156 0.283612
Si Si5 0.384775 0.775356 0.720089
Si Si6 0.523598 0.127375 0.721496
O O1 0.618043 0.523759 0.500000
O O2 0.577836 0.604865 0.219182
O O3 0.667167 0.546696 0.217646
O O4 0.608336 0.372138 0.231934
O O5 0.003980 0.749836 0.278765
O O6 0.027752 0.876484 0.000000
O O7 0.000000 0.000000 0.275816
O O8 0.287951 0.502800 0.500000
O O9 0.275096 0.636908 0.217383
O O10 0.247964 0.388234 0.250343
O O11 0.290234 0.769478 0.500000
O O12 0.336077 0.811284 0.217782
O O13 0.384690 0.780426 0.500000
O O14 0.426212 0.856131 0.780784
O O15 0.523953 0.127010 0.500000
O O16 0.500000 0.000000 0.780659
#
# Coordination Sequence:
#
# PCOD9445870 Si02
#       6
#     8   8   8   8   8   8
#     4   8  13  23  39  57  78 109 146 179 213 258
#     4   9  13  19  34  52  73 106 141 168 203 258
#     4   9  18  32  48  67  93 121 153 193 231 270
#     4   9  18  32  49  67  91 123 155 190 231 272
#     4   8  13  24  39  54  79 115 145 171 214 266
#     4   9  15  21  30  50  81 110 136 170 211 258
#
# _framework density 20.107364
#
# number of rings (size 3 to 8) (size 9 to 14) (size 15 to 20)
#    0.000    3.333    1.667    2.000    0.000    0.667 
#    3.000    0.000    0.000    0.000    0.000    0.000 
#    0.000    2.667    0.000    0.167    0.000    0.000 
#
# Total GULP energy -267597.617951 kJ/mol
# GULP energy per Si atom -5574.950374 kJ/mol
# Density = 2.006160 g / cm^3
# Si number density = 20.107364 Si / 1000 Ang^3
#
#
#
# Elastic Constant Matrix: (Units=GPa)
#
#
# Indices 1 2 3 4 5 6 
#
# 1 215.2254 130.1758 5.7464 0.0000 0.0000 0.0000
# 2 130.1758 151.7132 4.1821 0.0000 0.0000 0.0000
# 3 5.7464 4.1821 67.9592 0.0000 0.0000 0.0000
# 4 0.0000 0.0000 0.0000 3.4691 0.0000 0.0000
# 5 0.0000 0.0000 0.0000 0.0000 5.3891 0.0000
# 6 0.0000 0.0000 0.0000 0.0000 0.0000 40.3426
#
#
#
# Elastic Compliance Matrix: (Units=1/GPa)
#
#
# Indices 1 2 3 4 5 6 
#
# 1 0.009665 -0.008285 -0.000307 0.000000 0.000000 0.000000
# 2 -0.008285 0.013704 -0.000143 0.000000 0.000000 0.000000
# 3 -0.000307 -0.000143 0.014750 0.000000 0.000000 0.000000
# 4 0.000000 0.000000 0.000000 0.288262 0.000000 0.000000
# 5 0.000000 0.000000 0.000000 0.000000 0.185560 0.000000
# 6 0.000000 0.000000 0.000000 0.000000 0.000000 0.024788
#
#
# Mechanical properties :
#
#
# Convention : Reuss Voigt Hill
#
# Bulk Modulus (GPa) = 48.42887 79.45626 63.94257
# Shear Modulus (GPa) = 8.91135 29.49304 19.20219
#
# Velocity S-wave (km/s) = 2.10749 3.83401 3.09363
# Velocity P-wave (km/s) = 5.48265 7.69424 6.68060
#
# Compressibility (1/GPa) = 0.02064884
#
# Stress axis : x y z
#
# Youngs Moduli (GPa) = 103.46079 72.97096 67.79889
#
# Poissons Ratio (x) = 0.60456 0.02084
# Poissons Ratio (y) = 0.85716 0.00968
# Poissons Ratio (z) = 0.03181 0.01042
#
# Static dielectric constant tensor:
#      x y z
#    x 1.720670 0.000000 0.000000 
#    y 0.000000 1.682180 0.000000 
#    z 0.000000 0.000000 1.846880 
# 
# From -- ./inp_files/10333.got.cif
#   From: 2010.05.17/outbox.cif.g08.bks.cpg/sg58_6_cif.got.tgz:10333.got - 2010.06.03 14:20:14.
