data_PCOD9445080
_publ_section_title
;
Structure prediction by ZEFSAII (Michael W. Deem and Ramdas Pophale) SiO2 
 PCOD9445080
Probable space group: P N N M
;
_chemical_formula_sum "Si O2"
_cell_formula_units_Z 48
_cell_length_a 31.726713
_cell_length_b 9.395038
_cell_length_c 8.004134
_cell_angle_alpha 90.000000
_cell_angle_beta 90.000000
_cell_angle_gamma 90.000000
_cell_volume 2385.821631
_symmetry_space_group_name_H-M "P N N M"
_symmetry_group_IT_number 58
_symmetry_cell_setting 'orthorhombic'
loop_
_space_group_symop_operation_xyz
x,y,z
-x,-y,z
1/2+x,1/2-y,1/2-z
1/2-x,1/2+y,1/2-z
-x,-y,-z
x,y,-z
1/2-x,1/2+y,1/2+z
1/2+x,1/2-y,1/2+z
loop_
_atom_site_type_symbol
_atom_site_label
_atom_site_fract_x
_atom_site_fract_y
_atom_site_fract_z
Si Si1 0.535566 0.619403 0.814257
Si Si2 0.629767 0.955875 0.193775
Si Si3 0.209621 0.374876 0.804020
Si Si4 0.711094 0.451765 0.694528
Si Si5 0.369075 0.380970 0.802638
Si Si6 0.926532 0.554299 0.000000
Si Si7 0.007469 0.702009 0.000000
O O1 0.500000 0.500000 0.821360
O O2 0.582990 0.568001 0.775239
O O3 0.521354 0.721157 0.668277
O O4 0.538261 0.686868 0.000000
O O5 0.675151 0.030294 0.209707
O O6 0.600645 0.032106 0.332424
O O7 0.632555 0.787746 0.239021
O O8 0.615214 0.966221 0.000000
O O9 0.254719 0.449897 0.785128
O O10 0.210638 0.211333 0.743113
O O11 0.197786 0.371990 0.000000
O O12 0.723425 0.446232 0.500000
O O13 0.665676 0.525563 0.711059
O O14 0.359842 0.392438 0.000000
O O15 0.962677 0.435201 0.000000
O O16 0.956706 0.690983 0.000000
#
# Coordination Sequence:
#
# PCOD9445080 Si02
#       7
#     8   8   8   8   8   4   4
#     4  10  22  41  64  93 128 170 219 271 328 388
#     4  11  23  42  68  94 129 172 217 264 324 387
#     4  11  24  43  63  94 133 167 214 264 316 387
#     4  11  25  40  63  95 128 170 213 262 324 383
#     4  10  22  40  64  93 124 167 219 267 323 388
#     4  11  24  40  64  98 126 174 214 268 325 386
#     4  11  23  40  64  94 133 165 222 266 328 389
#
# _framework density 20.118855
#
# number of rings (size 3 to 8) (size 9 to 14) (size 15 to 20)
#    0.000    1.333    2.500    2.250    2.333    8.667 
#    0.000    3.333    0.000    0.000    0.000    0.000 
#    0.000    0.000    0.000    0.000    0.000    0.000 
#
# Total GULP energy -267996.059267 kJ/mol
# GULP energy per Si atom -5583.251235 kJ/mol
# Density = 2.007306 g / cm^3
# Si number density = 20.118855 Si / 1000 Ang^3
#
#
#
# Elastic Constant Matrix: (Units=GPa)
#
#
# Indices 1 2 3 4 5 6 
#
# 1 139.4970 53.8938 36.5789 0.0000 0.0000 0.0000
# 2 53.8938 42.3036 21.7552 0.0000 0.0000 0.0000
# 3 36.5789 21.7552 71.6525 0.0000 0.0000 0.0000
# 4 0.0000 0.0000 0.0000 13.8845 0.0000 0.0000
# 5 0.0000 0.0000 0.0000 0.0000 71.9398 0.0000
# 6 0.0000 0.0000 0.0000 0.0000 0.0000 38.3822
#
#
#
# Elastic Compliance Matrix: (Units=1/GPa)
#
#
# Indices 1 2 3 4 5 6 
#
# 1 0.014381 -0.017236 -0.002108 0.000000 0.000000 0.000000
# 2 -0.017236 0.048672 -0.005979 0.000000 0.000000 0.000000
# 3 -0.002108 -0.005979 0.016848 0.000000 0.000000 0.000000
# 4 0.000000 0.000000 0.000000 0.072023 0.000000 0.000000
# 5 0.000000 0.000000 0.000000 0.000000 0.013901 0.000000
# 6 0.000000 0.000000 0.000000 0.000000 0.000000 0.026054
#
#
# Mechanical properties :
#
#
# Convention : Reuss Voigt Hill
#
# Bulk Modulus (GPa) = 34.18317 53.10098 43.64207
# Shear Modulus (GPa) = 19.81968 34.25631 27.03800
#
# Velocity S-wave (km/s) = 3.14208 4.13085 3.66992
# Velocity P-wave (km/s) = 5.49464 7.01447 6.30055
#
# Compressibility (1/GPa) = 0.02925416
#
# Stress axis : x y z
#
# Youngs Moduli (GPa) = 69.53838 20.54574 59.35565
#
# Poissons Ratio (x) = 0.35413 0.12512
# Poissons Ratio (y) = 1.19859 0.35486
# Poissons Ratio (z) = 0.14659 0.12283
#
# Static dielectric constant tensor:
#      x y z
#    x 1.714020 0.000000 0.000000 
#    y 0.000000 1.818010 0.000000 
#    z 0.000000 0.000000 1.704630 
# 
# From -- ./inp_files/3077.got.cif
#   From: 2010.05.17/outbox.cif.g08.bks.cpg/sg58_2_cif.got.tgz:3077.got - 2010.06.03 14:20:14.
