data_PCOD9445616
_publ_section_title
;
Structure prediction by ZEFSAII (Michael W. Deem and Ramdas Pophale) SiO2 
 PCOD9445616
Probable space group: P N N M
;
_chemical_formula_sum "Si O2"
_cell_formula_units_Z 40
_cell_length_a 13.759723
_cell_length_b 18.403767
_cell_length_c 8.958681
_cell_angle_alpha 90.000000
_cell_angle_beta 90.000000
_cell_angle_gamma 90.000000
_cell_volume 2268.613384
_symmetry_space_group_name_H-M "P N N M"
_symmetry_group_IT_number 58
_symmetry_cell_setting 'orthorhombic'
loop_
_space_group_symop_operation_xyz
x,y,z
-x,-y,z
1/2+x,1/2-y,1/2-z
1/2-x,1/2+y,1/2-z
-x,-y,-z
x,y,-z
1/2-x,1/2+y,1/2+z
1/2+x,1/2-y,1/2+z
loop_
_atom_site_type_symbol
_atom_site_label
_atom_site_fract_x
_atom_site_fract_y
_atom_site_fract_z
Si Si1 0.801499 0.974052 0.822117
Si Si2 0.401891 0.665020 0.178151
Si Si3 0.880879 0.118319 0.321296
Si Si4 0.822644 0.689454 0.822238
Si Si5 0.606095 0.029487 0.321306
O O1 0.843099 0.899977 0.755105
O O2 0.692516 0.988743 0.763456
O O3 0.864371 0.042054 0.761141
O O4 0.803885 0.972484 0.000000
O O5 0.515819 0.653534 0.214361
O O6 0.363279 0.742015 0.235187
O O7 0.391189 0.659690 0.000000
O O8 0.876592 0.104460 0.500000
O O9 0.789293 0.169851 0.284918
O O10 0.881706 0.615305 0.790357
O O11 0.828109 0.703358 0.000000
O O12 0.620681 0.020069 0.500000
O O13 0.500000 0.000000 0.282245
#
# Coordination Sequence:
#
# PCOD9445616 Si02
#       5
#     8   8   8   8   8
#     4  11  22  35  55  83 111 140 180 227 272 322
#     4  11  22  36  56  80 108 144 184 224 272 326
#     4   9  20  39  58  76 106 146 182 222 272 323
#     4   9  19  36  55  79 110 139 175 224 272 319
#     4   9  19  38  61  82 109 147 184 219 266 322
#
# _framework density 17.631916
#
# number of rings (size 3 to 8) (size 9 to 14) (size 15 to 20)
#    0.000    2.200    0.000    4.200    0.000    9.200 
#    0.000    4.000    0.000    0.000    0.000    0.000 
#    0.000    0.000    0.000    0.000    0.000    0.000 
#
# Total GULP energy -223366.621805 kJ/mol
# GULP energy per Si atom -5584.165545 kJ/mol
# Density = 1.759178 g / cm^3
# Si number density = 17.631916 Si / 1000 Ang^3
#
#
#
# Elastic Constant Matrix: (Units=GPa)
#
#
# Indices 1 2 3 4 5 6 
#
# 1 136.8637 118.8275 75.8370 0.0000 0.0000 0.0000
# 2 118.8275 146.9052 78.6348 0.0000 0.0000 0.0000
# 3 75.8370 78.6348 70.9478 0.0000 0.0000 0.0000
# 4 0.0000 0.0000 0.0000 35.9358 0.0000 0.0000
# 5 0.0000 0.0000 0.0000 0.0000 12.6415 0.0000
# 6 0.0000 0.0000 0.0000 0.0000 0.0000 19.4808
#
#
#
# Elastic Compliance Matrix: (Units=1/GPa)
#
#
# Indices 1 2 3 4 5 6 
#
# 1 0.028119 -0.016365 -0.011919 0.000000 0.000000 0.000000
# 2 -0.016365 0.026260 -0.011613 0.000000 0.000000 0.000000
# 3 -0.011919 -0.011613 0.039706 0.000000 0.000000 0.000000
# 4 0.000000 0.000000 0.000000 0.027827 0.000000 0.000000
# 5 0.000000 0.000000 0.000000 0.000000 0.079104 0.000000
# 6 0.000000 0.000000 0.000000 0.000000 0.000000 0.051333
#
#
# Mechanical properties :
#
#
# Convention : Reuss Voigt Hill
#
# Bulk Modulus (GPa) = 69.96770 100.14614 85.05692
# Shear Modulus (GPa) = 14.84084 19.03946 16.94015
#
# Velocity S-wave (km/s) = 2.90436 3.28964 3.10299
# Velocity P-wave (km/s) = 7.14252 8.44692 7.82196
#
# Compressibility (1/GPa) = 0.01429231
#
# Stress axis : x y z
#
# Youngs Moduli (GPa) = 35.56289 38.08024 25.18485
#
# Poissons Ratio (x) = 0.62318 0.30018
# Poissons Ratio (y) = 0.58198 0.29247
# Poissons Ratio (z) = 0.42387 0.44222
#
# Static dielectric constant tensor:
#      x y z
#    x 1.594300 0.000000 0.000000 
#    y 0.000000 1.563730 0.000000 
#    z 0.000000 0.000000 1.587480 
# 
# From -- ./inp_files/3793.got.cif
#   From: 2010.05.17/outbox.cif.g08.bks.cpg/sg58_2_cif.got.tgz:3793.got - 2010.06.03 14:20:14.
