data_PCOD9445516
_publ_section_title
;
Structure prediction by ZEFSAII (Michael W. Deem and Ramdas Pophale) SiO2 
 PCOD9445516
Probable space group: P N N M
;
_chemical_formula_sum "Si O2"
_cell_formula_units_Z 40
_cell_length_a 18.978639
_cell_length_b 4.952582
_cell_length_c 24.784036
_cell_angle_alpha 90.000000
_cell_angle_beta 90.000000
_cell_angle_gamma 90.000000
_cell_volume 2329.532486
_symmetry_space_group_name_H-M "P N N M"
_symmetry_group_IT_number 58
_symmetry_cell_setting 'orthorhombic'
loop_
_space_group_symop_operation_xyz
x,y,z
-x,-y,z
1/2+x,1/2-y,1/2-z
1/2-x,1/2+y,1/2-z
-x,-y,-z
x,y,-z
1/2-x,1/2+y,1/2+z
1/2+x,1/2-y,1/2+z
loop_
_atom_site_type_symbol
_atom_site_label
_atom_site_fract_x
_atom_site_fract_y
_atom_site_fract_z
Si Si1 0.135466 0.308944 0.884473
Si Si2 0.428983 0.338354 0.563136
Si Si3 0.237396 0.018988 0.322834
Si Si4 0.548736 0.244234 0.279655
Si Si5 0.667439 0.984045 0.786087
O O1 0.090307 0.564904 0.905667
O O2 0.212969 0.415276 0.870299
O O3 0.102070 0.192380 0.828673
O O4 0.130619 0.063038 0.925966
O O5 0.500000 0.500000 0.580537
O O6 0.436563 0.274381 0.500000
O O7 0.287915 0.020244 0.269811
O O8 0.173594 0.815536 0.309147
O O9 0.207761 0.318260 0.326883
O O10 0.500000 0.500000 0.266897
O O11 0.593824 0.116676 0.230789
O O12 0.500000 0.000000 0.299137
#
# Coordination Sequence:
#
# PCOD9445516 Si02
#       5
#     8   8   8   8   8
#     4  11  20  32  48  64  83 113 158 195 222 259
#     4  11  22  34  46  62  87 117 150 192 238 271
#     4   9  17  29  45  61  80 109 144 185 219 253
#     4  11  20  29  44  65  89 117 149 184 218 255
#     4   9  17  29  42  61  86 109 140 179 219 257
#
# _framework density 17.170826000000002
#
# number of rings (size 3 to 8) (size 9 to 14) (size 15 to 20)
#    0.000    1.800    0.000    6.600    0.000    8.000 
#    0.000    0.000    0.000    0.000    0.000    0.000 
#    0.000    0.000    0.000    0.000    0.000  252.000 
#
# Total GULP energy -223142.016706 kJ/mol
# GULP energy per Si atom -5578.550418 kJ/mol
# Density = 1.713174 g / cm^3
# Si number density = 17.170826 Si / 1000 Ang^3
#
#
#
# Elastic Constant Matrix: (Units=GPa)
#
#
# Indices 1 2 3 4 5 6 
#
# 1 23.9489 -4.9327 9.4233 0.0000 0.0000 0.0000
# 2 -4.9327 72.1413 -1.1555 0.0000 0.0000 0.0000
# 3 9.4233 -1.1555 26.0856 0.0000 0.0000 0.0000
# 4 0.0000 0.0000 0.0000 32.4214 0.0000 0.0000
# 5 0.0000 0.0000 0.0000 0.0000 13.1846 0.0000
# 6 0.0000 0.0000 0.0000 0.0000 0.0000 20.2950
#
#
#
# Elastic Compliance Matrix: (Units=1/GPa)
#
#
# Indices 1 2 3 4 5 6 
#
# 1 0.049354 0.003091 -0.017692 0.000000 0.000000 0.000000
# 2 0.003091 0.014065 -0.000494 0.000000 0.000000 0.000000
# 3 -0.017692 -0.000494 0.044704 0.000000 0.000000 0.000000
# 4 0.000000 0.000000 0.000000 0.030844 0.000000 0.000000
# 5 0.000000 0.000000 0.000000 0.000000 0.075846 0.000000
# 6 0.000000 0.000000 0.000000 0.000000 0.000000 0.049273
#
#
# Mechanical properties :
#
#
# Convention : Reuss Voigt Hill
#
# Bulk Modulus (GPa) = 12.83125 14.31624 13.57374
# Shear Modulus (GPa) = 15.61268 21.10292 18.35780
#
# Velocity S-wave (km/s) = 3.01866 3.50951 3.27330
# Velocity P-wave (km/s) = 4.43155 4.97774 4.71256
#
# Compressibility (1/GPa) = 0.07793473
#
# Stress axis : x y z
#
# Youngs Moduli (GPa) = 20.26198 71.09782 22.36917
#
# Poissons Ratio (x) = -0.21978 0.39575
# Poissons Ratio (y) = -0.06263 0.01104
# Poissons Ratio (z) = 0.35847 0.03510
#
# Static dielectric constant tensor:
#      x y z
#    x 1.658430 0.000000 0.000000 
#    y 0.000000 1.601850 0.000000 
#    z 0.000000 0.000000 1.565930 
# 
# From -- ./inp_files/30182.got.cif
#   From: 2010.05.17/outbox.cif.g08.bks.cpg/sg58_16_cif.got.tgz:30182.got - 2010.06.03 14:20:14.
