data_PCOD9445912
_publ_section_title
;
Structure prediction by ZEFSAII (Michael W. Deem and Ramdas Pophale) SiO2 
 PCOD9445912
Probable space group: P N N M
;
_chemical_formula_sum "Si O2"
_cell_formula_units_Z 64
_cell_length_a 18.000000
_cell_length_b 21.000000
_cell_length_c 9.000000
_cell_angle_alpha 90.000000
_cell_angle_beta 90.000000
_cell_angle_gamma 90.000000
_cell_volume 3402.000000
_symmetry_space_group_name_H-M "P N N M"
_symmetry_group_IT_number 58
_symmetry_cell_setting 'orthorhombic'
loop_
_space_group_symop_operation_xyz
x,y,z
-x,-y,z
1/2+x,1/2-y,1/2-z
1/2-x,1/2+y,1/2-z
-x,-y,-z
x,y,-z
1/2-x,1/2+y,1/2+z
1/2+x,1/2-y,1/2+z
loop_
_atom_site_type_symbol
_atom_site_label
_atom_site_fract_x
_atom_site_fract_y
_atom_site_fract_z
Si Si1 0.544268 0.891037 0.177144
Si Si2 0.215075 0.139612 0.823571
Si Si3 0.737512 0.107253 0.322848
Si Si4 0.948052 0.822140 0.180436
Si Si5 0.590572 0.177065 0.320545
Si Si6 0.176202 0.519175 0.323383
Si Si7 0.888208 0.147974 0.171282
Si Si8 0.344065 0.204372 0.329969
O O1 0.466161 0.875170 0.254040
O O2 0.598813 0.833691 0.226368
O O3 0.594813 0.952563 0.217601
O O4 0.534368 0.892162 0.000000
O O5 0.262070 0.191325 0.732334
O O6 0.128114 0.140558 0.781800
O O7 0.261412 0.074433 0.801224
O O8 0.218965 0.154665 0.000000
O O9 0.743645 0.108842 0.500000
O O10 0.675736 0.160659 0.278936
O O11 0.701066 0.041668 0.267877
O O12 0.819800 0.115018 0.255267
O O13 0.026679 0.852105 0.231752
O O14 0.935300 0.748193 0.226330
O O15 0.953760 0.820985 0.000000
O O16 0.585491 0.174766 0.500000
O O17 0.174541 0.504969 0.500000
O O18 0.866037 0.222319 0.170692
O O19 0.889260 0.124909 0.000000
O O20 0.350402 0.180717 0.500000
#
# Coordination Sequence:
#
# PCOD9445912 Si02
#       8
#     8   8   8   8   8   8   8   8
#     4  10  20  34  56  84 111 145 183 224 269 320
#     4   9  18  34  58  82 106 143 189 231 270 319
#     4  11  24  38  56  80 108 148 188 231 277 324
#     4   9  17  34  58  83 110 140 177 224 274 329
#     4  10  20  36  56  82 115 144 177 223 278 334
#     4   9  20  38  56  77 108 146 190 232 270 320
#     4  10  20  35  56  79 109 146 178 221 279 332
#     4  10  18  31  53  81 113 144 175 216 275 332
#
# _framework density 18.812463000000001
#
# number of rings (size 3 to 8) (size 9 to 14) (size 15 to 20)
#    0.000    2.250    1.250    2.625    0.000    6.000 
#    0.000    4.375    0.000    3.750    0.000    0.000 
#    0.000    0.000    0.000    0.000    0.000    0.000 
#
# Total GULP energy -356976.877613 kJ/mol
# GULP energy per Si atom -5577.763713 kJ/mol
# Density = 1.876965 g / cm^3
# Si number density = 18.812463 Si / 1000 Ang^3
#
#
#
# Elastic Constant Matrix: (Units=GPa)
#
#
# Indices 1 2 3 4 5 6 
#
# 1 134.6642 3.6336 21.7379 0.0000 0.0000 0.0000
# 2 3.6336 19.4719 7.8890 0.0000 0.0000 0.0000
# 3 21.7379 7.8890 19.1489 0.0000 0.0000 0.0000
# 4 0.0000 0.0000 0.0000 21.8596 0.0000 0.0000
# 5 0.0000 0.0000 0.0000 0.0000 28.8063 0.0000
# 6 0.0000 0.0000 0.0000 0.0000 0.0000 18.1212
#
#
#
# Elastic Compliance Matrix: (Units=1/GPa)
#
#
# Indices 1 2 3 4 5 6 
#
# 1 0.009239 0.003031 -0.011736 0.000000 0.000000 0.000000
# 2 0.003031 0.062640 -0.029247 0.000000 0.000000 0.000000
# 3 -0.011736 -0.029247 0.077595 0.000000 0.000000 0.000000
# 4 0.000000 0.000000 0.000000 0.045747 0.000000 0.000000
# 5 0.000000 0.000000 0.000000 0.000000 0.034715 0.000000
# 6 0.000000 0.000000 0.000000 0.000000 0.000000 0.055184
#
#
# Mechanical properties :
#
#
# Convention : Reuss Voigt Hill
#
# Bulk Modulus (GPa) = 13.59288 26.64512 20.11900
# Shear Modulus (GPa) = 12.96858 23.09240 18.03049
#
# Velocity S-wave (km/s) = 2.62842 3.50738 3.09922
# Velocity P-wave (km/s) = 4.05618 5.53142 4.85021
#
# Compressibility (1/GPa) = 0.07356792
#
# Stress axis : x y z
#
# Youngs Moduli (GPa) = 108.24109 15.96428 12.88739
#
# Poissons Ratio (x) = -0.04839 0.15125
# Poissons Ratio (y) = -0.32808 0.37692
# Poissons Ratio (z) = 1.27037 0.46691
#
# Static dielectric constant tensor:
#      x y z
#    x 1.675780 0.000000 0.000000 
#    y 0.000000 1.663910 0.000000 
#    z 0.000000 0.000000 1.638240 
# 
# From -- ./inp_files/8272.got.cif
#   From: 2010.05.17/outbox.ucp.g08.bks.cvg/sg58_5_cif.got.tgz:8272.got - 2010.06.11 16:41:41.
