data_PCOD9445734
_publ_section_title
;
Structure prediction by ZEFSAII (Michael W. Deem and Ramdas Pophale) SiO2 
 PCOD9445734
Probable space group: P N N M
;
_chemical_formula_sum "Si O2"
_cell_formula_units_Z 32
_cell_length_a 10.184515
_cell_length_b 13.658221
_cell_length_c 9.912221
_cell_angle_alpha 90.000000
_cell_angle_beta 90.000000
_cell_angle_gamma 90.000000
_cell_volume 1378.813301
_symmetry_space_group_name_H-M "P N N M"
_symmetry_group_IT_number 58
_symmetry_cell_setting 'orthorhombic'
loop_
_space_group_symop_operation_xyz
x,y,z
-x,-y,z
1/2+x,1/2-y,1/2-z
1/2-x,1/2+y,1/2-z
-x,-y,-z
x,y,-z
1/2-x,1/2+y,1/2+z
1/2+x,1/2-y,1/2+z
loop_
_atom_site_type_symbol
_atom_site_label
_atom_site_fract_x
_atom_site_fract_y
_atom_site_fract_z
Si Si1 0.577111 0.770440 0.718206
Si Si2 0.695077 0.968918 0.347161
Si Si3 0.834555 0.654137 0.343876
Si Si4 0.095938 0.092354 0.858547
O O1 0.598713 0.875683 0.649634
O O2 0.720242 0.719450 0.727943
O O3 0.478753 0.796737 0.840472
O O4 0.490266 0.689554 0.643845
O O5 0.713993 0.004705 0.500000
O O6 0.823124 0.922285 0.277260
O O7 0.658784 0.054507 0.242640
O O8 0.795372 0.639468 0.500000
O O9 0.175637 0.092358 0.000000
O O10 0.000000 0.000000 0.862346
#
# Coordination Sequence:
#
# PCOD9445734 Si02
#       4
#     8   8   8   8
#     4  12  26  48  77 109 149 198 247 312 374 443
#     4  12  27  47  73 110 153 195 248 313 376 444
#     4  12  28  52  78 112 153 198 253 309 373 453
#     4  11  23  44  75 106 144 197 250 306 375 446
#
# _framework density 23.208362999999999
#
# number of rings (size 3 to 8) (size 9 to 14) (size 15 to 20)
#    0.000    0.250    5.000    3.750    0.000    8.500 
#    0.000    0.000    0.000    0.000    0.000    0.000 
#    0.000    0.000    0.000    0.000    0.000    0.000 
#
# Total GULP energy -178492.942528 kJ/mol
# GULP energy per Si atom -5577.904454 kJ/mol
# Density = 2.315554 g / cm^3
# Si number density = 23.208363 Si / 1000 Ang^3
#
#
#
# Elastic Constant Matrix: (Units=GPa)
#
#
# Indices 1 2 3 4 5 6 
#
# 1 107.2225 41.0939 54.1786 0.0000 0.0000 0.0000
# 2 41.0939 158.4502 53.3046 0.0000 0.0000 0.0000
# 3 54.1786 53.3046 122.7219 0.0000 0.0000 0.0000
# 4 0.0000 0.0000 0.0000 -8.9536 0.0000 0.0000
# 5 0.0000 0.0000 0.0000 0.0000 33.6444 0.0000
# 6 0.0000 0.0000 0.0000 0.0000 0.0000 48.3580
#
#
#
# Elastic Compliance Matrix: (Units=1/GPa)
#
#
# Indices 1 2 3 4 5 6 
#
# 1 0.012342 -0.001602 -0.004753 0.000000 0.000000 0.000000
# 2 -0.001602 0.007599 -0.002593 0.000000 0.000000 0.000000
# 3 -0.004753 -0.002593 0.011373 0.000000 0.000000 0.000000
# 4 0.000000 0.000000 0.000000 -0.111687 0.000000 0.000000
# 5 0.000000 0.000000 0.000000 0.000000 0.029723 0.000000
# 6 0.000000 0.000000 0.000000 0.000000 0.000000 0.020679
#
#
# Mechanical properties :
#
#
# Convention : Reuss Voigt Hill
#
# Bulk Modulus (GPa) = 74.52818 76.17209 75.35013
# Shear Modulus (GPa) = -657.70470 30.59761 -313.55355
#
# Velocity S-wave (km/s) = -16.85249 3.63490 -11.63602
# Velocity P-wave (km/s) = 18.61432 7.10696 12.16520
#
# Compressibility (1/GPa) = 0.01341774
#
# Stress axis : x y z
#
# Youngs Moduli (GPa) = 81.02466 131.59508 87.92581
#
# Poissons Ratio (x) = 0.21081 0.41790
# Poissons Ratio (y) = 0.12980 0.22803
# Poissons Ratio (z) = 0.38510 0.34129
#
# Static dielectric constant tensor:
#      x y z
#    x 1.949760 0.000000 0.000000 
#    y 0.000000 1.874790 0.000000 
#    z 0.000000 0.000000 1.837670 
# 
# From -- ./inp_files/3494.got.cif
#   From: 2010.05.17/outbox.cif.g08.bks.cpg/sg58_2_cif.got.tgz:3494.got - 2010.06.03 14:20:14.
