data_PCOD9445861
_publ_section_title
;
Structure prediction by ZEFSAII (Michael W. Deem and Ramdas Pophale) SiO2 
 PCOD9445861
Probable space group: P N N M
;
_chemical_formula_sum "Si O2"
_cell_formula_units_Z 32
_cell_length_a 23.795030
_cell_length_b 8.791015
_cell_length_c 5.766200
_cell_angle_alpha 90.000000
_cell_angle_beta 90.000000
_cell_angle_gamma 90.000000
_cell_volume 1206.187933
_symmetry_space_group_name_H-M "P N N M"
_symmetry_group_IT_number 58
_symmetry_cell_setting 'orthorhombic'
loop_
_space_group_symop_operation_xyz
x,y,z
-x,-y,z
1/2+x,1/2-y,1/2-z
1/2-x,1/2+y,1/2-z
-x,-y,-z
x,y,-z
1/2-x,1/2+y,1/2+z
1/2+x,1/2-y,1/2+z
loop_
_atom_site_type_symbol
_atom_site_label
_atom_site_fract_x
_atom_site_fract_y
_atom_site_fract_z
Si Si1 0.018753 0.739315 0.500000
Si Si2 0.422540 0.484345 0.251144
Si Si3 0.313534 0.786551 0.751223
Si Si4 0.405029 0.952214 0.000000
Si Si5 0.311890 0.278105 0.250436
O O1 0.031271 0.850414 0.282823
O O2 0.070427 0.620349 0.500000
O O3 0.962173 0.645521 0.500000
O O4 0.428718 0.560419 0.500000
O O5 0.362627 0.397579 0.250904
O O6 0.425890 0.565841 0.000000
O O7 0.319424 0.709676 0.500000
O O8 0.364783 0.903374 0.786667
O O9 0.250356 0.852937 0.750912
O O10 0.315282 0.698602 0.000000
O O11 0.316025 0.195035 0.500000
O O12 0.313556 0.194656 0.000000
#
# Coordination Sequence:
#
# PCOD9445861 Si02
#       5
#     4   8   8   4   8
#     4   9  18  28  36  50  76 106 130 145 164 206
#     4   8  15  25  37  51  64  88 120 155 180 205
#     4   8  15  25  37  51  64  88 120 155 180 205
#     4   9  18  28  36  50  76 106 130 145 164 206
#     4   8  12  22  38  52  64  76 112 158 186 212
#
# _framework density 26.529862000000001
#
# number of rings (size 3 to 8) (size 9 to 14) (size 15 to 20)
#    1.500    2.250    0.000    0.000    0.000    2.000 
#    0.000    2.500    0.000    0.000    0.000    0.000 
#    0.000    0.000    0.000    0.000    0.000    7.500 
#
# Total GULP energy -178139.674965 kJ/mol
# GULP energy per Si atom -5566.864843 kJ/mol
# Density = 2.646948 g / cm^3
# Si number density = 26.529862 Si / 1000 Ang^3
#
#
#
# Elastic Constant Matrix: (Units=GPa)
#
#
# Indices 1 2 3 4 5 6 
#
# 1 202.8830 41.9887 31.6033 0.0000 0.0000 0.0000
# 2 41.9887 61.9342 24.1235 0.0000 0.0000 0.0000
# 3 31.6033 24.1235 317.4923 0.0000 0.0000 0.0000
# 4 0.0000 0.0000 0.0000 -3.2052 0.0000 0.0000
# 5 0.0000 0.0000 0.0000 0.0000 29.6883 0.0000
# 6 0.0000 0.0000 0.0000 0.0000 0.0000 36.1034
#
#
#
# Elastic Compliance Matrix: (Units=1/GPa)
#
#
# Indices 1 2 3 4 5 6 
#
# 1 0.005758 -0.003793 -0.000285 0.000000 0.000000 0.000000
# 2 -0.003793 0.019137 -0.001076 0.000000 0.000000 0.000000
# 3 -0.000285 -0.001076 0.003260 0.000000 0.000000 0.000000
# 4 0.000000 0.000000 0.000000 -0.311993 0.000000 0.000000
# 5 0.000000 0.000000 0.000000 0.000000 0.033683 0.000000
# 6 0.000000 0.000000 0.000000 0.000000 0.000000 0.027698
#
#
# Mechanical properties :
#
#
# Convention : Reuss Voigt Hill
#
# Bulk Modulus (GPa) = 56.03409 86.41561 71.22485
# Shear Modulus (GPa) = -24.24844 44.82357 10.28756
#
# Velocity S-wave (km/s) = -3.02653 4.11487 1.97133
# Velocity P-wave (km/s) = 2.99229 7.43101 5.66453
#
# Compressibility (1/GPa) = 0.01784628
#
# Stress axis : x y z
#
# Youngs Moduli (GPa) = 173.66169 52.25511 306.76309
#
# Poissons Ratio (x) = 0.19820 0.08743
# Poissons Ratio (y) = 0.65868 0.33023
# Poissons Ratio (z) = 0.04949 0.05625
#
# Static dielectric constant tensor:
#      x y z
#    x 2.115920 0.000000 0.000000 
#    y 0.000000 2.005640 0.000000 
#    z 0.000000 0.000000 2.107830 
# 
# From -- ./inp_files/797.got.cif
#   From: 2010.05.17/outbox.cif.g08.bks.cpg/sg58_1_cif.got.tgz:797.got - 2010.06.03 14:20:14.
