data_PCOD9445536
_publ_section_title
;
Structure prediction by ZEFSAII (Michael W. Deem and Ramdas Pophale) SiO2 
 PCOD9445536
Probable space group: P N N M
;
_chemical_formula_sum "Si O2"
_cell_formula_units_Z 64
_cell_length_a 24.851382
_cell_length_b 10.059851
_cell_length_c 13.987539
_cell_angle_alpha 90.000000
_cell_angle_beta 90.000000
_cell_angle_gamma 90.000000
_cell_volume 3496.901536
_symmetry_space_group_name_H-M "P N N M"
_symmetry_group_IT_number 58
_symmetry_cell_setting 'orthorhombic'
loop_
_space_group_symop_operation_xyz
x,y,z
-x,-y,z
1/2+x,1/2-y,1/2-z
1/2-x,1/2+y,1/2-z
-x,-y,-z
x,y,-z
1/2-x,1/2+y,1/2+z
1/2+x,1/2-y,1/2+z
loop_
_atom_site_type_symbol
_atom_site_label
_atom_site_fract_x
_atom_site_fract_y
_atom_site_fract_z
Si Si1 0.621591 0.054939 0.309010
Si Si2 0.344885 0.054561 0.106035
Si Si3 0.856307 0.133882 0.604452
Si Si4 0.263424 0.901499 0.342841
Si Si5 0.948152 0.796162 0.115352
Si Si6 0.930329 0.293623 0.886848
Si Si7 0.729572 0.405441 0.324904
Si Si8 0.882640 0.032107 0.188892
O O1 0.637506 0.033799 0.197084
O O2 0.676666 0.055004 0.372238
O O3 0.590263 0.188788 0.333915
O O4 0.584981 0.930549 0.337022
O O5 0.364402 0.207511 0.120879
O O6 0.279804 0.066347 0.106195
O O7 0.362491 0.009803 0.000000
O O8 0.879154 0.098462 0.500000
O O9 0.791597 0.112941 0.598880
O O10 0.877205 0.053426 0.696563
O O11 0.272674 0.751462 0.304572
O O12 0.246722 0.012003 0.267191
O O13 0.009467 0.755519 0.135722
O O14 0.931565 0.939192 0.156313
O O15 0.940622 0.794549 0.000000
O O16 0.889980 0.177814 0.854593
O O17 0.927208 0.313065 0.000000
O O18 0.671232 0.461406 0.351363
#
# Coordination Sequence:
#
# PCOD9445536 Si02
#       8
#     8   8   8   8   8   8   8   8
#     4  11  20  38  60  84 115 151 192 238 287 344
#     4   9  18  34  58  86 117 154 189 222 272 342
#     4   9  18  34  58  86 117 154 189 222 272 342
#     4   9  18  32  55  83 115 151 188 225 268 330
#     4  11  24  40  60  83 111 147 192 248 302 347
#     4  11  24  40  58  83 111 147 196 244 296 347
#     4   9  18  32  55  83 115 151 188 225 268 330
#     4  11  20  38  60  84 115 151 192 238 287 344
#
# _framework density 18.301915999999999
#
# number of rings (size 3 to 8) (size 9 to 14) (size 15 to 20)
#    0.000    2.000    2.500    1.500    1.750    4.000 
#    0.000    0.625    0.000    4.500    0.000    0.000 
#    0.000    0.000    0.000    0.000    0.000    0.000 
#
# Total GULP energy -356454.187644 kJ/mol
# GULP energy per Si atom -5569.596682 kJ/mol
# Density = 1.826026 g / cm^3
# Si number density = 18.301916 Si / 1000 Ang^3
#
#
#
# Elastic Constant Matrix: (Units=GPa)
#
#
# Indices 1 2 3 4 5 6 
#
# 1 47.6349 0.5095 16.8909 0.0000 0.0000 0.0000
# 2 0.5095 52.2098 20.9351 0.0000 0.0000 0.0000
# 3 16.8909 20.9351 81.1540 0.0000 0.0000 0.0000
# 4 0.0000 0.0000 0.0000 20.7165 0.0000 0.0000
# 5 0.0000 0.0000 0.0000 0.0000 1.4089 0.0000
# 6 0.0000 0.0000 0.0000 0.0000 0.0000 32.9740
#
#
#
# Elastic Compliance Matrix: (Units=1/GPa)
#
#
# Indices 1 2 3 4 5 6 
#
# 1 0.022829 0.001877 -0.005236 0.000000 0.000000 0.000000
# 2 0.001877 0.021518 -0.005941 0.000000 0.000000 0.000000
# 3 -0.005236 -0.005941 0.014945 0.000000 0.000000 0.000000
# 4 0.000000 0.000000 0.000000 0.048271 0.000000 0.000000
# 5 0.000000 0.000000 0.000000 0.000000 0.709750 0.000000
# 6 0.000000 0.000000 0.000000 0.000000 0.000000 0.030327
#
#
# Mechanical properties :
#
#
# Convention : Reuss Voigt Hill
#
# Bulk Modulus (GPa) = 24.57561 28.62996 26.60278
# Shear Modulus (GPa) = 5.68308 20.53078 13.10693
#
# Velocity S-wave (km/s) = 1.76407 3.35294 2.67900
# Velocity P-wave (km/s) = 4.19598 5.53775 4.91289
#
# Compressibility (1/GPa) = 0.04069075
#
# Stress axis : x y z
#
# Youngs Moduli (GPa) = 43.80302 46.47366 66.91352
#
# Poissons Ratio (x) = -0.08721 0.35034
# Poissons Ratio (y) = -0.08220 0.39756
# Poissons Ratio (z) = 0.22934 0.27612
#
# Static dielectric constant tensor:
#      x y z
#    x 1.663480 0.000000 0.000000 
#    y 0.000000 1.605450 0.000000 
#    z 0.000000 0.000000 1.644230 
# 
# From -- ./inp_files/23560.got.cif
#   From: 2010.05.17/outbox.cif.g08.bks.cpg/sg58_12_cif.got.tgz:23560.got - 2010.06.03 14:20:14.
