data_PCOD9445303
_publ_section_title
;
Structure prediction by ZEFSAII (Michael W. Deem and Ramdas Pophale) SiO2 
 PCOD9445303
Probable space group: P N N M
;
_chemical_formula_sum "Si O2"
_cell_formula_units_Z 32
_cell_length_a 8.875151
_cell_length_b 5.075884
_cell_length_c 31.542008
_cell_angle_alpha 90.000000
_cell_angle_beta 90.000000
_cell_angle_gamma 90.000000
_cell_volume 1420.943393
_symmetry_space_group_name_H-M "P N N M"
_symmetry_group_IT_number 58
_symmetry_cell_setting 'orthorhombic'
loop_
_space_group_symop_operation_xyz
x,y,z
-x,-y,z
1/2+x,1/2-y,1/2-z
1/2-x,1/2+y,1/2-z
-x,-y,-z
x,y,-z
1/2-x,1/2+y,1/2+z
1/2+x,1/2-y,1/2+z
loop_
_atom_site_type_symbol
_atom_site_label
_atom_site_fract_x
_atom_site_fract_y
_atom_site_fract_z
Si Si1 0.107128 0.248131 0.228187
Si Si2 0.175289 0.066049 0.682441
Si Si3 0.330896 0.590365 0.550196
Si Si4 0.174162 0.098168 0.587766
O O1 0.227842 0.305486 0.191814
O O2 0.000000 0.500000 0.228971
O O3 0.188429 0.229896 0.274017
O O4 0.000000 0.000000 0.221447
O O5 0.211315 0.176766 0.636496
O O6 0.000000 0.000000 0.680927
O O7 0.500000 0.500000 0.562385
O O8 0.332082 0.646999 0.500000
O O9 0.276396 0.851115 0.574208
O O10 0.216626 0.350632 0.559888
O O11 0.000000 0.000000 0.584459
#
# Coordination Sequence:
#
# PCOD9445303 Si02
#       4
#     8   8   8   8
#     4  11  24  41  64  92 127 173 220 264 312 371
#     4  10  23  42  63  92 131 170 214 264 318 370
#     4  11  25  46  69  95 129 167 208 261 324 386
#     4  11  25  42  67  99 131 167 211 265 319 380
#
# _framework density 22.520250999999998
#
# number of rings (size 3 to 8) (size 9 to 14) (size 15 to 20)
#    0.000    1.250    0.000    5.250    0.000   18.000 
#    0.000    1.250    0.000    0.000    0.000    0.000 
#    0.000    0.000    0.000    0.000    0.000    0.000 
#
# Total GULP energy -179005.365305 kJ/mol
# GULP energy per Si atom -5593.917666 kJ/mol
# Density = 2.246899 g / cm^3
# Si number density = 22.520251 Si / 1000 Ang^3
#
#
#
# Elastic Constant Matrix: (Units=GPa)
#
#
# Indices 1 2 3 4 5 6 
#
# 1 105.5972 30.4931 33.5929 0.0000 0.0000 0.0000
# 2 30.4931 101.1567 -2.0354 0.0000 0.0000 0.0000
# 3 33.5929 -2.0354 68.3530 0.0000 0.0000 0.0000
# 4 0.0000 0.0000 0.0000 36.7973 0.0000 0.0000
# 5 0.0000 0.0000 0.0000 0.0000 9.1707 0.0000
# 6 0.0000 0.0000 0.0000 0.0000 0.0000 31.0723
#
#
#
# Elastic Compliance Matrix: (Units=1/GPa)
#
#
# Indices 1 2 3 4 5 6 
#
# 1 0.012614 -0.003930 -0.006316 0.000000 0.000000 0.000000
# 2 -0.003930 0.011116 0.002262 0.000000 0.000000 0.000000
# 3 -0.006316 0.002262 0.017802 0.000000 0.000000 0.000000
# 4 0.000000 0.000000 0.000000 0.027176 0.000000 0.000000
# 5 0.000000 0.000000 0.000000 0.000000 0.109043 0.000000
# 6 0.000000 0.000000 0.000000 0.000000 0.000000 0.032183
#
#
# Mechanical properties :
#
#
# Convention : Reuss Voigt Hill
#
# Bulk Modulus (GPa) = 39.11751 44.35645 41.73698
# Shear Modulus (GPa) = 21.32909 29.61181 25.47045
#
# Velocity S-wave (km/s) = 3.08085 3.63008 3.36669
# Velocity P-wave (km/s) = 5.48299 6.10811 5.80397
#
# Compressibility (1/GPa) = 0.02556400
#
# Stress axis : x y z
#
# Youngs Moduli (GPa) = 79.27667 89.96277 56.17487
#
# Poissons Ratio (x) = 0.35351 0.35482
# Poissons Ratio (y) = 0.31152 -0.12708
# Poissons Ratio (z) = 0.50074 -0.20352
#
# Static dielectric constant tensor:
#      x y z
#    x 1.841340 0.000000 0.000000 
#    y 0.000000 1.837560 0.000000 
#    z 0.000000 0.000000 1.799160 
# 
# From -- ./inp_files/33950.got.cif
#   From: 2010.05.17/outbox.cif.g08.bks.cpg/sg58_17_cif.got.tgz:33950.got - 2010.06.03 14:20:14.
