data_PCOD9445417
_publ_section_title
;
Structure prediction by ZEFSAII (Michael W. Deem and Ramdas Pophale) SiO2 
 PCOD9445417
Probable space group: P N N M
;
_chemical_formula_sum "Si O2"
_cell_formula_units_Z 36
_cell_length_a 22.696325
_cell_length_b 5.129751
_cell_length_c 13.127049
_cell_angle_alpha 90.000000
_cell_angle_beta 90.000000
_cell_angle_gamma 90.000000
_cell_volume 1528.336316
_symmetry_space_group_name_H-M "P N N M"
_symmetry_group_IT_number 58
_symmetry_cell_setting 'orthorhombic'
loop_
_space_group_symop_operation_xyz
x,y,z
-x,-y,z
1/2+x,1/2-y,1/2-z
1/2-x,1/2+y,1/2-z
-x,-y,-z
x,y,-z
1/2-x,1/2+y,1/2+z
1/2+x,1/2-y,1/2+z
loop_
_atom_site_type_symbol
_atom_site_label
_atom_site_fract_x
_atom_site_fract_y
_atom_site_fract_z
Si Si1 0.730253 0.734047 0.695189
Si Si2 0.628667 0.875373 0.000000
Si Si3 0.433330 0.896683 0.197781
Si Si4 0.000000 0.000000 0.781950
Si Si5 0.604529 0.803567 0.619562
Si Si6 0.203181 0.130684 0.500000
O O1 0.763679 0.462541 0.719733
O O2 0.663682 0.665785 0.661490
O O3 0.759406 0.890348 0.601487
O O4 0.594064 0.968411 0.100708
O O5 0.683528 0.069592 0.000000
O O6 0.650171 0.577837 0.000000
O O7 0.448690 0.593945 0.202590
O O8 0.500000 0.000000 0.208625
O O9 0.399951 0.952951 0.302973
O O10 0.957629 0.160879 0.858642
O O11 0.610457 0.860611 0.500000
#
# Coordination Sequence:
#
# PCOD9445417 Si02
#       6
#     8   4   8   4   8   4
#     4  12  27  48  76 107 150 193 248 309 374 448
#     4  12  27  45  78 102 152 188 247 302 372 435
#     4  10  24  44  69 105 140 194 240 305 364 444
#     4  10  25  43  72 108 150 193 257 300 382 442
#     4  11  24  46  72 107 149 196 248 313 378 450
#     4  12  26  48  68 115 135 195 242 298 370 439
#
# _framework density 23.555024
#
# number of rings (size 3 to 8) (size 9 to 14) (size 15 to 20)
#    0.000    0.889    1.111    4.667   12.444    5.333 
#    0.000    0.000    0.000    0.000    0.000    0.000 
#    0.000    0.000    0.000    0.000    0.000    0.000 
#
# Total GULP energy -200532.170873 kJ/mol
# GULP energy per Si atom -5570.338080 kJ/mol
# Density = 2.350141 g / cm^3
# Si number density = 23.555024 Si / 1000 Ang^3
#
#
#
# Elastic Constant Matrix: (Units=GPa)
#
#
# Indices 1 2 3 4 5 6 
#
# 1 94.4395 8.3545 56.7464 0.0000 0.0000 0.0000
# 2 8.3545 53.4382 41.6683 0.0000 0.0000 0.0000
# 3 56.7464 41.6683 141.4095 0.0000 0.0000 0.0000
# 4 0.0000 0.0000 0.0000 10.1489 0.0000 0.0000
# 5 0.0000 0.0000 0.0000 0.0000 45.5969 0.0000
# 6 0.0000 0.0000 0.0000 0.0000 0.0000 43.3865
#
#
#
# Elastic Compliance Matrix: (Units=1/GPa)
#
#
# Indices 1 2 3 4 5 6 
#
# 1 0.014292 0.002905 -0.006592 0.000000 0.000000 0.000000
# 2 0.002905 0.024886 -0.008499 0.000000 0.000000 0.000000
# 3 -0.006592 -0.008499 0.012221 0.000000 0.000000 0.000000
# 4 0.000000 0.000000 0.000000 0.098532 0.000000 0.000000
# 5 0.000000 0.000000 0.000000 0.000000 0.021931 0.000000
# 6 0.000000 0.000000 0.000000 0.000000 0.000000 0.023049
#
#
# Mechanical properties :
#
#
# Convention : Reuss Voigt Hill
#
# Bulk Modulus (GPa) = 36.99691 55.86952 46.43322
# Shear Modulus (GPa) = 21.90178 31.99433 26.94806
#
# Velocity S-wave (km/s) = 3.05259 3.68948 3.38605
# Velocity P-wave (km/s) = 5.30708 6.47456 5.91967
#
# Compressibility (1/GPa) = 0.02702928
#
# Stress axis : x y z
#
# Youngs Moduli (GPa) = 69.96698 40.18324 81.82577
#
# Poissons Ratio (x) = -0.11674 0.53936
# Poissons Ratio (y) = -0.20327 0.69543
# Poissons Ratio (z) = 0.46119 0.34151
#
# Static dielectric constant tensor:
#      x y z
#    x 1.920820 0.000000 0.000000 
#    y 0.000000 3.187510 0.000000 
#    z 0.000000 0.000000 2.722180 
# 
# From -- ./inp_files/23097.got.cif
#   From: 2010.05.17/outbox.cif.g08.bks.cpg/sg58_12_cif.got.tgz:23097.got - 2010.06.03 14:20:14.
