data_PCOD9445731
_publ_section_title
;
Structure prediction by ZEFSAII (Michael W. Deem and Ramdas Pophale) SiO2 
 PCOD9445731
Probable space group: P N N M
;
_chemical_formula_sum "Si O2"
_cell_formula_units_Z 58
_cell_length_a 7.968853
_cell_length_b 17.501976
_cell_length_c 18.048678
_cell_angle_alpha 90.000000
_cell_angle_beta 90.000000
_cell_angle_gamma 90.000000
_cell_volume 2517.261285
_symmetry_space_group_name_H-M "P N N M"
_symmetry_group_IT_number 58
_symmetry_cell_setting 'orthorhombic'
loop_
_space_group_symop_operation_xyz
x,y,z
-x,-y,z
1/2+x,1/2-y,1/2-z
1/2-x,1/2+y,1/2-z
-x,-y,-z
x,y,-z
1/2-x,1/2+y,1/2+z
1/2+x,1/2-y,1/2+z
loop_
_atom_site_type_symbol
_atom_site_label
_atom_site_fract_x
_atom_site_fract_y
_atom_site_fract_z
Si Si1 0.000000 0.000000 0.500000
Si Si2 0.809584 0.559248 0.587240
Si Si3 0.699634 0.357518 0.808506
Si Si4 0.178968 0.879262 0.313750
Si Si5 0.817330 0.488796 0.109201
Si Si6 0.820732 0.202423 0.156611
Si Si7 0.821525 0.398108 0.644034
Si Si8 0.338601 0.752042 0.413955
O O1 0.848562 0.004314 0.437851
O O2 0.836051 0.545139 0.500000
O O3 0.697954 0.634345 0.598186
O O4 0.741694 0.480936 0.623982
O O5 0.983415 0.584396 0.627186
O O6 0.518437 0.395724 0.814809
O O7 0.815458 0.402038 0.865158
O O8 0.687733 0.270882 0.836976
O O9 0.775424 0.369540 0.726656
O O10 0.195385 0.836904 0.235989
O O11 0.231733 0.821431 0.379371
O O12 0.292960 0.954043 0.321226
O O13 0.000000 0.500000 0.076230
O O14 0.998501 0.241118 0.138240
O O15 0.760796 0.328184 0.593004
O O16 0.380415 0.766685 0.500000
#
# Coordination Sequence:
#
# PCOD9445731 Si02
#       8
#     2   8   8   8   8   8   8   8
#     4  12  26  56  72 110 152 196 242 312 384 454
#     4  11  25  44  71 105 148 193 241 307 382 465
#     4  12  25  46  72 107 140 193 250 317 367 448
#     4  12  24  48  73 106 148 193 254 309 382 440
#     4  12  28  48  78 110 147 195 252 310 380 450
#     4  12  25  45  71 107 147 192 253 307 378 456
#     4  11  23  44  72 102 142 190 247 295 377 450
#     4  12  26  44  71 105 147 192 244 310 380 453
#
# _framework density 23.040915999999999
#
# number of rings (size 3 to 8) (size 9 to 14) (size 15 to 20)
#    0.000    0.276    4.138    4.759    6.759    0.552 
#    4.966    1.379    0.000    0.000    0.000    0.000 
#    0.000    0.000    0.000    0.000    0.000    0.000 
#
# Total GULP energy -323685.394244 kJ/mol
# GULP energy per Si atom -5580.782659 kJ/mol
# Density = 2.298847 g / cm^3
# Si number density = 23.040916 Si / 1000 Ang^3
#
#
#
# Elastic Constant Matrix: (Units=GPa)
#
#
# Indices 1 2 3 4 5 6 
#
# 1 84.1733 -5.0308 0.1138 0.0000 0.0000 0.0000
# 2 -5.0308 106.3161 11.3549 0.0000 0.0000 0.0000
# 3 0.1138 11.3549 90.2054 0.0000 0.0000 0.0000
# 4 0.0000 0.0000 0.0000 -166.5089 0.0000 0.0000
# 5 0.0000 0.0000 0.0000 0.0000 0.1569 0.0000
# 6 0.0000 0.0000 0.0000 0.0000 0.0000 35.9526
#
#
#
# Elastic Compliance Matrix: (Units=1/GPa)
#
#
# Indices 1 2 3 4 5 6 
#
# 1 0.011915 0.000573 -0.000087 0.000000 0.000000 0.000000
# 2 0.000573 0.009562 -0.001204 0.000000 0.000000 0.000000
# 3 -0.000087 -0.001204 0.011238 0.000000 0.000000 0.000000
# 4 0.000000 0.000000 0.000000 -0.006006 0.000000 0.000000
# 5 0.000000 0.000000 0.000000 0.000000 6.374656 0.000000
# 6 0.000000 0.000000 0.000000 0.000000 0.000000 0.027814
#
#
# Mechanical properties :
#
#
# Convention : Reuss Voigt Hill
#
# Bulk Modulus (GPa) = 31.97238 32.61896 32.29567
# Shear Modulus (GPa) = 0.77627 -7.79610 -3.50991
#
# Velocity S-wave (km/s) = 0.58107 -1.84145 -1.23558
# Velocity P-wave (km/s) = 3.78902 3.10909 3.46577
#
# Compressibility (1/GPa) = 0.03127700
#
# Stress axis : x y z
#
# Youngs Moduli (GPa) = 83.93051 104.58441 88.98762
#
# Poissons Ratio (x) = -0.05994 0.00776
# Poissons Ratio (y) = -0.04810 0.10717
# Poissons Ratio (z) = 0.00732 0.12595
#
# Static dielectric constant tensor:
#      x y z
#    x 1.881700 0.000000 0.000000 
#    y 0.000000 2.006490 0.000000 
#    z 0.000000 0.000000 1.857260 
# 
# From -- ./inp_files/25523.got.cif
#   From: 2010.05.17/outbox.cif.g08.bks.cpg/sg58_13_cif.got.tgz:25523.got - 2010.06.03 14:20:14.
