data_PCOD9445992
_publ_section_title
;
Structure prediction by ZEFSAII (Michael W. Deem and Ramdas Pophale) SiO2 
 PCOD9445992
Probable space group: P N N M
;
_chemical_formula_sum "Si O2"
_cell_formula_units_Z 64
_cell_length_a 12.000000
_cell_length_b 30.000000
_cell_length_c 9.000000
_cell_angle_alpha 90.000000
_cell_angle_beta 90.000000
_cell_angle_gamma 90.000000
_cell_volume 3240.000000
_symmetry_space_group_name_H-M "P N N M"
_symmetry_group_IT_number 58
_symmetry_cell_setting 'orthorhombic'
loop_
_space_group_symop_operation_xyz
x,y,z
-x,-y,z
1/2+x,1/2-y,1/2-z
1/2-x,1/2+y,1/2-z
-x,-y,-z
x,y,-z
1/2-x,1/2+y,1/2+z
1/2+x,1/2-y,1/2+z
loop_
_atom_site_type_symbol
_atom_site_label
_atom_site_fract_x
_atom_site_fract_y
_atom_site_fract_z
Si Si1 0.923159 0.423388 0.822377
Si Si2 0.081916 0.086548 0.171742
Si Si3 0.031782 0.836566 0.672828
Si Si4 0.796456 0.346767 0.672954
Si Si5 0.716277 0.488023 0.178695
Si Si6 0.165046 0.229577 0.678004
Si Si7 0.210183 0.322026 0.174424
Si Si8 0.674359 0.076699 0.680398
O O1 0.892893 0.376373 0.746558
O O2 0.829146 0.459931 0.785381
O O3 0.048091 0.438123 0.784830
O O4 0.918051 0.416978 0.000000
O O5 0.189059 0.120056 0.183689
O O6 0.116464 0.040902 0.252403
O O7 0.986081 0.116854 0.243118
O O8 0.060263 0.077838 0.000000
O O9 0.006914 0.846068 0.500000
O O10 0.156198 0.818993 0.684591
O O11 0.945482 0.798403 0.721574
O O12 0.818313 0.338056 0.500000
O O13 0.764516 0.300983 0.755087
O O14 0.738851 0.538681 0.230747
O O15 0.703796 0.488147 0.000000
O O16 0.173466 0.230698 0.500000
O O17 0.161974 0.279442 0.741070
O O18 0.184839 0.372101 0.231022
O O19 0.177798 0.319756 0.000000
O O20 0.685553 0.078126 0.500000
#
# Coordination Sequence:
#
# PCOD9445992 Si02
#       8
#     8   8   8   8   8   8   8   8
#     4   9  16  28  49  77 106 135 169 210 255 302
#     4   9  17  30  51  77 101 127 164 209 253 297
#     4   9  19  36  56  75  98 130 165 203 247 298
#     4   9  17  30  49  75 103 130 164 205 249 297
#     4   9  16  29  51  76 103 136 173 211 251 299
#     4  10  20  35  54  75  98 127 165 204 247 298
#     4  10  21  37  54  74 102 133 167 207 250 296
#     4   9  18  32  50  73 102 138 177 213 251 299
#
# _framework density 19.753086
#
# number of rings (size 3 to 8) (size 9 to 14) (size 15 to 20)
#    0.000    2.750    0.000    1.500    0.000    6.500 
#    0.000    5.000    0.000    6.750    0.000    0.000 
#    0.000    0.000    0.000    0.000    0.000    0.000 
#
# Total GULP energy -356941.779940 kJ/mol
# GULP energy per Si atom -5577.215312 kJ/mol
# Density = 1.970813 g / cm^3
# Si number density = 19.753086 Si / 1000 Ang^3
#
#
#
# Elastic Constant Matrix: (Units=GPa)
#
#
# Indices 1 2 3 4 5 6 
#
# 1 10.9646 11.5691 9.6339 0.0000 0.0000 0.0000
# 2 11.5691 121.7088 36.7328 0.0000 0.0000 0.0000
# 3 9.6339 36.7328 31.8728 0.0000 0.0000 0.0000
# 4 0.0000 0.0000 0.0000 28.2553 0.0000 0.0000
# 5 0.0000 0.0000 0.0000 0.0000 9.2919 0.0000
# 6 0.0000 0.0000 0.0000 0.0000 0.0000 19.9585
#
#
#
# Elastic Compliance Matrix: (Units=1/GPa)
#
#
# Indices 1 2 3 4 5 6 
#
# 1 0.124226 -0.000730 -0.036708 0.000000 0.000000 0.000000
# 2 -0.000730 0.012603 -0.014304 0.000000 0.000000 0.000000
# 3 -0.036708 -0.014304 0.058955 0.000000 0.000000 0.000000
# 4 0.000000 0.000000 0.000000 0.035392 0.000000 0.000000
# 5 0.000000 0.000000 0.000000 0.000000 0.107620 0.000000
# 6 0.000000 0.000000 0.000000 0.000000 0.000000 0.050104
#
#
# Mechanical properties :
#
#
# Convention : Reuss Voigt Hill
#
# Bulk Modulus (GPa) = 10.83413 31.15753 20.99583
# Shear Modulus (GPa) = 9.55749 18.60849 14.08299
#
# Velocity S-wave (km/s) = 2.20204 3.07262 2.67301
# Velocity P-wave (km/s) = 3.45861 5.32877 4.49209
#
# Compressibility (1/GPa) = 0.09230091
#
# Stress axis : x y z
#
# Youngs Moduli (GPa) = 8.04984 79.34799 16.96205
#
# Poissons Ratio (x) = 0.05789 0.62264
# Poissons Ratio (y) = 0.00587 0.24262
# Poissons Ratio (z) = 0.29549 1.13498
#
# Static dielectric constant tensor:
#      x y z
#    x 1.718040 0.000000 0.000000 
#    y 0.000000 1.690480 0.000000 
#    z 0.000000 0.000000 1.672290 
# 
# From -- ./inp_files/4811.got.cif
#   From: 2010.05.17/outbox.ucp.g08.bks.cvg/sg58_3_cif.got.tgz:4811.got - 2010.06.11 16:41:41.
