data_PCOD9445660
_publ_section_title
;
Structure prediction by ZEFSAII (Michael W. Deem and Ramdas Pophale) SiO2 
 PCOD9445660
Probable space group: P N N M
;
_chemical_formula_sum "Si O2"
_cell_formula_units_Z 48
_cell_length_a 8.620855
_cell_length_b 14.845917
_cell_length_c 17.824830
_cell_angle_alpha 90.000000
_cell_angle_beta 90.000000
_cell_angle_gamma 90.000000
_cell_volume 2281.301916
_symmetry_space_group_name_H-M "P N N M"
_symmetry_group_IT_number 58
_symmetry_cell_setting 'orthorhombic'
loop_
_space_group_symop_operation_xyz
x,y,z
-x,-y,z
1/2+x,1/2-y,1/2-z
1/2-x,1/2+y,1/2-z
-x,-y,-z
x,y,-z
1/2-x,1/2+y,1/2+z
1/2+x,1/2-y,1/2+z
loop_
_atom_site_type_symbol
_atom_site_label
_atom_site_fract_x
_atom_site_fract_y
_atom_site_fract_z
Si Si1 0.167265 0.014521 0.354793
Si Si2 0.108280 0.653287 0.084760
Si Si3 0.708160 0.659296 0.359194
Si Si4 0.640827 0.365941 0.703967
Si Si5 0.818737 0.482593 0.582094
Si Si6 0.333961 0.839436 0.704840
O O1 0.289328 0.063979 0.407603
O O2 0.150150 0.081525 0.282775
O O3 0.223825 0.917472 0.326319
O O4 0.000000 0.000000 0.390373
O O5 0.207515 0.743264 0.102521
O O6 0.984397 0.650585 0.152487
O O7 0.043303 0.660484 0.000000
O O8 0.539282 0.645075 0.320325
O O9 0.735377 0.579085 0.416187
O O10 0.838328 0.646887 0.294474
O O11 0.734996 0.424235 0.644553
O O12 0.713121 0.265692 0.702314
O O13 0.802885 0.439817 0.500000
O O14 0.000000 0.500000 0.596108
#
# Coordination Sequence:
#
# PCOD9445660 Si02
#       6
#     8   8   8   8   8   8
#     4  12  23  41  68 101 134 173 228 277 331 404
#     4  11  27  46  68 100 140 182 226 278 341 403
#     4  11  22  43  72  98 131 176 227 281 337 400
#     4  11  23  41  66  98 132 171 226 276 338 399
#     4  11  25  40  63 100 139 174 215 274 345 406
#     4  11  24  41  71 100 128 175 226 280 330 404
#
# _framework density 21.040619
#
# number of rings (size 3 to 8) (size 9 to 14) (size 15 to 20)
#    0.000    0.833    5.000    1.500    2.333    7.000 
#    0.000    0.000    0.000    0.000    0.000    0.000 
#    0.000    0.000    0.000    0.000    0.000    0.000 
#
# Total GULP energy -268087.169567 kJ/mol
# GULP energy per Si atom -5585.149366 kJ/mol
# Density = 2.099273 g / cm^3
# Si number density = 21.040619 Si / 1000 Ang^3
#
#
#
# Elastic Constant Matrix: (Units=GPa)
#
#
# Indices 1 2 3 4 5 6 
#
# 1 39.5904 22.8130 25.0249 0.0000 0.0000 0.0000
# 2 22.8130 100.6707 -1.7117 0.0000 0.0000 0.0000
# 3 25.0249 -1.7117 97.5118 0.0000 0.0000 0.0000
# 4 0.0000 0.0000 0.0000 25.9017 0.0000 0.0000
# 5 0.0000 0.0000 0.0000 0.0000 -47.3663 0.0000
# 6 0.0000 0.0000 0.0000 0.0000 0.0000 27.5368
#
#
#
# Elastic Compliance Matrix: (Units=1/GPa)
#
#
# Indices 1 2 3 4 5 6 
#
# 1 0.035976 -0.008312 -0.009379 0.000000 0.000000 0.000000
# 2 -0.008312 0.011857 0.002341 0.000000 0.000000 0.000000
# 3 -0.009379 0.002341 0.012703 0.000000 0.000000 0.000000
# 4 0.000000 0.000000 0.000000 0.038608 0.000000 0.000000
# 5 0.000000 0.000000 0.000000 0.000000 -0.021112 0.000000
# 6 0.000000 0.000000 0.000000 0.000000 0.000000 0.036315
#
#
# Mechanical properties :
#
#
# Convention : Reuss Voigt Hill
#
# Bulk Modulus (GPa) = 33.51495 36.66947 35.09221
# Shear Modulus (GPa) = 32.25976 13.99088 23.12532
#
# Velocity S-wave (km/s) = 3.91988 2.58145 3.31883
# Velocity P-wave (km/s) = 6.03742 5.13332 5.60364
#
# Compressibility (1/GPa) = 0.02983743
#
# Stress axis : x y z
#
# Youngs Moduli (GPa) = 27.79593 84.33990 78.72046
#
# Poissons Ratio (x) = 0.70104 0.73830
# Poissons Ratio (y) = 0.23104 -0.18431
# Poissons Ratio (z) = 0.26069 -0.19747
#
# Static dielectric constant tensor:
#      x y z
#    x 1.772010 0.000000 0.000000 
#    y 0.000000 1.764290 0.000000 
#    z 0.000000 0.000000 1.784500 
# 
# From -- ./inp_files/25286.got.cif
#   From: 2010.05.17/outbox.cif.g08.bks.cpg/sg58_13_cif.got.tgz:25286.got - 2010.06.03 14:20:14.
