data_PCOD9445420
_publ_section_title
;
Structure prediction by ZEFSAII (Michael W. Deem and Ramdas Pophale) SiO2 
 PCOD9445420
Probable space group: P N N M
;
_chemical_formula_sum "Si O2"
_cell_formula_units_Z 36
_cell_length_a 10.145720
_cell_length_b 19.633549
_cell_length_c 7.597362
_cell_angle_alpha 90.000000
_cell_angle_beta 90.000000
_cell_angle_gamma 90.000000
_cell_volume 1513.367849
_symmetry_space_group_name_H-M "P N N M"
_symmetry_group_IT_number 58
_symmetry_cell_setting 'orthorhombic'
loop_
_space_group_symop_operation_xyz
x,y,z
-x,-y,z
1/2+x,1/2-y,1/2-z
1/2-x,1/2+y,1/2-z
-x,-y,-z
x,y,-z
1/2-x,1/2+y,1/2+z
1/2+x,1/2-y,1/2+z
loop_
_atom_site_type_symbol
_atom_site_label
_atom_site_fract_x
_atom_site_fract_y
_atom_site_fract_z
Si Si1 0.496105 0.799069 0.709973
Si Si2 0.882787 0.553612 0.791702
Si Si3 0.004262 0.079346 0.700850
Si Si4 0.820952 0.079340 0.000000
Si Si5 0.299622 0.683187 0.290912
O O1 0.486147 0.796694 0.500000
O O2 0.437317 0.872021 0.762651
O O3 0.401818 0.739732 0.780521
O O4 0.649759 0.796681 0.754360
O O5 0.765693 0.542081 0.656301
O O6 0.000000 0.500000 0.771657
O O7 0.845890 0.553868 0.000000
O O8 0.959227 0.084727 0.500000
O O9 0.149396 0.111851 0.712979
O O10 0.000000 0.000000 0.756845
O O11 0.912370 0.115307 0.844021
O O12 0.311580 0.677900 0.500000
#
# Coordination Sequence:
#
# PCOD9445420 Si02
#       5
#     8   8   8   4   8
#     4  10  25  45  67 100 141 182 231 287 346 412
#     4  10  24  44  70 104 140 184 233 286 347 413
#     4  11  26  45  69 101 138 182 232 291 350 414
#     4  12  24  42  72 102 144 176 238 282 356 420
#     4  11  25  44  70 100 137 184 233 285 347 414
#
# _framework density 23.788003
#
# number of rings (size 3 to 8) (size 9 to 14) (size 15 to 20)
#    0.000    1.333    1.111    2.000    7.778    1.778 
#    0.000    0.000    0.000    0.000    0.000    0.000 
#    0.000    0.000    0.000    0.000    0.000    0.000 
#
# Total GULP energy -200427.728185 kJ/mol
# GULP energy per Si atom -5567.436894 kJ/mol
# Density = 2.373386 g / cm^3
# Si number density = 23.788003 Si / 1000 Ang^3
#
#
#
# Elastic Constant Matrix: (Units=GPa)
#
#
# Indices 1 2 3 4 5 6 
#
# 1 119.1066 33.1370 34.3111 0.0000 0.0000 0.0000
# 2 33.1370 113.8293 12.8375 0.0000 0.0000 0.0000
# 3 34.3111 12.8375 74.9438 0.0000 0.0000 0.0000
# 4 0.0000 0.0000 0.0000 2.5474 0.0000 0.0000
# 5 0.0000 0.0000 0.0000 0.0000 -13.7246 0.0000
# 6 0.0000 0.0000 0.0000 0.0000 0.0000 37.0430
#
#
#
# Elastic Compliance Matrix: (Units=1/GPa)
#
#
# Indices 1 2 3 4 5 6 
#
# 1 0.010337 -0.002524 -0.004300 0.000000 0.000000 0.000000
# 2 -0.002524 0.009575 -0.000484 0.000000 0.000000 0.000000
# 3 -0.004300 -0.000484 0.015395 0.000000 0.000000 0.000000
# 4 0.000000 0.000000 0.000000 0.392559 0.000000 0.000000
# 5 0.000000 0.000000 0.000000 0.000000 -0.072862 0.000000
# 6 0.000000 0.000000 0.000000 0.000000 0.000000 0.026996
#
#
# Mechanical properties :
#
#
# Convention : Reuss Voigt Hill
#
# Bulk Modulus (GPa) = 48.33497 52.05009 50.19253
# Shear Modulus (GPa) = 12.39117 20.34611 16.36864
#
# Velocity S-wave (km/s) = 2.28480 2.92774 2.62602
# Velocity P-wave (km/s) = 5.22720 5.77557 5.50821
#
# Compressibility (1/GPa) = 0.02068895
#
# Stress axis : x y z
#
# Youngs Moduli (GPa) = 96.74148 104.44363 64.95624
#
# Poissons Ratio (x) = 0.26364 0.27932
# Poissons Ratio (y) = 0.24420 0.03147
# Poissons Ratio (z) = 0.41599 0.05060
#
# Static dielectric constant tensor:
#      x y z
#    x 1.966680 0.000000 0.000000 
#    y 0.000000 1.965470 0.000000 
#    z 0.000000 0.000000 1.899920 
# 
# From -- ./inp_files/2293.got.cif
#   From: 2010.05.17/outbox.cif.g08.bks.cpg/sg58_2_cif.got.tgz:2293.got - 2010.06.03 14:20:14.
