data_PCOD9445286
_publ_section_title
;
Structure prediction by ZEFSAII (Michael W. Deem and Ramdas Pophale) SiO2 
 PCOD9445286
Probable space group: P N N M
;
_chemical_formula_sum "Si O2"
_cell_formula_units_Z 64
_cell_length_a 24.041740
_cell_length_b 15.628056
_cell_length_c 8.776560
_cell_angle_alpha 90.000000
_cell_angle_beta 90.000000
_cell_angle_gamma 90.000000
_cell_volume 3297.578790
_symmetry_space_group_name_H-M "P N N M"
_symmetry_group_IT_number 58
_symmetry_cell_setting 'orthorhombic'
loop_
_space_group_symop_operation_xyz
x,y,z
-x,-y,z
1/2+x,1/2-y,1/2-z
1/2-x,1/2+y,1/2-z
-x,-y,-z
x,y,-z
1/2-x,1/2+y,1/2+z
1/2+x,1/2-y,1/2+z
loop_
_atom_site_type_symbol
_atom_site_label
_atom_site_fract_x
_atom_site_fract_y
_atom_site_fract_z
Si Si1 0.749686 0.151083 0.181783
Si Si2 0.639841 0.081651 0.681362
Si Si3 0.751518 0.338767 0.681275
Si Si4 0.645090 0.415036 0.181133
Si Si5 0.374839 0.408009 0.317297
Si Si6 0.047222 0.748878 0.183112
Si Si7 0.377044 0.099782 0.818006
Si Si8 0.575841 0.244159 0.817556
O O1 0.703282 0.094183 0.263112
O O2 0.741893 0.248989 0.233834
O O3 0.812405 0.123609 0.220505
O O4 0.742147 0.144545 0.000000
O O5 0.637580 0.077675 0.500000
O O6 0.606673 0.163991 0.741735
O O7 0.615739 0.995130 0.753115
O O8 0.746744 0.325807 0.500000
O O9 0.704350 0.404073 0.736167
O O10 0.813506 0.371546 0.715080
O O11 0.616259 0.501733 0.236548
O O12 0.608739 0.331472 0.219441
O O13 0.653548 0.417082 0.000000
O O14 0.377454 0.419353 0.500000
O O15 0.418131 0.334076 0.274392
O O16 0.081762 0.667417 0.241642
O O17 0.986663 0.749801 0.256847
O O18 0.043045 0.745880 0.000000
O O19 0.384546 0.100233 0.000000
O O20 0.576540 0.233557 0.000000
#
# Coordination Sequence:
#
# PCOD9445286 Si02
#       8
#     8   8   8   8   8   8   8   8
#     4  11  21  38  63  93 130 168 203 252 314 374
#     4  12  25  41  65  96 127 166 211 259 309 374
#     4  11  22  37  63  95 128 166 206 252 312 375
#     4  11  24  40  64  93 127 167 209 258 311 371
#     4  10  23  41  64  93 129 166 205 256 312 370
#     4  11  24  44  67  93 123 164 213 264 313 370
#     4  11  24  42  65  95 130 167 205 257 315 376
#     4  11  25  45  65  90 124 166 211 265 318 368
#
# _framework density 19.408180000000002
#
# number of rings (size 3 to 8) (size 9 to 14) (size 15 to 20)
#    0.000    1.000    2.500    4.125    0.000    9.000 
#    0.000    5.000    0.000    0.000    0.000    0.000 
#    0.000    0.000    0.000    0.000    0.000    0.000 
#
# Total GULP energy -358169.797255 kJ/mol
# GULP energy per Si atom -5596.403082 kJ/mol
# Density = 1.936401 g / cm^3
# Si number density = 19.408180 Si / 1000 Ang^3
#
#
#
# Elastic Constant Matrix: (Units=GPa)
#
#
# Indices 1 2 3 4 5 6 
#
# 1 92.0288 10.8858 24.6776 0.0000 0.0000 0.0000
# 2 10.8858 93.9049 18.9031 0.0000 0.0000 0.0000
# 3 24.6776 18.9031 38.1616 0.0000 0.0000 0.0000
# 4 0.0000 0.0000 0.0000 34.1754 0.0000 0.0000
# 5 0.0000 0.0000 0.0000 0.0000 61.5048 0.0000
# 6 0.0000 0.0000 0.0000 0.0000 0.0000 3.5240
#
#
#
# Elastic Compliance Matrix: (Units=1/GPa)
#
#
# Indices 1 2 3 4 5 6 
#
# 1 0.013149 0.000208 -0.008606 0.000000 0.000000 0.000000
# 2 0.000208 0.011832 -0.005995 0.000000 0.000000 0.000000
# 3 -0.008606 -0.005995 0.034739 0.000000 0.000000 0.000000
# 4 0.000000 0.000000 0.000000 0.029261 0.000000 0.000000
# 5 0.000000 0.000000 0.000000 0.000000 0.016259 0.000000
# 6 0.000000 0.000000 0.000000 0.000000 0.000000 0.283772
#
#
# Mechanical properties :
#
#
# Convention : Reuss Voigt Hill
#
# Bulk Modulus (GPa) = 32.32736 37.00314 34.66525
# Shear Modulus (GPa) = 11.67922 31.14941 21.41431
#
# Velocity S-wave (km/s) = 2.45576 4.01054 3.32530
# Velocity P-wave (km/s) = 4.97330 6.36813 5.71344
#
# Compressibility (1/GPa) = 0.03093355
#
# Stress axis : x y z
#
# Youngs Moduli (GPa) = 76.04957 84.51783 28.78574
#
# Poissons Ratio (x) = -0.01759 0.24774
# Poissons Ratio (y) = -0.01583 0.17258
# Poissons Ratio (z) = 0.65450 0.50672
#
# Static dielectric constant tensor:
#      x y z
#    x 1.654780 0.000000 0.000000 
#    y 0.000000 1.663050 0.000000 
#    z 0.000000 0.000000 1.645290 
# 
# From -- ./inp_files/10006.got.cif
#   From: 2010.05.17/outbox.cif.g08.bks.cpg/sg58_6_cif.got.tgz:10006.got - 2010.06.03 14:20:14.
