data_PCOD9445689
_publ_section_title
;
Structure prediction by ZEFSAII (Michael W. Deem and Ramdas Pophale) SiO2 
 PCOD9445689
Probable space group: P N N M
;
_chemical_formula_sum "Si O2"
_cell_formula_units_Z 28
_cell_length_a 12.131561
_cell_length_b 7.520134
_cell_length_c 13.661332
_cell_angle_alpha 90.000000
_cell_angle_beta 90.000000
_cell_angle_gamma 90.000000
_cell_volume 1246.336493
_symmetry_space_group_name_H-M "P N N M"
_symmetry_group_IT_number 58
_symmetry_cell_setting 'orthorhombic'
loop_
_space_group_symop_operation_xyz
x,y,z
-x,-y,z
1/2+x,1/2-y,1/2-z
1/2-x,1/2+y,1/2-z
-x,-y,-z
x,y,-z
1/2-x,1/2+y,1/2+z
1/2+x,1/2-y,1/2+z
loop_
_atom_site_type_symbol
_atom_site_label
_atom_site_fract_x
_atom_site_fract_y
_atom_site_fract_z
Si Si1 0.402770 0.855976 0.186240
Si Si2 0.500000 0.500000 0.232109
Si Si3 0.630080 0.046024 0.395129
Si Si4 0.675410 0.639265 0.609385
O O1 0.453135 0.662037 0.168109
O O2 0.300578 0.922023 0.122925
O O3 0.500000 0.000000 0.184672
O O4 0.355217 0.842252 0.297758
O O5 0.405808 0.425067 0.305575
O O6 0.661486 0.127066 0.500000
O O7 0.684635 0.853836 0.383418
O O8 0.500000 0.000000 0.399486
O O9 0.633076 0.597968 0.500000
#
# Coordination Sequence:
#
# PCOD9445689 Si02
#       4
#     8   4   8   8
#     4  11  23  42  64  91 132 167 204 263 319 373
#     4  12  23  38  71  94 120 166 223 254 313 370
#     4   9  17  36  60  85 118 154 197 259 308 348
#     4  11  23  40  65  96 128 165 214 259 311 379
#
# _framework density 22.465843
#
# number of rings (size 3 to 8) (size 9 to 14) (size 15 to 20)
#    0.000    1.429    5.714    2.143    0.000    1.714 
#    0.000    0.714    0.000    0.000    0.000    0.000 
#    0.000    0.000    0.000    0.000    0.000    0.000 
#
# Total GULP energy -156384.502967 kJ/mol
# GULP energy per Si atom -5585.160820 kJ/mol
# Density = 2.241471 g / cm^3
# Si number density = 22.465843 Si / 1000 Ang^3
#
#
#
# Elastic Constant Matrix: (Units=GPa)
#
#
# Indices 1 2 3 4 5 6 
#
# 1 100.7587 9.7456 -2.1621 0.0000 0.0000 0.0000
# 2 9.7456 64.8231 -9.3721 0.0000 0.0000 0.0000
# 3 -2.1621 -9.3721 18.6904 0.0000 0.0000 0.0000
# 4 0.0000 0.0000 0.0000 11.0760 0.0000 0.0000
# 5 0.0000 0.0000 0.0000 0.0000 22.6908 0.0000
# 6 0.0000 0.0000 0.0000 0.0000 0.0000 28.7591
#
#
#
# Elastic Compliance Matrix: (Units=1/GPa)
#
#
# Indices 1 2 3 4 5 6 
#
# 1 0.010074 -0.001451 0.000438 0.000000 0.000000 0.000000
# 2 -0.001451 0.016842 0.008277 0.000000 0.000000 0.000000
# 3 0.000438 0.008277 0.057705 0.000000 0.000000 0.000000
# 4 0.000000 0.000000 0.000000 0.090286 0.000000 0.000000
# 5 0.000000 0.000000 0.000000 0.000000 0.044071 0.000000
# 6 0.000000 0.000000 0.000000 0.000000 0.000000 0.034772
#
#
# Mechanical properties :
#
#
# Convention : Reuss Voigt Hill
#
# Bulk Modulus (GPa) = 10.08600 20.07723 15.08161
# Shear Modulus (GPa) = 18.36408 24.90923 21.63666
#
# Velocity S-wave (km/s) = 2.86216 3.33342 3.10674
# Velocity P-wave (km/s) = 3.92707 4.87563 4.42683
#
# Compressibility (1/GPa) = 0.09914737
#
# Stress axis : x y z
#
# Youngs Moduli (GPa) = 99.26085 59.37711 17.32966
#
# Poissons Ratio (x) = 0.08618 -0.00758
# Poissons Ratio (y) = 0.14406 -0.14344
# Poissons Ratio (z) = -0.04344 -0.49147
#
# Static dielectric constant tensor:
#      x y z
#    x 1.925120 0.000000 0.000000 
#    y 0.000000 1.817900 0.000000 
#    z 0.000000 0.000000 1.878470 
# 
# From -- ./inp_files/20531.got.cif
#   From: 2010.05.17/outbox.cif.g08.bks.cpg/sg58_11_cif.got.tgz:20531.got - 2010.06.03 14:20:14.
