data_PCOD9445106
_publ_section_title
;
Structure prediction by ZEFSAII (Michael W. Deem and Ramdas Pophale) SiO2 
 PCOD9445106
Probable space group: P N N M
;
_chemical_formula_sum "Si O2"
_cell_formula_units_Z 48
_cell_length_a 9.171003
_cell_length_b 11.151687
_cell_length_c 18.575626
_cell_angle_alpha 90.000000
_cell_angle_beta 90.000000
_cell_angle_gamma 90.000000
_cell_volume 1899.769300
_symmetry_space_group_name_H-M "P N N M"
_symmetry_group_IT_number 58
_symmetry_cell_setting 'orthorhombic'
loop_
_space_group_symop_operation_xyz
x,y,z
-x,-y,z
1/2+x,1/2-y,1/2-z
1/2-x,1/2+y,1/2-z
-x,-y,-z
x,y,-z
1/2-x,1/2+y,1/2+z
1/2+x,1/2-y,1/2+z
loop_
_atom_site_type_symbol
_atom_site_label
_atom_site_fract_x
_atom_site_fract_y
_atom_site_fract_z
Si Si1 0.851765 0.324188 0.814425
Si Si2 0.696211 0.564445 0.664999
Si Si3 0.643741 0.431523 0.082299
Si Si4 0.048820 0.345274 0.422432
Si Si5 0.824353 0.666588 0.789622
Si Si6 0.797609 0.828863 0.082548
O O1 0.878139 0.193279 0.853001
O O2 0.788643 0.420975 0.869630
O O3 0.995154 0.642640 0.779339
O O4 0.731408 0.284897 0.755056
O O5 0.860716 0.587199 0.637342
O O6 0.717632 0.569840 0.751478
O O7 0.644084 0.444645 0.626799
O O8 0.500000 0.500000 0.109562
O O9 0.593475 0.293192 0.080842
O O10 0.328263 0.527525 0.000000
O O11 0.100510 0.392560 0.500000
O O12 0.876675 0.348636 0.419236
O O13 0.811176 0.705760 0.872354
O O14 0.850685 0.823505 0.000000
#
# Coordination Sequence:
#
# PCOD9445106 Si02
#       6
#     8   8   8   8   8   8
#     4   9  21  40  61  88 130 173 218 278 332 396
#     4   9  20  36  60  86 127 168 214 263 331 400
#     4   9  18  35  62  93 124 169 221 267 327 403
#     4   9  17  33  59  91 124 160 210 273 327 390
#     4  10  22  41  60  91 132 172 216 271 335 397
#     4  11  22  38  64  97 132 170 219 278 343 403
#
# _framework density 25.266224999999999
#
# number of rings (size 3 to 8) (size 9 to 14) (size 15 to 20)
#    1.000    1.500    0.000    2.000    0.000    3.333 
#    6.000    0.833    0.000    0.000    0.000    5.833 
#    0.000    0.000    0.000    0.000    0.000    0.000 
#
# Total GULP energy -267902.983643 kJ/mol
# GULP energy per Si atom -5581.312159 kJ/mol
# Density = 2.520872 g / cm^3
# Si number density = 25.266225 Si / 1000 Ang^3
#
#
#
# Elastic Constant Matrix: (Units=GPa)
#
#
# Indices 1 2 3 4 5 6 
#
# 1 78.0106 8.6677 21.4534 0.0000 0.0000 0.0000
# 2 8.6677 91.6533 53.7353 0.0000 0.0000 0.0000
# 3 21.4534 53.7353 137.8787 0.0000 0.0000 0.0000
# 4 0.0000 0.0000 0.0000 32.3978 0.0000 0.0000
# 5 0.0000 0.0000 0.0000 0.0000 28.8216 0.0000
# 6 0.0000 0.0000 0.0000 0.0000 0.0000 27.9347
#
#
#
# Elastic Compliance Matrix: (Units=1/GPa)
#
#
# Indices 1 2 3 4 5 6 
#
# 1 0.013392 -0.000058 -0.002061 0.000000 0.000000 0.000000
# 2 -0.000058 0.014142 -0.005503 0.000000 0.000000 0.000000
# 3 -0.002061 -0.005503 0.009718 0.000000 0.000000 0.000000
# 4 0.000000 0.000000 0.000000 0.030866 0.000000 0.000000
# 5 0.000000 0.000000 0.000000 0.000000 0.034696 0.000000
# 6 0.000000 0.000000 0.000000 0.000000 0.000000 0.035798
#
#
# Mechanical properties :
#
#
# Convention : Reuss Voigt Hill
#
# Bulk Modulus (GPa) = 45.43660 52.80615 49.12138
# Shear Modulus (GPa) = 31.01881 32.74323 31.88102
#
# Velocity S-wave (km/s) = 3.50763 3.60381 3.55604
# Velocity P-wave (km/s) = 5.86743 6.18561 6.02862
#
# Compressibility (1/GPa) = 0.02200869
#
# Stress axis : x y z
#
# Youngs Moduli (GPa) = 74.67121 70.70985 102.90198
#
# Poissons Ratio (x) = 0.00411 0.21209
# Poissons Ratio (y) = 0.00434 0.56623
# Poissons Ratio (z) = 0.15391 0.38909
#
# Static dielectric constant tensor:
#      x y z
#    x 1.986020 0.000000 0.000000 
#    y 0.000000 2.088890 0.000000 
#    z 0.000000 0.000000 2.063750 
# 
# From -- ./inp_files/22831.got.cif
#   From: 2010.05.17/outbox.cif.g08.bks.cpg/sg58_12_cif.got.tgz:22831.got - 2010.06.03 14:20:14.
