data_PCOD9445165
_publ_section_title
;
Structure prediction by ZEFSAII (Michael W. Deem and Ramdas Pophale) SiO2 
 PCOD9445165
Probable space group: P N N M
;
_chemical_formula_sum "Si O2"
_cell_formula_units_Z 56
_cell_length_a 15.825579
_cell_length_b 20.381587
_cell_length_c 8.376229
_cell_angle_alpha 90.000000
_cell_angle_beta 90.000000
_cell_angle_gamma 90.000000
_cell_volume 2701.756142
_symmetry_space_group_name_H-M "P N N M"
_symmetry_group_IT_number 58
_symmetry_cell_setting 'orthorhombic'
loop_
_space_group_symop_operation_xyz
x,y,z
-x,-y,z
1/2+x,1/2-y,1/2-z
1/2-x,1/2+y,1/2-z
-x,-y,-z
x,y,-z
1/2-x,1/2+y,1/2+z
1/2+x,1/2-y,1/2+z
loop_
_atom_site_type_symbol
_atom_site_label
_atom_site_fract_x
_atom_site_fract_y
_atom_site_fract_z
Si Si1 0.842903 0.597046 0.315087
Si Si2 0.808214 0.186192 0.307725
Si Si3 0.178790 0.664804 0.686336
Si Si4 0.576970 0.455010 0.805120
Si Si5 0.995271 0.676563 0.183604
Si Si6 0.993795 0.816949 0.307409
Si Si7 0.263831 0.028320 0.312272
O O1 0.862023 0.606875 0.500000
O O2 0.758365 0.637315 0.269663
O O3 0.920553 0.626064 0.215821
O O4 0.825323 0.521119 0.277751
O O5 0.800367 0.181078 0.500000
O O6 0.792166 0.262334 0.262452
O O7 0.906642 0.172037 0.269154
O O8 0.199616 0.656449 0.500000
O O9 0.215072 0.604249 0.784129
O O10 0.077456 0.664391 0.708577
O O11 0.500000 0.500000 0.750692
O O12 0.559484 0.380159 0.757840
O O13 0.667721 0.481219 0.754440
O O14 0.576990 0.455860 0.000000
O O15 0.964925 0.749973 0.225776
O O16 0.022363 0.673722 0.000000
O O17 0.988534 0.809465 0.500000
O O18 0.268278 0.012821 0.500000
#
# Coordination Sequence:
#
# PCOD9445165 Si02
#       7
#     8   8   8   8   8   8   8
#     4  12  25  40  60  86 120 161 207 252 305 363
#     4   9  19  37  62  89 122 159 198 248 300 356
#     4  10  22  42  64  89 123 159 199 249 309 367
#     4   9  18  34  59  89 123 161 199 241 293 358
#     4  11  23  40  62  89 118 153 202 254 307 361
#     4   9  18  36  61  90 121 156 198 245 301 360
#     4  11  23  39  61  91 123 160 206 251 304 365
#
# _framework density 20.727260000000001
#
# number of rings (size 3 to 8) (size 9 to 14) (size 15 to 20)
#    0.000    1.857    0.000    5.143    2.000    5.714 
#    0.000    3.571    0.000    3.000    0.000    0.000 
#    0.000    0.000    0.000    0.000    0.000    0.000 
#
# Total GULP energy -313049.844420 kJ/mol
# GULP energy per Si atom -5590.175793 kJ/mol
# Density = 2.068008 g / cm^3
# Si number density = 20.727260 Si / 1000 Ang^3
#
#
#
# Elastic Constant Matrix: (Units=GPa)
#
#
# Indices 1 2 3 4 5 6 
#
# 1 18.8901 1.1969 -9.0992 0.0000 0.0000 0.0000
# 2 1.1969 48.3840 -2.0069 0.0000 0.0000 0.0000
# 3 -9.0992 -2.0069 25.1374 0.0000 0.0000 0.0000
# 4 0.0000 0.0000 0.0000 31.8404 0.0000 0.0000
# 5 0.0000 0.0000 0.0000 0.0000 16.7804 0.0000
# 6 0.0000 0.0000 0.0000 0.0000 0.0000 32.3511
#
#
#
# Elastic Compliance Matrix: (Units=1/GPa)
#
#
# Indices 1 2 3 4 5 6 
#
# 1 0.064136 -0.000626 0.023166 0.000000 0.000000 0.000000
# 2 -0.000626 0.020743 0.001430 0.000000 0.000000 0.000000
# 3 0.023166 0.001430 0.048281 0.000000 0.000000 0.000000
# 4 0.000000 0.000000 0.000000 0.031407 0.000000 0.000000
# 5 0.000000 0.000000 0.000000 0.000000 0.059593 0.000000
# 6 0.000000 0.000000 0.000000 0.000000 0.000000 0.030911
#
#
# Mechanical properties :
#
#
# Convention : Reuss Voigt Hill
#
# Bulk Modulus (GPa) = 5.52184 8.06592 6.79388
# Shear Modulus (GPa) = 18.69175 23.01576 20.85376
#
# Velocity S-wave (km/s) = 3.00625 3.33590 3.17535
# Velocity P-wave (km/s) = 3.83665 4.32868 4.09007
#
# Compressibility (1/GPa) = 0.18109919
#
# Stress axis : x y z
#
# Youngs Moduli (GPa) = 15.59186 48.20962 20.71206
#
# Poissons Ratio (x) = 0.03016 -0.47981
# Poissons Ratio (y) = 0.00976 -0.02961
# Poissons Ratio (z) = -0.36120 -0.06892
#
# Static dielectric constant tensor:
#      x y z
#    x 1.724370 0.000000 0.000000 
#    y 0.000000 1.731390 0.000000 
#    z 0.000000 0.000000 1.707570 
# 
# From -- ./inp_files/6450.got.cif
#   From: 2010.05.17/outbox.cif.g08.bks.cpg/sg58_4_cif.got.tgz:6450.got - 2010.06.03 14:20:14.
