data_PCOD9445979
_publ_section_title
;
Structure prediction by ZEFSAII (Michael W. Deem and Ramdas Pophale) SiO2 
 PCOD9445979
Probable space group: P N N M
;
_chemical_formula_sum "Si O2"
_cell_formula_units_Z 64
_cell_length_a 15.000000
_cell_length_b 24.000000
_cell_length_c 9.000000
_cell_angle_alpha 90.000000
_cell_angle_beta 90.000000
_cell_angle_gamma 90.000000
_cell_volume 3240.000000
_symmetry_space_group_name_H-M "P N N M"
_symmetry_group_IT_number 58
_symmetry_cell_setting 'orthorhombic'
loop_
_space_group_symop_operation_xyz
x,y,z
-x,-y,z
1/2+x,1/2-y,1/2-z
1/2-x,1/2+y,1/2-z
-x,-y,-z
x,y,-z
1/2-x,1/2+y,1/2+z
1/2+x,1/2-y,1/2+z
loop_
_atom_site_type_symbol
_atom_site_label
_atom_site_fract_x
_atom_site_fract_y
_atom_site_fract_z
Si Si1 0.012258 0.872281 0.829339
Si Si2 0.415321 0.741001 0.671722
Si Si3 0.739220 0.025530 0.322174
Si Si4 0.711365 0.631992 0.679251
Si Si5 0.088860 0.036842 0.671454
Si Si6 0.431934 0.046094 0.679432
Si Si7 0.943630 0.327265 0.817712
Si Si8 0.233851 0.739376 0.821396
O O1 0.110763 0.881295 0.766262
O O2 0.989446 0.807343 0.826562
O O3 0.935764 0.906084 0.748790
O O4 0.013740 0.890907 0.000000
O O5 0.389599 0.750567 0.500000
O O6 0.467086 0.795085 0.731433
O O7 0.328710 0.720737 0.758392
O O8 0.744702 0.034649 0.500000
O O9 0.725226 0.085262 0.247180
O O10 0.830173 0.998127 0.263773
O O11 0.664049 0.980181 0.293481
O O12 0.712605 0.629370 0.500000
O O13 0.728880 0.695558 0.722463
O O14 0.110823 0.047935 0.500000
O O15 0.000000 0.000000 0.678806
O O16 0.444187 0.049113 0.500000
O O17 0.442395 0.108968 0.733191
O O18 0.500000 0.000000 0.738199
O O19 0.853071 0.295146 0.771617
O O20 0.944600 0.325618 0.000000
O O21 0.234831 0.736559 0.000000
#
# Coordination Sequence:
#
# PCOD9445979 Si02
#       8
#     8   8   8   8   8   8   8   8
#     4  10  20  35  54  78 109 145 185 220 262 331
#     4  10  21  37  58  83 109 143 185 231 279 327
#     4  10  21  35  54  82 110 141 183 229 273 320
#     4  10  20  36  56  79 109 144 184 224 271 336
#     4  10  20  33  49  78 116 144 173 219 274 326
#     4   9  19  34  54  81 107 138 187 233 267 313
#     4   9  18  36  58  80 112 148 182 228 278 327
#     4  10  21  37  58  83 111 147 184 223 281 342
#
# _framework density 19.753086
#
# number of rings (size 3 to 8) (size 9 to 14) (size 15 to 20)
#    0.000    2.250    2.500    0.000    3.500    1.750 
#    0.000    0.625    0.000    1.125    0.000    0.000 
#    0.000    0.000    0.000    0.000    0.000    0.000 
#
# Total GULP energy -356746.726424 kJ/mol
# GULP energy per Si atom -5574.167600 kJ/mol
# Density = 1.970813 g / cm^3
# Si number density = 19.753086 Si / 1000 Ang^3
#
#
#
# Elastic Constant Matrix: (Units=GPa)
#
#
# Indices 1 2 3 4 5 6 
#
# 1 20.5104 0.2483 7.6625 0.0000 0.0000 0.0000
# 2 0.2483 86.1230 16.2273 0.0000 0.0000 0.0000
# 3 7.6625 16.2273 -3.4452 0.0000 0.0000 0.0000
# 4 0.0000 0.0000 0.0000 5.8711 0.0000 0.0000
# 5 0.0000 0.0000 0.0000 0.0000 11.7835 0.0000
# 6 0.0000 0.0000 0.0000 0.0000 0.0000 20.5020
#
#
#
# Elastic Compliance Matrix: (Units=1/GPa)
#
#
# Indices 1 2 3 4 5 6 
#
# 1 0.033980 -0.007596 0.039796 0.000000 0.000000 0.000000
# 2 -0.007596 0.007850 0.020079 0.000000 0.000000 0.000000
# 3 0.039796 0.020079 -0.107174 0.000000 0.000000 0.000000
# 4 0.000000 0.000000 0.000000 0.170327 0.000000 0.000000
# 5 0.000000 0.000000 0.000000 0.000000 0.084864 0.000000
# 6 0.000000 0.000000 0.000000 0.000000 0.000000 0.048776
#
#
# Mechanical properties :
#
#
# Convention : Reuss Voigt Hill
#
# Bulk Modulus (GPa) = 25.50148 16.82936 21.16542
# Shear Modulus (GPa) = 33.98196 12.90133 23.44164
#
# Velocity S-wave (km/s) = 4.15219 2.55841 3.44864
# Velocity P-wave (km/s) = 5.99381 4.15520 5.15710
#
# Compressibility (1/GPa) = 0.03921341
#
# Stress axis : x y z
#
# Youngs Moduli (GPa) = 29.42883 127.38972 -9.33062
#
# Poissons Ratio (x) = 0.96769 0.37132
# Poissons Ratio (y) = 0.22355 0.18735
# Poissons Ratio (z) = -1.17115 -2.55785
#
# Static dielectric constant tensor:
#      x y z
#    x 1.729670 0.000000 0.000000 
#    y 0.000000 1.733050 0.000000 
#    z 0.000000 0.000000 1.680190 
# 
# From -- ./inp_files/6928.got.cif
#   From: 2010.05.17/outbox.ucp.g08.bks.cvg/sg58_4_cif.got.tgz:6928.got - 2010.06.11 16:41:41.
