data_PCOD9445020
_publ_section_title
;
Structure prediction by ZEFSAII (Michael W. Deem and Ramdas Pophale) SiO2 
 PCOD9445020
Probable space group: P N N M
;
_chemical_formula_sum "Si O2"
_cell_formula_units_Z 48
_cell_length_a 13.472489
_cell_length_b 5.755829
_cell_length_c 28.467837
_cell_angle_alpha 90.000000
_cell_angle_beta 90.000000
_cell_angle_gamma 90.000000
_cell_volume 2207.548181
_symmetry_space_group_name_H-M "P N N M"
_symmetry_group_IT_number 58
_symmetry_cell_setting 'orthorhombic'
loop_
_space_group_symop_operation_xyz
x,y,z
-x,-y,z
1/2+x,1/2-y,1/2-z
1/2-x,1/2+y,1/2-z
-x,-y,-z
x,y,-z
1/2-x,1/2+y,1/2+z
1/2+x,1/2-y,1/2+z
loop_
_atom_site_type_symbol
_atom_site_label
_atom_site_fract_x
_atom_site_fract_y
_atom_site_fract_z
Si Si1 0.758149 0.207527 0.808658
Si Si2 0.596605 0.166221 0.948551
Si Si3 0.744372 0.891901 0.102229
Si Si4 0.942982 0.748845 0.863181
Si Si5 0.608009 0.508913 0.140882
Si Si6 0.606175 0.031999 0.733886
O O1 0.690126 0.426759 0.822448
O O2 0.693814 0.077910 0.769953
O O3 0.863177 0.291527 0.790591
O O4 0.768005 0.075295 0.857119
O O5 0.597396 0.340842 0.904591
O O6 0.500000 0.000000 0.945836
O O7 0.698305 0.018857 0.942561
O O8 0.594566 0.280739 0.000000
O O9 0.846451 0.749033 0.102210
O O10 0.650550 0.747472 0.121528
O O11 0.904538 0.715049 0.808950
O O12 0.000000 0.500000 0.871412
O O13 0.000000 0.000000 0.868700
O O14 0.500000 0.500000 0.163633
O O15 0.500000 0.000000 0.757851
#
# Coordination Sequence:
#
# PCOD9445020 Si02
#       6
#     8   8   8   8   8   8
#     4  11  25  39  60  89 126 169 220 268 327 386
#     4  10  22  39  63  97 132 165 206 256 320 403
#     4  11  22  42  63  88 129 167 209 265 324 394
#     4  11  24  43  67  93 123 170 228 277 324 377
#     4  11  23  37  62  94 127 171 211 256 325 394
#     4  11  24  40  61  89 125 171 220 275 321 376
#
# _framework density 21.743579
#
# number of rings (size 3 to 8) (size 9 to 14) (size 15 to 20)
#    0.000    1.167    3.333    3.000    4.667    1.667 
#    0.000    0.000    0.000    1.000    0.000    0.000 
#    0.000    0.000    0.000    0.000    0.000    0.000 
#
# Total GULP energy -267884.382439 kJ/mol
# GULP energy per Si atom -5580.924634 kJ/mol
# Density = 2.169409 g / cm^3
# Si number density = 21.743579 Si / 1000 Ang^3
#
#
#
# Elastic Constant Matrix: (Units=GPa)
#
#
# Indices 1 2 3 4 5 6 
#
# 1 114.1530 17.2836 10.7298 0.0000 0.0000 0.0000
# 2 17.2836 51.9369 0.4619 0.0000 0.0000 0.0000
# 3 10.7298 0.4619 56.3363 0.0000 0.0000 0.0000
# 4 0.0000 0.0000 0.0000 14.7051 0.0000 0.0000
# 5 0.0000 0.0000 0.0000 0.0000 -12.5710 0.0000
# 6 0.0000 0.0000 0.0000 0.0000 0.0000 39.7443
#
#
#
# Elastic Compliance Matrix: (Units=1/GPa)
#
#
# Indices 1 2 3 4 5 6 
#
# 1 0.009397 -0.003111 -0.001764 0.000000 0.000000 0.000000
# 2 -0.003111 0.020286 0.000426 0.000000 0.000000 0.000000
# 3 -0.001764 0.000426 0.018083 0.000000 0.000000 0.000000
# 4 0.000000 0.000000 0.000000 0.068004 0.000000 0.000000
# 5 0.000000 0.000000 0.000000 0.000000 -0.079548 0.000000
# 6 0.000000 0.000000 0.000000 0.000000 0.000000 0.025161
#
#
# Mechanical properties :
#
#
# Convention : Reuss Voigt Hill
#
# Bulk Modulus (GPa) = 25.72876 31.04189 28.38532
# Shear Modulus (GPa) = 60.06944 21.30573 40.68759
#
# Velocity S-wave (km/s) = 5.26177 3.13367 4.33048
# Velocity P-wave (km/s) = 6.98380 5.23455 6.17147
#
# Compressibility (1/GPa) = 0.03886701
#
# Stress axis : x y z
#
# Youngs Moduli (GPa) = 106.41576 49.29563 55.30034
#
# Poissons Ratio (x) = 0.15338 0.09756
# Poissons Ratio (y) = 0.33111 -0.02357
# Poissons Ratio (z) = 0.18775 -0.02101
#
# Static dielectric constant tensor:
#      x y z
#    x 1.865990 0.000000 0.000000 
#    y 0.000000 1.913180 0.000000 
#    z 0.000000 0.000000 1.776060 
# 
# From -- ./inp_files/33688.got.cif
#   From: 2010.05.17/outbox.cif.g08.bks.cpg/sg58_17_cif.got.tgz:33688.got - 2010.06.03 14:20:14.
