data_PCOD9445464
_publ_section_title
;
Structure prediction by ZEFSAII (Michael W. Deem and Ramdas Pophale) SiO2 
 PCOD9445464
Probable space group: P N N M
;
_chemical_formula_sum "Si O2"
_cell_formula_units_Z 48
_cell_length_a 13.864193
_cell_length_b 9.092976
_cell_length_c 17.216619
_cell_angle_alpha 90.000000
_cell_angle_beta 90.000000
_cell_angle_gamma 90.000000
_cell_volume 2170.443620
_symmetry_space_group_name_H-M "P N N M"
_symmetry_group_IT_number 58
_symmetry_cell_setting 'orthorhombic'
loop_
_space_group_symop_operation_xyz
x,y,z
-x,-y,z
1/2+x,1/2-y,1/2-z
1/2-x,1/2+y,1/2-z
-x,-y,-z
x,y,-z
1/2-x,1/2+y,1/2+z
1/2+x,1/2-y,1/2+z
loop_
_atom_site_type_symbol
_atom_site_label
_atom_site_fract_x
_atom_site_fract_y
_atom_site_fract_z
Si Si1 0.296808 0.006065 0.411543
Si Si2 0.350489 0.234685 0.312387
Si Si3 0.714548 0.437151 0.307476
Si Si4 0.416659 0.383716 0.906459
Si Si5 0.905464 0.447988 0.639016
Si Si6 0.574623 0.168030 0.290110
O O1 0.314544 0.967731 0.500000
O O2 0.312262 0.178716 0.395476
O O3 0.188304 0.955064 0.392202
O O4 0.374221 0.925648 0.357491
O O5 0.326038 0.401605 0.294481
O O6 0.462514 0.197316 0.304224
O O7 0.287491 0.133165 0.255179
O O8 0.922623 0.270040 0.360796
O O9 0.790487 0.450137 0.379786
O O10 0.627876 0.323230 0.300220
O O11 0.500000 0.500000 0.884618
O O12 0.424781 0.356695 0.000000
O O13 0.912057 0.574538 0.709478
O O14 0.000000 0.500000 0.591310
#
# Coordination Sequence:
#
# PCOD9445464 Si02
#       6
#     8   8   8   8   8   8
#     4  11  24  44  69  94 133 179 223 277 334 402
#     4  12  25  41  67  99 135 171 228 275 338 404
#     4  12  24  43  65  98 137 172 214 286 333 395
#     4  10  25  47  70 101 138 180 225 275 342 411
#     4  12  23  41  69 102 133 174 222 276 336 403
#     4  12  24  45  67 101 133 175 227 275 340 402
#
# _framework density 22.115293999999999
#
# number of rings (size 3 to 8) (size 9 to 14) (size 15 to 20)
#    0.000    0.500    6.667    1.000    2.333    1.667 
#    0.000    1.667    0.000    2.000    0.000    0.000 
#    0.000    0.000    0.000    0.000    0.000    0.000 
#
# Total GULP energy -267436.616899 kJ/mol
# GULP energy per Si atom -5571.596185 kJ/mol
# Density = 2.206496 g / cm^3
# Si number density = 22.115294 Si / 1000 Ang^3
#
#
#
# Elastic Constant Matrix: (Units=GPa)
#
#
# Indices 1 2 3 4 5 6 
#
# 1 190.5440 95.1082 44.8795 0.0000 0.0000 0.0000
# 2 95.1082 212.3682 43.2048 0.0000 0.0000 0.0000
# 3 44.8795 43.2048 74.7275 0.0000 0.0000 0.0000
# 4 0.0000 0.0000 0.0000 15.9279 0.0000 0.0000
# 5 0.0000 0.0000 0.0000 0.0000 20.1810 0.0000
# 6 0.0000 0.0000 0.0000 0.0000 0.0000 57.1797
#
#
#
# Elastic Compliance Matrix: (Units=1/GPa)
#
#
# Indices 1 2 3 4 5 6 
#
# 1 0.007243 -0.002673 -0.002804 0.000000 0.000000 0.000000
# 2 -0.002673 0.006323 -0.002050 0.000000 0.000000 0.000000
# 3 -0.002804 -0.002050 0.016252 0.000000 0.000000 0.000000
# 4 0.000000 0.000000 0.000000 0.062783 0.000000 0.000000
# 5 0.000000 0.000000 0.000000 0.000000 0.049551 0.000000
# 6 0.000000 0.000000 0.000000 0.000000 0.000000 0.017489
#
#
# Mechanical properties :
#
#
# Convention : Reuss Voigt Hill
#
# Bulk Modulus (GPa) = 67.74221 93.78050 80.76136
# Shear Modulus (GPa) = 27.83697 38.28754 33.06225
#
# Velocity S-wave (km/s) = 3.55169 4.16537 3.87071
# Velocity P-wave (km/s) = 6.89328 8.10130 7.52158
#
# Compressibility (1/GPa) = 0.01476185
#
# Stress axis : x y z
#
# Youngs Moduli (GPa) = 138.06508 158.15002 61.53223
#
# Poissons Ratio (x) = 0.42277 0.17256
# Poissons Ratio (y) = 0.36907 0.12616
# Poissons Ratio (z) = 0.38719 0.32426
#
# Static dielectric constant tensor:
#      x y z
#    x 1.860040 0.000000 0.000000 
#    y 0.000000 1.849810 0.000000 
#    z 0.000000 0.000000 1.959650 
# 
# From -- ./inp_files/26820.got.cif
#   From: 2010.05.17/outbox.cif.g08.bks.cpg/sg58_14_cif.got.tgz:26820.got - 2010.06.03 14:20:14.
