data_PCOD9445112
_publ_section_title
;
Structure prediction by ZEFSAII (Michael W. Deem and Ramdas Pophale) SiO2 
 PCOD9445112
Probable space group: P N N M
;
_chemical_formula_sum "Si O2"
_cell_formula_units_Z 32
_cell_length_a 11.452357
_cell_length_b 10.546944
_cell_length_c 11.601067
_cell_angle_alpha 90.000000
_cell_angle_beta 90.000000
_cell_angle_gamma 90.000000
_cell_volume 1401.262348
_symmetry_space_group_name_H-M "P N N M"
_symmetry_group_IT_number 58
_symmetry_cell_setting 'orthorhombic'
loop_
_space_group_symop_operation_xyz
x,y,z
-x,-y,z
1/2+x,1/2-y,1/2-z
1/2-x,1/2+y,1/2-z
-x,-y,-z
x,y,-z
1/2-x,1/2+y,1/2+z
1/2+x,1/2-y,1/2+z
loop_
_atom_site_type_symbol
_atom_site_label
_atom_site_fract_x
_atom_site_fract_y
_atom_site_fract_z
Si Si1 0.338070 0.111382 0.872899
Si Si2 0.933946 0.810581 0.127293
Si Si3 0.150150 0.474534 0.867378
Si Si4 0.916422 0.110392 0.338767
O O1 0.198664 0.137996 0.858012
O O2 0.405115 0.245456 0.882335
O O3 0.375042 0.047384 0.752439
O O4 0.352917 0.046931 0.000000
O O5 0.917846 0.658899 0.135659
O O6 0.028558 0.864456 0.213645
O O7 0.973191 0.842597 0.000000
O O8 0.286758 0.441777 0.854033
O O9 0.134813 0.527178 0.000000
O O10 0.000000 0.000000 0.385528
#
# Coordination Sequence:
#
# PCOD9445112 Si02
#       4
#     8   8   8   8
#     4  10  22  41  62  91 128 163 206 261 313 370
#     4   9  20  39  61  89 128 169 208 254 315 379
#     4  10  22  42  65  91 128 167 208 260 314 374
#     4  11  21  38  66  94 120 161 214 255 309 367
#
# _framework density 22.836551
#
# number of rings (size 3 to 8) (size 9 to 14) (size 15 to 20)
#    0.000    2.000    2.500    2.250    0.000    5.500 
#    0.000   10.000    0.000    0.000    0.000    0.000 
#    0.000    0.000    0.000    0.000    0.000    0.000 
#
# Total GULP energy -178324.465408 kJ/mol
# GULP energy per Si atom -5572.639544 kJ/mol
# Density = 2.278457 g / cm^3
# Si number density = 22.836551 Si / 1000 Ang^3
#
#
#
# Elastic Constant Matrix: (Units=GPa)
#
#
# Indices 1 2 3 4 5 6 
#
# 1 115.1190 11.1872 63.4388 0.0000 0.0000 0.0000
# 2 11.1872 79.5264 74.5995 0.0000 0.0000 0.0000
# 3 63.4388 74.5995 266.4209 0.0000 0.0000 0.0000
# 4 0.0000 0.0000 0.0000 271.0683 0.0000 0.0000
# 5 0.0000 0.0000 0.0000 0.0000 -13.1858 0.0000
# 6 0.0000 0.0000 0.0000 0.0000 0.0000 21.9280
#
#
#
# Elastic Compliance Matrix: (Units=1/GPa)
#
#
# Indices 1 2 3 4 5 6 
#
# 1 0.010073 0.001130 -0.002715 0.000000 0.000000 0.000000
# 2 0.001130 0.017180 -0.005080 0.000000 0.000000 0.000000
# 3 -0.002715 -0.005080 0.005822 0.000000 0.000000 0.000000
# 4 0.000000 0.000000 0.000000 0.003689 0.000000 0.000000
# 5 0.000000 0.000000 0.000000 0.000000 -0.075839 0.000000
# 6 0.000000 0.000000 0.000000 0.000000 0.000000 0.045604
#
#
# Mechanical properties :
#
#
# Convention : Reuss Voigt Hill
#
# Bulk Modulus (GPa) = 50.64313 84.39083 67.51698
# Shear Modulus (GPa) = 189.09947 76.75149 132.92548
#
# Velocity S-wave (km/s) = 9.10963 5.80362 7.63765
# Velocity P-wave (km/s) = 11.52700 9.05228 10.36377
#
# Compressibility (1/GPa) = 0.01974601
#
# Stress axis : x y z
#
# Youngs Moduli (GPa) = 99.27581 58.20573 171.75571
#
# Poissons Ratio (x) = -0.06575 0.46629
# Poissons Ratio (y) = -0.11215 0.87245
# Poissons Ratio (z) = 0.26952 0.29566
#
# Static dielectric constant tensor:
#      x y z
#    x 1.820540 0.000000 0.000000 
#    y 0.000000 1.889630 0.000000 
#    z 0.000000 0.000000 1.866500 
# 
# From -- ./inp_files/13764.got.cif
#   From: 2010.05.17/outbox.cif.g08.bks.cpg/sg58_7_cif.got.tgz:13764.got - 2010.06.03 14:20:14.
