data_PCOD9445765
_publ_section_title
;
Structure prediction by ZEFSAII (Michael W. Deem and Ramdas Pophale) SiO2 
 PCOD9445765
Probable space group: P N N M
;
_chemical_formula_sum "Si O2"
_cell_formula_units_Z 24
_cell_length_a 12.617514
_cell_length_b 7.647929
_cell_length_c 10.312864
_cell_angle_alpha 90.000000
_cell_angle_beta 90.000000
_cell_angle_gamma 90.000000
_cell_volume 995.169216
_symmetry_space_group_name_H-M "P N N M"
_symmetry_group_IT_number 58
_symmetry_cell_setting 'orthorhombic'
loop_
_space_group_symop_operation_xyz
x,y,z
-x,-y,z
1/2+x,1/2-y,1/2-z
1/2-x,1/2+y,1/2-z
-x,-y,-z
x,y,-z
1/2-x,1/2+y,1/2+z
1/2+x,1/2-y,1/2+z
loop_
_atom_site_type_symbol
_atom_site_label
_atom_site_fract_x
_atom_site_fract_y
_atom_site_fract_z
Si Si1 0.700682 0.469274 0.848962
Si Si2 0.072451 0.830228 0.862298
Si Si3 0.090214 0.394612 0.271974
O O1 0.638122 0.613973 0.764494
O O2 0.817604 0.482642 0.785626
O O3 0.645488 0.278598 0.832510
O O4 0.702631 0.515976 0.000000
O O5 0.985318 0.682812 0.839676
O O6 0.132322 0.805375 0.000000
O O7 0.000000 0.000000 0.876691
O O8 0.000000 0.500000 0.352156
#
# Coordination Sequence:
#
# PCOD9445765 Si02
#       3
#     8   8   8
#     4  11  25  45  70 101 135 174 225 280 330 389
#     4   9  20  41  68  97 131 172 216 265 329 401
#     4  11  24  42  67  98 135 179 223 272 335 402
#
# _framework density 24.116503999999999
#
# number of rings (size 3 to 8) (size 9 to 14) (size 15 to 20)
#    0.000    1.667    0.000    3.000    0.000   14.667 
#    0.000    3.333    0.000    0.000    0.000    0.000 
#    0.000    0.000    0.000    0.000    0.000    0.000 
#
# Total GULP energy -133826.384225 kJ/mol
# GULP energy per Si atom -5576.099343 kJ/mol
# Density = 2.406161 g / cm^3
# Si number density = 24.116504 Si / 1000 Ang^3
#
#
#
# Elastic Constant Matrix: (Units=GPa)
#
#
# Indices 1 2 3 4 5 6 
#
# 1 159.6099 63.0909 63.2526 0.0000 0.0000 0.0000
# 2 63.0909 163.9240 45.2283 0.0000 0.0000 0.0000
# 3 63.2526 45.2283 168.6949 0.0000 0.0000 0.0000
# 4 0.0000 0.0000 0.0000 -120.7901 0.0000 0.0000
# 5 0.0000 0.0000 0.0000 0.0000 12.3544 0.0000
# 6 0.0000 0.0000 0.0000 0.0000 0.0000 66.7793
#
#
#
# Elastic Compliance Matrix: (Units=1/GPa)
#
#
# Indices 1 2 3 4 5 6 
#
# 1 0.008205 -0.002494 -0.002408 0.000000 0.000000 0.000000
# 2 -0.002494 0.007346 -0.001034 0.000000 0.000000 0.000000
# 3 -0.002408 -0.001034 0.007108 0.000000 0.000000 0.000000
# 4 0.000000 0.000000 0.000000 -0.008279 0.000000 0.000000
# 5 0.000000 0.000000 0.000000 0.000000 0.080943 0.000000
# 6 0.000000 0.000000 0.000000 0.000000 0.000000 0.014975
#
#
# Mechanical properties :
#
#
# Convention : Reuss Voigt Hill
#
# Bulk Modulus (GPa) = 92.70614 92.81917 92.76266
# Shear Modulus (GPa) = 39.75660 13.04585 26.40123
#
# Velocity S-wave (km/s) = 4.06461 2.32836 3.31227
# Velocity P-wave (km/s) = 7.78154 6.76755 7.29219
#
# Compressibility (1/GPa) = 0.01078677
#
# Stress axis : x y z
#
# Youngs Moduli (GPa) = 121.87324 136.13715 140.68490
#
# Poissons Ratio (x) = 0.33948 0.33877
# Poissons Ratio (y) = 0.30391 0.14552
# Poissons Ratio (z) = 0.29347 0.14082
#
# Static dielectric constant tensor:
#      x y z
#    x 2.010180 0.000000 0.000000 
#    y 0.000000 2.165230 0.000000 
#    z 0.000000 0.000000 1.922880 
# 
# From -- ./inp_files/13554.got.cif
#   From: 2010.05.17/outbox.cif.g08.bks.cpg/sg58_7_cif.got.tgz:13554.got - 2010.06.03 14:20:14.
