data_PCOD9445183
_publ_section_title
;
Structure prediction by ZEFSAII (Michael W. Deem and Ramdas Pophale) SiO2 
 PCOD9445183
Probable space group: P N N M
;
_chemical_formula_sum "Si O2"
_cell_formula_units_Z 48
_cell_length_a 25.311454
_cell_length_b 9.673352
_cell_length_c 8.448092
_cell_angle_alpha 90.000000
_cell_angle_beta 90.000000
_cell_angle_gamma 90.000000
_cell_volume 2068.486638
_symmetry_space_group_name_H-M "P N N M"
_symmetry_group_IT_number 58
_symmetry_cell_setting 'orthorhombic'
loop_
_space_group_symop_operation_xyz
x,y,z
-x,-y,z
1/2+x,1/2-y,1/2-z
1/2-x,1/2+y,1/2-z
-x,-y,-z
x,y,-z
1/2-x,1/2+y,1/2+z
1/2+x,1/2-y,1/2+z
loop_
_atom_site_type_symbol
_atom_site_label
_atom_site_fract_x
_atom_site_fract_y
_atom_site_fract_z
Si Si1 0.862135 0.957018 0.813472
Si Si2 0.580301 0.007164 0.682970
Si Si3 0.581313 0.703784 0.183120
Si Si4 0.688426 0.049800 0.182824
Si Si5 0.968231 0.791623 0.190611
Si Si6 0.756616 0.825035 0.683949
O O1 0.876378 0.116681 0.782548
O O2 0.915498 0.874765 0.765843
O O3 0.812483 0.900151 0.717669
O O4 0.852303 0.934583 0.000000
O O5 0.569902 0.972452 0.500000
O O6 0.582037 0.866769 0.780854
O O7 0.638712 0.070704 0.704170
O O8 0.541054 0.129905 0.731425
O O9 0.522177 0.658490 0.232117
O O10 0.590925 0.677165 0.000000
O O11 0.732723 0.164540 0.217790
O O12 0.713211 0.900128 0.210805
O O13 0.672229 0.068386 0.000000
O O14 0.973583 0.801496 0.000000
O O15 0.742024 0.840769 0.500000
#
# Coordination Sequence:
#
# PCOD9445183 Si02
#       6
#     8   8   8   8   8   8
#     4  11  23  43  68  94 128 169 215 266 320 379
#     4  11  23  43  68  94 128 169 215 266 320 379
#     4  12  26  40  61  96 133 172 214 263 317 379
#     4  11  25  44  68  97 130 168 212 262 319 380
#     4  10  22  42  67  94 125 168 216 265 319 379
#     4  11  25  44  68  97 130 168 212 262 319 380
#
# _framework density 23.205372000000001
#
# number of rings (size 3 to 8) (size 9 to 14) (size 15 to 20)
#    0.000    1.000    1.667    4.500    2.333    8.667 
#    0.000    0.000    0.000    0.000    0.000    0.000 
#    0.000    0.000    0.000    0.000    0.000    0.000 
#
# Total GULP energy -268866.820638 kJ/mol
# GULP energy per Si atom -5601.392097 kJ/mol
# Density = 2.315256 g / cm^3
# Si number density = 23.205372 Si / 1000 Ang^3
#
#
#
# Elastic Constant Matrix: (Units=GPa)
#
#
# Indices 1 2 3 4 5 6 
#
# 1 35.7433 -6.9778 1.0804 0.0000 0.0000 0.0000
# 2 -6.9778 71.9216 5.6447 0.0000 0.0000 0.0000
# 3 1.0804 5.6447 29.5139 0.0000 0.0000 0.0000
# 4 0.0000 0.0000 0.0000 33.4646 0.0000 0.0000
# 5 0.0000 0.0000 0.0000 0.0000 30.5985 0.0000
# 6 0.0000 0.0000 0.0000 0.0000 0.0000 40.1713
#
#
#
# Elastic Compliance Matrix: (Units=1/GPa)
#
#
# Indices 1 2 3 4 5 6 
#
# 1 0.028592 0.002900 -0.001601 0.000000 0.000000 0.000000
# 2 0.002900 0.014410 -0.002862 0.000000 0.000000 0.000000
# 3 -0.001601 -0.002862 0.034488 0.000000 0.000000 0.000000
# 4 0.000000 0.000000 0.000000 0.029882 0.000000 0.000000
# 5 0.000000 0.000000 0.000000 0.000000 0.032681 0.000000
# 6 0.000000 0.000000 0.000000 0.000000 0.000000 0.024893
#
#
# Mechanical properties :
#
#
# Convention : Reuss Voigt Hill
#
# Bulk Modulus (GPa) = 13.44761 15.18594 14.31678
# Shear Modulus (GPa) = 25.92528 30.00899 27.96713
#
# Velocity S-wave (km/s) = 3.34610 3.60000 3.47537
# Velocity P-wave (km/s) = 4.55369 4.88245 4.72093
#
# Compressibility (1/GPa) = 0.07436264
#
# Stress axis : x y z
#
# Youngs Moduli (GPa) = 34.97514 69.39642 28.99534
#
# Poissons Ratio (x) = -0.20122 0.04643
# Poissons Ratio (y) = -0.10141 0.08299
# Poissons Ratio (z) = 0.05600 0.19862
#
# Static dielectric constant tensor:
#      x y z
#    x 1.870900 0.000000 0.000000 
#    y 0.000000 1.905150 0.000000 
#    z 0.000000 0.000000 1.763960 
# 
# From -- ./inp_files/3015.got.cif
#   From: 2010.05.17/outbox.cif.g08.bks.cpg/sg58_2_cif.got.tgz:3015.got - 2010.06.03 14:20:14.
