data_PCOD9445807
_publ_section_title
;
Structure prediction by ZEFSAII (Michael W. Deem and Ramdas Pophale) SiO2 
 PCOD9445807
Probable space group: P N N M
;
_chemical_formula_sum "Si O2"
_cell_formula_units_Z 26
_cell_length_a 13.710867
_cell_length_b 7.854471
_cell_length_c 10.320965
_cell_angle_alpha 90.000000
_cell_angle_beta 90.000000
_cell_angle_gamma 90.000000
_cell_volume 1111.481309
_symmetry_space_group_name_H-M "P N N M"
_symmetry_group_IT_number 58
_symmetry_cell_setting 'orthorhombic'
loop_
_space_group_symop_operation_xyz
x,y,z
-x,-y,z
1/2+x,1/2-y,1/2-z
1/2-x,1/2+y,1/2-z
-x,-y,-z
x,y,-z
1/2-x,1/2+y,1/2+z
1/2+x,1/2-y,1/2+z
loop_
_atom_site_type_symbol
_atom_site_label
_atom_site_fract_x
_atom_site_fract_y
_atom_site_fract_z
Si Si1 0.193668 0.996293 0.150914
Si Si2 0.500000 0.000000 0.500000
Si Si3 0.063392 0.826518 0.358500
Si Si4 0.387617 0.862420 0.256713
O O1 0.159132 0.181299 0.198782
O O2 0.136438 0.860330 0.240469
O O3 0.307388 0.964553 0.176213
O O4 0.168557 0.973780 0.000000
O O5 0.419730 0.956667 0.386300
O O6 0.110273 0.801391 0.500000
O O7 0.983502 0.685758 0.324970
O O8 0.000000 0.000000 0.365478
#
# Coordination Sequence:
#
# PCOD9445807 Si02
#       4
#     8   2   8   8
#     4  11  25  46  74 107 146 194 245 299 369 435
#     4  12  28  48  68 116 148 198 246 312 362 444
#     4   9  21  42  69 104 145 188 239 296 361 428
#     4  11  26  45  74 105 149 188 246 305 364 440
#
# _framework density 23.392205000000001
#
# number of rings (size 3 to 8) (size 9 to 14) (size 15 to 20)
#    0.000    1.538    1.538    0.923    8.615    3.077 
#    0.000    1.538    0.000    0.000    0.000    0.000 
#    0.000    0.000    0.000    0.000    0.000    0.000 
#
# Total GULP energy -145057.891101 kJ/mol
# GULP energy per Si atom -5579.149658 kJ/mol
# Density = 2.333896 g / cm^3
# Si number density = 23.392205 Si / 1000 Ang^3
#
#
#
# Elastic Constant Matrix: (Units=GPa)
#
#
# Indices 1 2 3 4 5 6 
#
# 1 86.5523 27.8631 23.4583 0.0000 0.0000 0.0000
# 2 27.8631 84.8786 41.7867 0.0000 0.0000 0.0000
# 3 23.4583 41.7867 162.2791 0.0000 0.0000 0.0000
# 4 0.0000 0.0000 0.0000 -3.8143 0.0000 0.0000
# 5 0.0000 0.0000 0.0000 0.0000 48.2467 0.0000
# 6 0.0000 0.0000 0.0000 0.0000 0.0000 44.5483
#
#
#
# Elastic Compliance Matrix: (Units=1/GPa)
#
#
# Indices 1 2 3 4 5 6 
#
# 1 0.013032 -0.003837 -0.000896 0.000000 0.000000 0.000000
# 2 -0.003837 0.014622 -0.003210 0.000000 0.000000 0.000000
# 3 -0.000896 -0.003210 0.007118 0.000000 0.000000 0.000000
# 4 0.000000 0.000000 0.000000 -0.262173 0.000000 0.000000
# 5 0.000000 0.000000 0.000000 0.000000 0.020727 0.000000
# 6 0.000000 0.000000 0.000000 0.000000 0.000000 0.022448
#
#
# Mechanical properties :
#
#
# Convention : Reuss Voigt Hill
#
# Bulk Modulus (GPa) = 52.95076 57.76956 55.36016
# Shear Modulus (GPa) = -30.85555 33.83627 1.49036
#
# Velocity S-wave (km/s) = -3.63582 3.80738 0.79906
# Velocity P-wave (km/s) = 2.24937 6.63912 4.95669
#
# Compressibility (1/GPa) = 0.01888547
#
# Stress axis : x y z
#
# Youngs Moduli (GPa) = 76.73611 68.39200 140.48119
#
# Poissons Ratio (x) = 0.26241 0.12584
# Poissons Ratio (y) = 0.29443 0.45100
# Poissons Ratio (z) = 0.06874 0.21957
#
# Static dielectric constant tensor:
#      x y z
#    x 1.869610 0.000000 0.000000 
#    y 0.000000 1.977430 0.000000 
#    z 0.000000 0.000000 1.803850 
# 
# From -- ./inp_files/4981.got.cif
#   From: 2010.05.17/outbox.cif.g08.bks.cpg/sg58_3_cif.got.tgz:4981.got - 2010.06.03 14:20:14.
