data_PCOD9445735
_publ_section_title
;
Structure prediction by ZEFSAII (Michael W. Deem and Ramdas Pophale) SiO2 
 PCOD9445735
Probable space group: P N N M
;
_chemical_formula_sum "Si O2"
_cell_formula_units_Z 34
_cell_length_a 6.895152
_cell_length_b 10.591471
_cell_length_c 21.726685
_cell_angle_alpha 90.000000
_cell_angle_beta 90.000000
_cell_angle_gamma 90.000000
_cell_volume 1586.695513
_symmetry_space_group_name_H-M "P N N M"
_symmetry_group_IT_number 58
_symmetry_cell_setting 'orthorhombic'
loop_
_space_group_symop_operation_xyz
x,y,z
-x,-y,z
1/2+x,1/2-y,1/2-z
1/2-x,1/2+y,1/2-z
-x,-y,-z
x,y,-z
1/2-x,1/2+y,1/2+z
1/2+x,1/2-y,1/2+z
loop_
_atom_site_type_symbol
_atom_site_label
_atom_site_fract_x
_atom_site_fract_y
_atom_site_fract_z
Si Si1 0.275049 0.682769 0.339788
Si Si2 0.726815 0.038309 0.929712
Si Si3 0.894748 0.368637 0.207617
Si Si4 0.500000 0.500000 0.000000
Si Si5 0.095208 0.190277 0.608356
O O1 0.318614 0.562864 0.383002
O O2 0.154374 0.641268 0.279576
O O3 0.460688 0.758386 0.315143
O O4 0.127269 0.770869 0.378188
O O5 0.500000 0.000000 0.929732
O O6 0.716682 0.183724 0.909321
O O7 0.794934 0.026994 0.000000
O O8 0.696815 0.362199 0.169273
O O9 0.000000 0.500000 0.195362
O O10 0.594608 0.408844 0.946270
#
# Coordination Sequence:
#
# PCOD9445735 Si02
#       5
#     8   8   8   2   8
#     4  11  24  44  72 100 136 181 228 290 347 410
#     4   9  19  41  71  97 131 175 233 278 337 412
#     4  12  25  45  66 104 139 178 233 284 351 420
#     4  12  24  44  72  98 148 192 222 278 362 412
#     4  11  23  45  69 101 138 181 227 286 343 420
#
# _framework density 21.428180000000001
#
# number of rings (size 3 to 8) (size 9 to 14) (size 15 to 20)
#    0.000    1.176    3.529    3.529    1.647    0.941 
#    2.118    2.941    0.000    0.000    0.000    0.000 
#    0.000    0.000    0.000    0.000    0.000    0.000 
#
# Total GULP energy -189599.405118 kJ/mol
# GULP energy per Si atom -5576.453092 kJ/mol
# Density = 2.137941 g / cm^3
# Si number density = 21.428180 Si / 1000 Ang^3
#
#
#
# Elastic Constant Matrix: (Units=GPa)
#
#
# Indices 1 2 3 4 5 6 
#
# 1 63.9429 11.1948 6.4214 0.0000 0.0000 0.0000
# 2 11.1948 106.9238 42.6186 0.0000 0.0000 0.0000
# 3 6.4214 42.6186 130.0333 0.0000 0.0000 0.0000
# 4 0.0000 0.0000 0.0000 -13.7717 0.0000 0.0000
# 5 0.0000 0.0000 0.0000 0.0000 -11.0193 0.0000
# 6 0.0000 0.0000 0.0000 0.0000 0.0000 34.0892
#
#
#
# Elastic Compliance Matrix: (Units=1/GPa)
#
#
# Indices 1 2 3 4 5 6 
#
# 1 0.015940 -0.001559 -0.000276 0.000000 0.000000 0.000000
# 2 -0.001559 0.010910 -0.003499 0.000000 0.000000 0.000000
# 3 -0.000276 -0.003499 0.008851 0.000000 0.000000 0.000000
# 4 0.000000 0.000000 0.000000 -0.072613 0.000000 0.000000
# 5 0.000000 0.000000 0.000000 0.000000 -0.090750 0.000000
# 6 0.000000 0.000000 0.000000 0.000000 0.000000 0.029335
#
#
# Mechanical properties :
#
#
# Convention : Reuss Voigt Hill
#
# Bulk Modulus (GPa) = 39.94754 46.81885 43.38320
# Shear Modulus (GPa) = -63.03944 17.90400 -22.56772
#
# Velocity S-wave (km/s) = -5.42981 2.89370 -3.24879
# Velocity P-wave (km/s) = 4.54174 5.74989 2.49338
#
# Compressibility (1/GPa) = 0.02503283
#
# Stress axis : x y z
#
# Youngs Moduli (GPa) = 62.73690 91.65684 112.98489
#
# Poissons Ratio (x) = 0.14287 0.03121
# Poissons Ratio (y) = 0.09779 0.39532
# Poissons Ratio (z) = 0.01733 0.32070
#
# Static dielectric constant tensor:
#      x y z
#    x 1.797620 0.000000 0.000000 
#    y 0.000000 1.779790 0.000000 
#    z 0.000000 0.000000 1.696830 
# 
# From -- ./inp_files/28554.got.cif
#   From: 2010.05.17/outbox.cif.g08.bks.cpg/sg58_15_cif.got.tgz:28554.got - 2010.06.03 14:20:14.
