data_PCOD9445940
_publ_section_title
;
Structure prediction by ZEFSAII (Michael W. Deem and Ramdas Pophale) SiO2 
 PCOD9445940
Probable space group: P N N M
;
_chemical_formula_sum "Si O2"
_cell_formula_units_Z 56
_cell_length_a 15.000000
_cell_length_b 21.000000
_cell_length_c 9.000000
_cell_angle_alpha 90.000000
_cell_angle_beta 90.000000
_cell_angle_gamma 90.000000
_cell_volume 2835.000000
_symmetry_space_group_name_H-M "P N N M"
_symmetry_group_IT_number 58
_symmetry_cell_setting 'orthorhombic'
loop_
_space_group_symop_operation_xyz
x,y,z
-x,-y,z
1/2+x,1/2-y,1/2-z
1/2-x,1/2+y,1/2-z
-x,-y,-z
x,y,-z
1/2-x,1/2+y,1/2+z
1/2+x,1/2-y,1/2+z
loop_
_atom_site_type_symbol
_atom_site_label
_atom_site_fract_x
_atom_site_fract_y
_atom_site_fract_z
Si Si1 0.999067 0.234035 0.674241
Si Si2 0.747331 0.896070 0.673687
Si Si3 0.918982 0.543560 0.172832
Si Si4 0.442392 0.149138 0.667088
Si Si5 0.798086 0.753474 0.680734
Si Si6 0.145583 0.846653 0.179242
Si Si7 0.230909 0.976541 0.823196
O O1 0.002687 0.220963 0.500000
O O2 0.941640 0.296387 0.712054
O O3 0.947517 0.177928 0.756815
O O4 0.098889 0.250624 0.727704
O O5 0.770149 0.901071 0.500000
O O6 0.639820 0.898902 0.687297
O O7 0.769611 0.824820 0.723912
O O8 0.790898 0.954125 0.759420
O O9 0.829737 0.540426 0.265385
O O10 0.000000 0.500000 0.229969
O O11 0.964714 0.612551 0.172740
O O12 0.901005 0.526065 0.000000
O O13 0.429955 0.176822 0.500000
O O14 0.797027 0.750291 0.500000
O O15 0.727253 0.699960 0.729696
O O16 0.168028 0.918572 0.225098
O O17 0.143062 0.843817 0.000000
O O18 0.231344 0.978883 0.000000
#
# Coordination Sequence:
#
# PCOD9445940 Si02
#       7
#     8   8   8   8   8   8   8
#     4  11  22  36  59  90 115 140 191 253 290 330
#     4  10  19  37  61  79 108 154 194 227 276 348
#     4  10  19  33  52  78 112 150 189 224 273 349
#     4  10  19  34  57  80 109 153 190 224 282 350
#     4   9  19  38  62  83 110 152 196 233 282 342
#     4  10  21  41  61  80 116 160 191 226 291 358
#     4  11  23  36  55  84 118 152 189 242 295 336
#
# _framework density 19.753086
#
# number of rings (size 3 to 8) (size 9 to 14) (size 15 to 20)
#    0.000    1.857    2.857    1.714    0.000    3.714 
#    0.000    3.571    0.000    4.286    0.000    0.000 
#    0.000    0.000    0.000    0.000    0.000    0.000 
#
# Total GULP energy -312303.128909 kJ/mol
# GULP energy per Si atom -5576.841588 kJ/mol
# Density = 1.970813 g / cm^3
# Si number density = 19.753086 Si / 1000 Ang^3
#
#
#
# Elastic Constant Matrix: (Units=GPa)
#
#
# Indices 1 2 3 4 5 6 
#
# 1 37.7303 2.3020 6.1889 0.0000 0.0000 0.0000
# 2 2.3020 78.9723 16.5490 0.0000 0.0000 0.0000
# 3 6.1889 16.5490 15.4653 0.0000 0.0000 0.0000
# 4 0.0000 0.0000 0.0000 59.9981 0.0000 0.0000
# 5 0.0000 0.0000 0.0000 0.0000 21.4543 0.0000
# 6 0.0000 0.0000 0.0000 0.0000 0.0000 27.4498
#
#
#
# Elastic Compliance Matrix: (Units=1/GPa)
#
#
# Indices 1 2 3 4 5 6 
#
# 1 0.028613 0.002018 -0.013610 0.000000 0.000000 0.000000
# 2 0.002018 0.016465 -0.018427 0.000000 0.000000 0.000000
# 3 -0.013610 -0.018427 0.089825 0.000000 0.000000 0.000000
# 4 0.000000 0.000000 0.000000 0.016667 0.000000 0.000000
# 5 0.000000 0.000000 0.000000 0.000000 0.046611 0.000000
# 6 0.000000 0.000000 0.000000 0.000000 0.000000 0.036430
#
#
# Mechanical properties :
#
#
# Convention : Reuss Voigt Hill
#
# Bulk Modulus (GPa) = 13.35706 20.24974 16.80340
# Shear Modulus (GPa) = 15.64433 28.92230 22.28332
#
# Velocity S-wave (km/s) = 2.81729 3.83063 3.36235
# Velocity P-wave (km/s) = 4.16648 5.46247 4.85789
#
# Compressibility (1/GPa) = 0.07486680
#
# Stress axis : x y z
#
# Youngs Moduli (GPa) = 34.94887 60.73403 11.13271
#
# Poissons Ratio (x) = -0.12256 0.15151
# Poissons Ratio (y) = -0.07053 0.20514
# Poissons Ratio (z) = 0.47565 1.11912
#
# Static dielectric constant tensor:
#      x y z
#    x 1.710360 0.000000 0.000000 
#    y 0.000000 1.755000 0.000000 
#    z 0.000000 0.000000 1.674140 
# 
# From -- ./inp_files/6257.got.cif
#   From: 2010.05.17/outbox.ucp.g08.bks.cvg/sg58_4_cif.got.tgz:6257.got - 2010.06.11 16:41:41.
