data_PCOD9445748
_publ_section_title
;
Structure prediction by ZEFSAII (Michael W. Deem and Ramdas Pophale) SiO2 
 PCOD9445748
Probable space group: P N N M
;
_chemical_formula_sum "Si O2"
_cell_formula_units_Z 48
_cell_length_a 5.059795
_cell_length_b 25.788802
_cell_length_c 15.438989
_cell_angle_alpha 90.000000
_cell_angle_beta 90.000000
_cell_angle_gamma 90.000000
_cell_volume 2014.572712
_symmetry_space_group_name_H-M "P N N M"
_symmetry_group_IT_number 58
_symmetry_cell_setting 'orthorhombic'
loop_
_space_group_symop_operation_xyz
x,y,z
-x,-y,z
1/2+x,1/2-y,1/2-z
1/2-x,1/2+y,1/2-z
-x,-y,-z
x,y,-z
1/2-x,1/2+y,1/2+z
1/2+x,1/2-y,1/2+z
loop_
_atom_site_type_symbol
_atom_site_label
_atom_site_fract_x
_atom_site_fract_y
_atom_site_fract_z
Si Si1 0.104783 0.679967 0.255965
Si Si2 0.328035 0.114024 0.000000
Si Si3 0.319058 0.311565 0.500000
Si Si4 0.960216 0.424125 0.686763
Si Si5 0.567988 0.554994 0.203648
Si Si6 0.004211 0.843593 0.598774
Si Si7 0.111110 0.248428 0.865083
O O1 0.927324 0.632283 0.283615
O O2 0.277704 0.669106 0.169864
O O3 0.256034 0.693931 0.342660
O O4 0.944091 0.729962 0.229963
O O5 0.390484 0.079324 0.085756
O O6 0.038848 0.141735 0.000000
O O7 0.541452 0.160565 0.000000
O O8 0.368367 0.271130 0.578292
O O9 0.687417 0.428948 0.739489
O O10 0.195582 0.457443 0.727897
O O11 0.500000 0.500000 0.159390
O O12 0.619834 0.601432 0.134897
O O13 0.907214 0.849973 0.500000
O O14 0.212655 0.795487 0.597768
#
# Coordination Sequence:
#
# PCOD9445748 Si02
#       7
#     8   4   4   8   8   8   8
#     4  11  24  38  63  90 140 183 228 263 329 394
#     4  12  26  44  65 106 142 178 218 273 330 401
#     4  12  28  36  64  98 148 183 223 262 316 397
#     4  11  24  46  71 101 134 177 221 277 340 407
#     4  11  25  49  75  98 128 173 227 289 354 403
#     4  11  25  42  63  96 136 177 231 283 334 392
#     4  12  23  37  61  95 135 192 222 268 316 401
#
# _framework density 23.826395000000002
#
# number of rings (size 3 to 8) (size 9 to 14) (size 15 to 20)
#    0.000    0.667    5.833    1.500    8.167    0.333 
#    0.000    2.500    0.000    3.000    0.000    0.000 
#    0.000    0.000    0.000    0.000    0.000    0.000 
#
# Total GULP energy -267747.604132 kJ/mol
# GULP energy per Si atom -5578.075086 kJ/mol
# Density = 2.377217 g / cm^3
# Si number density = 23.826395 Si / 1000 Ang^3
#
#
#
# Elastic Constant Matrix: (Units=GPa)
#
#
# Indices 1 2 3 4 5 6 
#
# 1 75.7242 0.3260 19.7118 0.0000 0.0000 0.0000
# 2 0.3260 69.2389 30.2757 0.0000 0.0000 0.0000
# 3 19.7118 30.2757 124.6253 0.0000 0.0000 0.0000
# 4 0.0000 0.0000 0.0000 2.7437 0.0000 0.0000
# 5 0.0000 0.0000 0.0000 0.0000 27.9280 0.0000
# 6 0.0000 0.0000 0.0000 0.0000 0.0000 35.2179
#
#
#
# Elastic Compliance Matrix: (Units=1/GPa)
#
#
# Indices 1 2 3 4 5 6 
#
# 1 0.013834 0.000998 -0.002430 0.000000 0.000000 0.000000
# 2 0.000998 0.016231 -0.004101 0.000000 0.000000 0.000000
# 3 -0.002430 -0.004101 0.009405 0.000000 0.000000 0.000000
# 4 0.000000 0.000000 0.000000 0.364474 0.000000 0.000000
# 5 0.000000 0.000000 0.000000 0.000000 0.035806 0.000000
# 6 0.000000 0.000000 0.000000 0.000000 0.000000 0.028395
#
#
# Mechanical properties :
#
#
# Convention : Reuss Voigt Hill
#
# Bulk Modulus (GPa) = 35.20801 41.13505 38.17153
# Shear Modulus (GPa) = 10.23164 27.79625 19.01394
#
# Velocity S-wave (km/s) = 2.07450 3.41928 2.82799
# Velocity P-wave (km/s) = 4.53289 5.73503 5.16903
#
# Compressibility (1/GPa) = 0.02840263
#
# Stress axis : x y z
#
# Youngs Moduli (GPa) = 72.28461 61.60955 106.32946
#
# Poissons Ratio (x) = -0.06146 0.25843
# Poissons Ratio (y) = -0.07211 0.43605
# Poissons Ratio (z) = 0.17569 0.25266
#
# Static dielectric constant tensor:
#      x y z
#    x 2.023770 0.000000 0.000000 
#    y 0.000000 2.109750 0.000000 
#    z 0.000000 0.000000 1.878070 
# 
# From -- ./inp_files/18639.got.cif
#   From: 2010.05.17/outbox.cif.g08.bks.cpg/sg58_10_cif.got.tgz:18639.got - 2010.06.03 14:20:14.
