data_PCOD9445266
_publ_section_title
;
Structure prediction by ZEFSAII (Michael W. Deem and Ramdas Pophale) SiO2 
 PCOD9445266
Probable space group: P N N M
;
_chemical_formula_sum "Si O2"
_cell_formula_units_Z 64
_cell_length_a 14.260586
_cell_length_b 12.109804
_cell_length_c 17.426217
_cell_angle_alpha 90.000000
_cell_angle_beta 90.000000
_cell_angle_gamma 90.000000
_cell_volume 3009.383974
_symmetry_space_group_name_H-M "P N N M"
_symmetry_group_IT_number 58
_symmetry_cell_setting 'orthorhombic'
loop_
_space_group_symop_operation_xyz
x,y,z
-x,-y,z
1/2+x,1/2-y,1/2-z
1/2-x,1/2+y,1/2-z
-x,-y,-z
x,y,-z
1/2-x,1/2+y,1/2+z
1/2+x,1/2-y,1/2+z
loop_
_atom_site_type_symbol
_atom_site_label
_atom_site_fract_x
_atom_site_fract_y
_atom_site_fract_z
Si Si1 0.334677 0.006968 0.920273
Si Si2 0.609928 0.013269 0.663492
Si Si3 0.817676 0.304939 0.086593
Si Si4 0.718686 0.467281 0.278511
Si Si5 0.106553 0.822103 0.238762
Si Si6 0.605505 0.248110 0.712722
Si Si7 0.907587 0.254157 0.411520
Si Si8 0.613954 0.229149 0.112260
O O1 0.386154 0.891370 0.924129
O O2 0.255436 0.992228 0.858987
O O3 0.398834 0.112762 0.905502
O O4 0.285560 0.030422 0.000000
O O5 0.618765 0.146017 0.654622
O O6 0.500000 0.000000 0.687508
O O7 0.634131 0.925600 0.596693
O O8 0.690410 0.977092 0.724035
O O9 0.845124 0.236680 0.164219
O O10 0.704084 0.301351 0.090173
O O11 0.842348 0.262697 0.000000
O O12 0.636766 0.550625 0.255451
O O13 0.679721 0.345664 0.291330
O O14 0.130130 0.780914 0.326255
O O15 0.998356 0.799179 0.217553
O O16 0.618341 0.200987 0.797885
O O17 0.873108 0.225849 0.500000
O O18 0.015535 0.215791 0.407637
#
# Coordination Sequence:
#
# PCOD9445266 Si02
#       8
#     8   8   8   8   8   8   8   8
#     4  11  22  34  59  96 136 175 221 283 345 401
#     4  12  25  43  68 100 129 176 231 283 340 401
#     4  12  24  43  68 102 141 185 237 282 337 411
#     4  12  25  43  68  98 137 181 230 282 341 415
#     4  11  24  44  70  98 136 185 230 275 349 411
#     4  11  24  43  71  98 133 177 235 282 343 406
#     4  10  23  40  66 103 141 173 227 292 350 410
#     4  11  21  38  67  98 136 181 225 287 347 409
#
# _framework density 21.266812000000002
#
# number of rings (size 3 to 8) (size 9 to 14) (size 15 to 20)
#    0.000    0.750    5.000    2.625    3.500    1.250 
#    0.000    1.875    0.000    3.000    0.000    0.000 
#    0.000    0.000    0.000    0.000    0.000    0.000 
#
# Total GULP energy -356308.313615 kJ/mol
# GULP energy per Si atom -5567.317400 kJ/mol
# Density = 2.121841 g / cm^3
# Si number density = 21.266812 Si / 1000 Ang^3
#
#
#
# Elastic Constant Matrix: (Units=GPa)
#
#
# Indices 1 2 3 4 5 6 
#
# 1 103.4235 45.6869 10.9488 0.0000 0.0000 0.0000
# 2 45.6869 96.8990 9.2713 0.0000 0.0000 0.0000
# 3 10.9488 9.2713 103.2276 0.0000 0.0000 0.0000
# 4 0.0000 0.0000 0.0000 31.4445 0.0000 0.0000
# 5 0.0000 0.0000 0.0000 0.0000 -6.9397 0.0000
# 6 0.0000 0.0000 0.0000 0.0000 0.0000 28.2586
#
#
#
# Elastic Compliance Matrix: (Units=1/GPa)
#
#
# Indices 1 2 3 4 5 6 
#
# 1 0.012276 -0.005713 -0.000789 0.000000 0.000000 0.000000
# 2 -0.005713 0.013068 -0.000568 0.000000 0.000000 0.000000
# 3 -0.000789 -0.000568 0.009822 0.000000 0.000000 0.000000
# 4 0.000000 0.000000 0.000000 0.031802 0.000000 0.000000
# 5 0.000000 0.000000 0.000000 0.000000 -0.144098 0.000000
# 6 0.000000 0.000000 0.000000 0.000000 0.000000 0.035387
#
#
# Mechanical properties :
#
#
# Convention : Reuss Voigt Hill
#
# Bulk Modulus (GPa) = 47.55747 48.37380 47.96564
# Shear Modulus (GPa) = -242.77672 26.39555 -108.19058
#
# Velocity S-wave (km/s) = -10.69605 3.52683 -7.14027
# Velocity P-wave (km/s) = 11.40744 6.27537 6.73607
#
# Compressibility (1/GPa) = 0.02102719
#
# Stress axis : x y z
#
# Youngs Moduli (GPa) = 81.45987 76.52435 101.81218
#
# Poissons Ratio (x) = 0.43715 0.08033
# Poissons Ratio (y) = 0.46534 0.05781
# Poissons Ratio (z) = 0.06427 0.04345
#
# Static dielectric constant tensor:
#      x y z
#    x 1.806600 0.000000 0.000000 
#    y 0.000000 1.845600 0.000000 
#    z 0.000000 0.000000 1.835300 
# 
# From -- ./inp_files/26993.got.cif
#   From: 2010.05.17/outbox.cif.g08.bks.cpg/sg58_14_cif.got.tgz:26993.got - 2010.06.03 14:20:14.
