data_PCOD9445777
_publ_section_title
;
Structure prediction by ZEFSAII (Michael W. Deem and Ramdas Pophale) SiO2 
 PCOD9445777
Probable space group: P N N M
;
_chemical_formula_sum "Si O2"
_cell_formula_units_Z 40
_cell_length_a 14.048758
_cell_length_b 6.625811
_cell_length_c 15.733575
_cell_angle_alpha 90.000000
_cell_angle_beta 90.000000
_cell_angle_gamma 90.000000
_cell_volume 1464.550629
_symmetry_space_group_name_H-M "P N N M"
_symmetry_group_IT_number 58
_symmetry_cell_setting 'orthorhombic'
loop_
_space_group_symop_operation_xyz
x,y,z
-x,-y,z
1/2+x,1/2-y,1/2-z
1/2-x,1/2+y,1/2-z
-x,-y,-z
x,y,-z
1/2-x,1/2+y,1/2+z
1/2+x,1/2-y,1/2+z
loop_
_atom_site_type_symbol
_atom_site_label
_atom_site_fract_x
_atom_site_fract_y
_atom_site_fract_z
Si Si1 0.928955 0.623959 0.768890
Si Si2 0.575731 0.629767 0.690711
Si Si3 0.772973 0.108536 0.656291
Si Si4 0.421893 0.682467 0.093165
Si Si5 0.076512 0.768748 0.000000
Si Si6 0.652628 0.195234 0.500000
O O1 0.952562 0.379464 0.799367
O O2 0.817806 0.596887 0.784698
O O3 0.937726 0.662500 0.667959
O O4 0.947789 0.873599 0.801394
O O5 0.645157 0.643495 0.773566
O O6 0.606603 0.638472 0.590761
O O7 0.722484 0.235533 0.579985
O O8 0.819059 0.919827 0.606934
O O9 0.500000 0.500000 0.098427
O O10 0.429429 0.772323 0.000000
O O11 0.120260 0.542485 0.000000
O O12 0.958354 0.775783 0.000000
#
# Coordination Sequence:
#
# PCOD9445777 Si02
#       6
#     8   8   8   8   4   4
#     4  12  26  43  71 105 144 185 238 303 360 421
#     4  12  25  46  71 108 149 193 242 302 363 433
#     4  12  24  41  75 103 140 193 241 291 359 437
#     4  11  24  46  72  98 139 193 242 292 356 434
#     4  11  25  46  72 106 147 190 243 313 354 430
#     4  11  24  44  75 108 140 193 255 291 363 440
#
# _framework density 27.312131000000001
#
# number of rings (size 3 to 8) (size 9 to 14) (size 15 to 20)
#    0.000    0.400    7.000    1.500    5.600    0.400 
#    0.000    0.000    0.000    0.000    0.000    0.000 
#    0.000    0.000    0.000    0.000    0.000    0.000 
#
# Total GULP energy -223012.863442 kJ/mol
# GULP energy per Si atom -5575.321586 kJ/mol
# Density = 2.724997 g / cm^3
# Si number density = 27.312131 Si / 1000 Ang^3
#
#
#
# Elastic Constant Matrix: (Units=GPa)
#
#
# Indices 1 2 3 4 5 6 
#
# 1 144.4123 41.6880 39.1131 0.0000 0.0000 0.0000
# 2 41.6880 165.9592 47.0053 0.0000 0.0000 0.0000
# 3 39.1131 47.0053 268.2653 0.0000 0.0000 0.0000
# 4 0.0000 0.0000 0.0000 -45.3096 0.0000 0.0000
# 5 0.0000 0.0000 0.0000 0.0000 34.2633 0.0000
# 6 0.0000 0.0000 0.0000 0.0000 0.0000 37.0163
#
#
#
# Elastic Compliance Matrix: (Units=1/GPa)
#
#
# Indices 1 2 3 4 5 6 
#
# 1 0.007633 -0.001686 -0.000817 0.000000 0.000000 0.000000
# 2 -0.001686 0.006713 -0.000930 0.000000 0.000000 0.000000
# 3 -0.000817 -0.000930 0.004010 0.000000 0.000000 0.000000
# 4 0.000000 0.000000 0.000000 -0.022070 0.000000 0.000000
# 5 0.000000 0.000000 0.000000 0.000000 0.029186 0.000000
# 6 0.000000 0.000000 0.000000 0.000000 0.000000 0.027015
#
#
# Mechanical properties :
#
#
# Convention : Reuss Voigt Hill
#
# Bulk Modulus (GPa) = 87.04837 92.69440 89.87138
# Shear Modulus (GPa) = 79.13647 35.24937 57.19292
#
# Velocity S-wave (km/s) = 5.38867 3.59641 4.58104
# Velocity P-wave (km/s) = 8.40582 7.15948 7.80756
#
# Compressibility (1/GPa) = 0.01148787
#
# Stress axis : x y z
#
# Youngs Moduli (GPa) = 131.01605 148.97479 249.38516
#
# Poissons Ratio (x) = 0.25113 0.20386
# Poissons Ratio (y) = 0.22086 0.23203
# Poissons Ratio (z) = 0.10710 0.13860
#
# Static dielectric constant tensor:
#      x y z
#    x 2.157420 0.000000 0.000000 
#    y 0.000000 2.293110 0.000000 
#    z 0.000000 0.000000 2.032240 
# 
# From -- ./inp_files/21921.got.cif
#   From: 2010.05.17/outbox.cif.g08.bks.cpg/sg58_11_cif.got.tgz:21921.got - 2010.06.03 14:20:14.
