data_PCOD9445594
_publ_section_title
;
Structure prediction by ZEFSAII (Michael W. Deem and Ramdas Pophale) SiO2 
 PCOD9445594
Probable space group: P N N M
;
_chemical_formula_sum "Si O2"
_cell_formula_units_Z 64
_cell_length_a 15.004080
_cell_length_b 12.108320
_cell_length_c 17.679674
_cell_angle_alpha 90.000000
_cell_angle_beta 90.000000
_cell_angle_gamma 90.000000
_cell_volume 3211.940665
_symmetry_space_group_name_H-M "P N N M"
_symmetry_group_IT_number 58
_symmetry_cell_setting 'orthorhombic'
loop_
_space_group_symop_operation_xyz
x,y,z
-x,-y,z
1/2+x,1/2-y,1/2-z
1/2-x,1/2+y,1/2-z
-x,-y,-z
x,y,-z
1/2-x,1/2+y,1/2+z
1/2+x,1/2-y,1/2+z
loop_
_atom_site_type_symbol
_atom_site_label
_atom_site_fract_x
_atom_site_fract_y
_atom_site_fract_z
Si Si1 0.641359 0.904831 0.169733
Si Si2 0.595445 0.540494 0.843851
Si Si3 0.228436 0.144242 0.413618
Si Si4 0.413679 0.110699 0.338978
Si Si5 0.024252 0.751980 0.416477
Si Si6 0.245285 0.293217 0.806461
Si Si7 0.357186 0.840027 0.152660
Si Si8 0.409813 0.866063 0.409742
O O1 0.585563 0.903964 0.248607
O O2 0.604267 0.830187 0.101989
O O3 0.728553 0.835484 0.192757
O O4 0.645290 0.029550 0.142489
O O5 0.500000 0.500000 0.806803
O O6 0.656353 0.439742 0.875141
O O7 0.556226 0.622747 0.907703
O O8 0.667121 0.625408 0.804083
O O9 0.244208 0.107685 0.500000
O O10 0.318621 0.154439 0.365741
O O11 0.192433 0.268211 0.409976
O O12 0.498904 0.177240 0.370417
O O13 0.410502 0.991533 0.379623
O O14 0.988505 0.734190 0.500000
O O15 0.954355 0.714007 0.353396
O O16 0.186454 0.318612 0.733580
O O17 0.182546 0.317820 0.878338
O O18 0.416038 0.860496 0.500000
#
# Coordination Sequence:
#
# PCOD9445594 Si02
#       8
#     8   8   8   8   8   8   8   8
#     4  11  24  41  62  89 130 175 212 263 323 398
#     4  11  23  42  65  95 133 167 214 269 334 383
#     4  12  23  38  65  95 130 167 213 274 325 381
#     4  11  21  40  64  96 126 160 211 273 328 378
#     4  11  25  40  62  94 130 174 219 264 319 390
#     4  11  24  42  64  95 128 170 214 265 327 391
#     4  12  23  40  62  88 128 170 215 259 321 381
#     4  11  22  38  66  96 124 162 210 268 330 378
#
# _framework density 19.925647999999999
#
# number of rings (size 3 to 8) (size 9 to 14) (size 15 to 20)
#    0.000    0.750    5.000    3.375    1.750    4.000 
#    0.000    0.000    0.000    0.000    0.000    1.750 
#    0.000    0.000    0.000    0.000    0.000    0.000 
#
# Total GULP energy -356558.327691 kJ/mol
# GULP energy per Si atom -5571.223870 kJ/mol
# Density = 1.988030 g / cm^3
# Si number density = 19.925648 Si / 1000 Ang^3
#
#
#
# Elastic Constant Matrix: (Units=GPa)
#
#
# Indices 1 2 3 4 5 6 
#
# 1 89.9616 14.8430 22.0948 0.0000 0.0000 0.0000
# 2 14.8430 84.0351 19.7236 0.0000 0.0000 0.0000
# 3 22.0948 19.7236 74.6173 0.0000 0.0000 0.0000
# 4 0.0000 0.0000 0.0000 14.9691 0.0000 0.0000
# 5 0.0000 0.0000 0.0000 0.0000 21.2697 0.0000
# 6 0.0000 0.0000 0.0000 0.0000 0.0000 22.0428
#
#
#
# Elastic Compliance Matrix: (Units=1/GPa)
#
#
# Indices 1 2 3 4 5 6 
#
# 1 0.012137 -0.001386 -0.003228 0.000000 0.000000 0.000000
# 2 -0.001386 0.012845 -0.002985 0.000000 0.000000 0.000000
# 3 -0.003228 -0.002985 0.015146 0.000000 0.000000 0.000000
# 4 0.000000 0.000000 0.000000 0.066804 0.000000 0.000000
# 5 0.000000 0.000000 0.000000 0.000000 0.047015 0.000000
# 6 0.000000 0.000000 0.000000 0.000000 0.000000 0.045366
#
#
# Mechanical properties :
#
#
# Convention : Reuss Voigt Hill
#
# Bulk Modulus (GPa) = 40.10984 40.21521 40.16252
# Shear Modulus (GPa) = 22.43940 24.45317 23.44629
#
# Velocity S-wave (km/s) = 3.35947 3.50697 3.43401
# Velocity P-wave (km/s) = 5.93477 6.05185 5.99360
#
# Compressibility (1/GPa) = 0.02493154
#
# Stress axis : x y z
#
# Youngs Moduli (GPa) = 82.39089 77.85002 66.02223
#
# Poissons Ratio (x) = 0.10792 0.21309
# Poissons Ratio (y) = 0.11422 0.19707
# Poissons Ratio (z) = 0.26592 0.23237
#
# Static dielectric constant tensor:
#      x y z
#    x 1.991190 0.000000 0.000000 
#    y 0.000000 1.736050 0.000000 
#    z 0.000000 0.000000 1.689820 
# 
# From -- ./inp_files/27005.got.cif
#   From: 2010.05.17/outbox.cif.g08.bks.cpg/sg58_14_cif.got.tgz:27005.got - 2010.06.03 14:20:14.
