data_PCOD9445545
_publ_section_title
;
Structure prediction by ZEFSAII (Michael W. Deem and Ramdas Pophale) SiO2 
 PCOD9445545
Probable space group: P N N M
;
_chemical_formula_sum "Si O2"
_cell_formula_units_Z 40
_cell_length_a 9.544150
_cell_length_b 16.334023
_cell_length_c 11.138790
_cell_angle_alpha 90.000000
_cell_angle_beta 90.000000
_cell_angle_gamma 90.000000
_cell_volume 1736.474601
_symmetry_space_group_name_H-M "P N N M"
_symmetry_group_IT_number 58
_symmetry_cell_setting 'orthorhombic'
loop_
_space_group_symop_operation_xyz
x,y,z
-x,-y,z
1/2+x,1/2-y,1/2-z
1/2-x,1/2+y,1/2-z
-x,-y,-z
x,y,-z
1/2-x,1/2+y,1/2+z
1/2+x,1/2-y,1/2+z
loop_
_atom_site_type_symbol
_atom_site_label
_atom_site_fract_x
_atom_site_fract_y
_atom_site_fract_z
Si Si1 0.337074 0.493552 0.761081
Si Si2 0.223094 0.463024 0.500000
Si Si3 0.333365 0.669807 0.855708
Si Si4 0.574086 0.770174 0.240185
Si Si5 0.921706 0.580432 0.860323
Si Si6 0.558448 0.866496 0.000000
O O1 0.500000 0.500000 0.789658
O O2 0.311348 0.468135 0.622813
O O3 0.282722 0.583780 0.800297
O O4 0.242254 0.432140 0.837726
O O5 0.108135 0.389477 0.500000
O O6 0.135504 0.547208 0.500000
O O7 0.479164 0.692639 0.791672
O O8 0.215084 0.735877 0.817541
O O9 0.346375 0.665422 0.000000
O O10 0.476239 0.835817 0.307145
O O11 0.602700 0.813692 0.113775
O O12 0.000000 0.500000 0.805123
O O13 0.954659 0.581434 0.000000
#
# Coordination Sequence:
#
# PCOD9445545 Si02
#       6
#     8   4   8   8   8   4
#     4  12  26  44  69 105 140 179 229 287 346 405
#     4  11  21  42  74 102 136 172 230 292 341 408
#     4  12  28  49  69  99 145 185 229 285 345 414
#     4  12  25  47  70 102 137 182 232 281 350 414
#     4  11  22  44  75  99 131 178 231 282 336 410
#     4  11  20  42  76  98 129 181 228 284 341 410
#
# _framework density 23.035176
#
# number of rings (size 3 to 8) (size 9 to 14) (size 15 to 20)
#    0.000    0.400    7.000    1.500    2.800    1.600 
#    7.200    0.000    0.000    0.000    0.000    0.000 
#    0.000    0.000    0.000    0.000    0.000    0.000 
#
# Total GULP energy -223819.200530 kJ/mol
# GULP energy per Si atom -5595.480013 kJ/mol
# Density = 2.298275 g / cm^3
# Si number density = 23.035176 Si / 1000 Ang^3
#
#
#
# Elastic Constant Matrix: (Units=GPa)
#
#
# Indices 1 2 3 4 5 6 
#
# 1 87.0531 -3.1420 -18.0375 0.0000 0.0000 0.0000
# 2 -3.1420 37.6041 9.8736 0.0000 0.0000 0.0000
# 3 -18.0375 9.8736 91.6863 0.0000 0.0000 0.0000
# 4 0.0000 0.0000 0.0000 5.4721 0.0000 0.0000
# 5 0.0000 0.0000 0.0000 0.0000 27.3285 0.0000
# 6 0.0000 0.0000 0.0000 0.0000 0.0000 40.5586
#
#
#
# Elastic Compliance Matrix: (Units=1/GPa)
#
#
# Indices 1 2 3 4 5 6 
#
# 1 0.011981 0.000393 0.002315 0.000000 0.000000 0.000000
# 2 0.000393 0.027380 -0.002871 0.000000 0.000000 0.000000
# 3 0.002315 -0.002871 0.011671 0.000000 0.000000 0.000000
# 4 0.000000 0.000000 0.000000 0.182746 0.000000 0.000000
# 5 0.000000 0.000000 0.000000 0.000000 0.036592 0.000000
# 6 0.000000 0.000000 0.000000 0.000000 0.000000 0.024656
#
#
# Mechanical properties :
#
#
# Convention : Reuss Voigt Hill
#
# Bulk Modulus (GPa) = 19.72165 21.52574 20.62369
# Shear Modulus (GPa) = 16.01262 29.84845 22.93054
#
# Velocity S-wave (km/s) = 2.63941 3.60360 3.15851
# Velocity P-wave (km/s) = 4.22714 5.16522 4.71955
#
# Compressibility (1/GPa) = 0.05070571
#
# Stress axis : x y z
#
# Youngs Moduli (GPa) = 83.46514 36.52357 85.68011
#
# Poissons Ratio (x) = -0.01436 -0.19832
# Poissons Ratio (y) = -0.03283 0.24600
# Poissons Ratio (z) = -0.19320 0.10486
#
# Static dielectric constant tensor:
#      x y z
#    x 1.895540 0.000000 0.000000 
#    y 0.000000 1.917830 0.000000 
#    z 0.000000 0.000000 1.805560 
# 
# From -- ./inp_files/12734.got.cif
#   From: 2010.05.17/outbox.cif.g08.bks.cpg/sg58_7_cif.got.tgz:12734.got - 2010.06.03 14:20:14.
