data_PCOD9445502
_publ_section_title
;
Structure prediction by ZEFSAII (Michael W. Deem and Ramdas Pophale) SiO2 
 PCOD9445502
Probable space group: P N N M
;
_chemical_formula_sum "Si O2"
_cell_formula_units_Z 40
_cell_length_a 6.705600
_cell_length_b 15.767697
_cell_length_c 17.252486
_cell_angle_alpha 90.000000
_cell_angle_beta 90.000000
_cell_angle_gamma 90.000000
_cell_volume 1824.137590
_symmetry_space_group_name_H-M "P N N M"
_symmetry_group_IT_number 58
_symmetry_cell_setting 'orthorhombic'
loop_
_space_group_symop_operation_xyz
x,y,z
-x,-y,z
1/2+x,1/2-y,1/2-z
1/2-x,1/2+y,1/2-z
-x,-y,-z
x,y,-z
1/2-x,1/2+y,1/2+z
1/2+x,1/2-y,1/2+z
loop_
_atom_site_type_symbol
_atom_site_label
_atom_site_fract_x
_atom_site_fract_y
_atom_site_fract_z
Si Si1 0.389685 0.922157 0.704336
Si Si2 0.868610 0.733217 0.365762
Si Si3 0.891990 0.083125 0.849177
Si Si4 0.947685 0.098111 0.410261
Si Si5 0.231964 0.682543 0.715812
O O1 0.261221 0.947054 0.781276
O O2 0.579477 0.871612 0.733789
O O3 0.236873 0.880229 0.645275
O O4 0.500000 0.000000 0.663090
O O5 0.732145 0.655751 0.396305
O O6 0.883701 0.828596 0.399414
O O7 0.795747 0.744868 0.276342
O O8 0.098701 0.704818 0.358854
O O9 0.071524 0.133555 0.808439
O O10 0.000000 0.000000 0.885392
O O11 0.891370 0.098167 0.500000
O O12 0.000000 0.000000 0.389205
#
# Coordination Sequence:
#
# PCOD9445502 Si02
#       5
#     8   8   8   8   8
#     4  11  20  32  59  86 120 158 198 247 305 360
#     4  11  21  35  58  86 120 156 199 250 305 366
#     4  11  21  35  58  92 124 152 190 252 323 380
#     4  11  24  42  59  80 120 171 214 248 291 360
#     4  11  19  33  57  87 119 153 189 247 314 366
#
# _framework density 21.928170999999999
#
# number of rings (size 3 to 8) (size 9 to 14) (size 15 to 20)
#    0.000    1.000    6.000    3.000    0.000    0.400 
#    0.000    1.000    0.000    0.600    0.000    1.400 
#    0.000    0.000    0.000    0.000    0.000    0.000 
#
# Total GULP energy -222787.226551 kJ/mol
# GULP energy per Si atom -5569.680664 kJ/mol
# Density = 2.187826 g / cm^3
# Si number density = 21.928171 Si / 1000 Ang^3
#
#
#
# Elastic Constant Matrix: (Units=GPa)
#
#
# Indices 1 2 3 4 5 6 
#
# 1 112.4253 46.1850 8.6290 0.0000 0.0000 0.0000
# 2 46.1850 137.8874 10.1829 0.0000 0.0000 0.0000
# 3 8.6290 10.1829 33.6408 0.0000 0.0000 0.0000
# 4 0.0000 0.0000 0.0000 13.3869 0.0000 0.0000
# 5 0.0000 0.0000 0.0000 0.0000 5.7602 0.0000
# 6 0.0000 0.0000 0.0000 0.0000 0.0000 51.4906
#
#
#
# Elastic Compliance Matrix: (Units=1/GPa)
#
#
# Indices 1 2 3 4 5 6 
#
# 1 0.010403 -0.003362 -0.001651 0.000000 0.000000 0.000000
# 2 -0.003362 0.008505 -0.001712 0.000000 0.000000 0.000000
# 3 -0.001651 -0.001712 0.030667 0.000000 0.000000 0.000000
# 4 0.000000 0.000000 0.000000 0.074700 0.000000 0.000000
# 5 0.000000 0.000000 0.000000 0.000000 0.173604 0.000000
# 6 0.000000 0.000000 0.000000 0.000000 0.000000 0.019421
#
#
# Mechanical properties :
#
#
# Convention : Reuss Voigt Hill
#
# Bulk Modulus (GPa) = 27.68149 45.99414 36.83781
# Shear Modulus (GPa) = 14.58612 28.72464 21.65538
#
# Velocity S-wave (km/s) = 2.58190 3.62324 3.14596
# Velocity P-wave (km/s) = 4.64106 6.20679 5.48013
#
# Compressibility (1/GPa) = 0.03612522
#
# Stress axis : x y z
#
# Youngs Moduli (GPa) = 96.12780 117.57823 32.60793
#
# Poissons Ratio (x) = 0.39536 0.05382
# Poissons Ratio (y) = 0.32323 0.05582
# Poissons Ratio (z) = 0.15866 0.20128
#
# Static dielectric constant tensor:
#      x y z
#    x 1.789870 0.000000 0.000000 
#    y 0.000000 2.036950 0.000000 
#    z 0.000000 0.000000 1.761230 
# 
# From -- ./inp_files/28081.got.cif
#   From: 2010.05.17/outbox.cif.g08.bks.cpg/sg58_15_cif.got.tgz:28081.got - 2010.06.03 14:20:14.
