data_PCOD9445339
_publ_section_title
;
Structure prediction by ZEFSAII (Michael W. Deem and Ramdas Pophale) SiO2 
 PCOD9445339
Probable space group: P N N M
;
_chemical_formula_sum "Si O2"
_cell_formula_units_Z 32
_cell_length_a 7.570100
_cell_length_b 19.557066
_cell_length_c 10.065447
_cell_angle_alpha 90.000000
_cell_angle_beta 90.000000
_cell_angle_gamma 90.000000
_cell_volume 1490.178813
_symmetry_space_group_name_H-M "P N N M"
_symmetry_group_IT_number 58
_symmetry_cell_setting 'orthorhombic'
loop_
_space_group_symop_operation_xyz
x,y,z
-x,-y,z
1/2+x,1/2-y,1/2-z
1/2-x,1/2+y,1/2-z
-x,-y,-z
x,y,-z
1/2-x,1/2+y,1/2+z
1/2+x,1/2-y,1/2+z
loop_
_atom_site_type_symbol
_atom_site_label
_atom_site_fract_x
_atom_site_fract_y
_atom_site_fract_z
Si Si1 0.810749 0.593985 0.649943
Si Si2 0.789045 0.704262 0.853069
Si Si3 0.294571 0.519273 0.148350
Si Si4 0.646385 0.843609 0.252114
O O1 0.744724 0.586927 0.500000
O O2 0.717551 0.653348 0.738483
O O3 0.794977 0.526519 0.738504
O O4 0.014743 0.618213 0.649662
O O5 0.750726 0.781801 0.813619
O O6 0.998567 0.688930 0.849401
O O7 0.717894 0.689114 0.000000
O O8 0.500000 0.500000 0.151494
O O9 0.262164 0.598728 0.178377
O O10 0.225981 0.502843 0.000000
#
# Coordination Sequence:
#
# PCOD9445339 Si02
#       4
#     8   8   8   8
#     4  10  24  43  66  97 131 168 215 269 326 382
#     4  10  23  43  67  95 131 173 216 264 326 389
#     4  11  25  44  68  97 130 173 221 269 323 387
#     4  10  24  41  67  97 129 171 216 271 318 391
#
# _framework density 21.473934
#
# number of rings (size 3 to 8) (size 9 to 14) (size 15 to 20)
#    1.500    0.250    0.000    3.000    3.500    6.500 
#    0.000    0.000    0.000    0.000    0.000    0.000 
#    0.000    0.000    0.000    0.000    0.000    0.000 
#
# Total GULP energy -178419.072849 kJ/mol
# GULP energy per Si atom -5575.596027 kJ/mol
# Density = 2.142506 g / cm^3
# Si number density = 21.473934 Si / 1000 Ang^3
#
#
#
# Elastic Constant Matrix: (Units=GPa)
#
#
# Indices 1 2 3 4 5 6 
#
# 1 44.3071 30.6910 20.1775 0.0000 0.0000 0.0000
# 2 30.6910 136.5472 77.8509 0.0000 0.0000 0.0000
# 3 20.1775 77.8509 207.0527 0.0000 0.0000 0.0000
# 4 0.0000 0.0000 0.0000 11.8412 0.0000 0.0000
# 5 0.0000 0.0000 0.0000 0.0000 8.1646 0.0000
# 6 0.0000 0.0000 0.0000 0.0000 0.0000 48.6148
#
#
#
# Elastic Compliance Matrix: (Units=1/GPa)
#
#
# Indices 1 2 3 4 5 6 
#
# 1 0.026763 -0.005764 -0.000441 0.000000 0.000000 0.000000
# 2 -0.005764 0.010563 -0.003410 0.000000 0.000000 0.000000
# 3 -0.000441 -0.003410 0.006155 0.000000 0.000000 0.000000
# 4 0.000000 0.000000 0.000000 0.084451 0.000000 0.000000
# 5 0.000000 0.000000 0.000000 0.000000 0.122481 0.000000
# 6 0.000000 0.000000 0.000000 0.000000 0.000000 0.020570
#
#
# Mechanical properties :
#
#
# Convention : Reuss Voigt Hill
#
# Bulk Modulus (GPa) = 41.23480 71.70510 56.46995
# Shear Modulus (GPa) = 16.76184 31.00327 23.88256
#
# Velocity S-wave (km/s) = 2.79689 3.80381 3.33853
# Velocity P-wave (km/s) = 5.44739 7.26334 6.41990
#
# Compressibility (1/GPa) = 0.02425136
#
# Stress axis : x y z
#
# Youngs Moduli (GPa) = 37.36473 94.66811 162.47487
#
# Poissons Ratio (x) = 0.54568 0.07162
# Poissons Ratio (y) = 0.21537 0.55404
# Poissons Ratio (z) = 0.01647 0.32282
#
# Static dielectric constant tensor:
#      x y z
#    x 1.803810 0.000000 0.000000 
#    y 0.000000 1.764340 0.000000 
#    z 0.000000 0.000000 1.780920 
# 
# From -- ./inp_files/12600.got.cif
#   From: 2010.05.17/outbox.cif.g08.bks.cpg/sg58_7_cif.got.tgz:12600.got - 2010.06.03 14:20:14.
