data_PCOD9445630
_publ_section_title
;
Structure prediction by ZEFSAII (Michael W. Deem and Ramdas Pophale) SiO2 
 PCOD9445630
Probable space group: P N N M
;
_chemical_formula_sum "Si O2"
_cell_formula_units_Z 48
_cell_length_a 19.787157
_cell_length_b 14.392151
_cell_length_c 8.826232
_cell_angle_alpha 90.000000
_cell_angle_beta 90.000000
_cell_angle_gamma 90.000000
_cell_volume 2513.532155
_symmetry_space_group_name_H-M "P N N M"
_symmetry_group_IT_number 58
_symmetry_cell_setting 'orthorhombic'
loop_
_space_group_symop_operation_xyz
x,y,z
-x,-y,z
1/2+x,1/2-y,1/2-z
1/2-x,1/2+y,1/2-z
-x,-y,-z
x,y,-z
1/2-x,1/2+y,1/2+z
1/2+x,1/2-y,1/2+z
loop_
_atom_site_type_symbol
_atom_site_label
_atom_site_fract_x
_atom_site_fract_y
_atom_site_fract_z
Si Si1 0.162896 0.135500 0.680676
Si Si2 0.786206 0.248586 0.321992
Si Si3 0.058674 0.272663 0.820809
Si Si4 0.219870 0.953698 0.819573
Si Si5 0.865565 0.532098 0.178123
Si Si6 0.927284 0.357992 0.677338
O O1 0.162903 0.130982 0.500000
O O2 0.226795 0.196389 0.737500
O O3 0.096729 0.187864 0.741311
O O4 0.172784 0.033689 0.750936
O O5 0.768036 0.241227 0.500000
O O6 0.856150 0.304213 0.309045
O O7 0.794120 0.146680 0.252041
O O8 0.104550 0.365163 0.800542
O O9 0.986932 0.297432 0.748280
O O10 0.052237 0.255919 0.000000
O O11 0.296818 0.978013 0.772311
O O12 0.214159 0.951304 0.000000
O O13 0.917954 0.454820 0.234865
O O14 0.851177 0.518544 0.000000
O O15 0.940603 0.375316 0.500000
#
# Coordination Sequence:
#
# PCOD9445630 Si02
#       6
#     8   8   8   8   8   8
#     4  12  24  40  65  92 124 164 208 256 310 369
#     4  11  23  41  63  91 126 163 207 257 308 366
#     4  11  24  41  62  90 129 167 208 257 310 372
#     4  12  24  39  63  94 125 161 208 259 309 365
#     4  11  22  37  61  91 127 165 204 254 312 368
#     4  11  24  40  62  91 128 166 208 257 311 373
#
# _framework density 19.096634000000002
#
# number of rings (size 3 to 8) (size 9 to 14) (size 15 to 20)
#    0.000    0.667    3.333    5.500    0.000    6.000 
#    0.000    0.833    0.000    5.000    0.000    0.000 
#    0.000    0.000    0.000    0.000    0.000    0.000 
#
# Total GULP energy -268689.218527 kJ/mol
# GULP energy per Si atom -5597.692053 kJ/mol
# Density = 1.905317 g / cm^3
# Si number density = 19.096634 Si / 1000 Ang^3
#
#
#
# Elastic Constant Matrix: (Units=GPa)
#
#
# Indices 1 2 3 4 5 6 
#
# 1 23.0905 -18.7449 11.0536 0.0000 0.0000 0.0000
# 2 -18.7449 80.9571 24.8451 0.0000 0.0000 0.0000
# 3 11.0536 24.8451 109.3185 0.0000 0.0000 0.0000
# 4 0.0000 0.0000 0.0000 46.3508 0.0000 0.0000
# 5 0.0000 0.0000 0.0000 0.0000 34.2388 0.0000
# 6 0.0000 0.0000 0.0000 0.0000 0.0000 24.5996
#
#
#
# Elastic Compliance Matrix: (Units=1/GPa)
#
#
# Indices 1 2 3 4 5 6 
#
# 1 0.062606 0.017671 -0.010347 0.000000 0.000000 0.000000
# 2 0.017671 0.018266 -0.005938 0.000000 0.000000 0.000000
# 3 -0.010347 -0.005938 0.011543 0.000000 0.000000 0.000000
# 4 0.000000 0.000000 0.000000 0.021575 0.000000 0.000000
# 5 0.000000 0.000000 0.000000 0.000000 0.029207 0.000000
# 6 0.000000 0.000000 0.000000 0.000000 0.000000 0.040651
#
#
# Mechanical properties :
#
#
# Convention : Reuss Voigt Hill
#
# Bulk Modulus (GPa) = 10.50543 27.51929 19.01236
# Shear Modulus (GPa) = 23.49569 34.11864 28.80716
#
# Velocity S-wave (km/s) = 3.51145 4.23144 3.88815
# Velocity P-wave (km/s) = 4.68546 6.18993 5.48948
#
# Compressibility (1/GPa) = 0.09518883
#
# Stress axis : x y z
#
# Youngs Moduli (GPa) = 15.97283 54.74582 86.62988
#
# Poissons Ratio (x) = -0.96743 0.89632
# Poissons Ratio (y) = -0.28226 0.51443
# Poissons Ratio (z) = 0.16526 0.32509
#
# Static dielectric constant tensor:
#      x y z
#    x 1.652590 0.000000 0.000000 
#    y 0.000000 1.655080 0.000000 
#    z 0.000000 0.000000 1.635780 
# 
# From -- ./inp_files/5882.got.cif
#   From: 2010.05.17/outbox.cif.g08.bks.cpg/sg58_3_cif.got.tgz:5882.got - 2010.06.03 14:20:14.
