data_PCOD9445217
_publ_section_title
;
Structure prediction by ZEFSAII (Michael W. Deem and Ramdas Pophale) SiO2 
 PCOD9445217
Probable space group: P N N M
;
_chemical_formula_sum "Si O2"
_cell_formula_units_Z 48
_cell_length_a 9.534544
_cell_length_b 15.025467
_cell_length_c 17.317212
_cell_angle_alpha 90.000000
_cell_angle_beta 90.000000
_cell_angle_gamma 90.000000
_cell_volume 2480.880697
_symmetry_space_group_name_H-M "P N N M"
_symmetry_group_IT_number 58
_symmetry_cell_setting 'orthorhombic'
loop_
_space_group_symop_operation_xyz
x,y,z
-x,-y,z
1/2+x,1/2-y,1/2-z
1/2-x,1/2+y,1/2-z
-x,-y,-z
x,y,-z
1/2-x,1/2+y,1/2+z
1/2+x,1/2-y,1/2+z
loop_
_atom_site_type_symbol
_atom_site_label
_atom_site_fract_x
_atom_site_fract_y
_atom_site_fract_z
Si Si1 0.025649 0.748862 0.661382
Si Si2 0.046638 0.851422 0.500000
Si Si3 0.369184 0.442096 0.409370
Si Si4 0.309626 0.267908 0.688732
Si Si5 0.143772 0.552604 0.671296
Si Si6 0.365721 0.065341 0.340135
Si Si7 0.282242 0.518253 0.000000
O O1 0.034858 0.796072 0.578749
O O2 0.121342 0.792105 0.728600
O O3 0.097649 0.652413 0.653306
O O4 0.860961 0.742766 0.687195
O O5 0.919206 0.920566 0.500000
O O6 0.183262 0.913689 0.500000
O O7 0.500000 0.500000 0.380348
O O8 0.385997 0.426463 0.500000
O O9 0.347652 0.348285 0.367855
O O10 0.238141 0.505100 0.391232
O O11 0.380054 0.173260 0.663755
O O12 0.210865 0.547556 0.757586
O O13 0.000000 0.500000 0.675829
O O14 0.293192 0.042400 0.420326
O O15 0.500000 0.000000 0.338428
#
# Coordination Sequence:
#
# PCOD9445217 Si02
#       7
#     8   4   8   8   8   8   4
#     4  11  25  44  68 103 132 182 223 279 338 408
#     4  11  26  40  65  98 138 169 223 276 337 399
#     4  11  27  45  66  99 137 180 223 282 347 397
#     4  11  25  45  72  95 138 176 227 277 344 398
#     4  10  22  43  69  96 128 172 229 279 327 403
#     4  10  23  43  67  97 131 174 224 271 333 399
#     4  11  23  42  64 100 130 175 219 272 337 394
#
# _framework density 19.347967000000001
#
# number of rings (size 3 to 8) (size 9 to 14) (size 15 to 20)
#    0.000    1.333    3.333    0.250   10.500    0.333 
#    0.000    0.000    0.000    0.000    0.000    0.000 
#    0.000    0.000    0.000    0.000    0.000    0.000 
#
# Total GULP energy -267615.851835 kJ/mol
# GULP energy per Si atom -5575.330247 kJ/mol
# Density = 1.930393 g / cm^3
# Si number density = 19.347967 Si / 1000 Ang^3
#
#
#
# Elastic Constant Matrix: (Units=GPa)
#
#
# Indices 1 2 3 4 5 6 
#
# 1 63.4872 38.5913 50.9154 0.0000 0.0000 0.0000
# 2 38.5913 95.1911 39.4640 0.0000 0.0000 0.0000
# 3 50.9154 39.4640 111.0607 0.0000 0.0000 0.0000
# 4 0.0000 0.0000 0.0000 -687.8874 0.0000 0.0000
# 5 0.0000 0.0000 0.0000 0.0000 44.5407 0.0000
# 6 0.0000 0.0000 0.0000 0.0000 0.0000 27.2123
#
#
#
# Elastic Compliance Matrix: (Units=1/GPa)
#
#
# Indices 1 2 3 4 5 6 
#
# 1 0.028597 -0.007222 -0.010544 0.000000 0.000000 0.000000
# 2 -0.007222 0.014144 -0.001715 0.000000 0.000000 0.000000
# 3 -0.010544 -0.001715 0.014447 0.000000 0.000000 0.000000
# 4 0.000000 0.000000 0.000000 -0.001454 0.000000 0.000000
# 5 0.000000 0.000000 0.000000 0.000000 0.022451 0.000000
# 6 0.000000 0.000000 0.000000 0.000000 0.000000 0.036748
#
#
# Mechanical properties :
#
#
# Convention : Reuss Voigt Hill
#
# Bulk Modulus (GPa) = 54.86547 58.63115 56.74831
# Shear Modulus (GPa) = 31.25534 -113.84234 -41.29350
#
# Velocity S-wave (km/s) = 4.02361 -7.67901 -4.62481
# Velocity P-wave (km/s) = 7.07140 6.94648 0.93570
#
# Compressibility (1/GPa) = 0.01822640
#
# Stress axis : x y z
#
# Youngs Moduli (GPa) = 34.96816 70.70071 69.21697
#
# Poissons Ratio (x) = 0.51062 0.72983
# Poissons Ratio (y) = 0.25255 0.11870
# Poissons Ratio (z) = 0.36871 0.12124
#
# Static dielectric constant tensor:
#      x y z
#    x 1.685030 0.000000 0.000000 
#    y 0.000000 1.671560 0.000000 
#    z 0.000000 0.000000 1.704130 
# 
# From -- ./inp_files/25349.got.cif
#   From: 2010.05.17/outbox.cif.g08.bks.cpg/sg58_13_cif.got.tgz:25349.got - 2010.06.03 14:20:14.
