data_PCOD9445556
_publ_section_title
;
Structure prediction by ZEFSAII (Michael W. Deem and Ramdas Pophale) SiO2 
 PCOD9445556
Probable space group: P N N M
;
_chemical_formula_sum "Si O2"
_cell_formula_units_Z 48
_cell_length_a 18.624882
_cell_length_b 17.044759
_cell_length_c 7.851948
_cell_angle_alpha 90.000000
_cell_angle_beta 90.000000
_cell_angle_gamma 90.000000
_cell_volume 2492.652912
_symmetry_space_group_name_H-M "P N N M"
_symmetry_group_IT_number 58
_symmetry_cell_setting 'orthorhombic'
loop_
_space_group_symop_operation_xyz
x,y,z
-x,-y,z
1/2+x,1/2-y,1/2-z
1/2-x,1/2+y,1/2-z
-x,-y,-z
x,y,-z
1/2-x,1/2+y,1/2+z
1/2+x,1/2-y,1/2+z
loop_
_atom_site_type_symbol
_atom_site_label
_atom_site_fract_x
_atom_site_fract_y
_atom_site_fract_z
Si Si1 0.950246 0.255175 0.207472
Si Si2 0.597814 0.329719 0.706020
Si Si3 0.325161 0.351532 0.697910
Si Si4 0.976759 0.585777 0.208584
Si Si5 0.081614 0.997566 0.699198
Si Si6 0.165159 0.329064 0.798621
O O1 0.876772 0.216742 0.271013
O O2 0.017695 0.199782 0.254061
O O3 0.969931 0.343468 0.259864
O O4 0.948288 0.254785 0.000000
O O5 0.600371 0.336264 0.500000
O O6 0.612153 0.415072 0.779601
O O7 0.649838 0.259392 0.764982
O O8 0.314564 0.334335 0.500000
O O9 0.369408 0.431909 0.715936
O O10 0.246077 0.355707 0.773512
O O11 0.897255 0.612879 0.266231
O O12 0.000000 0.500000 0.268124
O O13 0.977205 0.583704 0.000000
O O14 0.077416 0.977159 0.500000
O O15 0.000000 0.000000 0.769027
O O16 0.151750 0.324203 0.000000
#
# Coordination Sequence:
#
# PCOD9445556 Si02
#       6
#     8   8   8   8   8   8
#     4   8  15  28  49  74  97 133 179 212 246 310
#     4   9  17  34  56  74 101 142 180 213 260 321
#     4  11  21  34  53  76 110 147 180 216 262 328
#     4   8  14  29  54  78 100 132 176 221 261 304
#     4  11  22  34  53  82 110 135 177 231 277 319
#     4   9  19  35  54  78 109 139 173 223 273 314
#
# _framework density 19.256591
#
# number of rings (size 3 to 8) (size 9 to 14) (size 15 to 20)
#    0.000    2.667    1.667    3.000    0.000    1.333 
#    3.000    0.000    0.000    0.500    0.000    0.000 
#    0.000    0.000    0.000    0.000    0.000    0.000 
#
# Total GULP energy -267648.204027 kJ/mol
# GULP energy per Si atom -5576.004251 kJ/mol
# Density = 1.921276 g / cm^3
# Si number density = 19.256591 Si / 1000 Ang^3
#
#
#
# Elastic Constant Matrix: (Units=GPa)
#
#
# Indices 1 2 3 4 5 6 
#
# 1 115.5698 70.2464 -4.2749 0.0000 0.0000 0.0000
# 2 70.2464 143.2200 -9.1464 0.0000 0.0000 0.0000
# 3 -4.2749 -9.1464 16.9105 0.0000 0.0000 0.0000
# 4 0.0000 0.0000 0.0000 -8.7819 0.0000 0.0000
# 5 0.0000 0.0000 0.0000 0.0000 11.4477 0.0000
# 6 0.0000 0.0000 0.0000 0.0000 0.0000 21.6950
#
#
#
# Elastic Compliance Matrix: (Units=1/GPa)
#
#
# Indices 1 2 3 4 5 6 
#
# 1 0.012329 -0.006057 -0.000160 0.000000 0.000000 0.000000
# 2 -0.006057 0.010208 0.003990 0.000000 0.000000 0.000000
# 3 -0.000160 0.003990 0.061252 0.000000 0.000000 0.000000
# 4 0.000000 0.000000 0.000000 -0.113871 0.000000 0.000000
# 5 0.000000 0.000000 0.000000 0.000000 0.087354 0.000000
# 6 0.000000 0.000000 0.000000 0.000000 0.000000 0.046094
#
#
# Mechanical properties :
#
#
# Convention : Reuss Voigt Hill
#
# Bulk Modulus (GPa) = 12.60467 43.26118 27.93293
# Shear Modulus (GPa) = 37.24025 19.46386 28.35205
#
# Velocity S-wave (km/s) = 4.40238 3.18270 3.84126
# Velocity P-wave (km/s) = 5.69220 6.00171 5.84900
#
# Compressibility (1/GPa) = 0.07933567
#
# Stress axis : x y z
#
# Youngs Moduli (GPa) = 81.11273 97.96298 16.32588
#
# Poissons Ratio (x) = 0.59337 0.00260
# Poissons Ratio (y) = 0.49131 -0.06514
# Poissons Ratio (z) = 0.01294 -0.39087
#
# Static dielectric constant tensor:
#      x y z
#    x 1.662820 0.000000 0.000000 
#    y 0.000000 1.667910 0.000000 
#    z 0.000000 0.000000 1.702700 
# 
# From -- ./inp_files/5795.got.cif
#   From: 2010.05.17/outbox.cif.g08.bks.cpg/sg58_3_cif.got.tgz:5795.got - 2010.06.03 14:20:14.
