data_PCOD9445824
_publ_section_title
;
Structure prediction by ZEFSAII (Michael W. Deem and Ramdas Pophale) SiO2 
 PCOD9445824
Probable space group: P N N M
;
_chemical_formula_sum "Si O2"
_cell_formula_units_Z 28
_cell_length_a 9.992071
_cell_length_b 7.815943
_cell_length_c 14.987466
_cell_angle_alpha 90.000000
_cell_angle_beta 90.000000
_cell_angle_gamma 90.000000
_cell_volume 1170.482987
_symmetry_space_group_name_H-M "P N N M"
_symmetry_group_IT_number 58
_symmetry_cell_setting 'orthorhombic'
loop_
_space_group_symop_operation_xyz
x,y,z
-x,-y,z
1/2+x,1/2-y,1/2-z
1/2-x,1/2+y,1/2-z
-x,-y,-z
x,y,-z
1/2-x,1/2+y,1/2+z
1/2+x,1/2-y,1/2+z
loop_
_atom_site_type_symbol
_atom_site_label
_atom_site_fract_x
_atom_site_fract_y
_atom_site_fract_z
Si Si1 0.209880 0.389213 0.000000
Si Si2 0.783063 0.985014 0.000000
Si Si3 0.543164 0.799660 0.817041
Si Si4 0.143267 0.200004 0.841054
Si Si5 0.413323 0.700063 0.000000
O O1 0.126428 0.360961 0.090293
O O2 0.284471 0.203087 0.000000
O O3 0.308529 0.544608 0.000000
O O4 0.859976 0.966166 0.906613
O O5 0.677659 0.131077 0.000000
O O6 0.703636 0.789657 0.805208
O O7 0.463226 0.714203 0.736028
O O8 0.492328 0.706558 0.906877
O O9 0.500000 0.000000 0.822787
#
# Coordination Sequence:
#
# PCOD9445824 Si02
#       5
#     4   4   8   8   4
#     4   8  21  42  63 100 130 178 226 267 330 409
#     4   8  19  45  60  97 133 176 218 278 322 407
#     4  12  23  42  69 101 133 179 221 283 336 394
#     4   9  23  42  66  94 139 169 226 275 332 401
#     4  12  21  38  76  92 134 182 227 274 328 395
#
# _framework density 23.921748999999998
#
# number of rings (size 3 to 8) (size 9 to 14) (size 15 to 20)
#    1.714    0.000    2.857    2.143    4.000    2.286 
#    0.000    5.714    0.000    1.714    0.000    0.000 
#    0.000    0.000    0.000    0.000    0.000    0.000 
#
# Total GULP energy -156232.035478 kJ/mol
# GULP energy per Si atom -5579.715553 kJ/mol
# Density = 2.386730 g / cm^3
# Si number density = 23.921749 Si / 1000 Ang^3
#
#
#
# Elastic Constant Matrix: (Units=GPa)
#
#
# Indices 1 2 3 4 5 6 
#
# 1 131.0598 -1.3166 82.3559 0.0000 0.0000 0.0000
# 2 -1.3166 58.7726 15.4752 0.0000 0.0000 0.0000
# 3 82.3559 15.4752 185.7876 0.0000 0.0000 0.0000
# 4 0.0000 0.0000 0.0000 9.3290 0.0000 0.0000
# 5 0.0000 0.0000 0.0000 0.0000 -7.1835 0.0000
# 6 0.0000 0.0000 0.0000 0.0000 0.0000 20.1796
#
#
#
# Elastic Compliance Matrix: (Units=1/GPa)
#
#
# Indices 1 2 3 4 5 6 
#
# 1 0.010708 0.001523 -0.004873 0.000000 0.000000 0.000000
# 2 0.001523 0.017613 -0.002142 0.000000 0.000000 0.000000
# 3 -0.004873 -0.002142 0.007721 0.000000 0.000000 0.000000
# 4 0.000000 0.000000 0.000000 0.107192 0.000000 0.000000
# 5 0.000000 0.000000 0.000000 0.000000 -0.139208 0.000000
# 6 0.000000 0.000000 0.000000 0.000000 0.000000 0.049555
#
#
# Mechanical properties :
#
#
# Convention : Reuss Voigt Hill
#
# Bulk Modulus (GPa) = 39.90936 63.18323 51.54630
# Shear Modulus (GPa) = 68.57010 23.07207 45.82108
#
# Velocity S-wave (km/s) = 5.35972 3.10898 4.38134
# Velocity P-wave (km/s) = 7.41765 6.27355 6.86946
#
# Compressibility (1/GPa) = 0.02505678
#
# Stress axis : x y z
#
# Youngs Moduli (GPa) = 93.39002 56.77658 129.51334
#
# Poissons Ratio (x) = -0.08647 0.63117
# Poissons Ratio (y) = -0.14224 0.27745
# Poissons Ratio (z) = 0.45513 0.12163
#
# Static dielectric constant tensor:
#      x y z
#    x 1.906430 0.000000 0.000000 
#    y 0.000000 1.935880 0.000000 
#    z 0.000000 0.000000 2.029400 
# 
# From -- ./inp_files/19038.got.cif
#   From: 2010.05.17/outbox.cif.g08.bks.cpg/sg58_10_cif.got.tgz:19038.got - 2010.06.03 14:20:14.
