data_PCOD9445552
_publ_section_title
;
Structure prediction by ZEFSAII (Michael W. Deem and Ramdas Pophale) SiO2 
 PCOD9445552
Probable space group: P N N M
;
_chemical_formula_sum "Si O2"
_cell_formula_units_Z 48
_cell_length_a 11.676903
_cell_length_b 17.972905
_cell_length_c 12.897858
_cell_angle_alpha 90.000000
_cell_angle_beta 90.000000
_cell_angle_gamma 90.000000
_cell_volume 2706.845964
_symmetry_space_group_name_H-M "P N N M"
_symmetry_group_IT_number 58
_symmetry_cell_setting 'orthorhombic'
loop_
_space_group_symop_operation_xyz
x,y,z
-x,-y,z
1/2+x,1/2-y,1/2-z
1/2-x,1/2+y,1/2-z
-x,-y,-z
x,y,-z
1/2-x,1/2+y,1/2+z
1/2+x,1/2-y,1/2+z
loop_
_atom_site_type_symbol
_atom_site_label
_atom_site_fract_x
_atom_site_fract_y
_atom_site_fract_z
Si Si1 0.061147 0.208544 0.314444
Si Si2 0.136560 0.506739 0.381233
Si Si3 0.307037 0.291566 0.880982
Si Si4 0.434183 0.246226 0.616525
Si Si5 0.288584 0.142840 0.253819
Si Si6 0.784413 0.656557 0.671971
O O1 0.166416 0.151293 0.311358
O O2 0.112081 0.287000 0.354138
O O3 0.942682 0.189150 0.370177
O O4 0.027648 0.222664 0.194796
O O5 0.156295 0.531558 0.500000
O O6 0.187517 0.565440 0.300458
O O7 0.190793 0.425484 0.365750
O O8 0.000000 0.500000 0.365908
O O9 0.295163 0.208007 0.834068
O O10 0.238121 0.340163 0.796320
O O11 0.271699 0.297253 0.000000
O O12 0.473332 0.238260 0.500000
O O13 0.384928 0.169817 0.664791
O O14 0.327930 0.304269 0.624009
#
# Coordination Sequence:
#
# PCOD9445552 Si02
#       6
#     8   8   8   8   8   8
#     4   8  17  31  50  72  96 124 162 202 233 279
#     4  11  21  33  51  73  99 128 155 191 244 299
#     4   9  17  32  53  73  95 128 167 204 240 278
#     4   9  17  31  50  70  94 127 163 198 236 276
#     4   9  19  32  47  74 103 125 158 201 240 284
#     4   9  19  33  48  73 103 126 156 199 241 284
#
# _framework density 17.732816
#
# number of rings (size 3 to 8) (size 9 to 14) (size 15 to 20)
#    0.000    3.500    0.000    3.000    0.000    8.000 
#    0.000    4.167    0.000    8.000    0.000    0.000 
#    0.000    0.000    0.000    0.000    0.000    0.000 
#
# Total GULP energy -267424.772000 kJ/mol
# GULP energy per Si atom -5571.349417 kJ/mol
# Density = 1.769246 g / cm^3
# Si number density = 17.732816 Si / 1000 Ang^3
#
#
#
# Elastic Constant Matrix: (Units=GPa)
#
#
# Indices 1 2 3 4 5 6 
#
# 1 41.4157 3.8568 -15.1964 0.0000 0.0000 0.0000
# 2 3.8568 77.2287 -1.9956 0.0000 0.0000 0.0000
# 3 -15.1964 -1.9956 65.5850 0.0000 0.0000 0.0000
# 4 0.0000 0.0000 0.0000 17.1614 0.0000 0.0000
# 5 0.0000 0.0000 0.0000 0.0000 4.0970 0.0000
# 6 0.0000 0.0000 0.0000 0.0000 0.0000 6.4268
#
#
#
# Elastic Compliance Matrix: (Units=1/GPa)
#
#
# Indices 1 2 3 4 5 6 
#
# 1 0.026493 -0.001165 0.006103 0.000000 0.000000 0.000000
# 2 -0.001165 0.013010 0.000126 0.000000 0.000000 0.000000
# 3 0.006103 0.000126 0.016665 0.000000 0.000000 0.000000
# 4 0.000000 0.000000 0.000000 0.058270 0.000000 0.000000
# 5 0.000000 0.000000 0.000000 0.000000 0.244079 0.000000
# 6 0.000000 0.000000 0.000000 0.000000 0.000000 0.155598
#
#
# Mechanical properties :
#
#
# Convention : Reuss Voigt Hill
#
# Bulk Modulus (GPa) = 15.08385 17.50655 16.29520
# Shear Modulus (GPa) = 9.50411 18.70803 14.10607
#
# Velocity S-wave (km/s) = 2.31760 3.25159 2.82348
# Velocity P-wave (km/s) = 3.96060 4.89806 4.45406
#
# Compressibility (1/GPa) = 0.06629608
#
# Stress axis : x y z
#
# Youngs Moduli (GPa) = 37.74530 76.86398 60.00472
#
# Poissons Ratio (x) = 0.08957 -0.36622
# Poissons Ratio (y) = 0.04399 -0.00755
# Poissons Ratio (z) = -0.23037 -0.00967
#
# Static dielectric constant tensor:
#      x y z
#    x 1.645560 0.000000 0.000000 
#    y 0.000000 1.571810 0.000000 
#    z 0.000000 0.000000 1.625190 
# 
# From -- ./inp_files/21358.got.cif
#   From: 2010.05.17/outbox.cif.g08.bks.cpg/sg58_11_cif.got.tgz:21358.got - 2010.06.03 14:20:14.
