data_PCOD9445795
_publ_section_title
;
Structure prediction by ZEFSAII (Michael W. Deem and Ramdas Pophale) SiO2 
 PCOD9445795
Probable space group: P N N M
;
_chemical_formula_sum "Si O2"
_cell_formula_units_Z 34
_cell_length_a 8.365729
_cell_length_b 8.393382
_cell_length_c 21.758745
_cell_angle_alpha 90.000000
_cell_angle_beta 90.000000
_cell_angle_gamma 90.000000
_cell_volume 1527.828558
_symmetry_space_group_name_H-M "P N N M"
_symmetry_group_IT_number 58
_symmetry_cell_setting 'orthorhombic'
loop_
_space_group_symop_operation_xyz
x,y,z
-x,-y,z
1/2+x,1/2-y,1/2-z
1/2-x,1/2+y,1/2-z
-x,-y,-z
x,y,-z
1/2-x,1/2+y,1/2+z
1/2+x,1/2-y,1/2+z
loop_
_atom_site_type_symbol
_atom_site_label
_atom_site_fract_x
_atom_site_fract_y
_atom_site_fract_z
Si Si1 0.175914 0.072705 0.806106
Si Si2 0.833187 0.754551 0.322747
Si Si3 0.000000 0.500000 0.500000
Si Si4 0.678840 0.931325 0.566819
Si Si5 0.857825 0.244629 0.599742
O O1 0.198217 0.159469 0.741376
O O2 0.205769 0.186392 0.863874
O O3 0.302477 0.930865 0.812740
O O4 0.000000 0.000000 0.807517
O O5 0.009773 0.787465 0.348032
O O6 0.717543 0.817676 0.376567
O O7 0.069033 0.625333 0.553452
O O8 0.699784 0.849504 0.500000
O O9 0.801315 0.079585 0.570159
O O10 0.500000 0.000000 0.570018
#
# Coordination Sequence:
#
# PCOD9445795 Si02
#       5
#     8   8   2   8   8
#     4  12  25  43  67 100 137 176 229 289 355 417
#     4  12  25  43  69 100 134 183 231 286 352 427
#     4  12  24  48  74 104 142 192 242 300 354 444
#     4  11  25  43  67 100 137 178 227 287 349 415
#     4  12  25  47  72 102 140 186 240 290 355 437
#
# _framework density 22.253806000000001
#
# number of rings (size 3 to 8) (size 9 to 14) (size 15 to 20)
#    0.000    0.235    3.529    6.353    1.647    2.824 
#    0.000    0.588    0.000    0.000    0.000    0.000 
#    0.000    0.000    0.000    0.000    0.000    0.000 
#
# Total GULP energy -189939.523908 kJ/mol
# GULP energy per Si atom -5586.456586 kJ/mol
# Density = 2.220316 g / cm^3
# Si number density = 22.253806 Si / 1000 Ang^3
#
#
#
# Elastic Constant Matrix: (Units=GPa)
#
#
# Indices 1 2 3 4 5 6 
#
# 1 51.9716 -10.3571 -6.1845 0.0000 0.0000 0.0000
# 2 -10.3571 50.6405 30.0590 0.0000 0.0000 0.0000
# 3 -6.1845 30.0590 138.4016 0.0000 0.0000 0.0000
# 4 0.0000 0.0000 0.0000 23.8076 0.0000 0.0000
# 5 0.0000 0.0000 0.0000 0.0000 3.0567 0.0000
# 6 0.0000 0.0000 0.0000 0.0000 0.0000 28.4459
#
#
#
# Elastic Compliance Matrix: (Units=1/GPa)
#
#
# Indices 1 2 3 4 5 6 
#
# 1 0.020059 0.004099 0.000006 0.000000 0.000000 0.000000
# 2 0.004099 0.023507 -0.004922 0.000000 0.000000 0.000000
# 3 0.000006 -0.004922 0.008295 0.000000 0.000000 0.000000
# 4 0.000000 0.000000 0.000000 0.042003 0.000000 0.000000
# 5 0.000000 0.000000 0.000000 0.000000 0.327150 0.000000
# 6 0.000000 0.000000 0.000000 0.000000 0.000000 0.035155
#
#
# Mechanical properties :
#
#
# Convention : Reuss Voigt Hill
#
# Bulk Modulus (GPa) = 19.91003 29.78318 24.84661
# Shear Modulus (GPa) = 10.53640 26.22845 18.38243
#
# Velocity S-wave (km/s) = 2.17829 3.43681 2.87720
# Velocity P-wave (km/s) = 3.91060 5.40012 4.71456
#
# Compressibility (1/GPa) = 0.05022594
#
# Stress axis : x y z
#
# Youngs Moduli (GPa) = 49.85332 42.54040 120.55925
#
# Poissons Ratio (x) = -0.17437 -0.00074
# Poissons Ratio (y) = -0.20434 0.59343
# Poissons Ratio (z) = -0.00031 0.20940
#
# Static dielectric constant tensor:
#      x y z
#    x 1.850710 0.000000 0.000000 
#    y 0.000000 1.803760 0.000000 
#    z 0.000000 0.000000 1.785770 
# 
# From -- ./inp_files/28523.got.cif
#   From: 2010.05.17/outbox.cif.g08.bks.cpg/sg58_15_cif.got.tgz:28523.got - 2010.06.03 14:20:14.
