data_PCOD9445309
_publ_section_title
;
Structure prediction by ZEFSAII (Michael W. Deem and Ramdas Pophale) SiO2 
 PCOD9445309
Probable space group: P N N M
;
_chemical_formula_sum "Si O2"
_cell_formula_units_Z 48
_cell_length_a 14.168871
_cell_length_b 20.648190
_cell_length_c 8.437414
_cell_angle_alpha 90.000000
_cell_angle_beta 90.000000
_cell_angle_gamma 90.000000
_cell_volume 2468.462838
_symmetry_space_group_name_H-M "P N N M"
_symmetry_group_IT_number 58
_symmetry_cell_setting 'orthorhombic'
loop_
_space_group_symop_operation_xyz
x,y,z
-x,-y,z
1/2+x,1/2-y,1/2-z
1/2-x,1/2+y,1/2-z
-x,-y,-z
x,y,-z
1/2-x,1/2+y,1/2+z
1/2+x,1/2-y,1/2+z
loop_
_atom_site_type_symbol
_atom_site_label
_atom_site_fract_x
_atom_site_fract_y
_atom_site_fract_z
Si Si1 0.047108 0.932436 0.308847
Si Si2 0.029368 0.200569 0.817547
Si Si3 0.589384 0.814790 0.814715
Si Si4 0.225622 0.240242 0.316241
Si Si5 0.747510 0.115418 0.688978
Si Si6 0.047423 0.432032 0.691616
O O1 0.038650 0.927065 0.500000
O O2 0.158119 0.924599 0.269523
O O3 0.993800 0.872354 0.230424
O O4 0.000000 0.000000 0.260528
O O5 0.137986 0.217649 0.788750
O O6 0.969363 0.249050 0.709066
O O7 0.003080 0.212234 0.000000
O O8 0.684925 0.804921 0.718197
O O9 0.522385 0.873505 0.761724
O O10 0.611926 0.823769 0.000000
O O11 0.198389 0.237524 0.500000
O O12 0.250528 0.314284 0.271618
O O13 0.747579 0.125949 0.500000
O O14 0.650806 0.080308 0.738029
O O15 0.055916 0.430447 0.500000
O O16 0.000000 0.500000 0.737198
#
# Coordination Sequence:
#
# PCOD9445309 Si02
#       6
#     8   8   8   8   8   8
#     4  10  23  43  65  92 130 171 210 261 321 377
#     4  12  24  39  63  94 126 164 212 261 312 374
#     4  11  22  39  63  92 126 163 208 261 313 372
#     4  12  24  39  63  93 127 166 211 266 317 372
#     4  11  22  38  64  92 123 164 211 261 317 381
#     4  10  23  42  64  91 128 169 208 257 317 378
#
# _framework density 19.445301000000001
#
# number of rings (size 3 to 8) (size 9 to 14) (size 15 to 20)
#    0.000    1.000    3.333    4.000    0.000    3.333 
#    0.000    3.333    0.000    0.000    0.000    0.000 
#    0.000    0.000    0.000    0.000    0.000    0.000 
#
# Total GULP energy -268426.797417 kJ/mol
# GULP energy per Si atom -5592.224946 kJ/mol
# Density = 1.940104 g / cm^3
# Si number density = 19.445301 Si / 1000 Ang^3
#
#
#
# Elastic Constant Matrix: (Units=GPa)
#
#
# Indices 1 2 3 4 5 6 
#
# 1 72.5673 14.2977 -0.4554 0.0000 0.0000 0.0000
# 2 14.2977 91.5420 11.2755 0.0000 0.0000 0.0000
# 3 -0.4554 11.2755 35.7915 0.0000 0.0000 0.0000
# 4 0.0000 0.0000 0.0000 9.6669 0.0000 0.0000
# 5 0.0000 0.0000 0.0000 0.0000 25.5532 0.0000
# 6 0.0000 0.0000 0.0000 0.0000 0.0000 31.5424
#
#
#
# Elastic Compliance Matrix: (Units=1/GPa)
#
#
# Indices 1 2 3 4 5 6 
#
# 1 0.014247 -0.002338 0.000918 0.000000 0.000000 0.000000
# 2 -0.002338 0.011749 -0.003731 0.000000 0.000000 0.000000
# 3 0.000918 -0.003731 0.029127 0.000000 0.000000 0.000000
# 4 0.000000 0.000000 0.000000 0.103445 0.000000 0.000000
# 5 0.000000 0.000000 0.000000 0.000000 0.039134 0.000000
# 6 0.000000 0.000000 0.000000 0.000000 0.000000 0.031703
#
#
# Mechanical properties :
#
#
# Convention : Reuss Voigt Hill
#
# Bulk Modulus (GPa) = 22.31172 27.79294 25.05233
# Shear Modulus (GPa) = 19.63500 25.00471 22.31985
#
# Velocity S-wave (km/s) = 3.18111 3.58983 3.39164
# Velocity P-wave (km/s) = 4.99916 5.61306 5.31498
#
# Compressibility (1/GPa) = 0.04481949
#
# Stress axis : x y z
#
# Youngs Moduli (GPa) = 70.19139 85.11576 34.33280
#
# Poissons Ratio (x) = 0.19902 -0.03151
# Poissons Ratio (y) = 0.16412 0.12809
# Poissons Ratio (z) = -0.06443 0.31757
#
# Static dielectric constant tensor:
#      x y z
#    x 1.671420 0.000000 0.000000 
#    y 0.000000 1.647720 0.000000 
#    z 0.000000 0.000000 1.659580 
# 
# From -- ./inp_files/5830.got.cif
#   From: 2010.05.17/outbox.cif.g08.bks.cpg/sg58_3_cif.got.tgz:5830.got - 2010.06.03 14:20:14.
