data_PCOD9445082
_publ_section_title
;
Structure prediction by ZEFSAII (Michael W. Deem and Ramdas Pophale) SiO2 
 PCOD9445082
Probable space group: P N N M
;
_chemical_formula_sum "Si O2"
_cell_formula_units_Z 32
_cell_length_a 10.214270
_cell_length_b 8.624784
_cell_length_c 16.374291
_cell_angle_alpha 90.000000
_cell_angle_beta 90.000000
_cell_angle_gamma 90.000000
_cell_volume 1442.507452
_symmetry_space_group_name_H-M "P N N M"
_symmetry_group_IT_number 58
_symmetry_cell_setting 'orthorhombic'
loop_
_space_group_symop_operation_xyz
x,y,z
-x,-y,z
1/2+x,1/2-y,1/2-z
1/2-x,1/2+y,1/2-z
-x,-y,-z
x,y,-z
1/2-x,1/2+y,1/2+z
1/2+x,1/2-y,1/2+z
loop_
_atom_site_type_symbol
_atom_site_label
_atom_site_fract_x
_atom_site_fract_y
_atom_site_fract_z
Si Si1 0.513148 0.182029 0.686150
Si Si2 0.852046 0.059213 0.410417
Si Si3 0.267666 0.388481 0.734259
Si Si4 0.789681 0.872355 0.910837
O O1 0.383965 0.267197 0.717355
O O2 0.578990 0.276245 0.611764
O O3 0.500000 0.000000 0.666489
O O4 0.625892 0.188001 0.755338
O O5 0.796763 0.005473 0.500000
O O6 0.792547 0.024779 0.321219
O O7 0.826151 0.244620 0.411533
O O8 0.000000 0.000000 0.408859
O O9 0.267617 0.505634 0.659710
O O10 0.800084 0.943827 0.000000
#
# Coordination Sequence:
#
# PCOD9445082 Si02
#       4
#     8   8   8   8
#     4  11  23  39  62  93 128 170 216 265 322 381
#     4   9  18  35  61  91 123 162 209 261 315 372
#     4  11  23  41  65  93 131 171 214 266 320 382
#     4  10  22  40  64  95 129 168 214 263 321 387
#
# _framework density 22.183593999999999
#
# number of rings (size 3 to 8) (size 9 to 14) (size 15 to 20)
#    0.000    1.750    0.000    5.250    0.000    4.500 
#    0.000    1.250    0.000   21.000    0.000    7.000 
#    0.000    0.000    0.000    0.000    0.000    0.000 
#
# Total GULP energy -178552.783292 kJ/mol
# GULP energy per Si atom -5579.774478 kJ/mol
# Density = 2.213310 g / cm^3
# Si number density = 22.183594 Si / 1000 Ang^3
#
#
#
# Elastic Constant Matrix: (Units=GPa)
#
#
# Indices 1 2 3 4 5 6 
#
# 1 105.9051 47.3909 25.6304 0.0000 0.0000 0.0000
# 2 47.3909 66.1575 62.2714 0.0000 0.0000 0.0000
# 3 25.6304 62.2714 205.6284 0.0000 0.0000 0.0000
# 4 0.0000 0.0000 0.0000 31.9456 0.0000 0.0000
# 5 0.0000 0.0000 0.0000 0.0000 12.2713 0.0000
# 6 0.0000 0.0000 0.0000 0.0000 0.0000 40.5861
#
#
#
# Elastic Compliance Matrix: (Units=1/GPa)
#
#
# Indices 1 2 3 4 5 6 
#
# 1 0.014387 -0.012054 0.001857 0.000000 0.000000 0.000000
# 2 -0.012054 0.031241 -0.007958 0.000000 0.000000 0.000000
# 3 0.001857 -0.007958 0.007042 0.000000 0.000000 0.000000
# 4 0.000000 0.000000 0.000000 0.031303 0.000000 0.000000
# 5 0.000000 0.000000 0.000000 0.000000 0.081491 0.000000
# 6 0.000000 0.000000 0.000000 0.000000 0.000000 0.024639
#
#
# Mechanical properties :
#
#
# Convention : Reuss Voigt Hill
#
# Bulk Modulus (GPa) = 61.12735 72.03070 66.57903
# Shear Modulus (GPa) = 21.56418 33.12047 27.34233
#
# Velocity S-wave (km/s) = 3.12120 3.86815 3.51457
# Velocity P-wave (km/s) = 6.37214 7.24506 6.82257
#
# Compressibility (1/GPa) = 0.01635929
#
# Stress axis : x y z
#
# Youngs Moduli (GPa) = 69.50790 32.00937 142.01039
#
# Poissons Ratio (x) = 0.38583 -0.26372
# Poissons Ratio (y) = 0.83783 1.13017
# Poissons Ratio (z) = -0.12908 0.25474
#
# Static dielectric constant tensor:
#      x y z
#    x 1.848440 0.000000 0.000000 
#    y 0.000000 1.846830 0.000000 
#    z 0.000000 0.000000 1.854780 
# 
# From -- ./inp_files/20754.got.cif
#   From: 2010.05.17/outbox.cif.g08.bks.cpg/sg58_11_cif.got.tgz:20754.got - 2010.06.03 14:20:14.
