data_PCOD9445344
_publ_section_title
;
Structure prediction by ZEFSAII (Michael W. Deem and Ramdas Pophale) SiO2 
 PCOD9445344
Probable space group: P N N M
;
_chemical_formula_sum "Si O2"
_cell_formula_units_Z 34
_cell_length_a 4.952713
_cell_length_b 18.696216
_cell_length_c 13.577846
_cell_angle_alpha 90.000000
_cell_angle_beta 90.000000
_cell_angle_gamma 90.000000
_cell_volume 1257.267698
_symmetry_space_group_name_H-M "P N N M"
_symmetry_group_IT_number 58
_symmetry_cell_setting 'orthorhombic'
loop_
_space_group_symop_operation_xyz
x,y,z
-x,-y,z
1/2+x,1/2-y,1/2-z
1/2-x,1/2+y,1/2-z
-x,-y,-z
x,y,-z
1/2-x,1/2+y,1/2+z
1/2+x,1/2-y,1/2+z
loop_
_atom_site_type_symbol
_atom_site_label
_atom_site_fract_x
_atom_site_fract_y
_atom_site_fract_z
Si Si1 0.794611 0.213170 0.870175
Si Si2 0.299729 0.295774 0.136090
Si Si3 0.849609 0.923703 0.107275
Si Si4 0.500000 0.000000 0.500000
Si Si5 0.323991 0.572257 0.167582
O O1 0.999821 0.277244 0.897462
O O2 0.781758 0.210903 0.752991
O O3 0.928012 0.138822 0.898077
O O4 0.494287 0.232377 0.900389
O O5 0.469860 0.368114 0.125042
O O6 0.724446 0.913593 0.218799
O O7 0.699948 0.922656 0.000000
O O8 0.000000 0.000000 0.111161
O O9 0.403197 0.056181 0.412419
O O10 0.500000 0.500000 0.171233
#
# Coordination Sequence:
#
# PCOD9445344 Si02
#       5
#     8   8   8   2   8
#     4   9  18  37  63  96 135 180 230 282 347 421
#     4   9  19  37  64  94 135 180 228 288 347 409
#     4   9  19  42  70 101 139 181 228 287 357 426
#     4  12  26  44  66  98 132 180 244 288 350 412
#     4  10  23  43  68  97 136 181 232 292 348 421
#
# _framework density 27.042770000000001
#
# number of rings (size 3 to 8) (size 9 to 14) (size 15 to 20)
#    0.000    2.588    0.000    0.353    3.294    0.000 
#   16.941    0.588    0.000    0.000    0.000    0.000 
#    0.000    0.000    0.000    0.000    0.000    0.000 
#
# Total GULP energy -189441.613047 kJ/mol
# GULP energy per Si atom -5571.812148 kJ/mol
# Density = 2.698122 g / cm^3
# Si number density = 27.042770 Si / 1000 Ang^3
#
#
#
# Elastic Constant Matrix: (Units=GPa)
#
#
# Indices 1 2 3 4 5 6 
#
# 1 94.7996 17.0107 8.3728 0.0000 0.0000 0.0000
# 2 17.0107 134.3304 1.5017 0.0000 0.0000 0.0000
# 3 8.3728 1.5017 281.7845 0.0000 0.0000 0.0000
# 4 0.0000 0.0000 0.0000 100.7832 0.0000 0.0000
# 5 0.0000 0.0000 0.0000 0.0000 -56.1832 0.0000
# 6 0.0000 0.0000 0.0000 0.0000 0.0000 40.2809
#
#
#
# Elastic Compliance Matrix: (Units=1/GPa)
#
#
# Indices 1 2 3 4 5 6 
#
# 1 0.010822 -0.001367 -0.000314 0.000000 0.000000 0.000000
# 2 -0.001367 0.007617 0.000000 0.000000 0.000000 0.000000
# 3 -0.000314 0.000000 0.003558 0.000000 0.000000 0.000000
# 4 0.000000 0.000000 0.000000 0.009922 0.000000 0.000000
# 5 0.000000 0.000000 0.000000 0.000000 -0.017799 0.000000
# 6 0.000000 0.000000 0.000000 0.000000 0.000000 0.024826
#
#
# Mechanical properties :
#
#
# Convention : Reuss Voigt Hill
#
# Bulk Modulus (GPa) = 53.66259 62.74275 58.20267
# Shear Modulus (GPa) = 103.05010 49.24478 76.14744
#
# Velocity S-wave (km/s) = 6.17973 4.27194 5.31218
# Velocity P-wave (km/s) = 8.41460 6.89814 7.69382
#
# Compressibility (1/GPa) = 0.01863496
#
# Stress axis : x y z
#
# Youngs Moduli (GPa) = 92.40786 131.27802 281.04497
#
# Poissons Ratio (x) = 0.17944 0.08832
# Poissons Ratio (y) = 0.12631 -0.00001
# Poissons Ratio (z) = 0.02904 0.00000
#
# Static dielectric constant tensor:
#      x y z
#    x 2.065220 0.000000 0.000000 
#    y 0.000000 2.108620 0.000000 
#    z 0.000000 0.000000 2.112430 
# 
# From -- ./inp_files/18396.got.cif
#   From: 2010.05.17/outbox.cif.g08.bks.cpg/sg58_10_cif.got.tgz:18396.got - 2010.06.03 14:20:14.
