data_PCOD9445428
_publ_section_title
;
Structure prediction by ZEFSAII (Michael W. Deem and Ramdas Pophale) SiO2 
 PCOD9445428
Probable space group: P N N M
;
_chemical_formula_sum "Si O2"
_cell_formula_units_Z 24
_cell_length_a 19.438458
_cell_length_b 4.879837
_cell_length_c 10.713364
_cell_angle_alpha 90.000000
_cell_angle_beta 90.000000
_cell_angle_gamma 90.000000
_cell_volume 1016.232283
_symmetry_space_group_name_H-M "P N N M"
_symmetry_group_IT_number 58
_symmetry_cell_setting 'orthorhombic'
loop_
_space_group_symop_operation_xyz
x,y,z
-x,-y,z
1/2+x,1/2-y,1/2-z
1/2-x,1/2+y,1/2-z
-x,-y,-z
x,y,-z
1/2-x,1/2+y,1/2+z
1/2+x,1/2-y,1/2+z
loop_
_atom_site_type_symbol
_atom_site_label
_atom_site_fract_x
_atom_site_fract_y
_atom_site_fract_z
Si Si1 0.427241 0.587152 0.286882
Si Si2 0.729802 0.170283 0.000000
Si Si3 0.333303 0.820672 0.500000
Si Si4 0.107216 0.553463 0.639068
O O1 0.500000 0.500000 0.344405
O O2 0.381839 0.767413 0.381025
O O3 0.392284 0.311589 0.232341
O O4 0.442645 0.806031 0.178051
O O5 0.781083 0.425440 0.000000
O O6 0.781280 0.924863 0.000000
O O7 0.679086 0.116973 0.117954
O O8 0.093140 0.663807 0.500000
#
# Coordination Sequence:
#
# PCOD9445428 Si02
#       4
#     8   4   4   8
#     4  12  25  43  70 105 146 187 233 289 351 426
#     4  10  24  46  68 102 134 184 241 286 357 404
#     4  12  25  44  70 102 141 192 227 288 347 428
#     4  10  24  45  69 104 135 186 239 294 356 409
#
# _framework density 23.61665
#
# number of rings (size 3 to 8) (size 9 to 14) (size 15 to 20)
#    1.000    0.000    0.000    6.500    0.000    9.333 
#    0.000    5.000    0.000    0.000    0.000    0.000 
#    0.000    0.000    0.000    0.000    0.000    0.000 
#
# Total GULP energy -133857.006270 kJ/mol
# GULP energy per Si atom -5577.375261 kJ/mol
# Density = 2.356290 g / cm^3
# Si number density = 23.616650 Si / 1000 Ang^3
#
#
#
# Elastic Constant Matrix: (Units=GPa)
#
#
# Indices 1 2 3 4 5 6 
#
# 1 116.6179 65.7784 35.4252 0.0000 0.0000 0.0000
# 2 65.7784 223.1192 51.6835 0.0000 0.0000 0.0000
# 3 35.4252 51.6835 89.5232 0.0000 0.0000 0.0000
# 4 0.0000 0.0000 0.0000 44.2808 0.0000 0.0000
# 5 0.0000 0.0000 0.0000 0.0000 31.7665 0.0000
# 6 0.0000 0.0000 0.0000 0.0000 0.0000 56.7452
#
#
#
# Elastic Compliance Matrix: (Units=1/GPa)
#
#
# Indices 1 2 3 4 5 6 
#
# 1 0.010873 -0.002550 -0.002831 0.000000 0.000000 0.000000
# 2 -0.002550 0.005772 -0.002323 0.000000 0.000000 0.000000
# 3 -0.002831 -0.002323 0.013632 0.000000 0.000000 0.000000
# 4 0.000000 0.000000 0.000000 0.022583 0.000000 0.000000
# 5 0.000000 0.000000 0.000000 0.000000 0.031480 0.000000
# 6 0.000000 0.000000 0.000000 0.000000 0.000000 0.017623
#
#
# Mechanical properties :
#
#
# Convention : Reuss Voigt Hill
#
# Bulk Modulus (GPa) = 67.25233 81.67051 74.46142
# Shear Modulus (GPa) = 40.87458 44.98339 42.92899
#
# Velocity S-wave (km/s) = 4.16475 4.36906 4.26812
# Velocity P-wave (km/s) = 7.18786 7.75296 7.47575
#
# Compressibility (1/GPa) = 0.01486937
#
# Stress axis : x y z
#
# Youngs Moduli (GPa) = 91.97015 173.25674 73.35924
#
# Poissons Ratio (x) = 0.44178 0.20764
# Poissons Ratio (y) = 0.23451 0.17042
# Poissons Ratio (z) = 0.26032 0.40250
#
# Static dielectric constant tensor:
#      x y z
#    x 1.915900 0.000000 0.000000 
#    y 0.000000 1.815930 0.000000 
#    z 0.000000 0.000000 1.770420 
# 
# From -- ./inp_files/16075.got.cif
#   From: 2010.05.17/outbox.cif.g08.bks.cpg/sg58_9_cif.got.tgz:16075.got - 2010.06.03 14:20:14.
