data_PCOD9445680
_publ_section_title
;
Structure prediction by ZEFSAII (Michael W. Deem and Ramdas Pophale) SiO2 
 PCOD9445680
Probable space group: P N N M
;
_chemical_formula_sum "Si O2"
_cell_formula_units_Z 40
_cell_length_a 8.230501
_cell_length_b 27.226457
_cell_length_c 7.870029
_cell_angle_alpha 90.000000
_cell_angle_beta 90.000000
_cell_angle_gamma 90.000000
_cell_volume 1763.574191
_symmetry_space_group_name_H-M "P N N M"
_symmetry_group_IT_number 58
_symmetry_cell_setting 'orthorhombic'
loop_
_space_group_symop_operation_xyz
x,y,z
-x,-y,z
1/2+x,1/2-y,1/2-z
1/2-x,1/2+y,1/2-z
-x,-y,-z
x,y,-z
1/2-x,1/2+y,1/2+z
1/2+x,1/2-y,1/2+z
loop_
_atom_site_type_symbol
_atom_site_label
_atom_site_fract_x
_atom_site_fract_y
_atom_site_fract_z
Si Si1 0.742119 0.630359 0.305979
Si Si2 0.606605 0.726560 0.204561
Si Si3 0.769465 0.823077 0.299965
Si Si4 0.912529 0.075905 0.500000
Si Si5 0.905850 0.418314 0.690709
Si Si6 0.735686 0.974776 0.500000
O O1 0.692743 0.620585 0.500000
O O2 0.741617 0.688741 0.274423
O O3 0.917474 0.605731 0.279271
O O4 0.621196 0.607943 0.166764
O O5 0.636094 0.780695 0.273425
O O6 0.436360 0.702235 0.258822
O O7 0.611888 0.727988 0.000000
O O8 0.782458 0.834360 0.500000
O O9 0.718324 0.872585 0.207054
O O10 0.091015 0.053288 0.500000
O O11 0.782878 0.031574 0.500000
O O12 0.899923 0.438675 0.500000
O O13 0.859984 0.457400 0.833525
#
# Coordination Sequence:
#
# PCOD9445680 Si02
#       6
#     8   8   8   4   8   4
#     4  11  24  42  66  96 130 169 215 266 323 386
#     4  11  23  38  59  90 128 171 218 264 317 380
#     4  11  23  38  59  90 128 171 218 264 317 380
#     4  11  25  45  69  97 129 169 217 269 328 389
#     4  11  24  42  66  96 130 169 215 266 323 386
#     4  11  25  45  69  97 129 169 217 269 328 389
#
# _framework density 22.681211000000001
#
# number of rings (size 3 to 8) (size 9 to 14) (size 15 to 20)
#    0.000    1.000    2.000    4.200    0.000   12.800 
#    0.000    4.000    0.000    0.000    0.000    0.000 
#    0.000    0.000    0.000    0.000    0.000    0.000 
#
# Total GULP energy -224147.055593 kJ/mol
# GULP energy per Si atom -5603.676390 kJ/mol
# Density = 2.262959 g / cm^3
# Si number density = 22.681211 Si / 1000 Ang^3
#
#
#
# Elastic Constant Matrix: (Units=GPa)
#
#
# Indices 1 2 3 4 5 6 
#
# 1 72.0656 2.7999 25.7653 0.0000 0.0000 0.0000
# 2 2.7999 87.5675 17.0564 0.0000 0.0000 0.0000
# 3 25.7653 17.0564 92.3287 0.0000 0.0000 0.0000
# 4 0.0000 0.0000 0.0000 -35.7531 0.0000 0.0000
# 5 0.0000 0.0000 0.0000 0.0000 43.4113 0.0000
# 6 0.0000 0.0000 0.0000 0.0000 0.0000 42.3688
#
#
#
# Elastic Compliance Matrix: (Units=1/GPa)
#
#
# Indices 1 2 3 4 5 6 
#
# 1 0.015425 0.000358 -0.004371 0.000000 0.000000 0.000000
# 2 0.000358 0.011854 -0.002290 0.000000 0.000000 0.000000
# 3 -0.004371 -0.002290 0.012474 0.000000 0.000000 0.000000
# 4 0.000000 0.000000 0.000000 -0.027970 0.000000 0.000000
# 5 0.000000 0.000000 0.000000 0.000000 0.023035 0.000000
# 6 0.000000 0.000000 0.000000 0.000000 0.000000 0.023602
#
#
# Mechanical properties :
#
#
# Convention : Reuss Voigt Hill
#
# Bulk Modulus (GPa) = 36.83502 38.13387 37.48445
# Shear Modulus (GPa) = 62.44138 23.76142 43.10140
#
# Velocity S-wave (km/s) = 5.25260 3.24022 4.36399
# Velocity P-wave (km/s) = 7.28436 5.55411 6.47727
#
# Compressibility (1/GPa) = 0.02714808
#
# Stress axis : x y z
#
# Youngs Moduli (GPa) = 64.83002 84.35733 80.16960
#
# Poissons Ratio (x) = -0.03021 0.35039
# Poissons Ratio (y) = -0.02322 0.18358
# Poissons Ratio (z) = 0.28335 0.19317
#
# Static dielectric constant tensor:
#      x y z
#    x 1.879970 0.000000 0.000000 
#    y 0.000000 1.797600 0.000000 
#    z 0.000000 0.000000 1.791200 
# 
# From -- ./inp_files/2647.got.cif
#   From: 2010.05.17/outbox.cif.g08.bks.cpg/sg58_2_cif.got.tgz:2647.got - 2010.06.03 14:20:14.
