data_PCOD9445960
_publ_section_title
;
Structure prediction by ZEFSAII (Michael W. Deem and Ramdas Pophale) SiO2 
 PCOD9445960
Probable space group: P N N M
;
_chemical_formula_sum "Si O2"
_cell_formula_units_Z 64
_cell_length_a 15.000000
_cell_length_b 24.000000
_cell_length_c 9.000000
_cell_angle_alpha 90.000000
_cell_angle_beta 90.000000
_cell_angle_gamma 90.000000
_cell_volume 3240.000000
_symmetry_space_group_name_H-M "P N N M"
_symmetry_group_IT_number 58
_symmetry_cell_setting 'orthorhombic'
loop_
_space_group_symop_operation_xyz
x,y,z
-x,-y,z
1/2+x,1/2-y,1/2-z
1/2-x,1/2+y,1/2-z
-x,-y,-z
x,y,-z
1/2-x,1/2+y,1/2+z
1/2+x,1/2-y,1/2+z
loop_
_atom_site_type_symbol
_atom_site_label
_atom_site_fract_x
_atom_site_fract_y
_atom_site_fract_z
Si Si1 0.522386 0.174037 0.821836
Si Si2 0.448832 0.053928 0.818892
Si Si3 0.871920 0.247221 0.823101
Si Si4 0.063239 0.863708 0.327230
Si Si5 0.249613 0.561422 0.678137
Si Si6 0.388039 0.647243 0.668131
Si Si7 0.598885 0.525186 0.322822
Si Si8 0.317887 0.768237 0.670434
O O1 0.499413 0.110577 0.785058
O O2 0.442729 0.210720 0.751181
O O3 0.619364 0.189083 0.757638
O O4 0.521682 0.182431 0.000000
O O5 0.348282 0.054978 0.759621
O O6 0.500000 0.000000 0.764873
O O7 0.445156 0.051316 0.000000
O O8 0.906496 0.186134 0.778360
O O9 0.773211 0.248068 0.752533
O O10 0.869626 0.255018 0.000000
O O11 0.077051 0.851147 0.500000
O O12 0.109546 0.919737 0.273544
O O13 0.959163 0.871147 0.288315
O O14 0.242083 0.555057 0.500000
O O15 0.291969 0.621724 0.703141
O O16 0.325147 0.518074 0.723863
O O17 0.413434 0.627331 0.500000
O O18 0.378507 0.712940 0.664591
O O19 0.500000 0.500000 0.301219
O O20 0.607541 0.536738 0.500000
O O21 0.299052 0.785385 0.500000
#
# Coordination Sequence:
#
# PCOD9445960 Si02
#       8
#     8   8   8   8   8   8   8   8
#     4  11  22  39  64  95 128 163 210 263 313 371
#     4   9  19  36  59  89 122 158 204 255 302 356
#     4  12  25  42  63  89 125 167 211 258 313 377
#     4  12  24  37  57  86 124 160 200 256 315 370
#     4   9  17  32  57  84 114 159 212 256 297 361
#     4  10  19  36  60  85 117 161 205 247 307 373
#     4  10  19  34  57  84 117 160 208 249 300 375
#     4  11  23  39  64  94 127 165 205 255 316 379
#
# _framework density 19.753086
#
# number of rings (size 3 to 8) (size 9 to 14) (size 15 to 20)
#    0.000    1.500    2.500    3.750    0.000    3.750 
#    0.000    2.500    0.000    3.000    0.000    0.000 
#    0.000    0.000    0.000    0.000    0.000    0.000 
#
# Total GULP energy -357177.270440 kJ/mol
# GULP energy per Si atom -5580.894851 kJ/mol
# Density = 1.970813 g / cm^3
# Si number density = 19.753086 Si / 1000 Ang^3
#
#
#
# Elastic Constant Matrix: (Units=GPa)
#
#
# Indices 1 2 3 4 5 6 
#
# 1 46.4228 29.3579 16.8924 0.0000 0.0000 0.0000
# 2 29.3579 93.4544 22.0813 0.0000 0.0000 0.0000
# 3 16.8924 22.0813 84.1088 0.0000 0.0000 0.0000
# 4 0.0000 0.0000 0.0000 12.9566 0.0000 0.0000
# 5 0.0000 0.0000 0.0000 0.0000 27.8332 0.0000
# 6 0.0000 0.0000 0.0000 0.0000 0.0000 17.3445
#
#
#
# Elastic Compliance Matrix: (Units=1/GPa)
#
#
# Indices 1 2 3 4 5 6 
#
# 1 0.027821 -0.007910 -0.003511 0.000000 0.000000 0.000000
# 2 -0.007910 0.013657 -0.001997 0.000000 0.000000 0.000000
# 3 -0.003511 -0.001997 0.013119 0.000000 0.000000 0.000000
# 4 0.000000 0.000000 0.000000 0.077181 0.000000 0.000000
# 5 0.000000 0.000000 0.000000 0.000000 0.035928 0.000000
# 6 0.000000 0.000000 0.000000 0.000000 0.000000 0.057655
#
#
# Mechanical properties :
#
#
# Convention : Reuss Voigt Hill
#
# Bulk Modulus (GPa) = 36.02151 40.07215 38.04683
# Shear Modulus (GPa) = 19.12405 22.00381 20.56393
#
# Velocity S-wave (km/s) = 3.11489 3.34120 3.23003
# Velocity P-wave (km/s) = 5.58679 5.93425 5.76314
#
# Compressibility (1/GPa) = 0.02776119
#
# Stress axis : x y z
#
# Youngs Moduli (GPa) = 35.94393 73.22185 76.22703
#
# Poissons Ratio (x) = 0.57920 0.26763
# Poissons Ratio (y) = 0.28432 0.15221
# Poissons Ratio (z) = 0.12620 0.14621
#
# Static dielectric constant tensor:
#      x y z
#    x 1.779470 0.000000 0.000000 
#    y 0.000000 1.716990 0.000000 
#    z 0.000000 0.000000 1.665250 
# 
# From -- ./inp_files/6975.got.cif
#   From: 2010.05.17/outbox.ucp.g08.bks.cvg/sg58_4_cif.got.tgz:6975.got - 2010.06.11 16:41:41.
