data_PCOD9445394
_publ_section_title
;
Structure prediction by ZEFSAII (Michael W. Deem and Ramdas Pophale) SiO2 
 PCOD9445394
Probable space group: P N N M
;
_chemical_formula_sum "Si O2"
_cell_formula_units_Z 48
_cell_length_a 9.687666
_cell_length_b 30.323392
_cell_length_c 7.867368
_cell_angle_alpha 90.000000
_cell_angle_beta 90.000000
_cell_angle_gamma 90.000000
_cell_volume 2311.140789
_symmetry_space_group_name_H-M "P N N M"
_symmetry_group_IT_number 58
_symmetry_cell_setting 'orthorhombic'
loop_
_space_group_symop_operation_xyz
x,y,z
-x,-y,z
1/2+x,1/2-y,1/2-z
1/2-x,1/2+y,1/2-z
-x,-y,-z
x,y,-z
1/2-x,1/2+y,1/2+z
1/2+x,1/2-y,1/2+z
loop_
_atom_site_type_symbol
_atom_site_label
_atom_site_fract_x
_atom_site_fract_y
_atom_site_fract_z
Si Si1 0.539243 0.363915 0.204685
Si Si2 0.025479 0.297468 0.199496
Si Si3 0.587029 0.544523 0.695834
Si Si4 0.661061 0.715293 0.794475
Si Si5 0.796861 0.536432 0.000000
Si Si6 0.108238 0.564270 0.000000
Si Si7 0.167916 0.626756 0.311841
O O1 0.506150 0.412228 0.276416
O O2 0.418807 0.329756 0.249759
O O3 0.686420 0.348935 0.277777
O O4 0.547795 0.366226 0.000000
O O5 0.179735 0.286430 0.260600
O O6 0.925573 0.255756 0.221339
O O7 0.955209 0.338503 0.292452
O O8 0.034043 0.309118 0.000000
O O9 0.500000 0.500000 0.729266
O O10 0.634645 0.543035 0.500000
O O11 0.708612 0.547561 0.833083
O O12 0.659197 0.719667 0.000000
O O13 0.829256 0.484450 0.000000
O O14 0.942751 0.560918 0.000000
O O15 0.155371 0.590398 0.833640
O O16 0.168632 0.607398 0.500000
#
# Coordination Sequence:
#
# PCOD9445394 Si02
#       7
#     8   8   8   8   4   4   8
#     4  11  22  41  68  97 135 178 227 281 337 405
#     4  11  23  42  65  94 136 177 222 275 333 404
#     4  11  24  41  68 102 136 177 231 283 341 406
#     4  10  24  41  65  97 132 178 225 275 337 399
#     4  11  25  44  70  96 141 178 229 286 345 404
#     4  11  26  46  68 100 134 185 228 279 347 409
#     4  12  25  43  69  97 135 178 228 279 339 401
#
# _framework density 20.768965999999999
#
# number of rings (size 3 to 8) (size 9 to 14) (size 15 to 20)
#    0.000    1.000    2.500    3.250    2.333    8.000 
#    0.000    1.667    0.000    0.000    0.000    0.000 
#    0.000    0.000    0.000    0.000    0.000    0.000 
#
# Total GULP energy -268652.321505 kJ/mol
# GULP energy per Si atom -5596.923365 kJ/mol
# Density = 2.072169 g / cm^3
# Si number density = 20.768966 Si / 1000 Ang^3
#
#
#
# Elastic Constant Matrix: (Units=GPa)
#
#
# Indices 1 2 3 4 5 6 
#
# 1 143.8663 14.4520 39.0196 0.0000 0.0000 0.0000
# 2 14.4520 43.5763 9.6591 0.0000 0.0000 0.0000
# 3 39.0196 9.6591 107.6834 0.0000 0.0000 0.0000
# 4 0.0000 0.0000 0.0000 8.7654 0.0000 0.0000
# 5 0.0000 0.0000 0.0000 0.0000 12.3499 0.0000
# 6 0.0000 0.0000 0.0000 0.0000 0.0000 25.1532
#
#
#
# Elastic Compliance Matrix: (Units=1/GPa)
#
#
# Indices 1 2 3 4 5 6 
#
# 1 0.007879 -0.002020 -0.002674 0.000000 0.000000 0.000000
# 2 -0.002020 0.023932 -0.001415 0.000000 0.000000 0.000000
# 3 -0.002674 -0.001415 0.010382 0.000000 0.000000 0.000000
# 4 0.000000 0.000000 0.000000 0.114085 0.000000 0.000000
# 5 0.000000 0.000000 0.000000 0.000000 0.080972 0.000000
# 6 0.000000 0.000000 0.000000 0.000000 0.000000 0.039756
#
#
# Mechanical properties :
#
#
# Convention : Reuss Voigt Hill
#
# Bulk Modulus (GPa) = 33.36042 46.82083 40.09063
# Shear Modulus (GPa) = 16.71032 24.72006 20.71519
#
# Velocity S-wave (km/s) = 2.83959 3.45373 3.16161
# Velocity P-wave (km/s) = 5.18156 6.20459 5.71601
#
# Compressibility (1/GPa) = 0.02997564
#
# Stress axis : x y z
#
# Youngs Moduli (GPa) = 126.91896 41.78530 96.31851
#
# Poissons Ratio (x) = 0.08442 0.25753
# Poissons Ratio (y) = 0.25643 0.13625
# Poissons Ratio (z) = 0.33935 0.05911
#
# Static dielectric constant tensor:
#      x y z
#    x 1.740650 0.000000 0.000000 
#    y 0.000000 1.703550 0.000000 
#    z 0.000000 0.000000 1.733020 
# 
# From -- ./inp_files/3065.got.cif
#   From: 2010.05.17/outbox.cif.g08.bks.cpg/sg58_2_cif.got.tgz:3065.got - 2010.06.03 14:20:14.
