data_PCOD9445306
_publ_section_title
;
Structure prediction by ZEFSAII (Michael W. Deem and Ramdas Pophale) SiO2 
 PCOD9445306
Probable space group: P N N M
;
_chemical_formula_sum "Si O2"
_cell_formula_units_Z 64
_cell_length_a 24.105574
_cell_length_b 15.626074
_cell_length_c 8.695486
_cell_angle_alpha 90.000000
_cell_angle_beta 90.000000
_cell_angle_gamma 90.000000
_cell_volume 3275.376390
_symmetry_space_group_name_H-M "P N N M"
_symmetry_group_IT_number 58
_symmetry_cell_setting 'orthorhombic'
loop_
_space_group_symop_operation_xyz
x,y,z
-x,-y,z
1/2+x,1/2-y,1/2-z
1/2-x,1/2+y,1/2-z
-x,-y,-z
x,y,-z
1/2-x,1/2+y,1/2+z
1/2+x,1/2-y,1/2+z
loop_
_atom_site_type_symbol
_atom_site_label
_atom_site_fract_x
_atom_site_fract_y
_atom_site_fract_z
Si Si1 0.242963 0.346200 0.181914
Si Si2 0.376362 0.893392 0.183204
Si Si3 0.247733 0.161583 0.318536
Si Si4 0.146880 0.912079 0.182613
Si Si5 0.078587 0.754013 0.316354
Si Si6 0.044058 0.250759 0.183466
Si Si7 0.646665 0.915802 0.815428
Si Si8 0.869139 0.895408 0.183912
O O1 0.185632 0.366677 0.267117
O O2 0.259613 0.249617 0.228169
O O3 0.293401 0.405452 0.236252
O O4 0.234791 0.352344 0.000000
O O5 0.420097 0.832985 0.267425
O O6 0.381596 0.993787 0.221474
O O7 0.382392 0.882438 0.000000
O O8 0.250783 0.177071 0.500000
O O9 0.294331 0.094220 0.267365
O O10 0.186616 0.131889 0.270652
O O11 0.109193 0.834502 0.240418
O O12 0.120285 0.004711 0.213952
O O13 0.155408 0.904238 0.000000
O O14 0.082675 0.762295 0.500000
O O15 0.109420 0.665732 0.272355
O O16 0.015050 0.750379 0.264927
O O17 0.080862 0.167595 0.225785
O O18 0.036182 0.250161 0.000000
O O19 0.655821 0.914175 0.000000
O O20 0.859215 0.885191 0.000000
#
# Coordination Sequence:
#
# PCOD9445306 Si02
#       8
#     8   8   8   8   8   8   8   8
#     4  12  23  38  61  92 130 166 199 247 314 371
#     4  11  23  41  65  94 124 162 208 254 306 371
#     4  12  23  36  63  96 126 162 207 253 302 365
#     4  11  23  41  65  94 124 162 208 254 306 371
#     4  11  24  43  65  89 122 166 209 261 312 364
#     4  11  24  43  65  89 122 166 209 261 312 364
#     4  10  23  42  64  90 127 166 201 249 315 372
#     4  10  23  42  64  90 127 166 201 249 315 372
#
# _framework density 19.539739999999998
#
# number of rings (size 3 to 8) (size 9 to 14) (size 15 to 20)
#    0.000    1.000    2.500    4.500    0.000    7.000 
#    0.000    5.000    0.000    0.000    0.000    0.000 
#    0.000    0.000    0.000    0.000    0.000    0.000 
#
# Total GULP energy -358076.327872 kJ/mol
# GULP energy per Si atom -5594.942623 kJ/mol
# Density = 1.949527 g / cm^3
# Si number density = 19.539740 Si / 1000 Ang^3
#
#
#
# Elastic Constant Matrix: (Units=GPa)
#
#
# Indices 1 2 3 4 5 6 
#
# 1 71.0838 8.2006 -5.9685 0.0000 0.0000 0.0000
# 2 8.2006 88.9993 15.8648 0.0000 0.0000 0.0000
# 3 -5.9685 15.8648 20.4050 0.0000 0.0000 0.0000
# 4 0.0000 0.0000 0.0000 30.5345 0.0000 0.0000
# 5 0.0000 0.0000 0.0000 0.0000 46.0930 0.0000
# 6 0.0000 0.0000 0.0000 0.0000 0.0000 6.3307
#
#
#
# Elastic Compliance Matrix: (Units=1/GPa)
#
#
# Indices 1 2 3 4 5 6 
#
# 1 0.014884 -0.002493 0.006292 0.000000 0.000000 0.000000
# 2 -0.002493 0.013461 -0.011195 0.000000 0.000000 0.000000
# 3 0.006292 -0.011195 0.059552 0.000000 0.000000 0.000000
# 4 0.000000 0.000000 0.000000 0.032750 0.000000 0.000000
# 5 0.000000 0.000000 0.000000 0.000000 0.021695 0.000000
# 6 0.000000 0.000000 0.000000 0.000000 0.000000 0.157961
#
#
# Mechanical properties :
#
#
# Convention : Reuss Voigt Hill
#
# Bulk Modulus (GPa) = 13.67909 24.07576 18.87742
# Shear Modulus (GPa) = 14.72905 27.41771 21.07338
#
# Velocity S-wave (km/s) = 2.74852 3.74996 3.28760
# Velocity P-wave (km/s) = 4.13380 5.57654 4.90847
#
# Compressibility (1/GPa) = 0.07310430
#
# Stress axis : x y z
#
# Youngs Moduli (GPa) = 67.18716 74.28642 16.79199
#
# Poissons Ratio (x) = 0.18519 -0.10565
# Poissons Ratio (y) = 0.16750 0.18799
# Poissons Ratio (z) = -0.42273 0.83166
#
# Static dielectric constant tensor:
#      x y z
#    x 1.639030 0.000000 0.000000 
#    y 0.000000 1.699630 0.000000 
#    z 0.000000 0.000000 1.652450 
# 
# From -- ./inp_files/9974.got.cif
#   From: 2010.05.17/outbox.cif.g08.bks.cpg/sg58_5_cif.got.tgz:9974.got - 2010.06.03 14:20:14.
