data_PCOD9445079
_publ_section_title
;
Structure prediction by ZEFSAII (Michael W. Deem and Ramdas Pophale) SiO2 
 PCOD9445079
Probable space group: P N N M
;
_chemical_formula_sum "Si O2"
_cell_formula_units_Z 32
_cell_length_a 11.855647
_cell_length_b 14.186943
_cell_length_c 9.285737
_cell_angle_alpha 90.000000
_cell_angle_beta 90.000000
_cell_angle_gamma 90.000000
_cell_volume 1561.818140
_symmetry_space_group_name_H-M "P N N M"
_symmetry_group_IT_number 58
_symmetry_cell_setting 'orthorhombic'
loop_
_space_group_symop_operation_xyz
x,y,z
-x,-y,z
1/2+x,1/2-y,1/2-z
1/2-x,1/2+y,1/2-z
-x,-y,-z
x,y,-z
1/2-x,1/2+y,1/2+z
1/2+x,1/2-y,1/2+z
loop_
_atom_site_type_symbol
_atom_site_label
_atom_site_fract_x
_atom_site_fract_y
_atom_site_fract_z
Si Si1 0.594440 0.598835 0.000000
Si Si2 0.000000 0.000000 0.246945
Si Si3 0.351680 0.199993 0.500000
Si Si4 0.989627 0.608891 0.759689
Si Si5 0.828785 0.668476 0.000000
Si Si6 0.965261 0.855451 0.000000
Si Si7 0.586446 0.244696 0.000000
O O1 0.594902 0.537438 0.855727
O O2 0.696706 0.668968 0.000000
O O3 0.479884 0.657236 0.000000
O O4 0.957787 0.918595 0.141593
O O5 0.404122 0.144751 0.640493
O O6 0.416332 0.300299 0.500000
O O7 0.219157 0.225913 0.500000
O O8 0.882412 0.614980 0.865464
O O9 0.957430 0.682995 0.635500
O O10 0.000000 0.500000 0.711954
O O11 0.874180 0.773919 0.000000
#
# Coordination Sequence:
#
# PCOD9445079 Si02
#       7
#     4   4   4   8   4   4   4
#     4  11  24  41  61 104 132 168 216 272 324 404
#     4  10  22  40  64  92 132 160 228 264 316 388
#     4  10  23  46  69  92 137 177 214 268 341 388
#     4  10  23  45  69  98 131 172 225 271 322 394
#     4  10  22  42  70  92 138 174 214 266 342 389
#     4   9  20  45  66  92 122 178 215 271 326 388
#     4  12  26  42  69 100 136 172 219 270 338 388
#
# _framework density 20.488939999999999
#
# number of rings (size 3 to 8) (size 9 to 14) (size 15 to 20)
#    0.000    2.000    0.000    4.875    7.000    4.000 
#    4.500    0.000    0.000    0.000    0.000    0.000 
#    0.000    0.000    0.000    0.000    0.000    0.000 
#
# Total GULP energy -178545.681468 kJ/mol
# GULP energy per Si atom -5579.552546 kJ/mol
# Density = 2.044231 g / cm^3
# Si number density = 20.488940 Si / 1000 Ang^3
#
#
#
# Elastic Constant Matrix: (Units=GPa)
#
#
# Indices 1 2 3 4 5 6 
#
# 1 143.8304 64.3126 31.7225 0.0000 0.0000 0.0000
# 2 64.3126 118.4890 26.1768 0.0000 0.0000 0.0000
# 3 31.7225 26.1768 94.6966 0.0000 0.0000 0.0000
# 4 0.0000 0.0000 0.0000 14.5280 0.0000 0.0000
# 5 0.0000 0.0000 0.0000 0.0000 -3.7478 0.0000
# 6 0.0000 0.0000 0.0000 0.0000 0.0000 3.4328
#
#
#
# Elastic Compliance Matrix: (Units=1/GPa)
#
#
# Indices 1 2 3 4 5 6 
#
# 1 0.009481 -0.004733 -0.001868 0.000000 0.000000 0.000000
# 2 -0.004733 0.011352 -0.001552 0.000000 0.000000 0.000000
# 3 -0.001868 -0.001552 0.011615 0.000000 0.000000 0.000000
# 4 0.000000 0.000000 0.000000 0.068832 0.000000 0.000000
# 5 0.000000 0.000000 0.000000 0.000000 -0.266826 0.000000
# 6 0.000000 0.000000 0.000000 0.000000 0.000000 0.291307
#
#
# Mechanical properties :
#
#
# Convention : Reuss Voigt Hill
#
# Bulk Modulus (GPa) = 61.95450 66.82663 64.39057
# Shear Modulus (GPa) = 33.91018 18.49622 26.20320
#
# Velocity S-wave (km/s) = 4.07264 3.00783 3.58004
# Velocity P-wave (km/s) = 7.24009 6.68950 6.97023
#
# Compressibility (1/GPa) = 0.01614088
#
# Stress axis : x y z
#
# Youngs Moduli (GPa) = 105.47323 88.09226 86.09728
#
# Poissons Ratio (x) = 0.41698 0.16080
# Poissons Ratio (y) = 0.49926 0.13365
# Poissons Ratio (z) = 0.19698 0.13674
#
# Static dielectric constant tensor:
#      x y z
#    x 1.715860 0.000000 0.000000 
#    y 0.000000 1.740760 0.000000 
#    z 0.000000 0.000000 1.958810 
# 
# From -- ./inp_files/3646.got.cif
#   From: 2010.05.17/outbox.cif.g08.bks.cpg/sg58_2_cif.got.tgz:3646.got - 2010.06.03 14:20:14.
