data_PCOD9445018
_publ_section_title
;
Structure prediction by ZEFSAII (Michael W. Deem and Ramdas Pophale) SiO2 
 PCOD9445018
Probable space group: P N N M
;
_chemical_formula_sum "Si O2"
_cell_formula_units_Z 42
_cell_length_a 5.129022
_cell_length_b 12.572268
_cell_length_c 26.440845
_cell_angle_alpha 90.000000
_cell_angle_beta 90.000000
_cell_angle_gamma 90.000000
_cell_volume 1704.996620
_symmetry_space_group_name_H-M "P N N M"
_symmetry_group_IT_number 58
_symmetry_cell_setting 'orthorhombic'
loop_
_space_group_symop_operation_xyz
x,y,z
-x,-y,z
1/2+x,1/2-y,1/2-z
1/2-x,1/2+y,1/2-z
-x,-y,-z
x,y,-z
1/2-x,1/2+y,1/2+z
1/2+x,1/2-y,1/2+z
loop_
_atom_site_type_symbol
_atom_site_label
_atom_site_fract_x
_atom_site_fract_y
_atom_site_fract_z
Si Si1 0.143476 0.607246 0.429568
Si Si2 0.400930 0.621529 0.667906
Si Si3 0.739632 0.931824 0.269299
Si Si4 0.085878 0.663960 0.124073
Si Si5 0.070797 0.845195 0.557148
Si Si6 0.500000 0.500000 0.500000
O O1 0.157069 0.614555 0.369671
O O2 0.033973 0.717618 0.447706
O O3 0.422281 0.587524 0.455716
O O4 0.000000 0.500000 0.446529
O O5 0.500000 0.500000 0.669591
O O6 0.324857 0.650225 0.725230
O O7 0.575679 0.710686 0.640275
O O8 0.628142 0.888691 0.321562
O O9 0.500000 0.000000 0.246611
O O10 0.000000 0.000000 0.280126
O O11 0.313275 0.622761 0.087326
O O12 0.818358 0.640994 0.094097
O O13 0.105855 0.886600 0.500000
#
# Coordination Sequence:
#
# PCOD9445018 Si02
#       6
#     8   8   8   8   8   2
#     4  11  22  33  55  83 130 176 220 253 310 383
#     4  10  22  39  63  94 135 170 218 261 323 394
#     4  11  25  46  72  96 131 178 230 289 349 404
#     4  11  25  43  68  99 133 175 225 283 341 408
#     4  11  24  40  65  94 132 174 221 280 343 410
#     4  12  22  32  52  82 132 184 218 262 292 388
#
# _framework density 24.633478
#
# number of rings (size 3 to 8) (size 9 to 14) (size 15 to 20)
#    0.000    1.143    1.905    3.714    2.667   10.667 
#    0.000    0.000    0.000   11.429    0.000    0.000 
#    0.000    0.000    0.000    0.000    0.000    0.000 
#
# Total GULP energy -234147.172156 kJ/mol
# GULP energy per Si atom -5574.932670 kJ/mol
# Density = 2.457741 g / cm^3
# Si number density = 24.633478 Si / 1000 Ang^3
#
#
#
# Elastic Constant Matrix: (Units=GPa)
#
#
# Indices 1 2 3 4 5 6 
#
# 1 135.6479 19.2863 54.9183 0.0000 0.0000 0.0000
# 2 19.2863 58.5286 28.9211 0.0000 0.0000 0.0000
# 3 54.9183 28.9211 230.2395 0.0000 0.0000 0.0000
# 4 0.0000 0.0000 0.0000 12.0404 0.0000 0.0000
# 5 0.0000 0.0000 0.0000 0.0000 19.9397 0.0000
# 6 0.0000 0.0000 0.0000 0.0000 0.0000 22.4388
#
#
#
# Elastic Compliance Matrix: (Units=1/GPa)
#
#
# Indices 1 2 3 4 5 6 
#
# 1 0.008351 -0.001884 -0.001755 0.000000 0.000000 0.000000
# 2 -0.001884 0.018642 -0.001892 0.000000 0.000000 0.000000
# 3 -0.001755 -0.001892 0.005000 0.000000 0.000000 0.000000
# 4 0.000000 0.000000 0.000000 0.083054 0.000000 0.000000
# 5 0.000000 0.000000 0.000000 0.000000 0.050151 0.000000
# 6 0.000000 0.000000 0.000000 0.000000 0.000000 0.044566
#
#
# Mechanical properties :
#
#
# Convention : Reuss Voigt Hill
#
# Bulk Modulus (GPa) = 47.78191 70.07414 58.92803
# Shear Modulus (GPa) = 21.94888 32.30312 27.12600
#
# Velocity S-wave (km/s) = 2.98823 3.62519 3.32201
# Velocity P-wave (km/s) = 5.59869 6.78462 6.21998
#
# Compressibility (1/GPa) = 0.02092842
#
# Stress axis : x y z
#
# Youngs Moduli (GPa) = 119.75293 53.64351 200.01493
#
# Poissons Ratio (x) = 0.10109 0.35105
# Poissons Ratio (y) = 0.22566 0.37846
# Poissons Ratio (z) = 0.21018 0.10150
#
# Static dielectric constant tensor:
#      x y z
#    x 2.079670 0.000000 0.000000 
#    y 0.000000 2.053790 0.000000 
#    z 0.000000 0.000000 1.974490 
# 
# From -- ./inp_files/30941.got.cif
#   From: 2010.05.17/outbox.cif.g08.bks.cpg/sg58_16_cif.got.tgz:30941.got - 2010.06.03 14:20:14.
