data_PCOD9445838
_publ_section_title
;
Structure prediction by ZEFSAII (Michael W. Deem and Ramdas Pophale) SiO2 
 PCOD9445838
Probable space group: P N N M
;
_chemical_formula_sum "Si O2"
_cell_formula_units_Z 32
_cell_length_a 7.125060
_cell_length_b 11.090109
_cell_length_c 19.213324
_cell_angle_alpha 90.000000
_cell_angle_beta 90.000000
_cell_angle_gamma 90.000000
_cell_volume 1518.192519
_symmetry_space_group_name_H-M "P N N M"
_symmetry_group_IT_number 58
_symmetry_cell_setting 'orthorhombic'
loop_
_space_group_symop_operation_xyz
x,y,z
-x,-y,z
1/2+x,1/2-y,1/2-z
1/2-x,1/2+y,1/2-z
-x,-y,-z
x,y,-z
1/2-x,1/2+y,1/2+z
1/2+x,1/2-y,1/2+z
loop_
_atom_site_type_symbol
_atom_site_label
_atom_site_fract_x
_atom_site_fract_y
_atom_site_fract_z
Si Si1 0.095384 0.115858 0.132721
Si Si2 0.229797 0.710679 0.858864
Si Si3 0.349018 0.106293 0.000000
Si Si4 0.423561 0.636403 0.000000
Si Si5 0.554845 0.862706 0.781523
O O1 0.218092 0.086129 0.066165
O O2 0.247645 0.173157 0.183461
O O3 0.920130 0.195250 0.111471
O O4 0.000000 0.000000 0.168185
O O5 0.396311 0.778502 0.816341
O O6 0.104674 0.642845 0.800387
O O7 0.312660 0.645829 0.926481
O O8 0.440693 0.242248 0.000000
O O9 0.500000 0.000000 0.000000
O O10 0.500000 0.500000 0.000000
O O11 0.500000 0.000000 0.799463
#
# Coordination Sequence:
#
# PCOD9445838 Si02
#       5
#     8   8   4   4   8
#     4  12  23  41  74 106 143 187 247 315 382 433
#     4  12  26  47  72 107 149 199 245 307 384 454
#     4  12  24  45  75 107 153 192 250 311 372 452
#     4  12  29  49  75 108 158 206 252 301 372 466
#     4  12  25  44  74 109 143 189 255 316 373 446
#
# _framework density 21.077697000000001
#
# number of rings (size 3 to 8) (size 9 to 14) (size 15 to 20)
#    0.000    0.000    7.500    3.375    0.000    5.000 
#    0.000    1.875    0.000    0.000    0.000    0.000 
#    0.000    0.000    0.000    0.000    0.000    0.000 
#
# Total GULP energy -178488.506500 kJ/mol
# GULP energy per Si atom -5577.765828 kJ/mol
# Density = 2.102972 g / cm^3
# Si number density = 21.077697 Si / 1000 Ang^3
#
#
#
# Elastic Constant Matrix: (Units=GPa)
#
#
# Indices 1 2 3 4 5 6 
#
# 1 151.5993 64.0781 57.1795 0.0000 0.0000 0.0000
# 2 64.0781 101.8890 31.0048 0.0000 0.0000 0.0000
# 3 57.1795 31.0048 149.4757 0.0000 0.0000 0.0000
# 4 0.0000 0.0000 0.0000 15.3118 0.0000 0.0000
# 5 0.0000 0.0000 0.0000 0.0000 32.4740 0.0000
# 6 0.0000 0.0000 0.0000 0.0000 0.0000 37.7293
#
#
#
# Elastic Compliance Matrix: (Units=1/GPa)
#
#
# Indices 1 2 3 4 5 6 
#
# 1 0.009885 -0.005407 -0.002660 0.000000 0.000000 0.000000
# 2 -0.005407 0.013434 -0.000718 0.000000 0.000000 0.000000
# 3 -0.002660 -0.000718 0.007856 0.000000 0.000000 0.000000
# 4 0.000000 0.000000 0.000000 0.065309 0.000000 0.000000
# 5 0.000000 0.000000 0.000000 0.000000 0.030794 0.000000
# 6 0.000000 0.000000 0.000000 0.000000 0.000000 0.026505
#
#
# Mechanical properties :
#
#
# Convention : Reuss Voigt Hill
#
# Bulk Modulus (GPa) = 73.50207 78.60989 76.05598
# Shear Modulus (GPa) = 28.42715 33.81645 31.12180
#
# Velocity S-wave (km/s) = 3.67643 4.00981 3.84673
# Velocity P-wave (km/s) = 7.27799 7.66905 7.47608
#
# Compressibility (1/GPa) = 0.01360506
#
# Stress axis : x y z
#
# Youngs Moduli (GPa) = 101.16183 74.43905 127.28425
#
# Poissons Ratio (x) = 0.40252 0.33855
# Poissons Ratio (y) = 0.54702 0.09139
# Poissons Ratio (z) = 0.26907 0.05345
#
# Static dielectric constant tensor:
#      x y z
#    x 1.748960 0.000000 0.000000 
#    y 0.000000 1.799760 0.000000 
#    z 0.000000 0.000000 1.806900 
# 
# From -- ./inp_files/27937.got.cif
#   From: 2010.05.17/outbox.cif.g08.bks.cpg/sg58_14_cif.got.tgz:27937.got - 2010.06.03 14:20:14.
