data_PCOD9445712
_publ_section_title
;
Structure prediction by ZEFSAII (Michael W. Deem and Ramdas Pophale) SiO2 
 PCOD9445712
Probable space group: P N N M
;
_chemical_formula_sum "Si O2"
_cell_formula_units_Z 34
_cell_length_a 18.602384
_cell_length_b 7.149765
_cell_length_c 10.391574
_cell_angle_alpha 90.000000
_cell_angle_beta 90.000000
_cell_angle_gamma 90.000000
_cell_volume 1382.107129
_symmetry_space_group_name_H-M "P N N M"
_symmetry_group_IT_number 58
_symmetry_cell_setting 'orthorhombic'
loop_
_space_group_symop_operation_xyz
x,y,z
-x,-y,z
1/2+x,1/2-y,1/2-z
1/2-x,1/2+y,1/2-z
-x,-y,-z
x,y,-z
1/2-x,1/2+y,1/2+z
1/2+x,1/2-y,1/2+z
loop_
_atom_site_type_symbol
_atom_site_label
_atom_site_fract_x
_atom_site_fract_y
_atom_site_fract_z
Si Si1 0.118875 0.382354 0.000000
Si Si2 0.829916 0.912117 0.639857
Si Si3 0.000000 0.500000 0.500000
Si Si4 0.068343 0.786398 0.705880
Si Si5 0.474421 0.261955 0.500000
Si Si6 0.689072 0.020827 0.235357
O O1 0.066579 0.561692 0.000000
O O2 0.163593 0.396711 0.128319
O O3 0.060975 0.218212 0.000000
O O4 0.802126 0.972518 0.500000
O O5 0.906111 0.011454 0.656822
O O6 0.772606 0.971764 0.748941
O O7 0.830192 0.688057 0.640449
O O8 0.982224 0.339632 0.614591
O O9 0.142021 0.661107 0.705955
O O10 0.045823 0.817402 0.853854
#
# Coordination Sequence:
#
# PCOD9445712 Si02
#       6
#     4   8   2   8   4   8
#     4   9  18  40  66  94 124 167 226 268 326 388
#     4  12  25  43  65 104 138 174 228 283 348 411
#     4  12  24  44  70  96 150 194 212 280 360 414
#     4  11  24  45  70 103 138 181 231 280 346 414
#     4   9  20  43  72  94 127 177 231 277 322 402
#     4  11  23  41  70  97 132 176 222 285 339 405
#
# _framework density 24.600121000000001
#
# number of rings (size 3 to 8) (size 9 to 14) (size 15 to 20)
#    0.000    1.176    4.706    2.824    1.647    0.941 
#    2.118    7.059    0.000    0.000    0.000    0.000 
#    0.000    0.000    0.000    0.000    0.000    0.000 
#
# Total GULP energy -189332.424127 kJ/mol
# GULP energy per Si atom -5568.600710 kJ/mol
# Density = 2.454413 g / cm^3
# Si number density = 24.600121 Si / 1000 Ang^3
#
#
#
# Elastic Constant Matrix: (Units=GPa)
#
#
# Indices 1 2 3 4 5 6 
#
# 1 47.0672 23.4850 8.2395 0.0000 0.0000 0.0000
# 2 23.4850 104.1036 33.4686 0.0000 0.0000 0.0000
# 3 8.2395 33.4686 137.4243 0.0000 0.0000 0.0000
# 4 0.0000 0.0000 0.0000 21.8559 0.0000 0.0000
# 5 0.0000 0.0000 0.0000 0.000090845.5506 0.0000
# 6 0.0000 0.0000 0.0000 0.0000 0.0000 38.3639
#
#
#
# Elastic Compliance Matrix: (Units=1/GPa)
#
#
# Indices 1 2 3 4 5 6 
#
# 1 0.023943 -0.005360 -0.000130 0.000000 0.000000 0.000000
# 2 -0.005360 0.011622 -0.002509 0.000000 0.000000 0.000000
# 3 -0.000130 -0.002509 0.007896 0.000000 0.000000 0.000000
# 4 0.000000 0.000000 0.000000 0.045754 0.000000 0.000000
# 5 0.000000 0.000000 0.000000 0.000000 0.000011 0.000000
# 6 0.000000 0.000000 0.000000 0.000000 0.000000 0.026066
#
#
# Mechanical properties :
#
#
# Convention : Reuss Voigt Hill
#
# Bulk Modulus (GPa) = 36.41295 46.55348 41.48321
# Shear Modulus (GPa) = 35.60145 18196.04753 9115.82449
#
# Velocity S-wave (km/s) = 3.80834 86.09755 60.93969
# Velocity P-wave (km/s) = 5.84569 99.51223 70.48707
#
# Compressibility (1/GPa) = 0.02746276
#
# Stress axis : x y z
#
# Youngs Moduli (GPa) = 41.76538 86.04738 126.65297
#
# Poissons Ratio (x) = 0.46117 0.01650
# Poissons Ratio (y) = 0.22384 0.31777
# Poissons Ratio (z) = 0.00544 0.21589
#
# Static dielectric constant tensor:
#      x y z
#    x 2.114480 0.000000 0.000000 
#    y 0.000000 2.018490 0.000000 
#    z 0.000000 0.000000 1.894240 
# 
# From -- ./inp_files/8689.got.cif
#   From: 2010.05.17/outbox.cif.g08.bks.cpg/sg58_5_cif.got.tgz:8689.got - 2010.06.03 14:20:14.
