data_PCOD9445051
_publ_section_title
;
Structure prediction by ZEFSAII (Michael W. Deem and Ramdas Pophale) SiO2 
 PCOD9445051
Probable space group: P N N M
;
_chemical_formula_sum "Si O2"
_cell_formula_units_Z 32
_cell_length_a 7.080096
_cell_length_b 12.675579
_cell_length_c 13.058045
_cell_angle_alpha 90.000000
_cell_angle_beta 90.000000
_cell_angle_gamma 90.000000
_cell_volume 1171.885319
_symmetry_space_group_name_H-M "P N N M"
_symmetry_group_IT_number 58
_symmetry_cell_setting 'orthorhombic'
loop_
_space_group_symop_operation_xyz
x,y,z
-x,-y,z
1/2+x,1/2-y,1/2-z
1/2-x,1/2+y,1/2-z
-x,-y,-z
x,y,-z
1/2-x,1/2+y,1/2+z
1/2+x,1/2-y,1/2+z
loop_
_atom_site_type_symbol
_atom_site_label
_atom_site_fract_x
_atom_site_fract_y
_atom_site_fract_z
Si Si1 0.721220 0.467166 0.168278
Si Si2 0.747530 0.195344 0.388578
Si Si3 0.272430 0.489047 0.608126
Si Si4 0.341253 0.261328 0.341444
O O1 0.500000 0.500000 0.164719
O O2 0.811555 0.571327 0.119446
O O3 0.790292 0.460836 0.285932
O O4 0.752804 0.350410 0.127547
O O5 0.837975 0.210642 0.500000
O O6 0.554227 0.260678 0.382273
O O7 0.852021 0.222378 0.282257
O O8 0.500000 0.500000 0.608218
O O9 0.202113 0.531494 0.500000
O O10 0.235242 0.364136 0.617969
#
# Coordination Sequence:
#
# PCOD9445051 Si02
#       4
#     8   8   8   8
#     4  10  22  40  61  93 137 176 222 280 332 403
#     4  11  24  42  66  94 129 175 222 275 339 402
#     4   9  18  35  61  89 119 163 216 269 325 382
#     4  11  22  40  66  96 132 173 224 281 338 402
#
# _framework density 27.306425999999998
#
# number of rings (size 3 to 8) (size 9 to 14) (size 15 to 20)
#    0.000    1.750    0.000    6.000    0.000    6.500 
#    0.000   13.750    0.000    7.500    0.000    0.000 
#    0.000    0.000    0.000    0.000    0.000    0.000 
#
# Total GULP energy -179235.406376 kJ/mol
# GULP energy per Si atom -5601.106449 kJ/mol
# Density = 2.724428 g / cm^3
# Si number density = 27.306426 Si / 1000 Ang^3
#
#
#
# Elastic Constant Matrix: (Units=GPa)
#
#
# Indices 1 2 3 4 5 6 
#
# 1 63.3738 -4.5311 0.1807 0.0000 0.0000 0.0000
# 2 -4.5311 197.9783 4.7310 0.0000 0.0000 0.0000
# 3 0.1807 4.7310 198.8322 0.0000 0.0000 0.0000
# 4 0.0000 0.0000 0.0000 -10.7709 0.0000 0.0000
# 5 0.0000 0.0000 0.0000 0.0000 -4.8420 0.0000
# 6 0.0000 0.0000 0.0000 0.0000 0.0000 41.4234
#
#
#
# Elastic Compliance Matrix: (Units=1/GPa)
#
#
# Indices 1 2 3 4 5 6 
#
# 1 0.015805 0.000362 -0.000023 0.000000 0.000000 0.000000
# 2 0.000362 0.005062 -0.000121 0.000000 0.000000 0.000000
# 3 -0.000023 -0.000121 0.005032 0.000000 0.000000 0.000000
# 4 0.000000 0.000000 0.000000 -0.092843 0.000000 0.000000
# 5 0.000000 0.000000 0.000000 0.000000 -0.206524 0.000000
# 6 0.000000 0.000000 0.000000 0.000000 0.000000 0.024141
#
#
# Mechanical properties :
#
#
# Convention : Reuss Voigt Hill
#
# Bulk Modulus (GPa) = 37.96953 51.21614 44.59283
# Shear Modulus (GPa) = -20.74826 35.81568 7.53371
#
# Velocity S-wave (km/s) = -2.75949 3.62556 1.66281
# Velocity P-wave (km/s) = 1.94476 6.02686 4.47801
#
# Compressibility (1/GPa) = 0.02633691
#
# Stress axis : x y z
#
# Youngs Moduli (GPa) = 63.26967 197.54117 198.71779
#
# Poissons Ratio (x) = -0.07157 0.00457
# Poissons Ratio (y) = -0.02292 0.02400
# Poissons Ratio (z) = 0.00145 0.02386
#
# Static dielectric constant tensor:
#      x y z
#    x 2.184550 0.000000 0.000000 
#    y 0.000000 2.124690 0.000000 
#    z 0.000000 0.000000 2.102630 
# 
# From -- ./inp_files/12339.got.cif
#   From: 2010.05.17/outbox.cif.g08.bks.cpg/sg58_7_cif.got.tgz:12339.got - 2010.06.03 14:20:14.
