data_PCOD9445231
_publ_section_title
;
Structure prediction by ZEFSAII (Michael W. Deem and Ramdas Pophale) SiO2 
 PCOD9445231
Probable space group: P N N M
;
_chemical_formula_sum "Si O2"
_cell_formula_units_Z 40
_cell_length_a 8.757743
_cell_length_b 12.299288
_cell_length_c 15.750576
_cell_angle_alpha 90.000000
_cell_angle_beta 90.000000
_cell_angle_gamma 90.000000
_cell_volume 1696.557597
_symmetry_space_group_name_H-M "P N N M"
_symmetry_group_IT_number 58
_symmetry_cell_setting 'orthorhombic'
loop_
_space_group_symop_operation_xyz
x,y,z
-x,-y,z
1/2+x,1/2-y,1/2-z
1/2-x,1/2+y,1/2-z
-x,-y,-z
x,y,-z
1/2-x,1/2+y,1/2+z
1/2+x,1/2-y,1/2+z
loop_
_atom_site_type_symbol
_atom_site_label
_atom_site_fract_x
_atom_site_fract_y
_atom_site_fract_z
Si Si1 0.778657 0.052527 0.347266
Si Si2 0.083982 0.158068 0.402762
Si Si3 0.824649 0.467676 0.664371
Si Si4 0.318350 0.330787 0.402076
Si Si5 0.649777 0.271160 0.398866
O O1 0.726908 0.006478 0.257250
O O2 0.664591 0.143656 0.380669
O O3 0.940469 0.116858 0.348594
O O4 0.805110 0.946523 0.404323
O O5 0.031081 0.181308 0.500000
O O6 0.180066 0.258294 0.365361
O O7 0.724566 0.543868 0.603077
O O8 0.780187 0.343960 0.645395
O O9 0.000000 0.500000 0.651218
O O10 0.325197 0.294916 0.500000
O O11 0.484942 0.309860 0.365564
O O12 0.661072 0.289503 0.500000
#
# Coordination Sequence:
#
# PCOD9445231 Si02
#       5
#     8   8   8   8   8
#     4  11  25  40  70  99 138 175 225 277 338 401
#     4  10  22  44  72 101 132 177 225 274 340 413
#     4  12  28  43  66 100 139 183 230 283 347 403
#     4  10  24  44  72 101 133 178 231 283 341 412
#     4  11  25  46  71  99 137 184 232 285 344 412
#
# _framework density 23.577154
#
# number of rings (size 3 to 8) (size 9 to 14) (size 15 to 20)
#    0.000    1.200    0.000    4.800   11.200    4.800 
#    0.000    3.000    0.000    0.000    0.000    0.000 
#    0.000    0.000    0.000    0.000    0.000    0.000 
#
# Total GULP energy -223775.235104 kJ/mol
# GULP energy per Si atom -5594.380878 kJ/mol
# Density = 2.352349 g / cm^3
# Si number density = 23.577154 Si / 1000 Ang^3
#
#
#
# Elastic Constant Matrix: (Units=GPa)
#
#
# Indices 1 2 3 4 5 6 
#
# 1 48.1613 -12.9638 7.8504 0.0000 0.0000 0.0000
# 2 -12.9638 91.3547 -3.4414 0.0000 0.0000 0.0000
# 3 7.8504 -3.4414 59.6235 0.0000 0.0000 0.0000
# 4 0.0000 0.0000 0.0000 46.9753 0.0000 0.0000
# 5 0.0000 0.0000 0.0000 0.0000 5.3992 0.0000
# 6 0.0000 0.0000 0.0000 0.0000 0.0000 43.5192
#
#
#
# Elastic Compliance Matrix: (Units=1/GPa)
#
#
# Indices 1 2 3 4 5 6 
#
# 1 0.022021 0.003022 -0.002725 0.000000 0.000000 0.000000
# 2 0.003022 0.011385 0.000259 0.000000 0.000000 0.000000
# 3 -0.002725 0.000259 0.017146 0.000000 0.000000 0.000000
# 4 0.000000 0.000000 0.000000 0.021288 0.000000 0.000000
# 5 0.000000 0.000000 0.000000 0.000000 0.185214 0.000000
# 6 0.000000 0.000000 0.000000 0.000000 0.000000 0.022978
#
#
# Mechanical properties :
#
#
# Convention : Reuss Voigt Hill
#
# Bulk Modulus (GPa) = 19.35551 20.22555 19.79053
# Shear Modulus (GPa) = 16.88386 33.02500 24.95443
#
# Velocity S-wave (km/s) = 2.67893 3.74668 3.25686
# Velocity P-wave (km/s) = 4.21855 5.22627 4.74921
#
# Compressibility (1/GPa) = 0.05166486
#
# Stress axis : x y z
#
# Youngs Moduli (GPa) = 45.41068 87.83494 58.32376
#
# Poissons Ratio (x) = -0.26546 0.15893
# Poissons Ratio (y) = -0.13724 -0.01512
# Poissons Ratio (z) = 0.12374 -0.02277
#
# Static dielectric constant tensor:
#      x y z
#    x 1.933120 0.000000 0.000000 
#    y 0.000000 1.839690 0.000000 
#    z 0.000000 0.000000 1.911300 
# 
# From -- ./inp_files/24961.got.cif
#   From: 2010.05.17/outbox.cif.g08.bks.cpg/sg58_13_cif.got.tgz:24961.got - 2010.06.03 14:20:14.
