data_PCOD9445241
_publ_section_title
;
Structure prediction by ZEFSAII (Michael W. Deem and Ramdas Pophale) SiO2 
 PCOD9445241
Probable space group: P N N M
;
_chemical_formula_sum "Si O2"
_cell_formula_units_Z 48
_cell_length_a 31.360294
_cell_length_b 9.065919
_cell_length_c 8.402836
_cell_angle_alpha 90.000000
_cell_angle_beta 90.000000
_cell_angle_gamma 90.000000
_cell_volume 2389.009339
_symmetry_space_group_name_H-M "P N N M"
_symmetry_group_IT_number 58
_symmetry_cell_setting 'orthorhombic'
loop_
_space_group_symop_operation_xyz
x,y,z
-x,-y,z
1/2+x,1/2-y,1/2-z
1/2-x,1/2+y,1/2-z
-x,-y,-z
x,y,-z
1/2-x,1/2+y,1/2+z
1/2+x,1/2-y,1/2+z
loop_
_atom_site_type_symbol
_atom_site_label
_atom_site_fract_x
_atom_site_fract_y
_atom_site_fract_z
Si Si1 0.889517 0.450876 0.500000
Si Si2 0.096181 0.033455 0.500000
Si Si3 0.010376 0.326311 0.172644
Si Si4 0.796652 0.743367 0.823053
Si Si5 0.174755 0.806702 0.500000
Si Si6 0.105740 0.290280 0.249764
Si Si7 0.531326 0.723338 0.000000
Si Si8 0.222456 0.911170 0.182368
O O1 0.847334 0.352459 0.500000
O O2 0.891446 0.560848 0.352386
O O3 0.930404 0.343746 0.500000
O O4 0.136400 0.925109 0.500000
O O5 0.053805 0.935501 0.500000
O O6 0.099490 0.142753 0.352418
O O7 0.061076 0.306420 0.162109
O O8 0.000000 0.500000 0.189337
O O9 0.994310 0.249739 0.335563
O O10 0.991755 0.276659 0.000000
O O11 0.847450 0.727354 0.822449
O O12 0.771476 0.640037 0.700911
O O13 0.784137 0.913885 0.794350
O O14 0.781793 0.702443 0.000000
O O15 0.198910 0.832248 0.331356
O O16 0.208092 0.876533 0.000000
#
# Coordination Sequence:
#
# PCOD9445241 Si02
#       8
#     4   4   8   8   4   8   4   8
#     4  10  23  37  71  97 129 176 222 267 323 394
#     4  10  23  40  72  96 134 172 218 267 338 385
#     4  11  23  41  67  98 134 175 220 271 328 393
#     4  11  25  43  64  95 130 170 217 268 326 387
#     4  11  22  48  64  95 136 171 213 277 323 384
#     4  11  22  41  66  98 129 174 217 273 325 392
#     4  11  21  46  67 100 132 174 220 270 327 392
#     4  11  26  43  66  94 128 171 217 266 326 393
#
# _framework density 20.092009999999998
#
# number of rings (size 3 to 8) (size 9 to 14) (size 15 to 20)
#    0.000    1.167    4.167    1.750    5.833    1.333 
#    0.000    6.667    0.000    0.000    0.000    0.000 
#    0.000    0.000    0.000    0.000    0.000    0.000 
#
# Total GULP energy -267749.026364 kJ/mol
# GULP energy per Si atom -5578.104716 kJ/mol
# Density = 2.004628 g / cm^3
# Si number density = 20.092010 Si / 1000 Ang^3
#
#
#
# Elastic Constant Matrix: (Units=GPa)
#
#
# Indices 1 2 3 4 5 6 
#
# 1 123.7914 44.1842 59.7601 0.0000 0.0000 0.0000
# 2 44.1842 83.6720 41.8817 0.0000 0.0000 0.0000
# 3 59.7601 41.8817 138.3872 0.0000 0.0000 0.0000
# 4 0.0000 0.0000 0.0000 91.2190 0.0000 0.0000
# 5 0.0000 0.0000 0.0000 0.0000 21.1640 0.0000
# 6 0.0000 0.0000 0.0000 0.0000 0.0000 34.2155
#
#
#
# Elastic Compliance Matrix: (Units=1/GPa)
#
#
# Indices 1 2 3 4 5 6 
#
# 1 0.011313 -0.004159 -0.003627 0.000000 0.000000 0.000000
# 2 -0.004159 0.015614 -0.002930 0.000000 0.000000 0.000000
# 3 -0.003627 -0.002930 0.009679 0.000000 0.000000 0.000000
# 4 0.000000 0.000000 0.000000 0.010963 0.000000 0.000000
# 5 0.000000 0.000000 0.000000 0.000000 0.047250 0.000000
# 6 0.000000 0.000000 0.000000 0.000000 0.000000 0.029227
#
#
# Mechanical properties :
#
#
# Convention : Reuss Voigt Hill
#
# Bulk Modulus (GPa) = 65.89421 70.83362 68.36391
# Shear Modulus (GPa) = 33.21503 42.65466 37.93485
#
# Velocity S-wave (km/s) = 4.07030 4.61256 4.34989
# Velocity P-wave (km/s) = 7.41331 7.98115 7.70247
#
# Compressibility (1/GPa) = 0.01517584
#
# Stress axis : x y z
#
# Youngs Moduli (GPa) = 88.39140 64.04558 103.31760
#
# Poissons Ratio (x) = 0.26635 0.37472
# Poissons Ratio (y) = 0.36760 0.30267
# Poissons Ratio (z) = 0.32058 0.18762
#
# Static dielectric constant tensor:
#      x y z
#    x 1.729290 0.000000 0.000000 
#    y 0.000000 1.663350 0.000000 
#    z 0.000000 0.000000 1.734890 
# 
# From -- ./inp_files/10807.got.cif
#   From: 2010.05.17/outbox.cif.g08.bks.cpg/sg58_6_cif.got.tgz:10807.got - 2010.06.03 14:20:14.
