data_PCOD9445738
_publ_section_title
;
Structure prediction by ZEFSAII (Michael W. Deem and Ramdas Pophale) SiO2 
 PCOD9445738
Probable space group: P N N M
;
_chemical_formula_sum "Si O2"
_cell_formula_units_Z 40
_cell_length_a 8.928378
_cell_length_b 7.604355
_cell_length_c 25.845316
_cell_angle_alpha 90.000000
_cell_angle_beta 90.000000
_cell_angle_gamma 90.000000
_cell_volume 1754.756252
_symmetry_space_group_name_H-M "P N N M"
_symmetry_group_IT_number 58
_symmetry_cell_setting 'orthorhombic'
loop_
_space_group_symop_operation_xyz
x,y,z
-x,-y,z
1/2+x,1/2-y,1/2-z
1/2-x,1/2+y,1/2-z
-x,-y,-z
x,y,-z
1/2-x,1/2+y,1/2+z
1/2+x,1/2-y,1/2+z
loop_
_atom_site_type_symbol
_atom_site_label
_atom_site_fract_x
_atom_site_fract_y
_atom_site_fract_z
Si Si1 0.347670 0.322166 0.385007
Si Si2 0.844075 0.022634 0.408502
Si Si3 0.467529 0.815769 0.706637
Si Si4 0.654821 0.339370 0.558330
Si Si5 0.888711 0.160946 0.296323
O O1 0.433025 0.313946 0.329469
O O2 0.285047 0.514755 0.400431
O O3 0.482908 0.305958 0.426070
O O4 0.232801 0.161272 0.391742
O O5 0.732477 0.151634 0.437028
O O6 0.891174 0.133504 0.357316
O O7 0.000000 0.000000 0.437785
O O8 0.289177 0.814241 0.713028
O O9 0.538456 0.814514 0.763398
O O10 0.500000 0.000000 0.678676
O O11 0.671351 0.406231 0.500000
O O12 0.000000 0.000000 0.277476
#
# Coordination Sequence:
#
# PCOD9445738 Si02
#       5
#     8   8   8   8   8
#     4  11  23  45  72 103 148 184 245 305 357 442
#     4  11  25  48  68 105 151 190 238 305 368 439
#     4  12  23  42  67 100 143 193 238 294 362 428
#     4  11  25  46  78 109 135 190 252 304 375 434
#     4  11  25  42  65 104 143 192 245 286 362 439
#
# _framework density 22.795188
#
# number of rings (size 3 to 8) (size 9 to 14) (size 15 to 20)
#    0.000    0.800    4.000    3.000    5.600    5.200 
#    0.000    1.000    0.000    0.000    0.000    0.000 
#    0.000    0.000    0.000    0.000    0.000    0.000 
#
# Total GULP energy -222834.306248 kJ/mol
# GULP energy per Si atom -5570.857656 kJ/mol
# Density = 2.274330 g / cm^3
# Si number density = 22.795188 Si / 1000 Ang^3
#
#
#
# Elastic Constant Matrix: (Units=GPa)
#
#
# Indices 1 2 3 4 5 6 
#
# 1 131.1073 39.9648 13.5203 0.0000 0.0000 0.0000
# 2 39.9648 103.7362 20.7194 0.0000 0.0000 0.0000
# 3 13.5203 20.7194 87.6244 0.0000 0.0000 0.0000
# 4 0.0000 0.0000 0.0000 27.7938 0.0000 0.0000
# 5 0.0000 0.0000 0.0000 0.0000 -7.1529 0.0000
# 6 0.0000 0.0000 0.0000 0.0000 0.0000 34.7574
#
#
#
# Elastic Compliance Matrix: (Units=1/GPa)
#
#
# Indices 1 2 3 4 5 6 
#
# 1 0.008670 -0.003225 -0.000575 0.000000 0.000000 0.000000
# 2 -0.003225 0.011317 -0.002178 0.000000 0.000000 0.000000
# 3 -0.000575 -0.002178 0.012016 0.000000 0.000000 0.000000
# 4 0.000000 0.000000 0.000000 0.035979 0.000000 0.000000
# 5 0.000000 0.000000 0.000000 0.000000 -0.139803 0.000000
# 6 0.000000 0.000000 0.000000 0.000000 0.000000 0.028771
#
#
# Mechanical properties :
#
#
# Convention : Reuss Voigt Hill
#
# Bulk Modulus (GPa) = 49.88550 52.31966 51.10258
# Shear Modulus (GPa) = -204.83497 27.63054 -88.60221
#
# Velocity S-wave (km/s) = -9.48968 3.48533 -6.24125
# Velocity P-wave (km/s) = 9.90657 6.26088 5.42870
#
# Compressibility (1/GPa) = 0.02004591
#
# Stress axis : x y z
#
# Youngs Moduli (GPa) = 115.34331 88.35902 83.22101
#
# Poissons Ratio (x) = 0.28498 0.04786
# Poissons Ratio (y) = 0.37200 0.18129
# Poissons Ratio (z) = 0.06634 0.19249
#
# Static dielectric constant tensor:
#      x y z
#    x 1.974450 0.000000 0.000000 
#    y 0.000000 2.177230 0.000000 
#    z 0.000000 0.000000 1.854430 
# 
# From -- ./inp_files/34436.got.cif
#   From: 2010.05.17/outbox.cif.g08.bks.cpg/sg58_18_cif.got.tgz:34436.got - 2010.06.03 14:20:14.
