data_PCOD9445767
_publ_section_title
;
Structure prediction by ZEFSAII (Michael W. Deem and Ramdas Pophale) SiO2 
 PCOD9445767
Probable space group: P N N M
;
_chemical_formula_sum "Si O2"
_cell_formula_units_Z 40
_cell_length_a 7.815738
_cell_length_b 9.383389
_cell_length_c 24.061703
_cell_angle_alpha 90.000000
_cell_angle_beta 90.000000
_cell_angle_gamma 90.000000
_cell_volume 1764.639821
_symmetry_space_group_name_H-M "P N N M"
_symmetry_group_IT_number 58
_symmetry_cell_setting 'orthorhombic'
loop_
_space_group_symop_operation_xyz
x,y,z
-x,-y,z
1/2+x,1/2-y,1/2-z
1/2-x,1/2+y,1/2-z
-x,-y,-z
x,y,-z
1/2-x,1/2+y,1/2+z
1/2+x,1/2-y,1/2+z
loop_
_atom_site_type_symbol
_atom_site_label
_atom_site_fract_x
_atom_site_fract_y
_atom_site_fract_z
Si Si1 0.195874 0.200826 0.000000
Si Si2 0.125348 0.873218 0.399307
Si Si3 0.614481 0.134619 0.110907
Si Si4 0.202275 0.853172 0.000000
Si Si5 0.621469 0.626693 0.295369
Si Si6 0.126107 0.377884 0.802741
O O1 0.281997 0.280712 0.052600
O O2 0.989548 0.207685 0.000000
O O3 0.216242 0.027737 0.000000
O O4 0.267170 0.928744 0.356131
O O5 0.005606 0.759959 0.366488
O O6 0.000000 0.000000 0.418775
O O7 0.702336 0.193766 0.055506
O O8 0.755890 0.083819 0.154187
O O9 0.500000 0.000000 0.095922
O O10 0.500000 0.500000 0.275929
O O11 0.743218 0.670440 0.244893
O O12 0.497837 0.748884 0.317592
O O13 0.000000 0.500000 0.780625
#
# Coordination Sequence:
#
# PCOD9445767 Si02
#       6
#     4   8   8   4   8   8
#     4  11  24  43  68 101 133 177 225 282 335 401
#     4  12  25  44  67  98 137 180 222 273 340 407
#     4  12  23  42  68 100 132 174 223 278 334 395
#     4  11  24  42  70 100 137 167 226 289 341 384
#     4  12  25  42  69  99 129 175 227 273 329 401
#     4  12  25  46  66  97 137 178 219 279 337 394
#
# _framework density 22.667515000000002
#
# number of rings (size 3 to 8) (size 9 to 14) (size 15 to 20)
#    0.000    0.200    2.000    8.400    2.800    0.000 
#    0.000    1.500    0.000    0.000    0.000    0.000 
#    0.000    0.000    0.000    0.000    0.000    0.000 
#
# Total GULP energy -223860.635139 kJ/mol
# GULP energy per Si atom -5596.515878 kJ/mol
# Density = 2.261592 g / cm^3
# Si number density = 22.667515 Si / 1000 Ang^3
#
#
#
# Elastic Constant Matrix: (Units=GPa)
#
#
# Indices 1 2 3 4 5 6 
#
# 1 143.9729 37.1137 42.1758 0.0000 0.0000 0.0000
# 2 37.1137 70.1726 -19.0451 0.0000 0.0000 0.0000
# 3 42.1758 -19.0451 87.2197 0.0000 0.0000 0.0000
# 4 0.0000 0.0000 0.0000 23.8351 0.0000 0.0000
# 5 0.0000 0.0000 0.0000 0.0000 17.8312 0.0000
# 6 0.0000 0.0000 0.0000 0.0000 0.0000 48.0047
#
#
#
# Elastic Compliance Matrix: (Units=1/GPa)
#
#
# Indices 1 2 3 4 5 6 
#
# 1 0.010980 -0.007705 -0.006992 0.000000 0.000000 0.000000
# 2 -0.007705 0.020555 0.008214 0.000000 0.000000 0.000000
# 3 -0.006992 0.008214 0.016640 0.000000 0.000000 0.000000
# 4 0.000000 0.000000 0.000000 0.041955 0.000000 0.000000
# 5 0.000000 0.000000 0.000000 0.000000 0.056081 0.000000
# 6 0.000000 0.000000 0.000000 0.000000 0.000000 0.020831
#
#
# Mechanical properties :
#
#
# Convention : Reuss Voigt Hill
#
# Bulk Modulus (GPa) = 28.40139 46.87266 37.63703
# Shear Modulus (GPa) = 26.07628 34.00892 30.04260
#
# Velocity S-wave (km/s) = 3.39541 3.87762 3.64450
# Velocity P-wave (km/s) = 5.28474 6.38523 5.86087
#
# Compressibility (1/GPa) = 0.03520954
#
# Stress axis : x y z
#
# Youngs Moduli (GPa) = 91.07268 48.64979 60.09620
#
# Poissons Ratio (x) = 0.37485 0.42019
# Poissons Ratio (y) = 0.70172 -0.49364
# Poissons Ratio (z) = 0.63678 -0.39962
#
# Static dielectric constant tensor:
#      x y z
#    x 1.869150 0.000000 0.000000 
#    y 0.000000 1.852350 0.000000 
#    z 0.000000 0.000000 1.779780 
# 
# From -- ./inp_files/33190.got.cif
#   From: 2010.05.17/outbox.cif.g08.bks.cpg/sg58_17_cif.got.tgz:33190.got - 2010.06.03 14:20:14.
