data_PCOD9445256
_publ_section_title
;
Structure prediction by ZEFSAII (Michael W. Deem and Ramdas Pophale) SiO2 
 PCOD9445256
Probable space group: P N N M
;
_chemical_formula_sum "Si O2"
_cell_formula_units_Z 36
_cell_length_a 19.088592
_cell_length_b 5.543403
_cell_length_c 15.349404
_cell_angle_alpha 90.000000
_cell_angle_beta 90.000000
_cell_angle_gamma 90.000000
_cell_volume 1624.208822
_symmetry_space_group_name_H-M "P N N M"
_symmetry_group_IT_number 58
_symmetry_cell_setting 'orthorhombic'
loop_
_space_group_symop_operation_xyz
x,y,z
-x,-y,z
1/2+x,1/2-y,1/2-z
1/2-x,1/2+y,1/2-z
-x,-y,-z
x,y,-z
1/2-x,1/2+y,1/2+z
1/2+x,1/2-y,1/2+z
loop_
_atom_site_type_symbol
_atom_site_label
_atom_site_fract_x
_atom_site_fract_y
_atom_site_fract_z
Si Si1 0.418376 0.452217 0.331464
Si Si2 0.957942 0.256345 0.000000
Si Si3 0.842797 0.341438 0.687924
Si Si4 0.658991 0.883320 0.000000
Si Si5 0.745161 0.383422 0.000000
Si Si6 0.312914 0.847666 0.653661
O O1 0.500000 0.500000 0.310904
O O2 0.420317 0.252057 0.407012
O O3 0.378908 0.368757 0.244108
O O4 0.373562 0.666488 0.376106
O O5 0.000000 0.500000 0.000000
O O6 0.000000 0.000000 0.000000
O O7 0.877028 0.396924 0.594515
O O8 0.760852 0.287594 0.670078
O O9 0.841570 0.560619 0.754500
O O10 0.712810 0.114678 0.000000
O O11 0.690015 0.608672 0.000000
O O12 0.789316 0.444746 0.913543
#
# Coordination Sequence:
#
# PCOD9445256 Si02
#       6
#     8   4   8   4   4   8
#     4  11  26  44  68 104 143 192 229 287 355 427
#     4  10  25  47  68 104 148 185 224 274 350 439
#     4  11  23  41  70  97 141 180 240 292 350 414
#     4  10  24  42  67 105 137 181 236 305 346 401
#     4  10  23  39  69 105 143 176 227 291 359 414
#     4  11  22  41  68 104 139 182 233 288 353 419
#
# _framework density 22.164639000000001
#
# number of rings (size 3 to 8) (size 9 to 14) (size 15 to 20)
#    0.000    1.333    2.222    2.000   12.444    0.889 
#    0.000    0.556    0.000    1.333    0.000    0.000 
#    0.000    0.000    0.000    0.000    0.000    0.000 
#
# Total GULP energy -200776.685393 kJ/mol
# GULP energy per Si atom -5577.130150 kJ/mol
# Density = 2.211419 g / cm^3
# Si number density = 22.164639 Si / 1000 Ang^3
#
#
#
# Elastic Constant Matrix: (Units=GPa)
#
#
# Indices 1 2 3 4 5 6 
#
# 1 84.2616 22.6139 -5.2477 0.0000 0.0000 0.0000
# 2 22.6139 88.1956 14.8819 0.0000 0.0000 0.0000
# 3 -5.2477 14.8819 161.7375 0.0000 0.0000 0.0000
# 4 0.0000 0.0000 0.0000 38.3552 0.0000 0.0000
# 5 0.0000 0.0000 0.0000 0.0000 327.9314 0.0000
# 6 0.0000 0.0000 0.0000 0.0000 0.0000 45.2209
#
#
#
# Elastic Compliance Matrix: (Units=1/GPa)
#
#
# Indices 1 2 3 4 5 6 
#
# 1 0.012829 -0.003413 0.000730 0.000000 0.000000 0.000000
# 2 -0.003413 0.012425 -0.001254 0.000000 0.000000 0.000000
# 3 0.000730 -0.001254 0.006322 0.000000 0.000000 0.000000
# 4 0.000000 0.000000 0.000000 0.026072 0.000000 0.000000
# 5 0.000000 0.000000 0.000000 0.000000 0.003049 0.000000
# 6 0.000000 0.000000 0.000000 0.000000 0.000000 0.022114
#
#
# Mechanical properties :
#
#
# Convention : Reuss Voigt Hill
#
# Bulk Modulus (GPa) = 42.18817 44.29897 43.24357
# Shear Modulus (GPa) = 50.71748 102.43127 76.57437
#
# Velocity S-wave (km/s) = 4.78872 6.80545 5.88413
# Velocity P-wave (km/s) = 7.04635 9.04334 8.10657
#
# Compressibility (1/GPa) = 0.02370333
#
# Stress axis : x y z
#
# Youngs Moduli (GPa) = 77.94731 80.48251 158.17937
#
# Poissons Ratio (x) = 0.27466 -0.11551
# Poissons Ratio (y) = 0.26601 0.19836
# Poissons Ratio (z) = -0.05692 0.10092
#
# Static dielectric constant tensor:
#      x y z
#    x 1.866010 0.000000 0.000000 
#    y 0.000000 1.859140 0.000000 
#    z 0.000000 0.000000 1.812730 
# 
# From -- ./inp_files/23095.got.cif
#   From: 2010.05.17/outbox.cif.g08.bks.cpg/sg58_12_cif.got.tgz:23095.got - 2010.06.03 14:20:14.
