data_PCOD9445084
_publ_section_title
;
Structure prediction by ZEFSAII (Michael W. Deem and Ramdas Pophale) SiO2 
 PCOD9445084
Probable space group: P N N M
;
_chemical_formula_sum "Si O2"
_cell_formula_units_Z 48
_cell_length_a 14.833015
_cell_length_b 9.819959
_cell_length_c 12.978470
_cell_angle_alpha 90.000000
_cell_angle_beta 90.000000
_cell_angle_gamma 90.000000
_cell_volume 1890.438738
_symmetry_space_group_name_H-M "P N N M"
_symmetry_group_IT_number 58
_symmetry_cell_setting 'orthorhombic'
loop_
_space_group_symop_operation_xyz
x,y,z
-x,-y,z
1/2+x,1/2-y,1/2-z
1/2-x,1/2+y,1/2-z
-x,-y,-z
x,y,-z
1/2-x,1/2+y,1/2+z
1/2+x,1/2-y,1/2+z
loop_
_atom_site_type_symbol
_atom_site_label
_atom_site_fract_x
_atom_site_fract_y
_atom_site_fract_z
Si Si1 0.203706 0.817164 0.877245
Si Si2 0.779161 0.954397 0.618658
Si Si3 0.912619 0.582807 0.836219
Si Si4 0.999590 0.153768 0.820284
Si Si5 0.357402 0.011287 0.118399
Si Si6 0.077644 0.821567 0.619016
O O1 0.265607 0.694854 0.833094
O O2 0.102231 0.796621 0.840701
O O3 0.254536 0.960860 0.862377
O O4 0.198935 0.799497 0.000000
O O5 0.805245 0.932747 0.500000
O O6 0.680443 0.023051 0.623215
O O7 0.849938 0.065839 0.655861
O O8 0.909280 0.560144 0.712029
O O9 0.000000 0.500000 0.873497
O O10 0.929573 0.739826 0.863564
O O11 0.005354 0.160815 0.696122
O O12 0.000000 0.000000 0.858520
O O13 0.377472 0.171658 0.125181
O O14 0.381068 0.969066 0.000000
O O15 0.053018 0.842443 0.500000
#
# Coordination Sequence:
#
# PCOD9445084 Si02
#       6
#     8   8   8   8   8   8
#     4  10  22  42  64  89 118 156 202 245 292 353
#     4  10  22  40  65  89 117 157 201 245 293 354
#     4  12  23  40  60  88 121 158 196 239 301 355
#     4  12  27  40  58  90 125 160 196 248 301 351
#     4  10  22  40  65  89 117 157 201 245 293 354
#     4  10  22  42  64  89 118 156 202 245 292 353
#
# _framework density 25.390930000000001
#
# number of rings (size 3 to 8) (size 9 to 14) (size 15 to 20)
#    0.000    1.333    3.333    1.000    4.667    2.667 
#    0.000    0.000    0.000    0.000    0.000    0.000 
#    0.000    0.000    0.000    0.000    0.000    0.000 
#
# Total GULP energy -268580.695971 kJ/mol
# GULP energy per Si atom -5595.431166 kJ/mol
# Density = 2.533314 g / cm^3
# Si number density = 25.390930 Si / 1000 Ang^3
#
#
#
# Elastic Constant Matrix: (Units=GPa)
#
#
# Indices 1 2 3 4 5 6 
#
# 1 51.7943 15.6362 -9.5744 0.0000 0.0000 0.0000
# 2 15.6362 145.0883 1.0141 0.0000 0.0000 0.0000
# 3 -9.5744 1.0141 64.4551 0.0000 0.0000 0.0000
# 4 0.0000 0.0000 0.0000 19.7612 0.0000 0.0000
# 5 0.0000 0.0000 0.0000 0.0000 15.5025 0.0000
# 6 0.0000 0.0000 0.0000 0.0000 0.0000 47.6070
#
#
#
# Elastic Compliance Matrix: (Units=1/GPa)
#
#
# Indices 1 2 3 4 5 6 
#
# 1 0.020553 -0.002237 0.003088 0.000000 0.000000 0.000000
# 2 -0.002237 0.007137 -0.000445 0.000000 0.000000 0.000000
# 3 0.003088 -0.000445 0.015980 0.000000 0.000000 0.000000
# 4 0.000000 0.000000 0.000000 0.050604 0.000000 0.000000
# 5 0.000000 0.000000 0.000000 0.000000 0.064506 0.000000
# 6 0.000000 0.000000 0.000000 0.000000 0.000000 0.021005
#
#
# Mechanical properties :
#
#
# Convention : Reuss Voigt Hill
#
# Bulk Modulus (GPa) = 22.47982 30.60994 26.54488
# Shear Modulus (GPa) = 25.79992 33.52493 29.66242
#
# Velocity S-wave (km/s) = 3.19110 3.63760 3.42164
# Velocity P-wave (km/s) = 4.73817 5.45202 5.10758
#
# Compressibility (1/GPa) = 0.04448435
#
# Stress axis : x y z
#
# Youngs Moduli (GPa) = 48.65419 140.12470 62.57661
#
# Poissons Ratio (x) = 0.31340 -0.19325
# Poissons Ratio (y) = 0.10882 0.02782
# Poissons Ratio (z) = -0.15026 0.06229
#
# Static dielectric constant tensor:
#      x y z
#    x 1.952830 0.000000 0.000000 
#    y 0.000000 2.026410 0.000000 
#    z 0.000000 0.000000 2.053100 
# 
# From -- ./inp_files/19790.got.cif
#   From: 2010.05.17/outbox.cif.g08.bks.cpg/sg58_10_cif.got.tgz:19790.got - 2010.06.03 14:20:14.
