data_PCOD9445024
_publ_section_title
;
Structure prediction by ZEFSAII (Michael W. Deem and Ramdas Pophale) SiO2 
 PCOD9445024
Probable space group: P N N M
;
_chemical_formula_sum "Si O2"
_cell_formula_units_Z 40
_cell_length_a 8.418417
_cell_length_b 12.206539
_cell_length_c 16.446251
_cell_angle_alpha 90.000000
_cell_angle_beta 90.000000
_cell_angle_gamma 90.000000
_cell_volume 1690.012402
_symmetry_space_group_name_H-M "P N N M"
_symmetry_group_IT_number 58
_symmetry_cell_setting 'orthorhombic'
loop_
_space_group_symop_operation_xyz
x,y,z
-x,-y,z
1/2+x,1/2-y,1/2-z
1/2-x,1/2+y,1/2-z
-x,-y,-z
x,y,-z
1/2-x,1/2+y,1/2+z
1/2+x,1/2-y,1/2+z
loop_
_atom_site_type_symbol
_atom_site_label
_atom_site_fract_x
_atom_site_fract_y
_atom_site_fract_z
Si Si1 0.286725 0.794165 0.903097
Si Si2 0.815012 0.020913 0.656510
Si Si3 0.810890 0.976451 0.840001
Si Si4 0.922383 0.388493 0.909615
Si Si5 0.149100 0.743661 0.597863
O O1 0.268395 0.921824 0.885440
O O2 0.130611 0.726883 0.869973
O O3 0.464114 0.762804 0.874263
O O4 0.279055 0.777896 0.000000
O O5 0.760145 0.984830 0.745836
O O6 0.776852 0.146599 0.636234
O O7 0.752760 0.940789 0.587254
O O8 0.000000 0.000000 0.658230
O O9 0.749459 0.862116 0.875643
O O10 0.000000 0.000000 0.846014
O O11 0.000000 0.500000 0.872116
O O12 0.992126 0.372653 0.000000
O O13 0.149305 0.751318 0.500000
#
# Coordination Sequence:
#
# PCOD9445024 Si02
#       5
#     8   8   8   8   8
#     4  10  22  43  68  93 131 176 226 277 333 411
#     4  11  24  43  67  97 135 173 222 274 341 409
#     4  11  27  42  62  99 137 175 226 283 344 403
#     4  10  22  39  64  99 132 167 215 278 338 392
#     4  11  24  43  71  97 129 183 233 278 338 414
#
# _framework density 23.668465000000001
#
# number of rings (size 3 to 8) (size 9 to 14) (size 15 to 20)
#    0.000    1.400    2.000    1.800    5.600    5.600 
#    0.000    0.000    0.000    0.000    0.000    0.000 
#    0.000    0.000    0.000    0.000    0.000    0.000 
#
# Total GULP energy -223096.550731 kJ/mol
# GULP energy per Si atom -5577.413768 kJ/mol
# Density = 2.361459 g / cm^3
# Si number density = 23.668465 Si / 1000 Ang^3
#
#
#
# Elastic Constant Matrix: (Units=GPa)
#
#
# Indices 1 2 3 4 5 6 
#
# 1 38.4023 0.8150 8.1500 0.0000 0.0000 0.0000
# 2 0.8150 149.7338 8.0448 0.0000 0.0000 0.0000
# 3 8.1500 8.0448 51.3941 0.0000 0.0000 0.0000
# 4 0.0000 0.0000 0.0000 42.9557 0.0000 0.0000
# 5 0.0000 0.0000 0.0000 0.0000 18.6575 0.0000
# 6 0.0000 0.0000 0.0000 0.0000 0.0000 55.2641
#
#
#
# Elastic Compliance Matrix: (Units=1/GPa)
#
#
# Indices 1 2 3 4 5 6 
#
# 1 0.026948 0.000084 -0.004286 0.000000 0.000000 0.000000
# 2 0.000084 0.006735 -0.001068 0.000000 0.000000 0.000000
# 3 -0.004286 -0.001068 0.020304 0.000000 0.000000 0.000000
# 4 0.000000 0.000000 0.000000 0.023280 0.000000 0.000000
# 5 0.000000 0.000000 0.000000 0.000000 0.053598 0.000000
# 6 0.000000 0.000000 0.000000 0.000000 0.000000 0.018095
#
#
# Mechanical properties :
#
#
# Convention : Reuss Voigt Hill
#
# Bulk Modulus (GPa) = 23.01656 30.39442 26.70549
# Shear Modulus (GPa) = 28.73837 38.21016 33.47426
#
# Velocity S-wave (km/s) = 3.48833 4.02231 3.76480
# Velocity P-wave (km/s) = 5.09610 5.86869 5.49599
#
# Compressibility (1/GPa) = 0.04344699
#
# Stress axis : x y z
#
# Youngs Moduli (GPa) = 37.10845 148.46884 49.25057
#
# Poissons Ratio (x) = -0.01242 0.21111
# Poissons Ratio (y) = -0.00310 0.05258
# Poissons Ratio (z) = 0.15906 0.15850
#
# Static dielectric constant tensor:
#      x y z
#    x 2.140630 0.000000 0.000000 
#    y 0.000000 1.924790 0.000000 
#    z 0.000000 0.000000 1.970690 
# 
# From -- ./inp_files/24957.got.cif
#   From: 2010.05.17/outbox.cif.g08.bks.cpg/sg58_13_cif.got.tgz:24957.got - 2010.06.03 14:20:14.
