data_PCOD9445188
_publ_section_title
;
Structure prediction by ZEFSAII (Michael W. Deem and Ramdas Pophale) SiO2 
 PCOD9445188
Probable space group: P N N M
;
_chemical_formula_sum "Si O2"
_cell_formula_units_Z 20
_cell_length_a 4.821065
_cell_length_b 14.776428
_cell_length_c 11.278811
_cell_angle_alpha 90.000000
_cell_angle_beta 90.000000
_cell_angle_gamma 90.000000
_cell_volume 803.481290
_symmetry_space_group_name_H-M "P N N M"
_symmetry_group_IT_number 58
_symmetry_cell_setting 'orthorhombic'
loop_
_space_group_symop_operation_xyz
x,y,z
-x,-y,z
1/2+x,1/2-y,1/2-z
1/2-x,1/2+y,1/2-z
-x,-y,-z
x,y,-z
1/2-x,1/2+y,1/2+z
1/2+x,1/2-y,1/2+z
loop_
_atom_site_type_symbol
_atom_site_label
_atom_site_fract_x
_atom_site_fract_y
_atom_site_fract_z
Si Si1 0.899515 0.800486 0.277798
Si Si2 0.753330 0.927956 0.500000
Si Si3 0.264621 0.936619 0.868724
O O1 0.630668 0.778315 0.196132
O O2 0.785965 0.859593 0.387724
O O3 0.124048 0.857566 0.203842
O O4 0.500000 0.000000 0.500000
O O5 0.000000 0.000000 0.500000
O O6 0.500000 0.000000 0.811117
O O7 0.363188 0.908773 0.000000
O O8 0.000000 0.000000 0.882878
#
# Coordination Sequence:
#
# PCOD9445188 Si02
#       3
#     8   4   8
#     4  12  27  44  75 113 155 196 258 323 384 445
#     4  12  28  52  80 110 157 216 261 308 388 484
#     4  10  22  42  69 101 145 196 246 304 374 460
#
# _framework density 24.891680999999998
#
# number of rings (size 3 to 8) (size 9 to 14) (size 15 to 20)
#    0.000    0.800    0.000    6.000    5.600    3.200 
#    0.000    0.000    0.000    0.000    0.000    0.000 
#    0.000    0.000    0.000    0.000    0.000    0.000 
#
# Total GULP energy -111520.293711 kJ/mol
# GULP energy per Si atom -5576.014686 kJ/mol
# Density = 2.483503 g / cm^3
# Si number density = 24.891681 Si / 1000 Ang^3
#
#
#
# Elastic Constant Matrix: (Units=GPa)
#
#
# Indices 1 2 3 4 5 6 
#
# 1 252.3319 70.3997 45.5503 0.0000 0.0000 0.0000
# 2 70.3997 43.9505 34.7747 0.0000 0.0000 0.0000
# 3 45.5503 34.7747 86.2843 0.0000 0.0000 0.0000
# 4 0.0000 0.0000 0.0000 84.2701 0.0000 0.0000
# 5 0.0000 0.0000 0.0000 0.0000 30.2872 0.0000
# 6 0.0000 0.0000 0.0000 0.0000 0.0000 74.0537
#
#
#
# Elastic Compliance Matrix: (Units=1/GPa)
#
#
# Indices 1 2 3 4 5 6 
#
# 1 0.007256 -0.012615 0.001253 0.000000 0.000000 0.000000
# 2 -0.012615 0.055336 -0.015642 0.000000 0.000000 0.000000
# 3 0.001253 -0.015642 0.017232 0.000000 0.000000 0.000000
# 4 0.000000 0.000000 0.000000 0.011867 0.000000 0.000000
# 5 0.000000 0.000000 0.000000 0.000000 0.033017 0.000000
# 6 0.000000 0.000000 0.000000 0.000000 0.000000 0.013504
#
#
# Mechanical properties :
#
#
# Convention : Reuss Voigt Hill
#
# Bulk Modulus (GPa) = 38.73426 76.00178 57.36802
# Shear Modulus (GPa) = 24.89743 53.17836 39.03790
#
# Velocity S-wave (km/s) = 3.16607 4.62713 3.96449
# Velocity P-wave (km/s) = 5.38148 7.69067 6.63727
#
# Compressibility (1/GPa) = 0.02581694
#
# Stress axis : x y z
#
# Youngs Moduli (GPa) = 137.81231 18.07156 58.03141
#
# Poissons Ratio (x) = 0.22797 -0.07274
# Poissons Ratio (y) = 1.73847 0.90773
# Poissons Ratio (z) = -0.17274 0.28268
#
# Static dielectric constant tensor:
#      x y z
#    x 1.544300 0.000000 0.000000 
#    y 0.000000 -0.115970 0.000000 
#    z 0.000000 0.000000 2.016450 
# 
# From -- ./inp_files/11280.got.cif
#   From: 2010.05.17/outbox.cif.g08.bks.cpg/sg58_6_cif.got.tgz:11280.got - 2010.06.03 14:20:14.
