data_PCOD9445203
_publ_section_title
;
Structure prediction by ZEFSAII (Michael W. Deem and Ramdas Pophale) SiO2 
 PCOD9445203
Probable space group: P N N M
;
_chemical_formula_sum "Si O2"
_cell_formula_units_Z 64
_cell_length_a 14.027394
_cell_length_b 11.755227
_cell_length_c 17.134505
_cell_angle_alpha 90.000000
_cell_angle_beta 90.000000
_cell_angle_gamma 90.000000
_cell_volume 2825.397641
_symmetry_space_group_name_H-M "P N N M"
_symmetry_group_IT_number 58
_symmetry_cell_setting 'orthorhombic'
loop_
_space_group_symop_operation_xyz
x,y,z
-x,-y,z
1/2+x,1/2-y,1/2-z
1/2-x,1/2+y,1/2-z
-x,-y,-z
x,y,-z
1/2-x,1/2+y,1/2+z
1/2+x,1/2-y,1/2+z
loop_
_atom_site_type_symbol
_atom_site_label
_atom_site_fract_x
_atom_site_fract_y
_atom_site_fract_z
Si Si1 0.802569 0.660338 0.648550
Si Si2 0.943995 0.886403 0.767975
Si Si3 0.602522 0.940412 0.852819
Si Si4 0.382439 0.212999 0.297076
Si Si5 0.870594 0.206403 0.415486
Si Si6 0.611100 0.988565 0.582617
Si Si7 0.818274 0.701350 0.822971
Si Si8 0.916299 0.871554 0.589445
O O1 0.821687 0.534034 0.619914
O O2 0.696983 0.698666 0.672172
O O3 0.845957 0.661858 0.736106
O O4 0.858882 0.752252 0.596883
O O5 0.860818 0.829860 0.821889
O O6 0.900231 0.913576 0.680599
O O7 0.025037 0.786438 0.771824
O O8 0.000000 0.000000 0.793552
O O9 0.633064 0.877799 0.772923
O O10 0.595666 0.836448 0.911936
O O11 0.500000 0.000000 0.843459
O O12 0.380536 0.124993 0.368193
O O13 0.826362 0.183093 0.500000
O O14 0.792772 0.192458 0.347623
O O15 0.968382 0.137061 0.408405
O O16 0.662073 0.974871 0.500000
O O17 0.638803 0.107116 0.621290
O O18 0.500000 0.000000 0.572849
O O19 0.894631 0.915029 0.500000
#
# Coordination Sequence:
#
# PCOD9445203 Si02
#       8
#     8   8   8   8   8   8   8   8
#     4  11  23  36  67  96 130 174 221 273 334 400
#     4  11  24  41  68  99 134 181 226 278 345 416
#     4  12  21  40  68  96 129 178 232 278 325 391
#     4  12  23  42  67 101 137 172 230 282 338 412
#     4  11  23  40  64  96 133 170 219 278 339 401
#     4  11  23  42  72 100 129 171 228 293 342 395
#     4  11  21  42  67  97 129 176 225 280 338 409
#     4  10  22  43  64  95 136 174 222 276 334 403
#
# _framework density 22.651681
#
# number of rings (size 3 to 8) (size 9 to 14) (size 15 to 20)
#    0.000    0.875    6.250    1.500    1.750    1.500 
#    4.500    0.000    0.000    1.875    0.000    0.000 
#    0.000    0.000    0.000    0.000    0.000    0.000 
#
# Total GULP energy -356443.454570 kJ/mol
# GULP energy per Si atom -5569.428978 kJ/mol
# Density = 2.260012 g / cm^3
# Si number density = 22.651681 Si / 1000 Ang^3
#
#
#
# Elastic Constant Matrix: (Units=GPa)
#
#
# Indices 1 2 3 4 5 6 
#
# 1 95.3371 15.9665 9.8971 0.0000 0.0000 0.0000
# 2 15.9665 83.5390 23.5091 0.0000 0.0000 0.0000
# 3 9.8971 23.5091 103.6077 0.0000 0.0000 0.0000
# 4 0.0000 0.0000 0.0000 13.2895 0.0000 0.0000
# 5 0.0000 0.0000 0.0000 0.0000 94.8400 0.0000
# 6 0.0000 0.0000 0.0000 0.0000 0.0000 41.0970
#
#
#
# Elastic Compliance Matrix: (Units=1/GPa)
#
#
# Indices 1 2 3 4 5 6 
#
# 1 0.010871 -0.001907 -0.000606 0.000000 0.000000 0.000000
# 2 -0.001907 0.013122 -0.002795 0.000000 0.000000 0.000000
# 3 -0.000606 -0.002795 0.010344 0.000000 0.000000 0.000000
# 4 0.000000 0.000000 0.000000 0.075248 0.000000 0.000000
# 5 0.000000 0.000000 0.000000 0.000000 0.010544 0.000000
# 6 0.000000 0.000000 0.000000 0.000000 0.000000 0.024333
#
#
# Mechanical properties :
#
#
# Convention : Reuss Voigt Hill
#
# Bulk Modulus (GPa) = 42.15769 42.35880 42.25824
# Shear Modulus (GPa) = 30.67776 45.38603 38.03189
#
# Velocity S-wave (km/s) = 3.68411 4.48107 4.10199
# Velocity P-wave (km/s) = 6.06206 6.74641 6.41337
#
# Compressibility (1/GPa) = 0.02372047
#
# Stress axis : x y z
#
# Youngs Moduli (GPa) = 91.98440 76.21022 96.67541
#
# Poissons Ratio (x) = 0.14536 0.05856
# Poissons Ratio (y) = 0.17545 0.27022
# Poissons Ratio (z) = 0.05572 0.21302
#
# Static dielectric constant tensor:
#      x y z
#    x 1.932030 0.000000 0.000000 
#    y 0.000000 1.817690 0.000000 
#    z 0.000000 0.000000 1.572020 
# 
# From -- ./inp_files/27016.got.cif
#   From: 2010.05.17/outbox.cif.g08.bks.cpg/sg58_14_cif.got.tgz:27016.got - 2010.06.03 14:20:14.
