data_PCOD9445185
_publ_section_title
;
Structure prediction by ZEFSAII (Michael W. Deem and Ramdas Pophale) SiO2 
 PCOD9445185
Probable space group: P N N M
;
_chemical_formula_sum "Si O2"
_cell_formula_units_Z 56
_cell_length_a 14.851075
_cell_length_b 21.342151
_cell_length_c 8.379269
_cell_angle_alpha 90.000000
_cell_angle_beta 90.000000
_cell_angle_gamma 90.000000
_cell_volume 2655.841864
_symmetry_space_group_name_H-M "P N N M"
_symmetry_group_IT_number 58
_symmetry_cell_setting 'orthorhombic'
loop_
_space_group_symop_operation_xyz
x,y,z
-x,-y,z
1/2+x,1/2-y,1/2-z
1/2-x,1/2+y,1/2-z
-x,-y,-z
x,y,-z
1/2-x,1/2+y,1/2+z
1/2+x,1/2-y,1/2+z
loop_
_atom_site_type_symbol
_atom_site_label
_atom_site_fract_x
_atom_site_fract_y
_atom_site_fract_z
Si Si1 0.409247 0.415416 0.812512
Si Si2 0.895533 0.869990 0.311890
Si Si3 0.717936 0.477996 0.685528
Si Si4 0.424216 0.175525 0.694005
Si Si5 0.407077 0.032647 0.306950
Si Si6 0.116456 0.269379 0.811505
Si Si7 0.190230 0.794361 0.189147
O O1 0.513099 0.406352 0.764425
O O2 0.354505 0.468160 0.720176
O O3 0.360698 0.349326 0.781182
O O4 0.407082 0.431518 0.000000
O O5 0.901348 0.855574 0.500000
O O6 0.812778 0.916124 0.280382
O O7 0.889212 0.804910 0.219593
O O8 0.719256 0.462931 0.500000
O O9 0.816711 0.498781 0.741801
O O10 0.423714 0.174086 0.500000
O O11 0.406804 0.104995 0.748124
O O12 0.522919 0.199596 0.743071
O O13 0.350655 0.227249 0.741126
O O14 0.403757 0.031067 0.500000
O O15 0.500000 0.000000 0.257514
O O16 0.204012 0.295115 0.723022
O O17 0.126527 0.281251 0.000000
O O18 0.172981 0.801910 0.000000
#
# Coordination Sequence:
#
# PCOD9445185 Si02
#       7
#     8   8   8   8   8   8   8
#     4  11  24  42  65  93 126 165 214 268 322 384
#     4  11  23  42  66  95 128 166 215 265 320 381
#     4  12  26  42  64  94 129 170 212 262 324 386
#     4   9  20  39  62  90 126 166 208 255 310 372
#     4  10  22  42  68  94 127 173 219 261 312 377
#     4  11  22  38  63  94 129 168 211 257 316 380
#     4  11  22  39  62  92 130 170 213 263 320 380
#
# _framework density 21.085594
#
# number of rings (size 3 to 8) (size 9 to 14) (size 15 to 20)
#    0.000    1.286    1.429    4.286    2.000    4.857 
#    0.000    2.143    0.000    0.000    0.000    0.000 
#    0.000    0.000    0.000    0.000    0.000    0.000 
#
# Total GULP energy -313331.269670 kJ/mol
# GULP energy per Si atom -5595.201244 kJ/mol
# Density = 2.103760 g / cm^3
# Si number density = 21.085594 Si / 1000 Ang^3
#
#
#
# Elastic Constant Matrix: (Units=GPa)
#
#
# Indices 1 2 3 4 5 6 
#
# 1 99.3917 -6.6411 9.2834 0.0000 0.0000 0.0000
# 2 -6.6411 44.1446 -2.7498 0.0000 0.0000 0.0000
# 3 9.2834 -2.7498 15.5205 0.0000 0.0000 0.0000
# 4 0.0000 0.0000 0.0000 23.0469 0.0000 0.0000
# 5 0.0000 0.0000 0.0000 0.0000 21.6661 0.0000
# 6 0.0000 0.0000 0.0000 0.0000 0.0000 26.3210
#
#
#
# Elastic Compliance Matrix: (Units=1/GPa)
#
#
# Indices 1 2 3 4 5 6 
#
# 1 0.010722 0.001227 -0.006196 0.000000 0.000000 0.000000
# 2 0.001227 0.023046 0.003349 0.000000 0.000000 0.000000
# 3 -0.006196 0.003349 0.068730 0.000000 0.000000 0.000000
# 4 0.000000 0.000000 0.000000 0.043390 0.000000 0.000000
# 5 0.000000 0.000000 0.000000 0.000000 0.046155 0.000000
# 6 0.000000 0.000000 0.000000 0.000000 0.000000 0.037993
#
#
# Mechanical properties :
#
#
# Convention : Reuss Voigt Hill
#
# Bulk Modulus (GPa) = 10.07462 17.64908 13.86185
# Shear Modulus (GPa) = 18.77152 24.81776 21.79464
#
# Velocity S-wave (km/s) = 2.98695 3.43447 3.21849
# Velocity P-wave (km/s) = 4.08462 4.91078 4.51663
#
# Compressibility (1/GPa) = 0.09925933
#
# Stress axis : x y z
#
# Youngs Moduli (GPa) = 93.26722 43.39135 14.54963
#
# Poissons Ratio (x) = -0.05324 0.09015
# Poissons Ratio (y) = -0.11444 -0.04873
# Poissons Ratio (z) = 0.57786 -0.14533
#
# Static dielectric constant tensor:
#      x y z
#    x 1.737850 0.000000 0.000000 
#    y 0.000000 1.736620 0.000000 
#    z 0.000000 0.000000 1.708100 
# 
# From -- ./inp_files/6456.got.cif
#   From: 2010.05.17/outbox.cif.g08.bks.cpg/sg58_4_cif.got.tgz:6456.got - 2010.06.03 14:20:14.
