data_PCOD9445591
_publ_section_title
;
Structure prediction by ZEFSAII (Michael W. Deem and Ramdas Pophale) SiO2 
 PCOD9445591
Probable space group: P N N M
;
_chemical_formula_sum "Si O2"
_cell_formula_units_Z 56
_cell_length_a 10.450601
_cell_length_b 14.225423
_cell_length_c 19.255515
_cell_angle_alpha 90.000000
_cell_angle_beta 90.000000
_cell_angle_gamma 90.000000
_cell_volume 2862.606115
_symmetry_space_group_name_H-M "P N N M"
_symmetry_group_IT_number 58
_symmetry_cell_setting 'orthorhombic'
loop_
_space_group_symop_operation_xyz
x,y,z
-x,-y,z
1/2+x,1/2-y,1/2-z
1/2-x,1/2+y,1/2-z
-x,-y,-z
x,y,-z
1/2-x,1/2+y,1/2+z
1/2+x,1/2-y,1/2+z
loop_
_atom_site_type_symbol
_atom_site_label
_atom_site_fract_x
_atom_site_fract_y
_atom_site_fract_z
Si Si1 0.311538 0.832758 0.221669
Si Si2 0.353608 0.469003 0.354114
Si Si3 0.732864 0.866736 0.761175
Si Si4 0.534857 0.777614 0.141241
Si Si5 0.443573 0.135814 0.000000
Si Si6 0.600875 0.584314 0.081545
Si Si7 0.287017 0.943679 0.000000
Si Si8 0.854864 0.519392 0.843485
O O1 0.178820 0.879078 0.195087
O O2 0.317232 0.725435 0.247677
O O3 0.398214 0.825644 0.152919
O O4 0.361048 0.903141 0.281351
O O5 0.500000 0.500000 0.357419
O O6 0.283086 0.556833 0.316363
O O7 0.298554 0.447187 0.430568
O O8 0.609200 0.817836 0.793424
O O9 0.699307 0.924526 0.692182
O O10 0.549030 0.666702 0.131609
O O11 0.596657 0.814925 0.070634
O O12 0.599119 0.133294 0.000000
O O13 0.373608 0.036979 0.000000
O O14 0.500000 0.500000 0.089131
O O15 0.744737 0.555210 0.104132
O O16 0.599575 0.611800 0.000000
O O17 0.000000 0.500000 0.869170
#
# Coordination Sequence:
#
# PCOD9445591 Si02
#       8
#     8   8   8   8   4   8   4   8
#     4  11  24  39  63  94 126 165 210 260 327 382
#     4  11  25  39  60  89 128 167 205 256 322 385
#     4  11  24  39  63  92 124 162 209 257 323 383
#     4  12  21  41  68  94 124 165 217 266 312 383
#     4  11  22  36  69  94 121 159 216 264 311 380
#     4  11  25  44  67  94 128 175 226 271 319 381
#     4  11  21  40  60  90 125 158 205 262 315 386
#     4  11  23  40  65  96 130 164 212 269 326 390
#
# _framework density 19.562594000000001
#
# number of rings (size 3 to 8) (size 9 to 14) (size 15 to 20)
#    0.000    0.857    6.429    1.071    2.000    2.571 
#    0.000    0.000    0.000    0.000    0.000    0.000 
#    0.000    0.000    0.000    0.000    0.000    0.000 
#
# Total GULP energy -312102.011386 kJ/mol
# GULP energy per Si atom -5573.250203 kJ/mol
# Density = 1.951807 g / cm^3
# Si number density = 19.562594 Si / 1000 Ang^3
#
#
#
# Elastic Constant Matrix: (Units=GPa)
#
#
# Indices 1 2 3 4 5 6 
#
# 1 83.6969 -1.7267 10.8974 0.0000 0.0000 0.0000
# 2 -1.7267 77.0830 12.4225 0.0000 0.0000 0.0000
# 3 10.8974 12.4225 49.3300 0.0000 0.0000 0.0000
# 4 0.0000 0.0000 0.0000 11.7401 0.0000 0.0000
# 5 0.0000 0.0000 0.0000 0.0000 -109.9991 0.0000
# 6 0.0000 0.0000 0.0000 0.0000 0.0000 26.2693
#
#
#
# Elastic Compliance Matrix: (Units=1/GPa)
#
#
# Indices 1 2 3 4 5 6 
#
# 1 0.012343 0.000746 -0.002915 0.000000 0.000000 0.000000
# 2 0.000746 0.013567 -0.003581 0.000000 0.000000 0.000000
# 3 -0.002915 -0.003581 0.021817 0.000000 0.000000 0.000000
# 4 0.000000 0.000000 0.000000 0.085178 0.000000 0.000000
# 5 0.000000 0.000000 0.000000 0.000000 -0.009091 0.000000
# 6 0.000000 0.000000 0.000000 0.000000 0.000000 0.038067
#
#
# Mechanical properties :
#
#
# Convention : Reuss Voigt Hill
#
# Bulk Modulus (GPa) = 27.60319 28.14402 27.87361
# Shear Modulus (GPa) = 26.96046 -1.83017 12.56514
#
# Velocity S-wave (km/s) = 3.71639 -0.96829 2.53712
# Velocity P-wave (km/s) = 5.70581 3.62874 4.78142
#
# Compressibility (1/GPa) = 0.03622769
#
# Stress axis : x y z
#
# Youngs Moduli (GPa) = 81.01932 73.70882 45.83515
#
# Poissons Ratio (x) = -0.05500 0.13359
# Poissons Ratio (y) = -0.06045 0.16415
# Poissons Ratio (z) = 0.23613 0.26397
#
# Static dielectric constant tensor:
#      x y z
#    x 2.099560 0.000000 0.000000 
#    y 0.000000 1.715530 0.000000 
#    z 0.000000 0.000000 1.682290 
# 
# From -- ./inp_files/29002.got.cif
#   From: 2010.05.17/outbox.cif.g08.bks.cpg/sg58_15_cif.got.tgz:29002.got - 2010.06.03 14:20:14.
