data_PCOD9445311
_publ_section_title
;
Structure prediction by ZEFSAII (Michael W. Deem and Ramdas Pophale) SiO2 
 PCOD9445311
Probable space group: P N N M
;
_chemical_formula_sum "Si O2"
_cell_formula_units_Z 48
_cell_length_a 15.073300
_cell_length_b 18.623628
_cell_length_c 8.809114
_cell_angle_alpha 90.000000
_cell_angle_beta 90.000000
_cell_angle_gamma 90.000000
_cell_volume 2472.890359
_symmetry_space_group_name_H-M "P N N M"
_symmetry_group_IT_number 58
_symmetry_cell_setting 'orthorhombic'
loop_
_space_group_symop_operation_xyz
x,y,z
-x,-y,z
1/2+x,1/2-y,1/2-z
1/2-x,1/2+y,1/2-z
-x,-y,-z
x,y,-z
1/2-x,1/2+y,1/2+z
1/2+x,1/2-y,1/2+z
loop_
_atom_site_type_symbol
_atom_site_label
_atom_site_fract_x
_atom_site_fract_y
_atom_site_fract_z
Si Si1 0.598755 0.025125 0.319724
Si Si2 0.566594 0.436699 0.318783
Si Si3 0.183114 0.743313 0.319664
Si Si4 0.507856 0.273946 0.319572
Si Si5 0.159286 0.326342 0.679892
Si Si6 0.747234 0.904394 0.321085
O O1 0.597891 0.042837 0.500000
O O2 0.628548 0.094697 0.228136
O O3 0.500000 0.000000 0.277567
O O4 0.668022 0.960748 0.296617
O O5 0.500000 0.500000 0.272219
O O6 0.582619 0.443840 0.500000
O O7 0.523470 0.358526 0.292878
O O8 0.660049 0.437637 0.233246
O O9 0.174340 0.746774 0.500000
O O10 0.087614 0.750598 0.241838
O O11 0.248987 0.804869 0.260235
O O12 0.227068 0.667968 0.270745
O O13 0.513469 0.260611 0.500000
O O14 0.584508 0.229063 0.237368
O O15 0.169684 0.320662 0.500000
O O16 0.751399 0.887061 0.500000
#
# Coordination Sequence:
#
# PCOD9445311 Si02
#       6
#     8   8   8   8   8   8
#     4  10  23  43  66  94 131 172 212 264 327 386
#     4  10  23  42  64  92 128 172 215 263 326 388
#     4  12  25  42  66  95 130 171 215 267 323 383
#     4  11  23  42  67  95 130 170 212 269 327 384
#     4  12  25  42  66  97 131 170 217 267 318 384
#     4  11  23  41  67  98 130 169 217 267 322 385
#
# _framework density 19.410485000000001
#
# number of rings (size 3 to 8) (size 9 to 14) (size 15 to 20)
#    0.000    1.000    1.667    5.000    2.333    4.000 
#    0.000    0.000    0.000    0.000    0.000    0.000 
#    0.000    0.000    0.000    0.000    0.000    0.000 
#
# Total GULP energy -268649.144544 kJ/mol
# GULP energy per Si atom -5596.857178 kJ/mol
# Density = 1.936631 g / cm^3
# Si number density = 19.410485 Si / 1000 Ang^3
#
#
#
# Elastic Constant Matrix: (Units=GPa)
#
#
# Indices 1 2 3 4 5 6 
#
# 1 80.9931 -9.7310 5.2275 0.0000 0.0000 0.0000
# 2 -9.7310 44.6753 25.9159 0.0000 0.0000 0.0000
# 3 5.2275 25.9159 55.6661 0.0000 0.0000 0.0000
# 4 0.0000 0.0000 0.0000 34.5211 0.0000 0.0000
# 5 0.0000 0.0000 0.0000 0.0000 33.1350 0.0000
# 6 0.0000 0.0000 0.0000 0.0000 0.0000 30.0889
#
#
#
# Elastic Compliance Matrix: (Units=1/GPa)
#
#
# Indices 1 2 3 4 5 6 
#
# 1 0.013164 0.004911 -0.003522 0.000000 0.000000 0.000000
# 2 0.004911 0.032497 -0.015591 0.000000 0.000000 0.000000
# 3 -0.003522 -0.015591 0.025553 0.000000 0.000000 0.000000
# 4 0.000000 0.000000 0.000000 0.028968 0.000000 0.000000
# 5 0.000000 0.000000 0.000000 0.000000 0.030180 0.000000
# 6 0.000000 0.000000 0.000000 0.000000 0.000000 0.033235
#
#
# Mechanical properties :
#
#
# Convention : Reuss Voigt Hill
#
# Bulk Modulus (GPa) = 23.35896 24.90659 24.13278
# Shear Modulus (GPa) = 24.23983 30.21045 27.22514
#
# Velocity S-wave (km/s) = 3.53767 3.94940 3.74919
# Velocity P-wave (km/s) = 5.36164 5.80141 5.58585
#
# Compressibility (1/GPa) = 0.04281012
#
# Stress axis : x y z
#
# Youngs Moduli (GPa) = 75.96429 30.77167 39.13368
#
# Poissons Ratio (x) = -0.15111 0.13785
# Poissons Ratio (y) = -0.37304 0.61012
# Poissons Ratio (z) = 0.26758 0.47975
#
# Static dielectric constant tensor:
#      x y z
#    x 1.646520 0.000000 0.000000 
#    y 0.000000 1.655630 0.000000 
#    z 0.000000 0.000000 1.650510 
# 
# From -- ./inp_files/5904.got.cif
#   From: 2010.05.17/outbox.cif.g08.bks.cpg/sg58_3_cif.got.tgz:5904.got - 2010.06.03 14:20:14.
