data_PCOD9445338
_publ_section_title
;
Structure prediction by ZEFSAII (Michael W. Deem and Ramdas Pophale) SiO2 
 PCOD9445338
Probable space group: P N N M
;
_chemical_formula_sum "Si O2"
_cell_formula_units_Z 56
_cell_length_a 14.719542
_cell_length_b 21.412597
_cell_length_c 8.635828
_cell_angle_alpha 90.000000
_cell_angle_beta 90.000000
_cell_angle_gamma 90.000000
_cell_volume 2721.871538
_symmetry_space_group_name_H-M "P N N M"
_symmetry_group_IT_number 58
_symmetry_cell_setting 'orthorhombic'
loop_
_space_group_symop_operation_xyz
x,y,z
-x,-y,z
1/2+x,1/2-y,1/2-z
1/2-x,1/2+y,1/2-z
-x,-y,-z
x,y,-z
1/2-x,1/2+y,1/2+z
1/2+x,1/2-y,1/2+z
loop_
_atom_site_type_symbol
_atom_site_label
_atom_site_fract_x
_atom_site_fract_y
_atom_site_fract_z
Si Si1 0.698241 0.736263 0.815990
Si Si2 0.725013 0.475332 0.818903
Si Si3 0.658872 0.345488 0.685333
Si Si4 0.017496 0.241085 0.681471
Si Si5 0.916861 0.451837 0.320852
Si Si6 0.448110 0.866285 0.320052
Si Si7 0.742292 0.103549 0.183496
O O1 0.759310 0.796578 0.769957
O O2 0.590305 0.743957 0.793210
O O3 0.723200 0.672012 0.730281
O O4 0.713957 0.726766 0.000000
O O5 0.680543 0.415984 0.735296
O O6 0.832401 0.465429 0.787239
O O7 0.703947 0.544201 0.751767
O O8 0.705187 0.473802 0.000000
O O9 0.649672 0.342470 0.500000
O O10 0.567455 0.322121 0.769114
O O11 0.035434 0.254156 0.500000
O O12 0.063194 0.293220 0.789525
O O13 0.887045 0.452616 0.500000
O O14 0.000000 0.500000 0.302079
O O15 0.963769 0.387028 0.275688
O O16 0.459100 0.880853 0.500000
O O17 0.359302 0.898991 0.252408
O O18 0.737892 0.097470 0.000000
#
# Coordination Sequence:
#
# PCOD9445338 Si02
#       7
#     8   8   8   8   8   8   8
#     4  10  23  43  67  95 130 170 212 265 324 383
#     4  12  25  41  63  91 129 170 214 265 325 388
#     4  11  23  42  67  95 132 172 215 266 323 384
#     4  11  23  41  66  96 129 166 214 267 323 381
#     4  11  22  36  57  86 123 163 206 254 314 381
#     4  12  23  37  60  90 126 165 209 258 319 383
#     4  12  24  40  64  92 126 167 214 262 317 381
#
# _framework density 20.574079999999999
#
# number of rings (size 3 to 8) (size 9 to 14) (size 15 to 20)
#    0.000    0.714    2.857    6.000    0.000    3.429 
#    0.000    0.714    0.000    4.286    0.000    0.000 
#    0.000    0.000    0.000    0.000    0.000    0.000 
#
# Total GULP energy -313102.631834 kJ/mol
# GULP energy per Si atom -5591.118426 kJ/mol
# Density = 2.052725 g / cm^3
# Si number density = 20.574080 Si / 1000 Ang^3
#
#
#
# Elastic Constant Matrix: (Units=GPa)
#
#
# Indices 1 2 3 4 5 6 
#
# 1 29.3538 -2.5715 19.8000 0.0000 0.0000 0.0000
# 2 -2.5715 93.0977 16.6297 0.0000 0.0000 0.0000
# 3 19.8000 16.6297 63.0358 0.0000 0.0000 0.0000
# 4 0.0000 0.0000 0.0000 23.3107 0.0000 0.0000
# 5 0.0000 0.0000 0.0000 0.0000 23.4262 0.0000
# 6 0.0000 0.0000 0.0000 0.0000 0.0000 21.9862
#
#
#
# Elastic Compliance Matrix: (Units=1/GPa)
#
#
# Indices 1 2 3 4 5 6 
#
# 1 0.044544 0.003914 -0.015024 0.000000 0.000000 0.000000
# 2 0.003914 0.011617 -0.004294 0.000000 0.000000 0.000000
# 3 -0.015024 -0.004294 0.021716 0.000000 0.000000 0.000000
# 4 0.000000 0.000000 0.000000 0.042899 0.000000 0.000000
# 5 0.000000 0.000000 0.000000 0.000000 0.042687 0.000000
# 6 0.000000 0.000000 0.000000 0.000000 0.000000 0.045483
#
#
# Mechanical properties :
#
#
# Convention : Reuss Voigt Hill
#
# Bulk Modulus (GPa) = 21.24565 28.13375 24.68970
# Shear Modulus (GPa) = 19.57377 23.85324 21.71350
#
# Velocity S-wave (km/s) = 3.08779 3.40867 3.25219
# Velocity P-wave (km/s) = 4.80223 5.40334 5.11163
#
# Compressibility (1/GPa) = 0.04706847
#
# Stress axis : x y z
#
# Youngs Moduli (GPa) = 22.44954 86.08408 46.04882
#
# Poissons Ratio (x) = -0.33694 0.69185
# Poissons Ratio (y) = -0.08787 0.19774
# Poissons Ratio (z) = 0.33729 0.36965
#
# Static dielectric constant tensor:
#      x y z
#    x 1.741010 0.000000 0.000000 
#    y 0.000000 1.796410 0.000000 
#    z 0.000000 0.000000 1.680100 
# 
# From -- ./inp_files/6352.got.cif
#   From: 2010.05.17/outbox.cif.g08.bks.cpg/sg58_4_cif.got.tgz:6352.got - 2010.06.03 14:20:14.
