data_PCOD9445116
_publ_section_title
;
Structure prediction by ZEFSAII (Michael W. Deem and Ramdas Pophale) SiO2 
 PCOD9445116
Probable space group: P N N M
;
_chemical_formula_sum "Si O2"
_cell_formula_units_Z 48
_cell_length_a 13.316204
_cell_length_b 10.755588
_cell_length_c 16.214099
_cell_angle_alpha 90.000000
_cell_angle_beta 90.000000
_cell_angle_gamma 90.000000
_cell_volume 2322.241694
_symmetry_space_group_name_H-M "P N N M"
_symmetry_group_IT_number 58
_symmetry_cell_setting 'orthorhombic'
loop_
_space_group_symop_operation_xyz
x,y,z
-x,-y,z
1/2+x,1/2-y,1/2-z
1/2-x,1/2+y,1/2-z
-x,-y,-z
x,y,-z
1/2-x,1/2+y,1/2+z
1/2+x,1/2-y,1/2+z
loop_
_atom_site_type_symbol
_atom_site_label
_atom_site_fract_x
_atom_site_fract_y
_atom_site_fract_z
Si Si1 0.450091 0.118231 0.593887
Si Si2 0.031493 0.644364 0.598856
Si Si3 0.379923 0.663782 0.825168
Si Si4 0.296080 0.273818 0.785026
Si Si5 0.035676 0.877702 0.181385
Si Si6 0.746965 0.525102 0.908497
O O1 0.488455 0.123725 0.500000
O O2 0.471384 0.249207 0.633119
O O3 0.334254 0.078299 0.592403
O O4 0.500000 0.000000 0.637955
O O5 0.054827 0.659183 0.500000
O O6 0.934027 0.727199 0.623298
O O7 0.000000 0.500000 0.612710
O O8 0.122900 0.693098 0.659898
O O9 0.280577 0.699706 0.772790
O O10 0.458982 0.626009 0.756548
O O11 0.352524 0.548227 0.882808
O O12 0.355689 0.367271 0.723703
O O13 0.235131 0.361736 0.847106
O O14 0.000000 0.000000 0.132725
O O15 0.739388 0.575962 0.000000
#
# Coordination Sequence:
#
# PCOD9445116 Si02
#       6
#     8   8   8   8   8   8
#     4  10  22  41  63  88 123 169 218 264 316 379
#     4  10  24  43  64  94 131 171 214 267 331 398
#     4  11  23  38  64  91 125 167 211 261 321 388
#     4  11  23  39  64  94 127 167 216 265 324 390
#     4  11  22  38  60  93 128 162 213 265 324 385
#     4  11  22  39  64  92 124 165 211 262 318 384
#
# _framework density 20.669682999999999
#
# number of rings (size 3 to 8) (size 9 to 14) (size 15 to 20)
#    0.000    1.333    3.333    2.000    2.333    3.000 
#    0.000    3.333    0.000    0.000    0.000    0.000 
#    0.000    0.000    0.000    0.000    0.000    0.000 
#
# Total GULP energy -267682.742632 kJ/mol
# GULP energy per Si atom -5576.723805 kJ/mol
# Density = 2.062264 g / cm^3
# Si number density = 20.669683 Si / 1000 Ang^3
#
#
#
# Elastic Constant Matrix: (Units=GPa)
#
#
# Indices 1 2 3 4 5 6 
#
# 1 55.2927 -1.4215 15.6200 0.0000 0.0000 0.0000
# 2 -1.4215 109.1783 38.4339 0.0000 0.0000 0.0000
# 3 15.6200 38.4339 65.1166 0.0000 0.0000 0.0000
# 4 0.0000 0.0000 0.0000 39.6722 0.0000 0.0000
# 5 0.0000 0.0000 0.0000 0.0000 28.4733 0.0000
# 6 0.0000 0.0000 0.0000 0.0000 0.0000 33.2726
#
#
#
# Elastic Compliance Matrix: (Units=1/GPa)
#
#
# Indices 1 2 3 4 5 6 
#
# 1 0.019906 0.002449 -0.006220 0.000000 0.000000 0.000000
# 2 0.002449 0.011863 -0.007589 0.000000 0.000000 0.000000
# 3 -0.006220 -0.007589 0.021329 0.000000 0.000000 0.000000
# 4 0.000000 0.000000 0.000000 0.025207 0.000000 0.000000
# 5 0.000000 0.000000 0.000000 0.000000 0.035121 0.000000
# 6 0.000000 0.000000 0.000000 0.000000 0.000000 0.030055
#
#
# Mechanical properties :
#
#
# Convention : Reuss Voigt Hill
#
# Bulk Modulus (GPa) = 32.92097 37.20584 35.06341
# Shear Modulus (GPa) = 28.35657 32.08063 30.21860
#
# Velocity S-wave (km/s) = 3.70792 3.94390 3.82773
# Velocity P-wave (km/s) = 5.85605 6.22723 6.04449
#
# Compressibility (1/GPa) = 0.03037577
#
# Stress axis : x y z
#
# Youngs Moduli (GPa) = 50.23667 84.29661 46.88529
#
# Poissons Ratio (x) = -0.20644 0.29165
# Poissons Ratio (y) = -0.12303 0.35583
# Poissons Ratio (z) = 0.31249 0.63975
#
# Static dielectric constant tensor:
#      x y z
#    x 1.777810 0.000000 0.000000 
#    y 0.000000 1.808370 0.000000 
#    z 0.000000 0.000000 1.748060 
# 
# From -- ./inp_files/22134.got.cif
#   From: 2010.05.17/outbox.cif.g08.bks.cpg/sg58_12_cif.got.tgz:22134.got - 2010.06.03 14:20:14.
