data_PCOD9445171
_publ_section_title
;
Structure prediction by ZEFSAII (Michael W. Deem and Ramdas Pophale) SiO2 
 PCOD9445171
Probable space group: P N N M
;
_chemical_formula_sum "Si O2"
_cell_formula_units_Z 24
_cell_length_a 20.588288
_cell_length_b 5.094251
_cell_length_c 8.351854
_cell_angle_alpha 90.000000
_cell_angle_beta 90.000000
_cell_angle_gamma 90.000000
_cell_volume 875.958372
_symmetry_space_group_name_H-M "P N N M"
_symmetry_group_IT_number 58
_symmetry_cell_setting 'orthorhombic'
loop_
_space_group_symop_operation_xyz
x,y,z
-x,-y,z
1/2+x,1/2-y,1/2-z
1/2-x,1/2+y,1/2-z
-x,-y,-z
x,y,-z
1/2-x,1/2+y,1/2+z
1/2+x,1/2-y,1/2+z
loop_
_atom_site_type_symbol
_atom_site_label
_atom_site_fract_x
_atom_site_fract_y
_atom_site_fract_z
Si Si1 0.751093 0.217376 0.500000
Si Si2 0.127226 0.127317 0.825846
Si Si3 0.043421 0.741448 0.692928
Si Si4 0.340472 0.794776 0.000000
O O1 0.702567 0.290692 0.645553
O O2 0.785596 0.935536 0.500000
O O3 0.806805 0.429452 0.500000
O O4 0.109205 0.823251 0.788151
O O5 0.115142 0.262668 0.656039
O O6 0.097995 0.193653 0.000000
O O7 0.052670 0.728087 0.500000
O O8 0.000000 0.500000 0.750681
O O9 0.000000 0.000000 0.726912
#
# Coordination Sequence:
#
# PCOD9445171 Si02
#       4
#     4   8   8   4
#     4  10  26  40  68  92 130 172 210 256 320 366
#     4  10  24  42  67  98 124 172 211 260 317 374
#     4  10  22  42  65  91 125 165 207 260 319 373
#     4  12  22  48  60  94 136 166 210 264 304 384
#
# _framework density 27.398561000000001
#
# number of rings (size 3 to 8) (size 9 to 14) (size 15 to 20)
#    1.000    0.667    1.667    2.000    0.000    6.667 
#    0.000    0.000    0.000    0.000    0.000    0.000 
#    0.000    0.000    0.000    0.000    0.000    0.000 
#
# Total GULP energy -134177.995330 kJ/mol
# GULP energy per Si atom -5590.749805 kJ/mol
# Density = 2.733620 g / cm^3
# Si number density = 27.398561 Si / 1000 Ang^3
#
#
#
# Elastic Constant Matrix: (Units=GPa)
#
#
# Indices 1 2 3 4 5 6 
#
# 1 112.6208 43.8931 17.9949 0.0000 0.0000 0.0000
# 2 43.8931 128.9176 24.1701 0.0000 0.0000 0.0000
# 3 17.9949 24.1701 220.5105 0.0000 0.0000 0.0000
# 4 0.0000 0.0000 0.0000 34.2923 0.0000 0.0000
# 5 0.0000 0.0000 0.0000 0.0000 35.4448 0.0000
# 6 0.0000 0.0000 0.0000 0.0000 0.0000 65.0772
#
#
#
# Elastic Compliance Matrix: (Units=1/GPa)
#
#
# Indices 1 2 3 4 5 6 
#
# 1 0.010284 -0.003414 -0.000465 0.000000 0.000000 0.000000
# 2 -0.003414 0.009053 -0.000714 0.000000 0.000000 0.000000
# 3 -0.000465 -0.000714 0.004651 0.000000 0.000000 0.000000
# 4 0.000000 0.000000 0.000000 0.029161 0.000000 0.000000
# 5 0.000000 0.000000 0.000000 0.000000 0.028213 0.000000
# 6 0.000000 0.000000 0.000000 0.000000 0.000000 0.015366
#
#
# Mechanical properties :
#
#
# Convention : Reuss Voigt Hill
#
# Bulk Modulus (GPa) = 67.55601 70.46279 69.00940
# Shear Modulus (GPa) = 45.10624 52.02890 48.56757
#
# Velocity S-wave (km/s) = 4.06186 4.36244 4.21483
# Velocity P-wave (km/s) = 6.83437 7.15178 6.99488
#
# Compressibility (1/GPa) = 0.01480253
#
# Stress axis : x y z
#
# Youngs Moduli (GPa) = 97.23473 110.45807 215.00262
#
# Poissons Ratio (x) = 0.37715 0.09998
# Poissons Ratio (y) = 0.33200 0.15344
# Poissons Ratio (z) = 0.04522 0.07883
#
# Static dielectric constant tensor:
#      x y z
#    x 2.198270 0.000000 0.000000 
#    y 0.000000 2.280120 0.000000 
#    z 0.000000 0.000000 2.128370 
# 
# From -- ./inp_files/1214.got.cif
#   From: 2010.05.17/outbox.cif.g08.bks.cpg/sg58_1_cif.got.tgz:1214.got - 2010.06.03 14:20:14.
