data_PCOD9445104
_publ_section_title
;
Structure prediction by ZEFSAII (Michael W. Deem and Ramdas Pophale) SiO2 
 PCOD9445104
Probable space group: P N N M
;
_chemical_formula_sum "Si O2"
_cell_formula_units_Z 40
_cell_length_a 19.989650
_cell_length_b 8.803281
_cell_length_c 10.516054
_cell_angle_alpha 90.000000
_cell_angle_beta 90.000000
_cell_angle_gamma 90.000000
_cell_volume 1850.557408
_symmetry_space_group_name_H-M "P N N M"
_symmetry_group_IT_number 58
_symmetry_cell_setting 'orthorhombic'
loop_
_space_group_symop_operation_xyz
x,y,z
-x,-y,z
1/2+x,1/2-y,1/2-z
1/2-x,1/2+y,1/2-z
-x,-y,-z
x,y,-z
1/2-x,1/2+y,1/2+z
1/2+x,1/2-y,1/2+z
loop_
_atom_site_type_symbol
_atom_site_label
_atom_site_fract_x
_atom_site_fract_y
_atom_site_fract_z
Si Si1 0.033192 0.665608 0.500000
Si Si2 0.305939 0.694546 0.500000
Si Si3 0.169575 0.737634 0.850631
Si Si4 0.549646 0.359693 0.500000
Si Si5 0.784135 0.588612 0.761839
Si Si6 0.484397 0.180459 0.277373
Si Si7 0.328607 0.998668 0.000000
O O1 0.011627 0.738549 0.367556
O O2 0.111696 0.621361 0.500000
O O3 0.000000 0.500000 0.500000
O O4 0.373210 0.596665 0.500000
O O5 0.305955 0.800817 0.624864
O O6 0.239992 0.593377 0.500000
O O7 0.206461 0.582458 0.809286
O O8 0.208133 0.869322 0.775135
O O9 0.091636 0.713678 0.820742
O O10 0.178500 0.758773 0.000000
O O11 0.500000 0.500000 0.500000
O O12 0.533032 0.260781 0.375976
O O13 0.827331 0.597148 0.630723
O O14 0.500000 0.000000 0.279969
#
# Coordination Sequence:
#
# PCOD9445104 Si02
#       7
#     4   4   8   4   8   8   4
#     4  10  22  40  72 102 130 165 226 288 330 402
#     4  12  26  44  66  98 141 177 234 278 338 423
#     4  12  24  40  68 100 137 174 225 284 337 410
#     4  12  29  43  67 101 139 185 225 289 350 399
#     4  12  24  40  68  98 134 175 224 278 345 400
#     4  11  23  44  71 100 129 180 234 278 336 411
#     4  12  24  43  66 103 135 178 221 283 346 406
#
# _framework density 21.615109
#
# number of rings (size 3 to 8) (size 9 to 14) (size 15 to 20)
#    0.000    0.400    7.000    1.500    5.600    0.000 
#    0.000    0.500    0.000    0.000    0.000    0.000 
#    0.000    0.000    0.000    0.000    0.000    0.000 
#
# Total GULP energy -223844.047477 kJ/mol
# GULP energy per Si atom -5596.101187 kJ/mol
# Density = 2.156591 g / cm^3
# Si number density = 21.615109 Si / 1000 Ang^3
#
#
#
# Elastic Constant Matrix: (Units=GPa)
#
#
# Indices 1 2 3 4 5 6 
#
# 1 114.0448 16.5999 32.4585 0.0000 0.0000 0.0000
# 2 16.5999 38.1536 25.8506 0.0000 0.0000 0.0000
# 3 32.4585 25.8506 190.2857 0.0000 0.0000 0.0000
# 4 0.0000 0.0000 0.0000 299.4890 0.0000 0.0000
# 5 0.0000 0.0000 0.0000 0.0000 -30.5485 0.0000
# 6 0.0000 0.0000 0.0000 0.0000 0.0000 33.5366
#
#
#
# Elastic Compliance Matrix: (Units=1/GPa)
#
#
# Indices 1 2 3 4 5 6 
#
# 1 0.009595 -0.003377 -0.001178 0.000000 0.000000 0.000000
# 2 -0.003377 0.030055 -0.003507 0.000000 0.000000 0.000000
# 3 -0.001178 -0.003507 0.005933 0.000000 0.000000 0.000000
# 4 0.000000 0.000000 0.000000 0.003339 0.000000 0.000000
# 5 0.000000 0.000000 0.000000 0.000000 -0.032735 0.000000
# 6 0.000000 0.000000 0.000000 0.000000 0.000000 0.029818
#
#
# Mechanical properties :
#
#
# Convention : Reuss Voigt Hill
#
# Bulk Modulus (GPa) = 33.94468 54.70023 44.32246
# Shear Modulus (GPa) = 69.49418 78.33377 73.91398
#
# Velocity S-wave (km/s) = 5.67631 6.02652 5.85404
# Velocity P-wave (km/s) = 7.66152 8.58992 8.13897
#
# Compressibility (1/GPa) = 0.02945969
#
# Stress axis : x y z
#
# Youngs Moduli (GPa) = 104.21835 33.27224 168.55898
#
# Poissons Ratio (x) = 0.11235 0.19857
# Poissons Ratio (y) = 0.35190 0.59115
# Poissons Ratio (z) = 0.12277 0.11669
#
# Static dielectric constant tensor:
#      x y z
#    x 1.766350 0.000000 0.000000 
#    y 0.000000 1.775370 0.000000 
#    z 0.000000 0.000000 1.825690 
# 
# From -- ./inp_files/16922.got.cif
#   From: 2010.05.17/outbox.cif.g08.bks.cpg/sg58_9_cif.got.tgz:16922.got - 2010.06.03 14:20:14.
