data_PCOD9445243
_publ_section_title
;
Structure prediction by ZEFSAII (Michael W. Deem and Ramdas Pophale) SiO2 
 PCOD9445243
Probable space group: P N N M
;
_chemical_formula_sum "Si O2"
_cell_formula_units_Z 64
_cell_length_a 26.329870
_cell_length_b 5.922066
_cell_length_c 21.933293
_cell_angle_alpha 90.000000
_cell_angle_beta 90.000000
_cell_angle_gamma 90.000000
_cell_volume 3419.997576
_symmetry_space_group_name_H-M "P N N M"
_symmetry_group_IT_number 58
_symmetry_cell_setting 'orthorhombic'
loop_
_space_group_symop_operation_xyz
x,y,z
-x,-y,z
1/2+x,1/2-y,1/2-z
1/2-x,1/2+y,1/2-z
-x,-y,-z
x,y,-z
1/2-x,1/2+y,1/2+z
1/2+x,1/2-y,1/2+z
loop_
_atom_site_type_symbol
_atom_site_label
_atom_site_fract_x
_atom_site_fract_y
_atom_site_fract_z
Si Si1 0.375021 0.605884 0.750230
Si Si2 0.120064 0.694339 0.931964
Si Si3 0.021774 0.751701 0.143275
Si Si4 0.726390 0.535400 0.429589
Si Si5 0.168590 0.329044 0.863477
Si Si6 0.715385 0.155490 0.179802
Si Si7 0.316690 0.203826 0.259633
Si Si8 0.486542 0.748747 0.782761
O O1 0.327287 0.679210 0.792978
O O2 0.368766 0.338172 0.747168
O O3 0.426101 0.723195 0.771736
O O4 0.364792 0.673954 0.680350
O O5 0.078594 0.752361 0.882036
O O6 0.137380 0.438994 0.918077
O O7 0.171870 0.838425 0.927852
O O8 0.099252 0.720181 0.000000
O O9 0.000000 0.500000 0.123663
O O10 0.013682 0.752304 0.216255
O O11 0.000000 0.000000 0.123145
O O12 0.740321 0.502991 0.500000
O O13 0.766848 0.674520 0.389546
O O14 0.715172 0.305412 0.392528
O O15 0.181753 0.523928 0.814733
O O16 0.766814 0.158251 0.220639
O O17 0.692359 0.913361 0.195488
O O18 0.500000 0.500000 0.811696
O O19 0.500000 0.000000 0.809287
#
# Coordination Sequence:
#
# PCOD9445243 Si02
#       8
#     8   8   8   8   8   8   8   8
#     4  11  23  34  59  86 115 149 193 250 299 369
#     4  11  24  38  56  78 107 153 205 248 288 341
#     4  10  23  39  57  76 106 146 201 256 305 346
#     4  11  24  39  56  81 116 158 198 242 292 361
#     4  11  20  34  57  76 111 146 197 238 296 340
#     4  11  20  35  55  83 117 146 191 236 302 358
#     4  11  20  33  57  85 111 146 187 248 296 360
#     4  10  23  38  57  83 115 155 194 243 312 366
#
# _framework density 18.713463999999998
#
# number of rings (size 3 to 8) (size 9 to 14) (size 15 to 20)
#    0.000    1.250    3.750    2.625   12.250    0.500 
#    0.000    0.000    0.000    0.000    0.000    0.000 
#    0.000    1.000    0.000    0.125    0.000    0.000 
#
# Total GULP energy -356429.242012 kJ/mol
# GULP energy per Si atom -5569.206906 kJ/mol
# Density = 1.867087 g / cm^3
# Si number density = 18.713464 Si / 1000 Ang^3
#
#
#
# Elastic Constant Matrix: (Units=GPa)
#
#
# Indices 1 2 3 4 5 6 
#
# 1 72.0021 23.0715 27.6991 0.0000 0.0000 0.0000
# 2 23.0715 95.1436 22.8449 0.0000 0.0000 0.0000
# 3 27.6991 22.8449 45.8597 0.0000 0.0000 0.0000
# 4 0.0000 0.0000 0.0000 12.4939 0.0000 0.0000
# 5 0.0000 0.0000 0.0000 0.0000 21.6898 0.0000
# 6 0.0000 0.0000 0.0000 0.0000 0.0000 23.4045
#
#
#
# Elastic Compliance Matrix: (Units=1/GPa)
#
#
# Indices 1 2 3 4 5 6 
#
# 1 0.018435 -0.002041 -0.010118 0.000000 0.000000 0.000000
# 2 -0.002041 0.012164 -0.004827 0.000000 0.000000 0.000000
# 3 -0.010118 -0.004827 0.030321 0.000000 0.000000 0.000000
# 4 0.000000 0.000000 0.000000 0.080039 0.000000 0.000000
# 5 0.000000 0.000000 0.000000 0.000000 0.046105 0.000000
# 6 0.000000 0.000000 0.000000 0.000000 0.000000 0.042727
#
#
# Mechanical properties :
#
#
# Convention : Reuss Voigt Hill
#
# Bulk Modulus (GPa) = 37.10706 40.02624 38.56665
# Shear Modulus (GPa) = 18.33211 20.81030 19.57120
#
# Velocity S-wave (km/s) = 3.13329 3.33836 3.23745
# Velocity P-wave (km/s) = 5.74126 6.02453 5.88460
#
# Compressibility (1/GPa) = 0.02694905
#
# Stress axis : x y z
#
# Youngs Moduli (GPa) = 54.24530 82.20767 32.98007
#
# Poissons Ratio (x) = 0.16778 0.33369
# Poissons Ratio (y) = 0.11071 0.15919
# Poissons Ratio (z) = 0.54885 0.39681
#
# Static dielectric constant tensor:
#      x y z
#    x 1.699430 0.000000 0.000000 
#    y 0.000000 1.843090 0.000000 
#    z 0.000000 0.000000 1.628990 
# 
# From -- ./inp_files/30607.got.cif
#   From: 2010.05.17/outbox.cif.g08.bks.cpg/sg58_16_cif.got.tgz:30607.got - 2010.06.03 14:20:14.
