data_PCOD9445249
_publ_section_title
;
Structure prediction by ZEFSAII (Michael W. Deem and Ramdas Pophale) SiO2 
 PCOD9445249
Probable space group: P N N M
;
_chemical_formula_sum "Si O2"
_cell_formula_units_Z 24
_cell_length_a 14.995396
_cell_length_b 5.029959
_cell_length_c 15.656623
_cell_angle_alpha 90.000000
_cell_angle_beta 90.000000
_cell_angle_gamma 90.000000
_cell_volume 1180.920002
_symmetry_space_group_name_H-M "P N N M"
_symmetry_group_IT_number 58
_symmetry_cell_setting 'orthorhombic'
loop_
_space_group_symop_operation_xyz
x,y,z
-x,-y,z
1/2+x,1/2-y,1/2-z
1/2-x,1/2+y,1/2-z
-x,-y,-z
x,y,-z
1/2-x,1/2+y,1/2+z
1/2+x,1/2-y,1/2+z
loop_
_atom_site_type_symbol
_atom_site_label
_atom_site_fract_x
_atom_site_fract_y
_atom_site_fract_z
Si Si1 0.238059 0.968214 0.500000
Si Si2 0.500000 0.500000 0.355413
Si Si3 0.144674 0.975283 0.000000
Si Si4 0.915853 0.800580 0.405918
Si Si5 0.000000 0.500000 0.264481
O O1 0.320614 0.172901 0.500000
O O2 0.175001 0.034934 0.418618
O O3 0.271359 0.669917 0.500000
O O4 0.584112 0.462598 0.417786
O O5 0.481120 0.248448 0.295811
O O6 0.923566 0.669877 0.500000
O O7 0.922131 0.594382 0.329227
O O8 0.000000 0.000000 0.396350
#
# Coordination Sequence:
#
# PCOD9445249 Si02
#       5
#     4   4   4   8   4
#     4  10  23  38  74  90 131 161 218 261 321 387
#     4  11  26  42  71  84 130 176 231 260 314 369
#     4  11  24  48  62  94 119 185 223 265 308 377
#     4   9  21  38  69  96 130 170 200 253 332 406
#     4  12  21  41  68 100 124 172 212 271 315 398
#
# _framework density 20.323139000000001
#
# number of rings (size 3 to 8) (size 9 to 14) (size 15 to 20)
#    1.000    0.667    1.667    2.500    4.667    2.667 
#    0.000    6.667    0.000    0.000    0.000    0.000 
#    0.000    0.000    0.000    0.000    0.000    0.000 
#
# Total GULP energy -133868.244252 kJ/mol
# GULP energy per Si atom -5577.843511 kJ/mol
# Density = 2.027688 g / cm^3
# Si number density = 20.323139 Si / 1000 Ang^3
#
#
#
# Elastic Constant Matrix: (Units=GPa)
#
#
# Indices 1 2 3 4 5 6 
#
# 1 64.0265 10.4091 26.7355 0.0000 0.0000 0.0000
# 2 10.4091 96.0717 55.5984 0.0000 0.0000 0.0000
# 3 26.7355 55.5984 146.4223 0.0000 0.0000 0.0000
# 4 0.0000 0.0000 0.0000 22.0906 0.0000 0.0000
# 5 0.0000 0.0000 0.0000 0.0000 -11.8368 0.0000
# 6 0.0000 0.0000 0.0000 0.0000 0.0000 31.2918
#
#
#
# Elastic Compliance Matrix: (Units=1/GPa)
#
#
# Indices 1 2 3 4 5 6 
#
# 1 0.016908 -0.000058 -0.003065 0.000000 0.000000 0.000000
# 2 -0.000058 0.013341 -0.005055 0.000000 0.000000 0.000000
# 3 -0.003065 -0.005055 0.009309 0.000000 0.000000 0.000000
# 4 0.000000 0.000000 0.000000 0.045268 0.000000 0.000000
# 5 0.000000 0.000000 0.000000 0.000000 -0.084482 0.000000
# 6 0.000000 0.000000 0.000000 0.000000 0.000000 0.031957
#
#
# Mechanical properties :
#
#
# Convention : Reuss Voigt Hill
#
# Bulk Modulus (GPa) = 43.10211 54.66738 48.88474
# Shear Modulus (GPa) = 88.66740 22.56094 55.61417
#
# Velocity S-wave (km/s) = 6.61238 3.33545 5.23683
# Velocity P-wave (km/s) = 8.91922 6.46460 7.78921
#
# Compressibility (1/GPa) = 0.02320072
#
# Stress axis : x y z
#
# Youngs Moduli (GPa) = 59.14388 74.95922 107.42650
#
# Poissons Ratio (x) = 0.00435 0.32929
# Poissons Ratio (y) = 0.00343 0.54304
# Poissons Ratio (z) = 0.18129 0.37892
#
# Static dielectric constant tensor:
#      x y z
#    x 1.737090 0.000000 0.000000 
#    y 0.000000 1.739060 0.000000 
#    z 0.000000 0.000000 1.711680 
# 
# From -- ./inp_files/21714.got.cif
#   From: 2010.05.17/outbox.cif.g08.bks.cpg/sg58_11_cif.got.tgz:21714.got - 2010.06.03 14:20:14.
