data_PCOD9445880
_publ_section_title
;
Structure prediction by ZEFSAII (Michael W. Deem and Ramdas Pophale) SiO2 
 PCOD9445880
Probable space group: P N N M
;
_chemical_formula_sum "Si O2"
_cell_formula_units_Z 56
_cell_length_a 13.858871
_cell_length_b 24.423668
_cell_length_c 7.378927
_cell_angle_alpha 90.000000
_cell_angle_beta 90.000000
_cell_angle_gamma 90.000000
_cell_volume 2497.652152
_symmetry_space_group_name_H-M "P N N M"
_symmetry_group_IT_number 58
_symmetry_cell_setting 'orthorhombic'
loop_
_space_group_symop_operation_xyz
x,y,z
-x,-y,z
1/2+x,1/2-y,1/2-z
1/2-x,1/2+y,1/2-z
-x,-y,-z
x,y,-z
1/2-x,1/2+y,1/2+z
1/2+x,1/2-y,1/2+z
loop_
_atom_site_type_symbol
_atom_site_label
_atom_site_fract_x
_atom_site_fract_y
_atom_site_fract_z
Si Si1 0.284965 0.372638 0.221178
Si Si2 0.814813 0.734150 0.784980
Si Si3 0.091453 0.440709 0.291778
Si Si4 0.781745 0.339749 0.279285
Si Si5 0.005130 0.665749 0.282565
Si Si6 0.089375 0.966525 0.711564
Si Si7 0.717362 0.964864 0.220069
O O1 0.263103 0.310921 0.281268
O O2 0.192543 0.407170 0.287076
O O3 0.378330 0.406797 0.282868
O O4 0.283186 0.373926 0.000000
O O5 0.795564 0.795104 0.715395
O O6 0.920173 0.708179 0.758472
O O7 0.800194 0.736903 0.000000
O O8 0.061634 0.449130 0.500000
O O9 0.020428 0.395214 0.210576
O O10 0.124196 0.499621 0.216557
O O11 0.776775 0.342700 0.500000
O O12 0.775567 0.402437 0.217933
O O13 0.887874 0.318166 0.227406
O O14 0.005944 0.660706 0.500000
O O15 0.066453 0.957653 0.500000
O O16 0.185157 0.003667 0.725647
O O17 0.000000 0.000000 0.792370
O O18 0.712360 0.965541 0.000000
#
# Coordination Sequence:
#
# PCOD9445880 Si02
#       7
#     8   8   8   8   8   8   8
#     4   8  14  26  45  63  83 118 155 185 225 272
#     4   9  17  32  50  66  90 126 162 195 232 283
#     4   8  14  25  45  69  91 113 145 186 227 272
#     4   9  18  32  49  70  99 128 157 195 241 288
#     4   9  17  31  50  72  94 121 158 199 238 282
#     4   9  17  30  46  68  96 122 155 200 240 278
#     4   9  17  30  47  68  95 126 154 189 238 287
#
# _framework density 22.421057999999999
#
# number of rings (size 3 to 8) (size 9 to 14) (size 15 to 20)
#    0.000    3.286    0.000    0.000    0.000    0.857 
#    2.571    5.000    0.000    0.000    0.000   10.000 
#    0.000    0.000    0.000    0.000    0.000    0.000 
#
# Total GULP energy -312090.916900 kJ/mol
# GULP energy per Si atom -5573.052087 kJ/mol
# Density = 2.237003 g / cm^3
# Si number density = 22.421058 Si / 1000 Ang^3
#
#
#
# Elastic Constant Matrix: (Units=GPa)
#
#
# Indices 1 2 3 4 5 6 
#
# 1 38.6463 12.3457 -13.8772 0.0000 0.0000 0.0000
# 2 12.3457 120.0861 -5.7968 0.0000 0.0000 0.0000
# 3 -13.8772 -5.7968 81.0390 0.0000 0.0000 0.0000
# 4 0.0000 0.0000 0.0000 1.0217 0.0000 0.0000
# 5 0.0000 0.0000 0.0000 0.0000 1.3478 0.0000
# 6 0.0000 0.0000 0.0000 0.0000 0.0000 31.7661
#
#
#
# Elastic Compliance Matrix: (Units=1/GPa)
#
#
# Indices 1 2 3 4 5 6 
#
# 1 0.028415 -0.002696 0.004673 0.000000 0.000000 0.000000
# 2 -0.002696 0.008612 0.000154 0.000000 0.000000 0.000000
# 3 0.004673 0.000154 0.013151 0.000000 0.000000 0.000000
# 4 0.000000 0.000000 0.000000 0.978730 0.000000 0.000000
# 5 0.000000 0.000000 0.000000 0.000000 0.741960 0.000000
# 6 0.000000 0.000000 0.000000 0.000000 0.000000 0.031480
#
#
# Mechanical properties :
#
#
# Convention : Reuss Voigt Hill
#
# Bulk Modulus (GPa) = 18.36846 25.01275 21.69061
# Shear Modulus (GPa) = 2.75295 23.30044 13.02670
#
# Velocity S-wave (km/s) = 1.10928 3.22719 2.41301
# Velocity P-wave (km/s) = 3.13863 5.00665 4.17837
#
# Compressibility (1/GPa) = 0.05444113
#
# Stress axis : x y z
#
# Youngs Moduli (GPa) = 35.19295 116.11774 76.03992
#
# Poissons Ratio (x) = 0.31301 -0.35533
# Poissons Ratio (y) = 0.09487 -0.01174
# Poissons Ratio (z) = -0.16446 -0.01793
#
# Static dielectric constant tensor:
#      x y z
#    x 1.815700 0.000000 0.000000 
#    y 0.000000 1.874650 0.000000 
#    z 0.000000 0.000000 1.896690 
# 
# From -- ./inp_files/14737.got.cif
#   From: 2010.05.17/outbox.cif.g08.bks.cpg/sg58_8_cif.got.tgz:14737.got - 2010.06.03 14:20:14.
