data_PCOD9445246
_publ_section_title
;
Structure prediction by ZEFSAII (Michael W. Deem and Ramdas Pophale) SiO2 
 PCOD9445246
Probable space group: P N N M
;
_chemical_formula_sum "Si O2"
_cell_formula_units_Z 32
_cell_length_a 8.364020
_cell_length_b 14.757913
_cell_length_c 11.597980
_cell_angle_alpha 90.000000
_cell_angle_beta 90.000000
_cell_angle_gamma 90.000000
_cell_volume 1431.602222
_symmetry_space_group_name_H-M "P N N M"
_symmetry_group_IT_number 58
_symmetry_cell_setting 'orthorhombic'
loop_
_space_group_symop_operation_xyz
x,y,z
-x,-y,z
1/2+x,1/2-y,1/2-z
1/2-x,1/2+y,1/2-z
-x,-y,-z
x,y,-z
1/2-x,1/2+y,1/2+z
1/2+x,1/2-y,1/2+z
loop_
_atom_site_type_symbol
_atom_site_label
_atom_site_fract_x
_atom_site_fract_y
_atom_site_fract_z
Si Si1 0.434503 0.147537 0.000000
Si Si2 0.925041 0.223365 0.289373
Si Si3 0.748595 0.041801 0.000000
Si Si4 0.731877 0.855041 0.362695
Si Si5 0.827452 0.033228 0.739181
O O1 0.391745 0.205070 0.889073
O O2 0.622832 0.124305 0.000000
O O3 0.346517 0.052470 0.000000
O O4 0.898908 0.280399 0.173168
O O5 0.808725 0.136510 0.300220
O O6 0.103647 0.185649 0.308922
O O7 0.835790 0.041834 0.877734
O O8 0.747095 0.864303 0.500000
O O9 0.709104 0.954673 0.304798
O O10 0.000000 0.000000 0.694672
#
# Coordination Sequence:
#
# PCOD9445246 Si02
#       5
#     4   8   4   8   8
#     4  11  22  38  69  88 128 174 217 262 330 376
#     4  11  23  42  66  97 128 176 218 267 325 388
#     4  11  21  42  64  94 128 169 218 274 316 381
#     4  11  24  44  65  96 132 174 216 272 329 387
#     4  10  23  38  66  93 129 165 218 265 329 383
#
# _framework density 22.352577
#
# number of rings (size 3 to 8) (size 9 to 14) (size 15 to 20)
#    0.000    1.250    3.750    1.875    3.500    1.500 
#    4.500    0.000    0.000    6.000    0.000    0.000 
#    0.000    0.000    0.000    0.000    0.000    0.000 
#
# Total GULP energy -178714.251150 kJ/mol
# GULP energy per Si atom -5584.820348 kJ/mol
# Density = 2.230170 g / cm^3
# Si number density = 22.352577 Si / 1000 Ang^3
#
#
#
# Elastic Constant Matrix: (Units=GPa)
#
#
# Indices 1 2 3 4 5 6 
#
# 1 18.5343 19.5129 22.2307 0.0000 0.0000 0.0000
# 2 19.5129 175.9077 62.0920 0.0000 0.0000 0.0000
# 3 22.2307 62.0920 90.5177 0.0000 0.0000 0.0000
# 4 0.0000 0.0000 0.0000 34.4885 0.0000 0.0000
# 5 0.0000 0.0000 0.0000 0.0000 -51.1379 0.0000
# 6 0.0000 0.0000 0.0000 0.0000 0.0000 26.4421
#
#
#
# Elastic Compliance Matrix: (Units=1/GPa)
#
#
# Indices 1 2 3 4 5 6 
#
# 1 0.077290 -0.002472 -0.017287 0.000000 0.000000 0.000000
# 2 -0.002472 0.007580 -0.004593 0.000000 0.000000 0.000000
# 3 -0.017287 -0.004593 0.018443 0.000000 0.000000 0.000000
# 4 0.000000 0.000000 0.000000 0.028995 0.000000 0.000000
# 5 0.000000 0.000000 0.000000 0.000000 -0.019555 0.000000
# 6 0.000000 0.000000 0.000000 0.000000 0.000000 0.037818
#
#
# Mechanical properties :
#
#
# Convention : Reuss Voigt Hill
#
# Bulk Modulus (GPa) = 18.31100 54.73676 36.52388
# Shear Modulus (GPa) = 22.99078 14.03347 18.51212
#
# Velocity S-wave (km/s) = 3.21058 2.50836 2.88095
# Velocity P-wave (km/s) = 4.68545 5.73848 5.23850
#
# Compressibility (1/GPa) = 0.05461198
#
# Stress axis : x y z
#
# Youngs Moduli (GPa) = 12.93823 131.92445 54.21983
#
# Poissons Ratio (x) = 0.32609 0.93727
# Poissons Ratio (y) = 0.03198 0.24901
# Poissons Ratio (z) = 0.22366 0.60588
#
# Static dielectric constant tensor:
#      x y z
#    x 1.896060 0.000000 0.000000 
#    y 0.000000 1.841450 0.000000 
#    z 0.000000 0.000000 1.803400 
# 
# From -- ./inp_files/3532.got.cif
#   From: 2010.05.17/outbox.cif.g08.bks.cpg/sg58_2_cif.got.tgz:3532.got - 2010.06.03 14:20:14.
