data_PCOD9445603
_publ_section_title
;
Structure prediction by ZEFSAII (Michael W. Deem and Ramdas Pophale) SiO2 
 PCOD9445603
Probable space group: P N N M
;
_chemical_formula_sum "Si O2"
_cell_formula_units_Z 48
_cell_length_a 8.662247
_cell_length_b 15.349442
_cell_length_c 18.106754
_cell_angle_alpha 90.000000
_cell_angle_beta 90.000000
_cell_angle_gamma 90.000000
_cell_volume 2407.485925
_symmetry_space_group_name_H-M "P N N M"
_symmetry_group_IT_number 58
_symmetry_cell_setting 'orthorhombic'
loop_
_space_group_symop_operation_xyz
x,y,z
-x,-y,z
1/2+x,1/2-y,1/2-z
1/2-x,1/2+y,1/2-z
-x,-y,-z
x,y,-z
1/2-x,1/2+y,1/2+z
1/2+x,1/2-y,1/2+z
loop_
_atom_site_type_symbol
_atom_site_label
_atom_site_fract_x
_atom_site_fract_y
_atom_site_fract_z
Si Si1 0.323208 0.507965 0.777137
Si Si2 0.640731 0.932248 0.579863
Si Si3 0.394122 0.584370 0.620762
Si Si4 0.063699 0.741401 0.150734
Si Si5 0.953410 0.398947 0.580091
Si Si6 0.851785 0.666749 0.280963
O O1 0.500000 0.500000 0.801707
O O2 0.233265 0.545932 0.846183
O O3 0.338954 0.568255 0.705165
O O4 0.239678 0.419705 0.747876
O O5 0.721413 0.940584 0.500000
O O6 0.582756 0.834124 0.591101
O O7 0.500000 0.000000 0.579405
O O8 0.500000 0.500000 0.600353
O O9 0.498407 0.669539 0.617121
O O10 0.232188 0.600649 0.581290
O O11 0.224752 0.766123 0.189362
O O12 0.948290 0.705837 0.213532
O O13 0.006795 0.363575 0.500000
O O14 0.000000 0.500000 0.584010
O O15 0.034111 0.355441 0.650818
#
# Coordination Sequence:
#
# PCOD9445603 Si02
#       6
#     8   8   8   8   8   8
#     4  11  21  42  69  96 129 170 220 281 332 392
#     4  11  25  44  66  95 133 178 219 265 334 400
#     4  11  22  43  67 100 132 171 222 275 333 397
#     4  12  24  40  70  98 127 171 226 282 327 391
#     4  11  23  39  63  93 133 177 212 261 335 400
#     4  12  23  40  68  98 128 173 227 279 330 394
#
# _framework density 19.937812999999998
#
# number of rings (size 3 to 8) (size 9 to 14) (size 15 to 20)
#    0.000    0.667    6.667    3.000    0.000    2.000 
#    0.000    0.000    0.000    0.500    0.000    0.000 
#    0.000    0.000    0.000    0.000    0.000    0.000 
#
# Total GULP energy -268108.134429 kJ/mol
# GULP energy per Si atom -5585.586134 kJ/mol
# Density = 1.989243 g / cm^3
# Si number density = 19.937813 Si / 1000 Ang^3
#
#
#
# Elastic Constant Matrix: (Units=GPa)
#
#
# Indices 1 2 3 4 5 6 
#
# 1 98.4649 29.8462 25.0313 0.0000 0.0000 0.0000
# 2 29.8462 106.0516 42.5152 0.0000 0.0000 0.0000
# 3 25.0313 42.5152 44.2499 0.0000 0.0000 0.0000
# 4 0.0000 0.0000 0.0000 -222.9516 0.0000 0.0000
# 5 0.0000 0.0000 0.0000 0.0000 16.3614 0.0000
# 6 0.0000 0.0000 0.0000 0.0000 0.0000 36.7269
#
#
#
# Elastic Compliance Matrix: (Units=1/GPa)
#
#
# Indices 1 2 3 4 5 6 
#
# 1 0.011935 -0.001061 -0.005732 0.000000 0.000000 0.000000
# 2 -0.001061 0.015431 -0.014226 0.000000 0.000000 0.000000
# 3 -0.005732 -0.014226 0.039510 0.000000 0.000000 0.000000
# 4 0.000000 0.000000 0.000000 -0.004485 0.000000 0.000000
# 5 0.000000 0.000000 0.000000 0.000000 0.061119 0.000000
# 6 0.000000 0.000000 0.000000 0.000000 0.000000 0.027228
#
#
# Mechanical properties :
#
#
# Convention : Reuss Voigt Hill
#
# Bulk Modulus (GPa) = 40.26129 49.28354 44.77241
# Shear Modulus (GPa) = 24.86894 -23.88107 0.49393
#
# Velocity S-wave (km/s) = 3.53558 -3.46465 0.49827
# Velocity P-wave (km/s) = 6.07490 2.96095 4.77868
#
# Compressibility (1/GPa) = 0.02483776
#
# Stress axis : x y z
#
# Youngs Moduli (GPa) = 83.78998 64.80452 25.31032
#
# Poissons Ratio (x) = 0.06875 0.14508
# Poissons Ratio (y) = 0.08889 0.36006
# Poissons Ratio (z) = 0.48027 0.92191
#
# Static dielectric constant tensor:
#      x y z
#    x 1.718870 0.000000 0.000000 
#    y 0.000000 1.718240 0.000000 
#    z 0.000000 0.000000 1.799730 
# 
# From -- ./inp_files/25278.got.cif
#   From: 2010.05.17/outbox.cif.g08.bks.cpg/sg58_13_cif.got.tgz:25278.got - 2010.06.03 14:20:14.
