data_PCOD9445856
_publ_section_title
;
Structure prediction by ZEFSAII (Michael W. Deem and Ramdas Pophale) SiO2 
 PCOD9445856
Probable space group: P N N M
;
_chemical_formula_sum "Si O2"
_cell_formula_units_Z 56
_cell_length_a 22.090302
_cell_length_b 6.919021
_cell_length_c 13.710892
_cell_angle_alpha 90.000000
_cell_angle_beta 90.000000
_cell_angle_gamma 90.000000
_cell_volume 2095.617478
_symmetry_space_group_name_H-M "P N N M"
_symmetry_group_IT_number 58
_symmetry_cell_setting 'orthorhombic'
loop_
_space_group_symop_operation_xyz
x,y,z
-x,-y,z
1/2+x,1/2-y,1/2-z
1/2-x,1/2+y,1/2-z
-x,-y,-z
x,y,-z
1/2-x,1/2+y,1/2+z
1/2+x,1/2-y,1/2+z
loop_
_atom_site_type_symbol
_atom_site_label
_atom_site_fract_x
_atom_site_fract_y
_atom_site_fract_z
Si Si1 0.710534 0.539684 0.383635
Si Si2 0.416284 0.372818 0.609213
Si Si3 0.870473 0.498774 0.180910
Si Si4 0.841034 0.431381 0.610139
Si Si5 0.246445 0.027403 0.382820
Si Si6 0.978748 0.716407 0.247105
Si Si7 0.615548 0.377791 0.890275
O O1 0.703935 0.543343 0.500000
O O2 0.641700 0.508157 0.350219
O O3 0.769568 0.407240 0.370148
O O4 0.734807 0.752281 0.354242
O O5 0.433726 0.436986 0.500000
O O6 0.385661 0.161002 0.602054
O O7 0.470775 0.323670 0.682979
O O8 0.872777 0.389971 0.286871
O O9 0.803618 0.581225 0.164266
O O10 0.923593 0.652919 0.177467
O O11 0.855267 0.357353 0.500000
O O12 0.857253 0.660279 0.603527
O O13 0.249153 0.008930 0.500000
O O14 0.175392 0.000544 0.357483
O O15 0.945044 0.847333 0.327648
O O16 0.000000 0.500000 0.284239
O O17 0.599708 0.439326 0.000000
#
# Coordination Sequence:
#
# PCOD9445856 Si02
#       7
#     8   8   8   8   8   8   8
#     4   7  11  21  36  51  68  94 126 155 184 218
#     4   9  16  25  36  53  79 107 129 149 180 229
#     4   9  15  22  35  57  79  99 122 151 189 223
#     4   8  13  22  36  54  74  94 121 159 194 220
#     4   8  13  22  37  54  72  97 128 158 184 217
#     4   9  17  24  34  57  83 104 123 149 191 229
#     4   8  14  25  38  52  73 100 130 160 186 219
#
# _framework density 26.722435000000001
#
# number of rings (size 3 to 8) (size 9 to 14) (size 15 to 20)
#    0.000    3.714    0.000    3.000    0.000    3.429 
#    0.000    2.143    0.000    0.857    0.000   25.000 
#    0.000    5.714    0.000    0.000    0.000    0.000 
#
# Total GULP energy -312228.168360 kJ/mol
# GULP energy per Si atom -5575.503006 kJ/mol
# Density = 2.666161 g / cm^3
# Si number density = 26.722435 Si / 1000 Ang^3
#
#
#
# Elastic Constant Matrix: (Units=GPa)
#
#
# Indices 1 2 3 4 5 6 
#
# 1 212.0421 25.4831 108.6330 0.0000 0.0000 0.0000
# 2 25.4831 45.1010 22.6651 0.0000 0.0000 0.0000
# 3 108.6330 22.6651 136.3012 0.0000 0.0000 0.0000
# 4 0.0000 0.0000 0.0000 15.4882 0.0000 0.0000
# 5 0.0000 0.0000 0.0000 0.0000 37.9650 0.0000
# 6 0.0000 0.0000 0.0000 0.0000 0.0000 47.0143
#
#
#
# Elastic Compliance Matrix: (Units=1/GPa)
#
#
# Indices 1 2 3 4 5 6 
#
# 1 0.008056 -0.001446 -0.006180 0.000000 0.000000 0.000000
# 2 -0.001446 0.024454 -0.002914 0.000000 0.000000 0.000000
# 3 -0.006180 -0.002914 0.012747 0.000000 0.000000 0.000000
# 4 0.000000 0.000000 0.000000 0.064565 0.000000 0.000000
# 5 0.000000 0.000000 0.000000 0.000000 0.026340 0.000000
# 6 0.000000 0.000000 0.000000 0.000000 0.000000 0.021270
#
#
# Mechanical properties :
#
#
# Convention : Reuss Voigt Hill
#
# Bulk Modulus (GPa) = 41.36243 78.55632 59.95937
# Shear Modulus (GPa) = 26.79935 35.87105 31.33520
#
# Velocity S-wave (km/s) = 3.17026 3.66779 3.42807
# Velocity P-wave (km/s) = 5.37707 6.88461 6.17701
#
# Compressibility (1/GPa) = 0.02417653
#
# Stress axis : x y z
#
# Youngs Moduli (GPa) = 124.12919 40.89335 78.44987
#
# Poissons Ratio (x) = 0.05913 0.48485
# Poissons Ratio (y) = 0.17949 0.22859
# Poissons Ratio (z) = 0.76716 0.11916
#
# Static dielectric constant tensor:
#      x y z
#    x 2.148010 0.000000 0.000000 
#    y 0.000000 2.153250 0.000000 
#    z 0.000000 0.000000 2.073800 
# 
# From -- ./inp_files/22992.got.cif
#   From: 2010.05.17/outbox.cif.g08.bks.cpg/sg58_12_cif.got.tgz:22992.got - 2010.06.03 14:20:14.
