data_PCOD9445922
_publ_section_title
;
Structure prediction by ZEFSAII (Michael W. Deem and Ramdas Pophale) SiO2 
 PCOD9445922
Probable space group: P N N M
;
_chemical_formula_sum "Si O2"
_cell_formula_units_Z 64
_cell_length_a 15.000000
_cell_length_b 12.000000
_cell_length_c 18.000000
_cell_angle_alpha 90.000000
_cell_angle_beta 90.000000
_cell_angle_gamma 90.000000
_cell_volume 3240.000000
_symmetry_space_group_name_H-M "P N N M"
_symmetry_group_IT_number 58
_symmetry_cell_setting 'orthorhombic'
loop_
_space_group_symop_operation_xyz
x,y,z
-x,-y,z
1/2+x,1/2-y,1/2-z
1/2-x,1/2+y,1/2-z
-x,-y,-z
x,y,-z
1/2-x,1/2+y,1/2+z
1/2+x,1/2-y,1/2+z
loop_
_atom_site_type_symbol
_atom_site_label
_atom_site_fract_x
_atom_site_fract_y
_atom_site_fract_z
Si Si1 0.809282 0.168289 0.345982
Si Si2 0.659448 0.084275 0.227951
Si Si3 0.277371 0.556955 0.916248
Si Si4 0.054982 0.813384 0.784494
Si Si5 0.246043 0.097604 0.856314
Si Si6 0.128130 0.166962 0.280671
Si Si7 0.899298 0.043153 0.919992
Si Si8 0.421422 0.069723 0.349664
O O1 0.737105 0.124352 0.284830
O O2 0.894979 0.184154 0.293987
O O3 0.789712 0.288022 0.381100
O O4 0.803242 0.072673 0.406947
O O5 0.617173 0.201382 0.206412
O O6 0.693820 0.009917 0.160025
O O7 0.598848 0.004452 0.277152
O O8 0.344011 0.614432 0.858061
O O9 0.173639 0.576063 0.892111
O O10 0.288889 0.595455 0.000000
O O11 0.108492 0.881557 0.846993
O O12 0.048048 0.691054 0.821421
O O13 0.959740 0.866843 0.764811
O O14 0.207493 0.131724 0.774960
O O15 0.166916 0.059410 0.909020
O O16 0.881624 0.099120 0.000000
O O17 0.000000 0.000000 0.921092
O O18 0.500000 0.000000 0.390300
#
# Coordination Sequence:
#
# PCOD9445922 Si02
#       8
#     8   8   8   8   8   8   8   8
#     4  10  21  36  61  87 111 160 210 256 297 354
#     4  10  18  35  59  87 117 150 203 256 298 354
#     4  11  25  43  60  87 129 168 204 244 311 379
#     4  12  21  36  63  92 122 153 210 261 303 360
#     4  11  19  37  61  83 116 160 209 252 296 363
#     4  11  21  36  62  90 117 161 207 259 300 354
#     4  11  24  37  53  87 129 159 191 246 317 377
#     4  11  21  38  62  95 122 153 203 260 312 362
#
# _framework density 19.753086
#
# number of rings (size 3 to 8) (size 9 to 14) (size 15 to 20)
#    0.000    1.125    7.500    0.750    0.000    1.250 
#    0.000    2.500    0.000    0.000    0.000    0.875 
#    0.000    0.000    0.000    0.000    0.000    0.000 
#
# Total GULP energy -356705.680598 kJ/mol
# GULP energy per Si atom -5573.526259 kJ/mol
# Density = 1.970813 g / cm^3
# Si number density = 19.753086 Si / 1000 Ang^3
#
#
#
# Elastic Constant Matrix: (Units=GPa)
#
#
# Indices 1 2 3 4 5 6 
#
# 1 22.8654 18.5557 20.0454 0.0000 0.0000 0.0000
# 2 18.5557 70.0791 22.2248 0.0000 0.0000 0.0000
# 3 20.0454 22.2248 85.2195 0.0000 0.0000 0.0000
# 4 0.0000 0.0000 0.0000 6.0745 0.0000 0.0000
# 5 0.0000 0.0000 0.0000 0.0000 -6.4168 0.0000
# 6 0.0000 0.0000 0.0000 0.0000 0.0000 25.9828
#
#
#
# Elastic Compliance Matrix: (Units=1/GPa)
#
#
# Indices 1 2 3 4 5 6 
#
# 1 0.064990 -0.013475 -0.011773 0.000000 0.000000 0.000000
# 2 -0.013475 0.018350 -0.001616 0.000000 0.000000 0.000000
# 3 -0.011773 -0.001616 0.014925 0.000000 0.000000 0.000000
# 4 0.000000 0.000000 0.000000 0.164624 0.000000 0.000000
# 5 0.000000 0.000000 0.000000 0.000000 -0.155842 0.000000
# 6 0.000000 0.000000 0.000000 0.000000 0.000000 0.038487
#
#
# Mechanical properties :
#
#
# Convention : Reuss Voigt Hill
#
# Bulk Modulus (GPa) = 22.45278 33.31289 27.88283
# Shear Modulus (GPa) = 23.35285 12.95065 18.15175
#
# Velocity S-wave (km/s) = 3.44210 2.56330 3.03468
# Velocity P-wave (km/s) = 5.21429 5.06576 5.14056
#
# Compressibility (1/GPa) = 0.04453791
#
# Stress axis : x y z
#
# Youngs Moduli (GPa) = 15.38699 54.49612 67.00121
#
# Poissons Ratio (x) = 0.73431 0.78880
# Poissons Ratio (y) = 0.20733 0.10828
# Poissons Ratio (z) = 0.18115 0.08807
#
# Static dielectric constant tensor:
#      x y z
#    x 1.767280 0.000000 0.000000 
#    y 0.000000 1.755160 0.000000 
#    z 0.000000 0.000000 1.663580 
# 
# From -- ./inp_files/27010.got.cif
#   From: 2010.05.17/outbox.ucp.g08.bks.cvg/sg58_14_cif.got.tgz:27010.got - 2010.06.11 16:41:41.
