data_PCOD9445264
_publ_section_title
;
Structure prediction by ZEFSAII (Michael W. Deem and Ramdas Pophale) SiO2 
 PCOD9445264
Probable space group: P N N M
;
_chemical_formula_sum "Si O2"
_cell_formula_units_Z 48
_cell_length_a 9.664376
_cell_length_b 31.148021
_cell_length_c 7.697956
_cell_angle_alpha 90.000000
_cell_angle_beta 90.000000
_cell_angle_gamma 90.000000
_cell_volume 2317.286339
_symmetry_space_group_name_H-M "P N N M"
_symmetry_group_IT_number 58
_symmetry_cell_setting 'orthorhombic'
loop_
_space_group_symop_operation_xyz
x,y,z
-x,-y,z
1/2+x,1/2-y,1/2-z
1/2-x,1/2+y,1/2-z
-x,-y,-z
x,y,-z
1/2-x,1/2+y,1/2+z
1/2+x,1/2-y,1/2+z
loop_
_atom_site_type_symbol
_atom_site_label
_atom_site_fract_x
_atom_site_fract_y
_atom_site_fract_z
Si Si1 0.541431 0.366760 0.209998
Si Si2 0.023835 0.290561 0.292026
Si Si3 0.583063 0.543475 0.700104
Si Si4 0.653246 0.709741 0.790922
Si Si5 0.796174 0.534749 0.000000
Si Si6 0.112361 0.562334 0.000000
Si Si7 0.155642 0.629729 0.297640
O O1 0.511415 0.414508 0.277500
O O2 0.420870 0.334211 0.266572
O O3 0.689906 0.351299 0.278321
O O4 0.546132 0.368033 0.000000
O O5 0.007477 0.290563 0.500000
O O6 0.185860 0.287512 0.254136
O O7 0.935682 0.250177 0.224358
O O8 0.955078 0.335161 0.233775
O O9 0.500000 0.500000 0.745085
O O10 0.627556 0.539908 0.500000
O O11 0.709875 0.548313 0.831403
O O12 0.644161 0.709959 0.000000
O O13 0.812652 0.483358 0.000000
O O14 0.948391 0.554285 0.000000
O O15 0.150683 0.589206 0.829255
O O16 0.130876 0.619077 0.500000
#
# Coordination Sequence:
#
# PCOD9445264 Si02
#       7
#     8   8   8   8   4   4   8
#     4  11  22  39  66  96 130 171 220 272 328 394
#     4  10  23  41  61  93 131 168 214 267 323 390
#     4  11  24  41  67  97 131 172 222 277 332 394
#     4  10  23  40  64  95 128 171 217 265 327 390
#     4  11  25  44  66  96 135 172 225 274 337 398
#     4  11  26  44  68  96 132 179 218 277 335 391
#     4  11  24  42  67  95 131 174 222 268 330 392
#
# _framework density 20.713884
#
# number of rings (size 3 to 8) (size 9 to 14) (size 15 to 20)
#    0.000    1.333    1.667    2.750    3.500    4.667 
#    0.000    1.667    0.000    0.000    0.000    0.000 
#    0.000    0.000    0.000    0.000    0.000    0.000 
#
# Total GULP energy -268466.060626 kJ/mol
# GULP energy per Si atom -5593.042930 kJ/mol
# Density = 2.066674 g / cm^3
# Si number density = 20.713884 Si / 1000 Ang^3
#
#
#
# Elastic Constant Matrix: (Units=GPa)
#
#
# Indices 1 2 3 4 5 6 
#
# 1 131.7399 43.5940 10.2569 0.0000 0.0000 0.0000
# 2 43.5940 75.6287 3.1293 0.0000 0.0000 0.0000
# 3 10.2569 3.1293 70.3751 0.0000 0.0000 0.0000
# 4 0.0000 0.0000 0.0000 -51.8256 0.0000 0.0000
# 5 0.0000 0.0000 0.0000 0.0000 2.4263 0.0000
# 6 0.0000 0.0000 0.0000 0.0000 0.0000 26.9635
#
#
#
# Elastic Compliance Matrix: (Units=1/GPa)
#
#
# Indices 1 2 3 4 5 6 
#
# 1 0.009470 -0.005412 -0.001140 0.000000 0.000000 0.000000
# 2 -0.005412 0.016339 0.000062 0.000000 0.000000 0.000000
# 3 -0.001140 0.000062 0.014373 0.000000 0.000000 0.000000
# 4 0.000000 0.000000 0.000000 -0.019295 0.000000 0.000000
# 5 0.000000 0.000000 0.000000 0.000000 0.412157 0.000000
# 6 0.000000 0.000000 0.000000 0.000000 0.000000 0.037087
#
#
# Mechanical properties :
#
#
# Convention : Reuss Voigt Hill
#
# Bulk Modulus (GPa) = 36.75898 43.52266 40.14082
# Shear Modulus (GPa) = 10.15894 10.23041 10.19467
#
# Velocity S-wave (km/s) = 2.21699 2.22478 2.22089
# Velocity P-wave (km/s) = 4.93335 5.25894 5.09875
#
# Compressibility (1/GPa) = 0.02720424
#
# Stress axis : x y z
#
# Youngs Moduli (GPa) = 105.59422 61.20204 69.57540
#
# Poissons Ratio (x) = 0.33121 0.07929
# Poissons Ratio (y) = 0.57144 -0.00433
# Poissons Ratio (z) = 0.12034 -0.00381
#
# Static dielectric constant tensor:
#      x y z
#    x 1.723220 0.000000 0.000000 
#    y 0.000000 1.734220 0.000000 
#    z 0.000000 0.000000 1.732750 
# 
# From -- ./inp_files/3066.got.cif
#   From: 2010.05.17/outbox.cif.g08.bks.cpg/sg58_2_cif.got.tgz:3066.got - 2010.06.03 14:20:14.
