data_PCOD9445988
_publ_section_title
;
Structure prediction by ZEFSAII (Michael W. Deem and Ramdas Pophale) SiO2 
 PCOD9445988
Probable space group: P N N M
;
_chemical_formula_sum "Si O2"
_cell_formula_units_Z 64
_cell_length_a 15.000000
_cell_length_b 24.000000
_cell_length_c 9.000000
_cell_angle_alpha 90.000000
_cell_angle_beta 90.000000
_cell_angle_gamma 90.000000
_cell_volume 3240.000000
_symmetry_space_group_name_H-M "P N N M"
_symmetry_group_IT_number 58
_symmetry_cell_setting 'orthorhombic'
loop_
_space_group_symop_operation_xyz
x,y,z
-x,-y,z
1/2+x,1/2-y,1/2-z
1/2-x,1/2+y,1/2-z
-x,-y,-z
x,y,-z
1/2-x,1/2+y,1/2+z
1/2+x,1/2-y,1/2+z
loop_
_atom_site_type_symbol
_atom_site_label
_atom_site_fract_x
_atom_site_fract_y
_atom_site_fract_z
Si Si1 0.947502 0.329102 0.681656
Si Si2 0.590780 0.255971 0.172769
Si Si3 0.225757 0.742189 0.322330
Si Si4 0.743021 0.022494 0.822559
Si Si5 0.484306 0.366933 0.171045
Si Si6 0.905597 0.968847 0.669407
Si Si7 0.302835 0.361572 0.676428
Si Si8 0.574453 0.955645 0.181394
O O1 0.949149 0.327504 0.500000
O O2 0.858044 0.295729 0.727251
O O3 0.942369 0.392836 0.731208
O O4 0.038678 0.298596 0.729367
O O5 0.677483 0.274831 0.261612
O O6 0.515694 0.303632 0.176906
O O7 0.616770 0.247640 0.000000
O O8 0.225610 0.742179 0.500000
O O9 0.214212 0.804563 0.261242
O O10 0.741505 0.086820 0.772988
O O11 0.836291 0.995978 0.778318
O O12 0.666790 0.981878 0.765273
O O13 0.734987 0.024751 0.000000
O O14 0.569363 0.405311 0.202571
O O15 0.403910 0.378021 0.281644
O O16 0.456040 0.379571 0.000000
O O17 0.872210 0.973408 0.500000
O O18 0.000000 0.000000 0.676525
O O19 0.293290 0.353634 0.500000
O O20 0.500000 0.000000 0.224002
O O21 0.575808 0.953378 0.000000
#
# Coordination Sequence:
#
# PCOD9445988 Si02
#       8
#     8   8   8   8   8   8   8   8
#     4   9  19  37  60  84 115 151 189 237 290 347
#     4  10  21  38  60  84 113 150 192 239 292 347
#     4  11  23  39  59  87 118 153 193 237 294 354
#     4  10  22  36  56  87 116 148 194 246 290 337
#     4  10  20  37  57  81 117 157 193 232 289 355
#     4  10  20  34  55  81 115 158 192 222 281 356
#     4  11  22  36  57  86 117 150 194 244 295 346
#     4   9  19  36  59  84 111 147 192 241 291 340
#
# _framework density 19.753086
#
# number of rings (size 3 to 8) (size 9 to 14) (size 15 to 20)
#    0.000    2.000    2.500    0.750    3.500    1.750 
#    0.000    0.000    0.000    1.125    0.000    0.000 
#    0.000    0.000    0.000    0.000    0.000    0.000 
#
# Total GULP energy -356983.221870 kJ/mol
# GULP energy per Si atom -5577.862842 kJ/mol
# Density = 1.970813 g / cm^3
# Si number density = 19.753086 Si / 1000 Ang^3
#
#
#
# Elastic Constant Matrix: (Units=GPa)
#
#
# Indices 1 2 3 4 5 6 
#
# 1 36.2357 7.3163 3.1237 0.0000 0.0000 0.0000
# 2 7.3163 105.9238 7.8498 0.0000 0.0000 0.0000
# 3 3.1237 7.8498 11.9955 0.0000 0.0000 0.0000
# 4 0.0000 0.0000 0.0000 18.3280 0.0000 0.0000
# 5 0.0000 0.0000 0.0000 0.0000 -67.7940 0.0000
# 6 0.0000 0.0000 0.0000 0.0000 0.0000 21.6814
#
#
#
# Elastic Compliance Matrix: (Units=1/GPa)
#
#
# Indices 1 2 3 4 5 6 
#
# 1 0.028452 -0.001488 -0.006435 0.000000 0.000000 0.000000
# 2 -0.001488 0.010000 -0.006156 0.000000 0.000000 0.000000
# 3 -0.006435 -0.006156 0.089069 0.000000 0.000000 0.000000
# 4 0.000000 0.000000 0.000000 0.054561 0.000000 0.000000
# 5 0.000000 0.000000 0.000000 0.000000 -0.014751 0.000000
# 6 0.000000 0.000000 0.000000 0.000000 0.000000 0.046123
#
#
# Mechanical properties :
#
#
# Convention : Reuss Voigt Hill
#
# Bulk Modulus (GPa) = 10.06424 21.19270 15.62847
# Shear Modulus (GPa) = 18.19941 3.50077 10.85009
#
# Velocity S-wave (km/s) = 3.03866 1.33271 2.34623
# Velocity P-wave (km/s) = 4.17341 3.62219 3.90753
#
# Compressibility (1/GPa) = 0.09936172
#
# Stress axis : x y z
#
# Youngs Moduli (GPa) = 35.14648 100.00225 11.22726
#
# Poissons Ratio (x) = 0.14884 0.07225
# Poissons Ratio (y) = 0.05231 0.06912
# Poissons Ratio (z) = 0.22617 0.61563
#
# Static dielectric constant tensor:
#      x y z
#    x 1.763440 0.000000 0.000000 
#    y 0.000000 1.749240 0.000000 
#    z 0.000000 0.000000 1.671380 
# 
# From -- ./inp_files/6758.got.cif
#   From: 2010.05.17/outbox.ucp.g08.bks.cvg/sg58_4_cif.got.tgz:6758.got - 2010.06.11 16:41:41.
