data_PCOD9445877
_publ_section_title
;
Structure prediction by ZEFSAII (Michael W. Deem and Ramdas Pophale) SiO2 
 PCOD9445877
Probable space group: P N N M
;
_chemical_formula_sum "Si O2"
_cell_formula_units_Z 40
_cell_length_a 7.084695
_cell_length_b 25.869884
_cell_length_c 9.937055
_cell_angle_alpha 90.000000
_cell_angle_beta 90.000000
_cell_angle_gamma 90.000000
_cell_volume 1821.265804
_symmetry_space_group_name_H-M "P N N M"
_symmetry_group_IT_number 58
_symmetry_cell_setting 'orthorhombic'
loop_
_space_group_symop_operation_xyz
x,y,z
-x,-y,z
1/2+x,1/2-y,1/2-z
1/2-x,1/2+y,1/2-z
-x,-y,-z
x,y,-z
1/2-x,1/2+y,1/2+z
1/2+x,1/2-y,1/2+z
loop_
_atom_site_type_symbol
_atom_site_label
_atom_site_fract_x
_atom_site_fract_y
_atom_site_fract_z
Si Si1 0.858279 0.606877 0.155664
Si Si2 0.223870 0.484964 0.654764
Si Si3 0.195661 0.075884 0.345454
Si Si4 0.405627 0.688937 0.849670
Si Si5 0.467669 0.781051 0.349453
O O1 0.764092 0.567344 0.258542
O O2 0.849629 0.667820 0.192549
O O3 0.081150 0.591102 0.155866
O O4 0.796242 0.600618 0.000000
O O5 0.284247 0.479385 0.500000
O O6 0.323621 0.531172 0.736223
O O7 0.000000 0.500000 0.651860
O O8 0.154101 0.059672 0.500000
O O9 0.081301 0.128430 0.314941
O O10 0.471265 0.732320 0.747447
O O11 0.181320 0.699151 0.857089
O O12 0.482505 0.696835 0.000000
O O13 0.408045 0.765772 0.500000
#
# Coordination Sequence:
#
# PCOD9445877 Si02
#       5
#     8   8   8   8   8
#     4   8  14  25  39  55  80 113 143 172 211 259
#     4   9  15  21  33  57  84 107 136 175 216 256
#     4   8  14  25  39  55  80 113 143 172 211 259
#     4   9  18  31  46  66  91 119 152 186 220 262
#     4   9  18  31  46  66  91 119 152 186 220 262
#
# _framework density 21.962748000000001
#
# number of rings (size 3 to 8) (size 9 to 14) (size 15 to 20)
#    0.000    3.400    0.000    3.000    0.000    4.800 
#    0.000    4.000    0.000    0.000    0.000    1.400 
#    0.000   11.200    0.000    0.000    0.000    0.000 
#
# Total GULP energy -223416.403190 kJ/mol
# GULP energy per Si atom -5585.410080 kJ/mol
# Density = 2.191276 g / cm^3
# Si number density = 21.962748 Si / 1000 Ang^3
#
#
#
# Elastic Constant Matrix: (Units=GPa)
#
#
# Indices 1 2 3 4 5 6 
#
# 1 63.9491 34.4151 25.9959 0.0000 0.0000 0.0000
# 2 34.4151 179.8449 148.6943 0.0000 0.0000 0.0000
# 3 25.9959 148.6943 171.0065 0.0000 0.0000 0.0000
# 4 0.0000 0.0000 0.0000 38.1720 0.0000 0.0000
# 5 0.0000 0.0000 0.0000 0.0000 10.7335 0.0000
# 6 0.0000 0.0000 0.0000 0.0000 0.0000 40.6584
#
#
#
# Elastic Compliance Matrix: (Units=1/GPa)
#
#
# Indices 1 2 3 4 5 6 
#
# 1 0.017471 -0.004082 0.000894 0.000000 0.000000 0.000000
# 2 -0.004082 0.020736 -0.017410 0.000000 0.000000 0.000000
# 3 0.000894 -0.017410 0.020850 0.000000 0.000000 0.000000
# 4 0.000000 0.000000 0.000000 0.026197 0.000000 0.000000
# 5 0.000000 0.000000 0.000000 0.000000 0.093167 0.000000
# 6 0.000000 0.000000 0.000000 0.000000 0.000000 0.024595
#
#
# Mechanical properties :
#
#
# Convention : Reuss Voigt Hill
#
# Bulk Modulus (GPa) = 55.98969 92.55679 74.27324
# Shear Modulus (GPa) = 19.98682 31.62580 25.80631
#
# Velocity S-wave (km/s) = 3.01995 3.79882 3.43155
# Velocity P-wave (km/s) = 6.14072 7.84063 7.04216
#
# Compressibility (1/GPa) = 0.01786043
#
# Stress axis : x y z
#
# Youngs Moduli (GPa) = 57.23769 48.22645 47.96188
#
# Poissons Ratio (x) = 0.19686 -0.04285
# Poissons Ratio (y) = 0.23364 0.83499
# Poissons Ratio (z) = -0.05114 0.83960
#
# Static dielectric constant tensor:
#      x y z
#    x 1.921030 0.000000 0.000000 
#    y 0.000000 1.779960 0.000000 
#    z 0.000000 0.000000 1.752500 
# 
# From -- ./inp_files/2446.got.cif
#   From: 2010.05.17/outbox.cif.g08.bks.cpg/sg58_2_cif.got.tgz:2446.got - 2010.06.03 14:20:14.
