data_PCOD9445693
_publ_section_title
;
Structure prediction by ZEFSAII (Michael W. Deem and Ramdas Pophale) SiO2 
 PCOD9445693
Probable space group: P N N M
;
_chemical_formula_sum "Si O2"
_cell_formula_units_Z 64
_cell_length_a 13.525610
_cell_length_b 11.657615
_cell_length_c 17.919744
_cell_angle_alpha 90.000000
_cell_angle_beta 90.000000
_cell_angle_gamma 90.000000
_cell_volume 2825.519899
_symmetry_space_group_name_H-M "P N N M"
_symmetry_group_IT_number 58
_symmetry_cell_setting 'orthorhombic'
loop_
_space_group_symop_operation_xyz
x,y,z
-x,-y,z
1/2+x,1/2-y,1/2-z
1/2-x,1/2+y,1/2-z
-x,-y,-z
x,y,-z
1/2-x,1/2+y,1/2+z
1/2+x,1/2-y,1/2+z
loop_
_atom_site_type_symbol
_atom_site_label
_atom_site_fract_x
_atom_site_fract_y
_atom_site_fract_z
Si Si1 0.993532 0.818590 0.279887
Si Si2 0.305753 0.926419 0.911278
Si Si3 0.163247 0.285165 0.161527
Si Si4 0.655389 0.860787 0.173388
Si Si5 0.637601 0.340513 0.087218
Si Si6 0.085526 0.912830 0.861791
Si Si7 0.690669 0.958714 0.329330
Si Si8 0.470208 0.163639 0.583273
O O1 0.906033 0.776465 0.223704
O O2 0.945663 0.873441 0.352881
O O3 0.059184 0.713673 0.309655
O O4 0.064338 0.892901 0.226051
O O5 0.335989 0.794211 0.897745
O O6 0.195632 0.950414 0.879935
O O7 0.369501 0.023123 0.870165
O O8 0.306834 0.943188 0.000000
O O9 0.257161 0.212590 0.135312
O O10 0.199651 0.408237 0.190000
O O11 0.085919 0.318168 0.096998
O O12 0.703020 0.889560 0.253437
O O13 0.732317 0.416130 0.109008
O O14 0.612222 0.352073 0.000000
O O15 0.074563 0.789566 0.901072
O O16 0.000000 0.000000 0.888150
O O17 0.583428 0.921464 0.359958
O O18 0.448674 0.126280 0.500000
#
# Coordination Sequence:
#
# PCOD9445693 Si02
#       8
#     8   8   8   8   8   8   8   8
#     4  11  24  44  65 102 132 177 232 276 338 408
#     4  11  24  43  69 101 137 177 223 281 349 404
#     4  11  25  41  63 100 132 176 223 281 336 397
#     4  12  25  42  69  99 135 173 223 282 334 406
#     4  11  24  44  68  95 133 180 229 278 335 407
#     4  11  23  40  66  99 136 177 223 283 341 405
#     4  12  23  40  69  97 134 178 228 276 333 408
#     4  11  23  42  65  99 137 174 223 278 345 405
#
# _framework density 22.650698999999999
#
# number of rings (size 3 to 8) (size 9 to 14) (size 15 to 20)
#    0.000    0.750    5.000    3.375    1.750    6.000 
#    0.000    1.250    0.000    2.625    0.000    0.000 
#    0.000    0.000    0.000    0.000    0.000    0.000 
#
# Total GULP energy -358085.665782 kJ/mol
# GULP energy per Si atom -5595.088528 kJ/mol
# Density = 2.259915 g / cm^3
# Si number density = 22.650699 Si / 1000 Ang^3
#
#
#
# Elastic Constant Matrix: (Units=GPa)
#
#
# Indices 1 2 3 4 5 6 
#
# 1 46.5374 6.3440 8.8586 0.0000 0.0000 0.0000
# 2 6.3440 50.6006 -8.2621 0.0000 0.0000 0.0000
# 3 8.8586 -8.2621 88.9066 0.0000 0.0000 0.0000
# 4 0.0000 0.0000 0.0000 13.8809 0.0000 0.0000
# 5 0.0000 0.0000 0.0000 0.0000 -119.7788 0.0000
# 6 0.0000 0.0000 0.0000 0.0000 0.0000 21.5949
#
#
#
# Elastic Compliance Matrix: (Units=1/GPa)
#
#
# Indices 1 2 3 4 5 6 
#
# 1 0.022410 -0.003223 -0.002532 0.000000 0.000000 0.000000
# 2 -0.003223 0.020531 0.002229 0.000000 0.000000 0.000000
# 3 -0.002532 0.002229 0.011707 0.000000 0.000000 0.000000
# 4 0.000000 0.000000 0.000000 0.072041 0.000000 0.000000
# 5 0.000000 0.000000 0.000000 0.000000 -0.008349 0.000000
# 6 0.000000 0.000000 0.000000 0.000000 0.000000 0.046307
#
#
# Mechanical properties :
#
#
# Convention : Reuss Voigt Hill
#
# Bulk Modulus (GPa) = 21.01075 22.21394 21.61234
# Shear Modulus (GPa) = 26.65744 -4.92033 10.86855
#
# Velocity S-wave (km/s) = 3.43431 -1.47546 2.19289
# Velocity P-wave (km/s) = 5.00221 2.63170 3.99674
#
# Compressibility (1/GPa) = 0.04759468
#
# Stress axis : x y z
#
# Youngs Moduli (GPa) = 44.62388 48.70763 85.41727
#
# Poissons Ratio (x) = 0.15699 0.21631
# Poissons Ratio (y) = 0.14382 -0.19040
# Poissons Ratio (z) = 0.11300 -0.10857
#
# Static dielectric constant tensor:
#      x y z
#    x 1.869660 0.000000 0.000000 
#    y 0.000000 1.918080 0.000000 
#    z 0.000000 0.000000 1.794910 
# 
# From -- ./inp_files/27021.got.cif
#   From: 2010.05.17/outbox.cif.g08.bks.cpg/sg58_14_cif.got.tgz:27021.got - 2010.06.03 14:20:14.
