data_PCOD9445530
_publ_section_title
;
Structure prediction by ZEFSAII (Michael W. Deem and Ramdas Pophale) SiO2 
 PCOD9445530
Probable space group: P N N M
;
_chemical_formula_sum "Si O2"
_cell_formula_units_Z 48
_cell_length_a 23.183396
_cell_length_b 5.023513
_cell_length_c 20.879741
_cell_angle_alpha 90.000000
_cell_angle_beta 90.000000
_cell_angle_gamma 90.000000
_cell_volume 2431.698300
_symmetry_space_group_name_H-M "P N N M"
_symmetry_group_IT_number 58
_symmetry_cell_setting 'orthorhombic'
loop_
_space_group_symop_operation_xyz
x,y,z
-x,-y,z
1/2+x,1/2-y,1/2-z
1/2-x,1/2+y,1/2-z
-x,-y,-z
x,y,-z
1/2-x,1/2+y,1/2+z
1/2+x,1/2-y,1/2+z
loop_
_atom_site_type_symbol
_atom_site_label
_atom_site_fract_x
_atom_site_fract_y
_atom_site_fract_z
Si Si1 0.827261 0.921775 0.500000
Si Si2 0.537258 0.754922 0.774292
Si Si3 0.797391 0.587117 0.310858
Si Si4 0.358542 0.404058 0.135551
Si Si5 0.676902 0.528685 0.370228
Si Si6 0.744708 0.417334 0.500000
Si Si7 0.370690 0.977549 0.684393
O O1 0.863178 0.986784 0.436187
O O2 0.774120 0.129801 0.500000
O O3 0.796259 0.635877 0.500000
O O4 0.500000 0.500000 0.752991
O O5 0.582647 0.634378 0.825248
O O6 0.500000 0.000000 0.802815
O O7 0.572768 0.901866 0.717784
O O8 0.827932 0.381799 0.359888
O O9 0.730087 0.539292 0.319923
O O10 0.823666 0.523285 0.241843
O O11 0.817164 0.882989 0.329327
O O12 0.705486 0.454558 0.437297
O O13 0.630640 0.316928 0.344219
O O14 0.650066 0.820269 0.369822
#
# Coordination Sequence:
#
# PCOD9445530 Si02
#       7
#     4   8   8   8   8   4   8
#     4  12  20  40  54  85 120 173 206 224 282 355
#     4  11  23  42  62  86 115 153 207 272 321 346
#     4  11  20  36  55  88 122 158 188 240 291 364
#     4  11  21  36  60  84 118 163 206 239 288 353
#     4  12  21  37  55  91 121 159 192 230 292 367
#     4  12  24  36  60  81 132 167 194 226 276 361
#     4  11  23  36  60  86 118 150 198 249 307 355
#
# _framework density 19.73929
#
# number of rings (size 3 to 8) (size 9 to 14) (size 15 to 20)
#    0.000    0.667    3.333    8.000    0.000    0.000 
#    0.000    0.833    0.000    0.000    0.000   11.667 
#    0.000    0.000    0.000    0.000    0.000    0.000 
#
# Total GULP energy -268288.197535 kJ/mol
# GULP energy per Si atom -5589.337449 kJ/mol
# Density = 1.969436 g / cm^3
# Si number density = 19.739290 Si / 1000 Ang^3
#
#
#
# Elastic Constant Matrix: (Units=GPa)
#
#
# Indices 1 2 3 4 5 6 
#
# 1 60.2556 21.1665 14.1540 0.0000 0.0000 0.0000
# 2 21.1665 94.0803 12.7697 0.0000 0.0000 0.0000
# 3 14.1540 12.7697 55.2463 0.0000 0.0000 0.0000
# 4 0.0000 0.0000 0.0000 25.3929 0.0000 0.0000
# 5 0.0000 0.0000 0.0000 0.0000 11.6011 0.0000
# 6 0.0000 0.0000 0.0000 0.0000 0.0000 35.7176
#
#
#
# Elastic Compliance Matrix: (Units=1/GPa)
#
#
# Indices 1 2 3 4 5 6 
#
# 1 0.018827 -0.003697 -0.003969 0.000000 0.000000 0.000000
# 2 -0.003697 0.011699 -0.001757 0.000000 0.000000 0.000000
# 3 -0.003969 -0.001757 0.019524 0.000000 0.000000 0.000000
# 4 0.000000 0.000000 0.000000 0.039381 0.000000 0.000000
# 5 0.000000 0.000000 0.000000 0.000000 0.086199 0.000000
# 6 0.000000 0.000000 0.000000 0.000000 0.000000 0.027997
#
#
# Mechanical properties :
#
#
# Convention : Reuss Voigt Hill
#
# Bulk Modulus (GPa) = 32.04702 33.97363 33.01032
# Shear Modulus (GPa) = 21.47076 25.30844 23.38960
#
# Velocity S-wave (km/s) = 3.30163 3.58458 3.44601
# Velocity P-wave (km/s) = 5.55020 5.86351 5.70901
#
# Compressibility (1/GPa) = 0.03120415
#
# Stress axis : x y z
#
# Youngs Moduli (GPa) = 53.11533 85.47386 51.21980
#
# Poissons Ratio (x) = 0.31600 0.20329
# Poissons Ratio (y) = 0.19637 0.09000
# Poissons Ratio (z) = 0.21081 0.15018
#
# Static dielectric constant tensor:
#      x y z
#    x 1.699120 0.000000 0.000000 
#    y 0.000000 1.696060 0.000000 
#    z 0.000000 0.000000 1.713730 
# 
# From -- ./inp_files/30358.got.cif
#   From: 2010.05.17/outbox.cif.g08.bks.cpg/sg58_16_cif.got.tgz:30358.got - 2010.06.03 14:20:14.
