data_PCOD9445463
_publ_section_title
;
Structure prediction by ZEFSAII (Michael W. Deem and Ramdas Pophale) SiO2 
 PCOD9445463
Probable space group: P N N M
;
_chemical_formula_sum "Si O2"
_cell_formula_units_Z 24
_cell_length_a 16.325203
_cell_length_b 6.849327
_cell_length_c 9.423128
_cell_angle_alpha 90.000000
_cell_angle_beta 90.000000
_cell_angle_gamma 90.000000
_cell_volume 1053.662640
_symmetry_space_group_name_H-M "P N N M"
_symmetry_group_IT_number 58
_symmetry_cell_setting 'orthorhombic'
loop_
_space_group_symop_operation_xyz
x,y,z
-x,-y,z
1/2+x,1/2-y,1/2-z
1/2-x,1/2+y,1/2-z
-x,-y,-z
x,y,-z
1/2-x,1/2+y,1/2+z
1/2+x,1/2-y,1/2+z
loop_
_atom_site_type_symbol
_atom_site_label
_atom_site_fract_x
_atom_site_fract_y
_atom_site_fract_z
Si Si1 0.373616 0.951692 0.000000
Si Si2 0.814376 0.998278 0.000000
Si Si3 0.477986 0.232627 0.500000
Si Si4 0.589365 0.597395 0.000000
Si Si5 0.397832 0.671647 0.253069
O O1 0.275995 0.919581 0.000000
O O2 0.401089 0.173825 0.000000
O O3 0.403370 0.849366 0.143878
O O4 0.886545 0.167387 0.000000
O O5 0.826072 0.854380 0.133477
O O6 0.523837 0.308714 0.357510
O O7 0.500000 0.000000 0.500000
O O8 0.500000 0.500000 0.000000
O O9 0.620156 0.509662 0.147814
#
# Coordination Sequence:
#
# PCOD9445463 Si02
#       5
#     4   4   4   4   8
#     4  11  28  44  76 110 150 207 241 312 397 439
#     4  11  25  48  72 107 156 187 257 322 369 445
#     4  11  25  45  79 105 143 202 258 310 370 453
#     4  11  24  44  73 101 153 183 249 303 370 451
#     4  10  25  46  70 108 145 196 247 308 369 456
#
# _framework density 22.77769
#
# number of rings (size 3 to 8) (size 9 to 14) (size 15 to 20)
#    0.000    1.333    0.000    4.000   14.000    1.333 
#    6.000    0.000    0.000    0.000    0.000    0.000 
#    0.000    0.000    0.000    0.000    0.000    0.000 
#
# Total GULP energy -133798.025259 kJ/mol
# GULP energy per Si atom -5574.917719 kJ/mol
# Density = 2.272585 g / cm^3
# Si number density = 22.777690 Si / 1000 Ang^3
#
#
#
# Elastic Constant Matrix: (Units=GPa)
#
#
# Indices 1 2 3 4 5 6 
#
# 1 100.5971 24.0192 41.4614 0.0000 0.0000 0.0000
# 2 24.0192 219.3018 85.3950 0.0000 0.0000 0.0000
# 3 41.4614 85.3950 230.8006 0.0000 0.0000 0.0000
# 4 0.0000 0.0000 0.0000 5.7072 0.0000 0.0000
# 5 0.0000 0.0000 0.0000 0.0000 -3.7166 0.0000
# 6 0.0000 0.0000 0.0000 0.0000 0.0000 23.7513
#
#
#
# Elastic Compliance Matrix: (Units=1/GPa)
#
#
# Indices 1 2 3 4 5 6 
#
# 1 0.010782 -0.000499 -0.001752 0.000000 0.000000 0.000000
# 2 -0.000499 0.005351 -0.001890 0.000000 0.000000 0.000000
# 3 -0.001752 -0.001890 0.005347 0.000000 0.000000 0.000000
# 4 0.000000 0.000000 0.000000 0.175219 0.000000 0.000000
# 5 0.000000 0.000000 0.000000 0.000000 -0.269062 0.000000
# 6 0.000000 0.000000 0.000000 0.000000 0.000000 0.042103
#
#
# Mechanical properties :
#
#
# Convention : Reuss Voigt Hill
#
# Bulk Modulus (GPa) = 75.77348 94.71676 85.24512
# Shear Modulus (GPa) = -284.41729 31.80329 -126.30700
#
# Velocity S-wave (km/s) = -11.18650 3.74069 -7.45469
# Velocity P-wave (km/s) = 11.55472 7.76727 6.04901
#
# Compressibility (1/GPa) = 0.01319723
#
# Stress axis : x y z
#
# Youngs Moduli (GPa) = 92.74767 186.89752 187.02464
#
# Poissons Ratio (x) = 0.09317 0.32775
# Poissons Ratio (y) = 0.04624 0.35350
# Poissons Ratio (z) = 0.16253 0.35326
#
# Static dielectric constant tensor:
#      x y z
#    x 2.150120 0.000000 0.000000 
#    y 0.000000 1.916260 0.000000 
#    z 0.000000 0.000000 1.719850 
# 
# From -- ./inp_files/9551.got.cif
#   From: 2010.05.17/outbox.cif.g08.bks.cpg/sg58_5_cif.got.tgz:9551.got - 2010.06.03 14:20:14.
