data_PCOD9445142
_publ_section_title
;
Structure prediction by ZEFSAII (Michael W. Deem and Ramdas Pophale) SiO2 
 PCOD9445142
Probable space group: P N N M
;
_chemical_formula_sum "Si O2"
_cell_formula_units_Z 56
_cell_length_a 9.576841
_cell_length_b 14.003773
_cell_length_c 18.848863
_cell_angle_alpha 90.000000
_cell_angle_beta 90.000000
_cell_angle_gamma 90.000000
_cell_volume 2527.856970
_symmetry_space_group_name_H-M "P N N M"
_symmetry_group_IT_number 58
_symmetry_cell_setting 'orthorhombic'
loop_
_space_group_symop_operation_xyz
x,y,z
-x,-y,z
1/2+x,1/2-y,1/2-z
1/2-x,1/2+y,1/2-z
-x,-y,-z
x,y,-z
1/2-x,1/2+y,1/2+z
1/2+x,1/2-y,1/2+z
loop_
_atom_site_type_symbol
_atom_site_label
_atom_site_fract_x
_atom_site_fract_y
_atom_site_fract_z
Si Si1 0.467236 0.764374 0.851366
Si Si2 0.868216 0.431912 0.422426
Si Si3 0.352622 0.523361 0.309193
Si Si4 0.837283 0.247396 0.917612
Si Si5 0.329973 0.393337 0.829636
Si Si6 0.649363 0.974993 0.580158
Si Si7 0.587177 0.260074 0.694496
O O1 0.571970 0.832455 0.893612
O O2 0.311088 0.778713 0.881455
O O3 0.528140 0.656880 0.855118
O O4 0.473852 0.784572 0.766954
O O5 0.802416 0.419113 0.500000
O O6 0.767538 0.480742 0.366335
O O7 0.000000 0.500000 0.428465
O O8 0.500000 0.500000 0.344750
O O9 0.341147 0.446809 0.245964
O O10 0.355982 0.634478 0.285483
O O11 0.835681 0.362290 0.920935
O O12 0.969493 0.226094 0.866259
O O13 0.847946 0.212512 0.000000
O O14 0.274515 0.473845 0.881357
O O15 0.212429 0.310046 0.827588
O O16 0.643786 0.013132 0.500000
O O17 0.500000 0.000000 0.615321
#
# Coordination Sequence:
#
# PCOD9445142 Si02
#       7
#     8   8   8   8   8   8   8
#     4  12  25  46  72 106 144 187 245 310 370 443
#     4  11  27  49  73 105 144 195 249 302 373 447
#     4  12  27  47  72 108 148 188 245 312 364 443
#     4  11  26  46  71 107 150 193 242 307 379 452
#     4  12  25  44  72 102 145 186 243 305 363 438
#     4  10  22  41  66 100 140 184 234 288 361 441
#     4  12  25  45  74 105 140 194 248 294 373 442
#
# _framework density 22.153153
#
# number of rings (size 3 to 8) (size 9 to 14) (size 15 to 20)
#    0.000    0.571    4.286    3.000    4.000    2.571 
#    0.000    1.429    0.000    0.000    0.000    0.000 
#    0.000    0.000    0.000    0.000    0.000    0.000 
#
# Total GULP energy -313134.993541 kJ/mol
# GULP energy per Si atom -5591.696313 kJ/mol
# Density = 2.210273 g / cm^3
# Si number density = 22.153153 Si / 1000 Ang^3
#
#
#
# Elastic Constant Matrix: (Units=GPa)
#
#
# Indices 1 2 3 4 5 6 
#
# 1 107.8149 23.6164 51.2411 0.0000 0.0000 0.0000
# 2 23.6164 89.6090 26.8868 0.0000 0.0000 0.0000
# 3 51.2411 26.8868 124.5786 0.0000 0.0000 0.0000
# 4 0.0000 0.0000 0.0000 49.9277 0.0000 0.0000
# 5 0.0000 0.0000 0.0000 0.0000 61.2474 0.0000
# 6 0.0000 0.0000 0.0000 0.0000 0.0000 36.8262
#
#
#
# Elastic Compliance Matrix: (Units=1/GPa)
#
#
# Indices 1 2 3 4 5 6 
#
# 1 0.011785 -0.001766 -0.004466 0.000000 0.000000 0.000000
# 2 -0.001766 0.012197 -0.001906 0.000000 0.000000 0.000000
# 3 -0.004466 -0.001906 0.010275 0.000000 0.000000 0.000000
# 4 0.000000 0.000000 0.000000 0.020029 0.000000 0.000000
# 5 0.000000 0.000000 0.000000 0.000000 0.016327 0.000000
# 6 0.000000 0.000000 0.000000 0.000000 0.000000 0.027155
#
#
# Mechanical properties :
#
#
# Convention : Reuss Voigt Hill
#
# Bulk Modulus (GPa) = 55.61434 58.38792 57.00113
# Shear Modulus (GPa) = 41.65380 44.28412 42.96896
#
# Velocity S-wave (km/s) = 4.34091 4.47587 4.40890
# Velocity P-wave (km/s) = 7.09109 7.28868 7.19057
#
# Compressibility (1/GPa) = 0.01798097
#
# Stress axis : x y z
#
# Youngs Moduli (GPa) = 84.85702 81.98820 97.31982
#
# Poissons Ratio (x) = 0.14477 0.43464
# Poissons Ratio (y) = 0.14984 0.18550
# Poissons Ratio (z) = 0.37898 0.15627
#
# Static dielectric constant tensor:
#      x y z
#    x 1.849220 0.000000 0.000000 
#    y 0.000000 1.827870 0.000000 
#    z 0.000000 0.000000 1.847780 
# 
# From -- ./inp_files/28943.got.cif
#   From: 2010.05.17/outbox.cif.g08.bks.cpg/sg58_15_cif.got.tgz:28943.got - 2010.06.03 14:20:14.
