data_PCOD9445073
_publ_section_title
;
Structure prediction by ZEFSAII (Michael W. Deem and Ramdas Pophale) SiO2 
 PCOD9445073
Probable space group: P N N M
;
_chemical_formula_sum "Si O2"
_cell_formula_units_Z 48
_cell_length_a 26.180102
_cell_length_b 6.437590
_cell_length_c 14.918221
_cell_angle_alpha 90.000000
_cell_angle_beta 90.000000
_cell_angle_gamma 90.000000
_cell_volume 2514.268675
_symmetry_space_group_name_H-M "P N N M"
_symmetry_group_IT_number 58
_symmetry_cell_setting 'orthorhombic'
loop_
_space_group_symop_operation_xyz
x,y,z
-x,-y,z
1/2+x,1/2-y,1/2-z
1/2-x,1/2+y,1/2-z
-x,-y,-z
x,y,-z
1/2-x,1/2+y,1/2+z
1/2+x,1/2-y,1/2+z
loop_
_atom_site_type_symbol
_atom_site_label
_atom_site_fract_x
_atom_site_fract_y
_atom_site_fract_z
Si Si1 0.651626 0.575566 0.602902
Si Si2 0.860746 0.191029 0.401574
Si Si3 0.440713 0.946745 0.894760
Si Si4 0.875598 0.824838 0.732543
Si Si5 0.194971 0.534053 0.190925
Si Si6 0.246862 0.675299 0.363623
O O1 0.634870 0.573172 0.500000
O O2 0.618184 0.433636 0.670168
O O3 0.657413 0.804841 0.643871
O O4 0.709907 0.485759 0.607662
O O5 0.870129 0.100683 0.500000
O O6 0.906900 0.346107 0.379069
O O7 0.809044 0.326111 0.404871
O O8 0.853913 0.009930 0.329381
O O9 0.500000 0.000000 0.883705
O O10 0.421750 0.773630 0.824439
O O11 0.432378 0.887212 0.000000
O O12 0.836959 0.636033 0.752767
O O13 0.233715 0.647154 0.258399
O O14 0.227958 0.400190 0.121640
#
# Coordination Sequence:
#
# PCOD9445073 Si02
#       6
#     8   8   8   8   8   8
#     4  11  24  37  55  84 119 160 204 251 297 351
#     4  11  22  36  57  88 120 157 198 241 296 359
#     4  10  22  40  63  94 127 157 196 248 308 372
#     4  11  21  39  60  81 116 159 199 248 299 359
#     4  11  20  35  56  76 116 157 201 246 291 345
#     4  11  19  35  53  81 114 157 200 242 288 348
#
# _framework density 19.091038999999999
#
# number of rings (size 3 to 8) (size 9 to 14) (size 15 to 20)
#    0.000    1.167    5.000    2.000    0.000    4.000 
#    0.000    2.500    0.000    0.500    0.000    4.667 
#    0.000    0.000    0.000    0.000    0.000    0.000 
#
# Total GULP energy -267708.972669 kJ/mol
# GULP energy per Si atom -5577.270264 kJ/mol
# Density = 1.904759 g / cm^3
# Si number density = 19.091039 Si / 1000 Ang^3
#
#
#
# Elastic Constant Matrix: (Units=GPa)
#
#
# Indices 1 2 3 4 5 6 
#
# 1 88.3821 30.9620 22.0577 0.0000 0.0000 0.0000
# 2 30.9620 84.7267 48.9079 0.0000 0.0000 0.0000
# 3 22.0577 48.9079 126.2847 0.0000 0.0000 0.0000
# 4 0.0000 0.0000 0.0000 18.8568 0.0000 0.0000
# 5 0.0000 0.0000 0.0000 0.0000 15.0021 0.0000
# 6 0.0000 0.0000 0.0000 0.0000 0.0000 23.1153
#
#
#
# Elastic Compliance Matrix: (Units=1/GPa)
#
#
# Indices 1 2 3 4 5 6 
#
# 1 0.013006 -0.004432 -0.000555 0.000000 0.000000 0.000000
# 2 -0.004432 0.016711 -0.005698 0.000000 0.000000 0.000000
# 3 -0.000555 -0.005698 0.010222 0.000000 0.000000 0.000000
# 4 0.000000 0.000000 0.000000 0.053031 0.000000 0.000000
# 5 0.000000 0.000000 0.000000 0.000000 0.066657 0.000000
# 6 0.000000 0.000000 0.000000 0.000000 0.000000 0.043261
#
#
# Mechanical properties :
#
#
# Convention : Reuss Voigt Hill
#
# Bulk Modulus (GPa) = 53.85360 55.91653 54.88506
# Shear Modulus (GPa) = 21.69673 24.55924 23.12799
#
# Velocity S-wave (km/s) = 3.37484 3.59057 3.48438
# Velocity P-wave (km/s) = 6.59213 6.82221 6.70816
#
# Compressibility (1/GPa) = 0.01856886
#
# Stress axis : x y z
#
# Youngs Moduli (GPa) = 76.88891 59.83928 97.82571
#
# Poissons Ratio (x) = 0.26523 0.05430
# Poissons Ratio (y) = 0.34080 0.55740
# Poissons Ratio (z) = 0.04268 0.34096
#
# Static dielectric constant tensor:
#      x y z
#    x 1.640500 0.000000 0.000000 
#    y 0.000000 1.698080 0.000000 
#    z 0.000000 0.000000 1.724970 
# 
# From -- ./inp_files/18612.got.cif
#   From: 2010.05.17/outbox.cif.g08.bks.cpg/sg58_10_cif.got.tgz:18612.got - 2010.06.03 14:20:14.
