data_PCOD9445790
_publ_section_title
;
Structure prediction by ZEFSAII (Michael W. Deem and Ramdas Pophale) SiO2 
 PCOD9445790
Probable space group: P N N M
;
_chemical_formula_sum "Si O2"
_cell_formula_units_Z 56
_cell_length_a 23.399749
_cell_length_b 14.437304
_cell_length_c 7.783609
_cell_angle_alpha 90.000000
_cell_angle_beta 90.000000
_cell_angle_gamma 90.000000
_cell_volume 2629.531101
_symmetry_space_group_name_H-M "P N N M"
_symmetry_group_IT_number 58
_symmetry_cell_setting 'orthorhombic'
loop_
_space_group_symop_operation_xyz
x,y,z
-x,-y,z
1/2+x,1/2-y,1/2-z
1/2-x,1/2+y,1/2-z
-x,-y,-z
x,y,-z
1/2-x,1/2+y,1/2+z
1/2+x,1/2-y,1/2+z
loop_
_atom_site_type_symbol
_atom_site_label
_atom_site_fract_x
_atom_site_fract_y
_atom_site_fract_z
Si Si1 0.133243 0.186575 0.203505
Si Si2 0.986620 0.898545 0.298125
Si Si3 0.871732 0.417579 0.195611
Si Si4 0.098358 0.785651 0.207903
Si Si5 0.777333 0.170807 0.795201
Si Si6 0.248575 0.125710 0.196163
Si Si7 0.659821 0.107130 0.291996
O O1 0.070776 0.146260 0.226496
O O2 0.184319 0.119533 0.268889
O O3 0.138906 0.291980 0.271379
O O4 0.144670 0.191909 0.000000
O O5 0.976353 0.909229 0.500000
O O6 0.041490 0.834108 0.270790
O O7 0.000000 0.000000 0.223423
O O8 0.894712 0.321004 0.271582
O O9 0.802860 0.406528 0.196607
O O10 0.877334 0.520069 0.273917
O O11 0.893240 0.420854 0.000000
O O12 0.156363 0.842182 0.253081
O O13 0.096447 0.782170 0.000000
O O14 0.757807 0.263028 0.696812
O O15 0.727016 0.099045 0.756351
O O16 0.776353 0.188583 0.000000
O O17 0.252663 0.090188 0.000000
O O18 0.655973 0.105457 0.500000
#
# Coordination Sequence:
#
# PCOD9445790 Si02
#       7
#     8   8   8   8   8   8   8
#     4   9  19  36  56  77 104 140 178 215 257 308
#     4  11  25  41  56  75  98 130 175 225 274 317
#     4   9  18  33  54  82 114 144 173 208 256 315
#     4   9  19  36  56  77 104 140 178 215 257 308
#     4   9  17  30  50  77 107 139 175 212 254 304
#     4   9  17  30  50  77 107 139 175 212 254 304
#     4   9  18  33  54  82 114 144 173 208 256 315
#
# _framework density 21.296574
#
# number of rings (size 3 to 8) (size 9 to 14) (size 15 to 20)
#    0.000    2.714    0.000    3.000    0.000    8.571 
#    0.000    6.429    0.000    4.286    0.000    0.000 
#    0.000    0.000    0.000    0.000    0.000    0.000 
#
# Total GULP energy -311990.151955 kJ/mol
# GULP energy per Si atom -5571.252713 kJ/mol
# Density = 2.124810 g / cm^3
# Si number density = 21.296574 Si / 1000 Ang^3
#
#
#
# Elastic Constant Matrix: (Units=GPa)
#
#
# Indices 1 2 3 4 5 6 
#
# 1 102.1621 15.9578 -7.2954 0.0000 0.0000 0.0000
# 2 15.9578 61.3714 -2.5542 0.0000 0.0000 0.0000
# 3 -7.2954 -2.5542 38.9993 0.0000 0.0000 0.0000
# 4 0.0000 0.0000 0.0000 17.2620 0.0000 0.0000
# 5 0.0000 0.0000 0.0000 0.0000 58.5952 0.0000
# 6 0.0000 0.0000 0.0000 0.0000 0.0000 21.7098
#
#
#
# Elastic Compliance Matrix: (Units=1/GPa)
#
#
# Indices 1 2 3 4 5 6 
#
# 1 0.010322 -0.002611 0.001760 0.000000 0.000000 0.000000
# 2 -0.002611 0.016999 0.000625 0.000000 0.000000 0.000000
# 3 0.001760 0.000625 0.026012 0.000000 0.000000 0.000000
# 4 0.000000 0.000000 0.000000 0.057931 0.000000 0.000000
# 5 0.000000 0.000000 0.000000 0.000000 0.017066 0.000000
# 6 0.000000 0.000000 0.000000 0.000000 0.000000 0.046062
#
#
# Mechanical properties :
#
#
# Convention : Reuss Voigt Hill
#
# Bulk Modulus (GPa) = 18.91040 23.86100 21.38570
# Shear Modulus (GPa) = 25.97804 32.60838 29.29321
#
# Velocity S-wave (km/s) = 3.49638 3.91724 3.71278
# Velocity P-wave (km/s) = 5.01980 5.62923 5.33323
#
# Compressibility (1/GPa) = 0.05288094
#
# Stress axis : x y z
#
# Youngs Moduli (GPa) = 96.88207 58.82673 38.44432
#
# Poissons Ratio (x) = 0.15358 -0.06766
# Poissons Ratio (y) = 0.25292 -0.02403
# Poissons Ratio (z) = -0.17050 -0.03676
#
# Static dielectric constant tensor:
#      x y z
#    x 1.762810 0.000000 0.000000 
#    y 0.000000 1.840350 0.000000 
#    z 0.000000 0.000000 1.781150 
# 
# From -- ./inp_files/9070.got.cif
#   From: 2010.05.17/outbox.cif.g08.bks.cpg/sg58_5_cif.got.tgz:9070.got - 2010.06.03 14:20:14.
