data_PCOD9445892
_publ_section_title
;
Structure prediction by ZEFSAII (Michael W. Deem and Ramdas Pophale) SiO2 
 PCOD9445892
Probable space group: P N N M
;
_chemical_formula_sum "Si O2"
_cell_formula_units_Z 56
_cell_length_a 21.051526
_cell_length_b 6.913937
_cell_length_c 15.258965
_cell_angle_alpha 90.000000
_cell_angle_beta 90.000000
_cell_angle_gamma 90.000000
_cell_volume 2220.925945
_symmetry_space_group_name_H-M "P N N M"
_symmetry_group_IT_number 58
_symmetry_cell_setting 'orthorhombic'
loop_
_space_group_symop_operation_xyz
x,y,z
-x,-y,z
1/2+x,1/2-y,1/2-z
1/2-x,1/2+y,1/2-z
-x,-y,-z
x,y,-z
1/2-x,1/2+y,1/2+z
1/2+x,1/2-y,1/2+z
loop_
_atom_site_type_symbol
_atom_site_label
_atom_site_fract_x
_atom_site_fract_y
_atom_site_fract_z
Si Si1 0.351874 0.568012 0.095351
Si Si2 0.710663 0.898555 0.598347
Si Si3 0.596911 0.827468 0.712973
Si Si4 0.246145 0.056185 0.097823
Si Si5 0.518792 0.271770 0.598838
Si Si6 0.895611 0.356684 0.595998
Si Si7 0.366545 0.632079 0.282111
O O1 0.278679 0.498842 0.107233
O O2 0.394752 0.377823 0.091824
O O3 0.367527 0.690215 0.180608
O O4 0.354931 0.665081 0.000000
O O5 0.684879 0.933871 0.500000
O O6 0.659754 0.927887 0.674061
O O7 0.730649 0.672259 0.601351
O O8 0.541175 0.832170 0.642234
O O9 0.575528 0.898426 0.808733
O O10 0.616412 0.598772 0.719635
O O11 0.321145 0.086674 0.104148
O O12 0.201975 0.148462 0.172241
O O13 0.225681 0.121913 0.000000
O O14 0.500000 0.500000 0.595252
O O15 0.532175 0.209777 0.500000
O O16 0.579790 0.266855 0.660748
O O17 0.919425 0.424611 0.500000
#
# Coordination Sequence:
#
# PCOD9445892 Si02
#       7
#     8   8   8   8   8   8   8
#     4   9  17  28  41  60  87 114 137 164 202 248
#     4   9  16  26  42  64  86 107 135 172 209 243
#     4   9  16  26  40  59  84 111 138 170 207 244
#     4   9  16  26  42  64  86 107 135 172 209 243
#     4   9  16  26  41  61  84 109 137 171 210 246
#     4   9  17  28  41  60  87 114 137 164 202 248
#     4   9  16  26  40  59  84 111 138 170 207 244
#
# _framework density 25.21471
#
# number of rings (size 3 to 8) (size 9 to 14) (size 15 to 20)
#    0.000    3.000    0.000    1.714    0.000    3.429 
#    0.000    0.714    0.000    4.286    0.000    4.000 
#    0.000   13.714    0.000    0.000    0.000    0.000 
#
# Total GULP energy -313291.641275 kJ/mol
# GULP energy per Si atom -5594.493594 kJ/mol
# Density = 2.515732 g / cm^3
# Si number density = 25.214710 Si / 1000 Ang^3
#
#
#
# Elastic Constant Matrix: (Units=GPa)
#
#
# Indices 1 2 3 4 5 6 
#
# 1 40.8998 1.7880 51.9418 0.0000 0.0000 0.0000
# 2 1.7880 86.8819 3.2637 0.0000 0.0000 0.0000
# 3 51.9418 3.2637 242.2438 0.0000 0.0000 0.0000
# 4 0.0000 0.0000 0.0000 3.1743 0.0000 0.0000
# 5 0.0000 0.0000 0.0000 0.0000 29.8398 0.0000
# 6 0.0000 0.0000 0.0000 0.0000 0.0000 31.0267
#
#
#
# Elastic Compliance Matrix: (Units=1/GPa)
#
#
# Indices 1 2 3 4 5 6 
#
# 1 0.033615 -0.000421 -0.007202 0.000000 0.000000 0.000000
# 2 -0.000421 0.011521 -0.000065 0.000000 0.000000 0.000000
# 3 -0.007202 -0.000065 0.005673 0.000000 0.000000 0.000000
# 4 0.000000 0.000000 0.000000 0.315027 0.000000 0.000000
# 5 0.000000 0.000000 0.000000 0.000000 0.033512 0.000000
# 6 0.000000 0.000000 0.000000 0.000000 0.000000 0.032230
#
#
# Mechanical properties :
#
#
# Convention : Reuss Voigt Hill
#
# Bulk Modulus (GPa) = 28.22255 53.77916 41.00086
# Shear Modulus (GPa) = 10.89880 33.67697 22.28789
#
# Velocity S-wave (km/s) = 2.08129 3.65856 2.97631
# Velocity P-wave (km/s) = 4.12224 6.26271 5.30163
#
# Compressibility (1/GPa) = 0.03543265
#
# Stress axis : x y z
#
# Youngs Moduli (GPa) = 29.74889 86.79816 176.26774
#
# Poissons Ratio (x) = 0.03656 1.26947
# Poissons Ratio (y) = 0.01253 0.01144
# Poissons Ratio (z) = 0.21425 0.00563
#
# Static dielectric constant tensor:
#      x y z
#    x 1.895420 0.000000 0.000000 
#    y 0.000000 2.063600 0.000000 
#    z 0.000000 0.000000 1.973210 
# 
# From -- ./inp_files/23236.got.cif
#   From: 2010.05.17/outbox.cif.g08.bks.cpg/sg58_12_cif.got.tgz:23236.got - 2010.06.03 14:20:14.
