data_PCOD9445990
_publ_section_title
;
Structure prediction by ZEFSAII (Michael W. Deem and Ramdas Pophale) SiO2 
 PCOD9445990
Probable space group: P N N M
;
_chemical_formula_sum "Si O2"
_cell_formula_units_Z 64
_cell_length_a 24.000000
_cell_length_b 15.000000
_cell_length_c 9.000000
_cell_angle_alpha 90.000000
_cell_angle_beta 90.000000
_cell_angle_gamma 90.000000
_cell_volume 3240.000000
_symmetry_space_group_name_H-M "P N N M"
_symmetry_group_IT_number 58
_symmetry_cell_setting 'orthorhombic'
loop_
_space_group_symop_operation_xyz
x,y,z
-x,-y,z
1/2+x,1/2-y,1/2-z
1/2-x,1/2+y,1/2-z
-x,-y,-z
x,y,-z
1/2-x,1/2+y,1/2+z
1/2+x,1/2-y,1/2+z
loop_
_atom_site_type_symbol
_atom_site_label
_atom_site_fract_x
_atom_site_fract_y
_atom_site_fract_z
Si Si1 0.064083 0.023914 0.179226
Si Si2 0.408670 0.727567 0.675591
Si Si3 0.112654 0.856215 0.671769
Si Si4 0.675666 0.992160 0.676824
Si Si5 0.194861 0.326138 0.324924
Si Si6 0.515637 0.778096 0.167824
Si Si7 0.938030 0.466909 0.673761
Si Si8 0.194102 0.713129 0.823726
O O1 0.081832 0.124251 0.223461
O O2 0.105665 0.949963 0.245387
O O3 0.065824 0.019525 0.000000
O O4 0.000000 0.000000 0.223118
O O5 0.398807 0.728553 0.500000
O O6 0.359156 0.778704 0.756553
O O7 0.466136 0.776606 0.716328
O O8 0.128310 0.869433 0.500000
O O9 0.051644 0.810839 0.676951
O O10 0.152741 0.782719 0.744763
O O11 0.682261 0.997081 0.500000
O O12 0.611049 0.002560 0.724824
O O13 0.692019 0.890945 0.726074
O O14 0.705620 0.077145 0.750769
O O15 0.187008 0.340525 0.500000
O O16 0.245550 0.257399 0.303436
O O17 0.557279 0.860467 0.189342
O O18 0.492476 0.787424 0.000000
O O19 0.926928 0.488571 0.500000
O O20 0.000000 0.500000 0.709726
O O21 0.180640 0.712151 0.000000
#
# Coordination Sequence:
#
# PCOD9445990 Si02
#       8
#     8   8   8   8   8   8   8   8
#     4  10  21  38  59  87 127 171 211 255 310 372
#     4  11  23  39  62  91 124 165 211 260 313 368
#     4  11  22  36  61  93 123 160 208 258 306 363
#     4  11  23  41  66  95 124 157 206 258 307 366
#     4  11  25  45  66  90 125 166 206 254 314 371
#     4  10  20  34  55  88 126 161 201 250 308 370
#     4  10  20  35  57  87 124 165 204 246 305 371
#     4  10  24  45  67  90 122 165 208 256 312 369
#
# _framework density 19.753086
#
# number of rings (size 3 to 8) (size 9 to 14) (size 15 to 20)
#    0.000    1.500    2.500    2.250    0.000    6.000 
#    0.000    2.500    0.000    0.000    0.000    0.000 
#    0.000    0.000    0.000    0.000    0.000    0.000 
#
# Total GULP energy -357421.884319 kJ/mol
# GULP energy per Si atom -5584.716942 kJ/mol
# Density = 1.970813 g / cm^3
# Si number density = 19.753086 Si / 1000 Ang^3
#
#
#
# Elastic Constant Matrix: (Units=GPa)
#
#
# Indices 1 2 3 4 5 6 
#
# 1 50.8264 30.6168 38.1112 0.0000 0.0000 0.0000
# 2 30.6168 124.7462 45.3161 0.0000 0.0000 0.0000
# 3 38.1112 45.3161 53.1948 0.0000 0.0000 0.0000
# 4 0.0000 0.0000 0.0000 29.3283 0.0000 0.0000
# 5 0.0000 0.0000 0.0000 0.0000 21.9220 0.0000
# 6 0.0000 0.0000 0.0000 0.0000 0.0000 21.3140
#
#
#
# Elastic Compliance Matrix: (Units=1/GPa)
#
#
# Indices 1 2 3 4 5 6 
#
# 1 0.042586 0.000914 -0.031289 0.000000 0.000000 0.000000
# 2 0.000914 0.011628 -0.010561 0.000000 0.000000 0.000000
# 3 -0.031289 -0.010561 0.050213 0.000000 0.000000 0.000000
# 4 0.000000 0.000000 0.000000 0.034097 0.000000 0.000000
# 5 0.000000 0.000000 0.000000 0.000000 0.045616 0.000000
# 6 0.000000 0.000000 0.000000 0.000000 0.000000 0.046917
#
#
# Mechanical properties :
#
#
# Convention : Reuss Voigt Hill
#
# Bulk Modulus (GPa) = 44.33657 50.76171 47.54914
# Shear Modulus (GPa) = 15.60315 22.16108 18.88211
#
# Velocity S-wave (km/s) = 2.81358 3.35312 3.09513
# Velocity P-wave (km/s) = 5.74883 6.38319 6.07430
#
# Compressibility (1/GPa) = 0.02255475
#
# Stress axis : x y z
#
# Youngs Moduli (GPa) = 23.48207 85.99641 19.91517
#
# Poissons Ratio (x) = -0.07864 0.62313
# Poissons Ratio (y) = -0.02147 0.21033
# Poissons Ratio (z) = 0.73474 0.90823
#
# Static dielectric constant tensor:
#      x y z
#    x 1.697710 0.000000 0.000000 
#    y 0.000000 1.716440 0.000000 
#    z 0.000000 0.000000 1.675290 
# 
# From -- ./inp_files/9959.got.cif
#   From: 2010.05.17/outbox.ucp.g08.bks.cvg/sg58_5_cif.got.tgz:9959.got - 2010.06.11 16:41:41.
