data_PCOD9445621
_publ_section_title
;
Structure prediction by ZEFSAII (Michael W. Deem and Ramdas Pophale) SiO2 
 PCOD9445621
Probable space group: P N N M
;
_chemical_formula_sum "Si O2"
_cell_formula_units_Z 48
_cell_length_a 14.040200
_cell_length_b 8.246221
_cell_length_c 20.668814
_cell_angle_alpha 90.000000
_cell_angle_beta 90.000000
_cell_angle_gamma 90.000000
_cell_volume 2393.006185
_symmetry_space_group_name_H-M "P N N M"
_symmetry_group_IT_number 58
_symmetry_cell_setting 'orthorhombic'
loop_
_space_group_symop_operation_xyz
x,y,z
-x,-y,z
1/2+x,1/2-y,1/2-z
1/2-x,1/2+y,1/2-z
-x,-y,-z
x,y,-z
1/2-x,1/2+y,1/2+z
1/2+x,1/2-y,1/2+z
loop_
_atom_site_type_symbol
_atom_site_label
_atom_site_fract_x
_atom_site_fract_y
_atom_site_fract_z
Si Si1 0.957924 0.321064 0.774350
Si Si2 0.652181 0.311674 0.924791
Si Si3 0.040142 0.680021 0.379881
Si Si4 0.652396 0.303926 0.308117
Si Si5 0.766886 0.165389 0.188443
Si Si6 0.732088 0.674090 0.074003
O O1 0.945837 0.299917 0.697130
O O2 0.039258 0.201211 0.800214
O O3 0.000000 0.500000 0.785986
O O4 0.856880 0.285603 0.806498
O O5 0.541757 0.300424 0.904832
O O6 0.709714 0.193530 0.877378
O O7 0.694000 0.491473 0.914986
O O8 0.661696 0.268714 0.000000
O O9 0.000000 0.500000 0.391923
O O10 0.139817 0.713470 0.414039
O O11 0.696229 0.205947 0.247425
O O12 0.693827 0.484559 0.305261
O O13 0.688978 0.221828 0.373836
O O14 0.764730 0.688305 0.000000
#
# Coordination Sequence:
#
# PCOD9445621 Si02
#       6
#     8   8   8   8   8   8
#     4  11  23  40  63  94 125 159 203 255 306 359
#     4  11  24  41  62  90 126 166 205 251 308 367
#     4  11  22  36  61  93 126 163 202 253 308 363
#     4  12  24  40  64  92 123 162 205 254 304 361
#     4  12  24  40  64  92 123 162 205 254 304 361
#     4  11  24  41  62  90 126 166 205 251 308 367
#
# _framework density 20.058451999999999
#
# number of rings (size 3 to 8) (size 9 to 14) (size 15 to 20)
#    0.000    0.667    3.333    5.500    0.000    6.000 
#    0.000    0.833    0.000    5.000    0.000    0.000 
#    0.000    0.000    0.000    0.000    0.000    0.000 
#
# Total GULP energy -268800.726493 kJ/mol
# GULP energy per Si atom -5600.015135 kJ/mol
# Density = 2.001280 g / cm^3
# Si number density = 20.058452 Si / 1000 Ang^3
#
#
#
# Elastic Constant Matrix: (Units=GPa)
#
#
# Indices 1 2 3 4 5 6 
#
# 1 66.5303 -10.2405 5.6350 0.0000 0.0000 0.0000
# 2 -10.2405 54.9354 26.6299 0.0000 0.0000 0.0000
# 3 5.6350 26.6299 62.9553 0.0000 0.0000 0.0000
# 4 0.0000 0.0000 0.0000-2043.2399 0.0000 0.0000
# 5 0.0000 0.0000 0.0000 0.0000 -1.4176 0.0000
# 6 0.0000 0.0000 0.0000 0.0000 0.0000 32.3910
#
#
#
# Elastic Compliance Matrix: (Units=1/GPa)
#
#
# Indices 1 2 3 4 5 6 
#
# 1 0.016032 0.004634 -0.003395 0.000000 0.000000 0.000000
# 2 0.004634 0.024238 -0.010667 0.000000 0.000000 0.000000
# 3 -0.003395 -0.010667 0.020700 0.000000 0.000000 0.000000
# 4 0.000000 0.000000 0.000000 -0.000489 0.000000 0.000000
# 5 0.000000 0.000000 0.000000 0.000000 -0.705426 0.000000
# 6 0.000000 0.000000 0.000000 0.000000 0.000000 0.030873
#
#
# Mechanical properties :
#
#
# Convention : Reuss Voigt Hill
#
# Bulk Modulus (GPa) = 23.74538 25.38552 24.56545
# Shear Modulus (GPa) = -8.60322 -391.62685 -200.11504
#
# Velocity S-wave (km/s) = -2.07326 -13.98809 -9.99913
# Velocity P-wave (km/s) = 2.47641 15.75454 11.00166
#
# Compressibility (1/GPa) = 0.04211346
#
# Stress axis : x y z
#
# Youngs Moduli (GPa) = 62.37663 41.25737 48.30813
#
# Poissons Ratio (x) = -0.19120 0.16402
# Poissons Ratio (y) = -0.28907 0.51532
# Poissons Ratio (z) = 0.21178 0.44011
#
# Static dielectric constant tensor:
#      x y z
#    x 1.692200 0.000000 0.000000 
#    y 0.000000 1.745830 0.000000 
#    z 0.000000 0.000000 1.671100 
# 
# From -- ./inp_files/5896.got.cif
#   From: 2010.05.17/outbox.cif.g08.bks.cpg/sg58_3_cif.got.tgz:5896.got - 2010.06.03 14:20:14.
