data_PCOD9445837
_publ_section_title
;
Structure prediction by ZEFSAII (Michael W. Deem and Ramdas Pophale) SiO2 
 PCOD9445837
Probable space group: P N N M
;
_chemical_formula_sum "Si O2"
_cell_formula_units_Z 34
_cell_length_a 4.917399
_cell_length_b 17.887627
_cell_length_c 19.900684
_cell_angle_alpha 90.000000
_cell_angle_beta 90.000000
_cell_angle_gamma 90.000000
_cell_volume 1750.476088
_symmetry_space_group_name_H-M "P N N M"
_symmetry_group_IT_number 58
_symmetry_cell_setting 'orthorhombic'
loop_
_space_group_symop_operation_xyz
x,y,z
-x,-y,z
1/2+x,1/2-y,1/2-z
1/2-x,1/2+y,1/2-z
-x,-y,-z
x,y,-z
1/2-x,1/2+y,1/2+z
1/2+x,1/2-y,1/2+z
loop_
_atom_site_type_symbol
_atom_site_label
_atom_site_fract_x
_atom_site_fract_y
_atom_site_fract_z
Si Si1 0.161793 0.299233 0.424394
Si Si2 0.000000 0.500000 0.500000
Si Si3 0.664180 0.782129 0.290052
Si Si4 0.735661 0.448724 0.751193
Si Si5 0.654245 0.399451 0.600283
O O1 0.166572 0.267584 0.500000
O O2 0.268202 0.248328 0.364055
O O3 0.361954 0.371274 0.424466
O O4 0.861671 0.329516 0.408064
O O5 0.798130 0.463260 0.557666
O O6 0.372515 0.756857 0.262280
O O7 0.697890 0.871249 0.287896
O O8 0.500000 0.500000 0.782402
O O9 0.636617 0.423047 0.677427
O O10 0.000000 0.500000 0.744051
#
# Coordination Sequence:
#
# PCOD9445837 Si02
#       5
#     8   2   8   8   8
#     4  12  23  41  60  89 121 162 213 253 306 359
#     4  12  24  34  52  90 132 166 186 226 312 382
#     4  12  23  41  66  90 120 166 218 262 303 374
#     4  12  24  39  60  89 125 162 205 258 314 362
#     4  12  24  36  58  86 127 169 199 240 295 388
#
# _framework density 19.423289
#
# number of rings (size 3 to 8) (size 9 to 14) (size 15 to 20)
#    0.000    0.000    8.235    2.824    0.000    0.941 
#    0.000    0.000    0.000    1.412    0.000    0.000 
#    0.000    0.000    0.000    0.000    0.000    0.000 
#
# Total GULP energy -189802.489963 kJ/mol
# GULP energy per Si atom -5582.426175 kJ/mol
# Density = 1.937908 g / cm^3
# Si number density = 19.423289 Si / 1000 Ang^3
#
#
#
# Elastic Constant Matrix: (Units=GPa)
#
#
# Indices 1 2 3 4 5 6 
#
# 1 63.6312 -7.3228 -16.9659 0.0000 0.0000 0.0000
# 2 -7.3228 94.8012 33.5081 0.0000 0.0000 0.0000
# 3 -16.9659 33.5081 99.2116 0.0000 0.0000 0.0000
# 4 0.0000 0.0000 0.0000 196.5498 0.0000 0.0000
# 5 0.0000 0.0000 0.0000 0.0000 5.5792 0.0000
# 6 0.0000 0.0000 0.0000 0.0000 0.0000 27.8783
#
#
#
# Elastic Compliance Matrix: (Units=1/GPa)
#
#
# Indices 1 2 3 4 5 6 
#
# 1 0.016475 0.000314 0.002711 0.000000 0.000000 0.000000
# 2 0.000314 0.011984 -0.003994 0.000000 0.000000 0.000000
# 3 0.002711 -0.003994 0.011892 0.000000 0.000000 0.000000
# 4 0.000000 0.000000 0.000000 0.005088 0.000000 0.000000
# 5 0.000000 0.000000 0.000000 0.000000 0.179236 0.000000
# 6 0.000000 0.000000 0.000000 0.000000 0.000000 0.035870
#
#
# Mechanical properties :
#
#
# Convention : Reuss Voigt Hill
#
# Bulk Modulus (GPa) = 26.03217 30.67586 28.35401
# Shear Modulus (GPa) = 18.16287 62.56311 40.36299
#
# Velocity S-wave (km/s) = 3.06127 5.68157 4.56353
# Velocity P-wave (km/s) = 5.09184 7.67255 6.51133
#
# Compressibility (1/GPa) = 0.03841401
#
# Stress axis : x y z
#
# Youngs Moduli (GPa) = 60.69948 83.44228 84.09011
#
# Poissons Ratio (x) = -0.02623 -0.22798
# Poissons Ratio (y) = -0.01908 0.33585
# Poissons Ratio (z) = -0.16456 0.33326
#
# Static dielectric constant tensor:
#      x y z
#    x 1.691170 0.000000 0.000000 
#    y 0.000000 1.718900 0.000000 
#    z 0.000000 0.000000 1.646620 
# 
# From -- ./inp_files/28001.got.cif
#   From: 2010.05.17/outbox.cif.g08.bks.cpg/sg58_15_cif.got.tgz:28001.got - 2010.06.03 14:20:14.
