data_PCOD9445931
_publ_section_title
;
Structure prediction by ZEFSAII (Michael W. Deem and Ramdas Pophale) SiO2 
 PCOD9445931
Probable space group: P N N M
;
_chemical_formula_sum "Si O2"
_cell_formula_units_Z 64
_cell_length_a 21.000000
_cell_length_b 21.000000
_cell_length_c 9.000000
_cell_angle_alpha 90.000000
_cell_angle_beta 90.000000
_cell_angle_gamma 90.000000
_cell_volume 3969.000000
_symmetry_space_group_name_H-M "P N N M"
_symmetry_group_IT_number 58
_symmetry_cell_setting 'orthorhombic'
loop_
_space_group_symop_operation_xyz
x,y,z
-x,-y,z
1/2+x,1/2-y,1/2-z
1/2-x,1/2+y,1/2-z
-x,-y,-z
x,y,-z
1/2-x,1/2+y,1/2+z
1/2+x,1/2-y,1/2+z
loop_
_atom_site_type_symbol
_atom_site_label
_atom_site_fract_x
_atom_site_fract_y
_atom_site_fract_z
Si Si1 0.869289 0.564435 0.821421
Si Si2 0.312057 0.711059 0.179366
Si Si3 0.076499 0.296112 0.821390
Si Si4 0.685496 0.707757 0.320186
Si Si5 0.224187 0.077018 0.176597
Si Si6 0.771101 0.067594 0.819654
Si Si7 0.070912 0.698683 0.179870
Si Si8 0.877266 0.430789 0.676972
O O1 0.906753 0.629821 0.786059
O O2 0.798363 0.572620 0.754732
O O3 0.895461 0.498630 0.750918
O O4 0.866883 0.557705 0.000000
O O5 0.373459 0.748762 0.242577
O O6 0.248881 0.752273 0.224023
O O7 0.304798 0.638554 0.240197
O O8 0.314421 0.709619 0.000000
O O9 0.002314 0.284273 0.783216
O O10 0.083729 0.288781 0.000000
O O11 0.684716 0.707580 0.500000
O O12 0.691464 0.632786 0.276724
O O13 0.622731 0.747535 0.273040
O O14 0.300832 0.077426 0.200441
O O15 0.203406 0.004039 0.218512
O O16 0.212526 0.084578 0.000000
O O17 0.763925 0.067858 0.000000
O O18 0.089311 0.630678 0.251215
O O19 0.074864 0.692515 0.000000
O O20 0.888465 0.433274 0.500000
#
# Coordination Sequence:
#
# PCOD9445931 Si02
#       8
#     8   8   8   8   8   8   8   8
#     4  10  19  31  48  72 102 138 174 207 248 304
#     4  11  20  32  55  79 102 133 172 216 255 301
#     4  10  22  36  51  74 106 141 174 212 260 309
#     4   9  17  31  54  79 100 129 170 216 258 299
#     4   9  18  31  50  75 105 131 160 207 259 308
#     4   9  17  32  52  77 103 129 164 212 263 302
#     4  10  20  36  54  74 104 140 176 214 258 311
#     4  10  20  33  50  74 104 139 174 213 254 300
#
# _framework density 16.124969
#
# number of rings (size 3 to 8) (size 9 to 14) (size 15 to 20)
#    0.000    2.250    2.500    1.875    0.000    3.500 
#    0.000    3.125    0.000    0.750    0.000    5.250 
#    0.000    0.000    0.000    0.000    0.000    0.000 
#
# Total GULP energy -356775.129808 kJ/mol
# GULP energy per Si atom -5574.611403 kJ/mol
# Density = 1.608827 g / cm^3
# Si number density = 16.124969 Si / 1000 Ang^3
#
#
#
# Elastic Constant Matrix: (Units=GPa)
#
#
# Indices 1 2 3 4 5 6 
#
# 1 105.7635 75.5761 33.4759 0.0000 0.0000 0.0000
# 2 75.5761 174.1834 44.1129 0.0000 0.0000 0.0000
# 3 33.4759 44.1129 44.4535 0.0000 0.0000 0.0000
# 4 0.0000 0.0000 0.0000 30.6933 0.0000 0.0000
# 5 0.0000 0.0000 0.0000 0.0000 21.4803 0.0000
# 6 0.0000 0.0000 0.0000 0.0000 0.0000 28.1803
#
#
#
# Elastic Compliance Matrix: (Units=1/GPa)
#
#
# Indices 1 2 3 4 5 6 
#
# 1 0.014971 -0.004863 -0.006449 0.000000 0.000000 0.000000
# 2 -0.004863 0.009248 -0.005515 0.000000 0.000000 0.000000
# 3 -0.006449 -0.005515 0.032824 0.000000 0.000000 0.000000
# 4 0.000000 0.000000 0.000000 0.032580 0.000000 0.000000
# 5 0.000000 0.000000 0.000000 0.000000 0.046554 0.000000
# 6 0.000000 0.000000 0.000000 0.000000 0.000000 0.035486
#
#
# Mechanical properties :
#
#
# Convention : Reuss Voigt Hill
#
# Bulk Modulus (GPa) = 42.75239 70.08112 56.41675
# Shear Modulus (GPa) = 23.46185 27.48648 25.47417
#
# Velocity S-wave (km/s) = 3.81859 4.13315 3.97898
# Velocity P-wave (km/s) = 6.78328 8.14450 7.49485
#
# Compressibility (1/GPa) = 0.02339051
#
# Stress axis : x y z
#
# Youngs Moduli (GPa) = 66.79687 108.13671 30.46533
#
# Poissons Ratio (x) = 0.52582 0.19646
# Poissons Ratio (y) = 0.32480 0.16802
# Poissons Ratio (z) = 0.43074 0.59637
#
# Static dielectric constant tensor:
#      x y z
#    x 1.531080 0.000000 0.000000 
#    y 0.000000 1.550730 0.000000 
#    z 0.000000 0.000000 1.538800 
# 
# From -- ./inp_files/8248.got.cif
#   From: 2010.05.17/outbox.ucp.g08.bks.cvg/sg58_5_cif.got.tgz:8248.got - 2010.06.11 16:41:41.
