data_PCOD9445713
_publ_section_title
;
Structure prediction by ZEFSAII (Michael W. Deem and Ramdas Pophale) SiO2 
 PCOD9445713
Probable space group: P N N M
;
_chemical_formula_sum "Si O2"
_cell_formula_units_Z 48
_cell_length_a 8.959661
_cell_length_b 10.326351
_cell_length_c 28.142298
_cell_angle_alpha 90.000000
_cell_angle_beta 90.000000
_cell_angle_gamma 90.000000
_cell_volume 2603.742418
_symmetry_space_group_name_H-M "P N N M"
_symmetry_group_IT_number 58
_symmetry_cell_setting 'orthorhombic'
loop_
_space_group_symop_operation_xyz
x,y,z
-x,-y,z
1/2+x,1/2-y,1/2-z
1/2-x,1/2+y,1/2-z
-x,-y,-z
x,y,-z
1/2-x,1/2+y,1/2+z
1/2+x,1/2-y,1/2+z
loop_
_atom_site_type_symbol
_atom_site_label
_atom_site_fract_x
_atom_site_fract_y
_atom_site_fract_z
Si Si1 0.236939 0.426430 0.555005
Si Si2 0.589131 0.634063 0.145307
Si Si3 0.908751 0.299086 0.555008
Si Si4 0.085497 0.364717 0.697591
Si Si5 0.905295 0.128157 0.851969
Si Si6 0.085840 0.366313 0.189565
O O1 0.284802 0.417393 0.500000
O O2 0.195414 0.576347 0.565679
O O3 0.353563 0.374644 0.593105
O O4 0.079641 0.350084 0.559505
O O5 0.500000 0.500000 0.145835
O O6 0.616594 0.685194 0.091961
O O7 0.495778 0.747348 0.171041
O O8 0.745548 0.620753 0.171980
O O9 0.885515 0.263308 0.500000
O O10 0.253386 0.374223 0.678465
O O11 0.083405 0.340765 0.753944
O O12 0.000000 0.500000 0.687720
O O13 0.002336 0.251517 0.837740
O O14 0.000000 0.000000 0.842106
O O15 0.000000 0.500000 0.181087
#
# Coordination Sequence:
#
# PCOD9445713 Si02
#       6
#     8   8   8   8   8   8
#     4   9  18  35  63  93 122 157 200 250 303 361
#     4  12  24  40  65  89 119 164 207 250 302 363
#     4   9  18  36  63  93 121 156 206 251 290 358
#     4  11  23  42  64  86 118 163 211 250 297 367
#     4  12  23  37  63  94 125 156 199 258 312 359
#     4  11  26  42  58  87 126 161 200 255 313 363
#
# _framework density 18.435003999999999
#
# number of rings (size 3 to 8) (size 9 to 14) (size 15 to 20)
#    0.000    1.333    1.667    6.000    0.000    6.000 
#    0.000    0.833    0.000    1.000    0.000    0.000 
#    0.000    0.000    0.000    0.000    0.000    0.000 
#
# Total GULP energy -268427.198603 kJ/mol
# GULP energy per Si atom -5592.233304 kJ/mol
# Density = 1.839305 g / cm^3
# Si number density = 18.435004 Si / 1000 Ang^3
#
#
#
# Elastic Constant Matrix: (Units=GPa)
#
#
# Indices 1 2 3 4 5 6 
#
# 1 68.5660 18.4376 42.8433 0.0000 0.0000 0.0000
# 2 18.4376 83.7306 77.6134 0.0000 0.0000 0.0000
# 3 42.8433 77.6134 110.7561 0.0000 0.0000 0.0000
# 4 0.0000 0.0000 0.0000 41.7994 0.0000 0.0000
# 5 0.0000 0.0000 0.0000 0.0000 37.5045 0.0000
# 6 0.0000 0.0000 0.0000 0.0000 0.0000 33.4030
#
#
#
# Elastic Compliance Matrix: (Units=1/GPa)
#
#
# Indices 1 2 3 4 5 6 
#
# 1 0.021089 0.008326 -0.013992 0.000000 0.000000 0.000000
# 2 0.008326 0.037368 -0.029407 0.000000 0.000000 0.000000
# 3 -0.013992 -0.029407 0.035049 0.000000 0.000000 0.000000
# 4 0.000000 0.000000 0.000000 0.023924 0.000000 0.000000
# 5 0.000000 0.000000 0.000000 0.000000 0.026663 0.000000
# 6 0.000000 0.000000 0.000000 0.000000 0.000000 0.029937
#
#
# Mechanical properties :
#
#
# Convention : Reuss Voigt Hill
#
# Bulk Modulus (GPa) = 42.80915 60.09349 51.45132
# Shear Modulus (GPa) = 19.84427 30.81861 25.33144
#
# Velocity S-wave (km/s) = 3.28448 4.09313 3.71090
# Velocity P-wave (km/s) = 6.13644 7.41664 6.80670
#
# Compressibility (1/GPa) = 0.02335949
#
# Stress axis : x y z
#
# Youngs Moduli (GPa) = 47.41891 26.76091 28.53185
#
# Poissons Ratio (x) = -0.22282 0.39923
# Poissons Ratio (y) = -0.39483 0.83903
# Poissons Ratio (z) = 0.66351 0.78695
#
# Static dielectric constant tensor:
#      x y z
#    x 1.615350 0.000000 0.000000 
#    y 0.000000 1.601580 0.000000 
#    z 0.000000 0.000000 1.641250 
# 
# From -- ./inp_files/34598.got.cif
#   From: 2010.05.17/outbox.cif.g08.bks.cpg/sg58_18_cif.got.tgz:34598.got - 2010.06.03 14:20:14.
