data_PCOD9445664
_publ_section_title
;
Structure prediction by ZEFSAII (Michael W. Deem and Ramdas Pophale) SiO2 
 PCOD9445664
Probable space group: P N N M
;
_chemical_formula_sum "Si O2"
_cell_formula_units_Z 40
_cell_length_a 5.094108
_cell_length_b 12.749402
_cell_length_c 26.836995
_cell_angle_alpha 90.000000
_cell_angle_beta 90.000000
_cell_angle_gamma 90.000000
_cell_volume 1742.977771
_symmetry_space_group_name_H-M "P N N M"
_symmetry_group_IT_number 58
_symmetry_cell_setting 'orthorhombic'
loop_
_space_group_symop_operation_xyz
x,y,z
-x,-y,z
1/2+x,1/2-y,1/2-z
1/2-x,1/2+y,1/2-z
-x,-y,-z
x,y,-z
1/2-x,1/2+y,1/2+z
1/2+x,1/2-y,1/2+z
loop_
_atom_site_type_symbol
_atom_site_label
_atom_site_fract_x
_atom_site_fract_y
_atom_site_fract_z
Si Si1 0.611897 0.109618 0.209782
Si Si2 0.238875 0.300618 0.815640
Si Si3 0.885133 0.166508 0.879578
Si Si4 0.138724 0.700577 0.557019
Si Si5 0.263309 0.430314 0.090856
O O1 0.406290 0.194142 0.187999
O O2 0.728496 0.160269 0.259462
O O3 0.796054 0.086678 0.162780
O O4 0.500000 0.000000 0.226933
O O5 0.336724 0.390055 0.853219
O O6 0.970169 0.265171 0.843703
O O7 0.641840 0.192504 0.915655
O O8 0.137810 0.138627 0.912445
O O9 0.118320 0.667947 0.500000
O O10 0.243641 0.820828 0.560899
O O11 0.500000 0.500000 0.071047
O O12 0.000000 0.500000 0.090529
#
# Coordination Sequence:
#
# PCOD9445664 Si02
#       5
#     8   8   8   8   8
#     4  12  25  42  72 105 138 190 230 278 338 419
#     4  11  24  43  67 100 148 181 224 276 344 408
#     4  11  22  45  68  97 141 180 224 282 340 405
#     4  11  24  43  71  98 134 183 230 289 354 405
#     4  11  23  39  66  99 139 181 222 277 341 412
#
# _framework density 22.949231000000001
#
# number of rings (size 3 to 8) (size 9 to 14) (size 15 to 20)
#    0.000    0.800    6.000    3.600    0.000    3.200 
#    0.000    0.000    0.000    3.600    0.000    0.000 
#    0.000    0.000    0.000    0.000    0.000    0.000 
#
# Total GULP energy -223449.153390 kJ/mol
# GULP energy per Si atom -5586.228835 kJ/mol
# Density = 2.289700 g / cm^3
# Si number density = 22.949231 Si / 1000 Ang^3
#
#
#
# Elastic Constant Matrix: (Units=GPa)
#
#
# Indices 1 2 3 4 5 6 
#
# 1 111.9144 31.1614 46.2736 0.0000 0.0000 0.0000
# 2 31.1614 41.0122 -1.2087 0.0000 0.0000 0.0000
# 3 46.2736 -1.2087 176.4856 0.0000 0.0000 0.0000
# 4 0.0000 0.0000 0.0000 13.9787 0.0000 0.0000
# 5 0.0000 0.0000 0.0000 0.0000 30.0108 0.0000
# 6 0.0000 0.0000 0.0000 0.0000 0.0000 25.8401
#
#
#
# Elastic Compliance Matrix: (Units=1/GPa)
#
#
# Indices 1 2 3 4 5 6 
#
# 1 0.013225 -0.010152 -0.003537 0.000000 0.000000 0.000000
# 2 -0.010152 0.032182 0.002882 0.000000 0.000000 0.000000
# 3 -0.003537 0.002882 0.006613 0.000000 0.000000 0.000000
# 4 0.000000 0.000000 0.000000 0.071537 0.000000 0.000000
# 5 0.000000 0.000000 0.000000 0.000000 0.033321 0.000000
# 6 0.000000 0.000000 0.000000 0.000000 0.000000 0.038700
#
#
# Mechanical properties :
#
#
# Convention : Reuss Voigt Hill
#
# Bulk Modulus (GPa) = 32.88865 53.54054 43.21459
# Shear Modulus (GPa) = 21.99467 30.84497 26.41982
#
# Velocity S-wave (km/s) = 3.09917 3.67011 3.39666
# Velocity P-wave (km/s) = 5.21235 6.42964 5.85273
#
# Compressibility (1/GPa) = 0.03040563
#
# Stress axis : x y z
#
# Youngs Moduli (GPa) = 75.61605 31.07338 151.21031
#
# Poissons Ratio (x) = 0.31547 0.53483
# Poissons Ratio (y) = 0.76769 -0.43584
# Poissons Ratio (z) = 0.26745 -0.08956
#
# Static dielectric constant tensor:
#      x y z
#    x 1.958820 0.000000 0.000000 
#    y 0.000000 1.875630 0.000000 
#    z 0.000000 0.000000 1.861740 
# 
# From -- ./inp_files/32662.got.cif
#   From: 2010.05.17/outbox.cif.g08.bks.cpg/sg58_17_cif.got.tgz:32662.got - 2010.06.03 14:20:14.
