data_PCOD9445564
_publ_section_title
;
Structure prediction by ZEFSAII (Michael W. Deem and Ramdas Pophale) SiO2 
 PCOD9445564
Probable space group: P N N M
;
_chemical_formula_sum "Si O2"
_cell_formula_units_Z 64
_cell_length_a 9.862716
_cell_length_b 16.087270
_cell_length_c 21.820706
_cell_angle_alpha 90.000000
_cell_angle_beta 90.000000
_cell_angle_gamma 90.000000
_cell_volume 3462.164320
_symmetry_space_group_name_H-M "P N N M"
_symmetry_group_IT_number 58
_symmetry_cell_setting 'orthorhombic'
loop_
_space_group_symop_operation_xyz
x,y,z
-x,-y,z
1/2+x,1/2-y,1/2-z
1/2-x,1/2+y,1/2-z
-x,-y,-z
x,y,-z
1/2-x,1/2+y,1/2+z
1/2+x,1/2-y,1/2+z
loop_
_atom_site_type_symbol
_atom_site_label
_atom_site_fract_x
_atom_site_fract_y
_atom_site_fract_z
Si Si1 0.214961 0.594685 0.136846
Si Si2 0.537892 0.695813 0.282659
Si Si3 0.802167 0.074923 0.427500
Si Si4 0.284665 0.587491 0.279286
Si Si5 0.307413 0.901215 0.219543
Si Si6 0.949342 0.313073 0.335608
Si Si7 0.421717 0.850984 0.351833
Si Si8 0.055378 0.187742 0.427822
O O1 0.271451 0.508361 0.110212
O O2 0.233472 0.602702 0.209796
O O3 0.303704 0.666272 0.105021
O O4 0.054925 0.600928 0.125387
O O5 0.439364 0.616612 0.281407
O O6 0.691379 0.667051 0.292408
O O7 0.532765 0.742902 0.217336
O O8 0.477790 0.761169 0.331325
O O9 0.785588 0.060034 0.500000
O O10 0.695355 0.142773 0.402090
O O11 0.951945 0.110927 0.416912
O O12 0.254875 0.491447 0.291394
O O13 0.195632 0.645351 0.324065
O O14 0.437693 0.882256 0.178583
O O15 0.359378 0.891289 0.289708
O O16 0.983003 0.267420 0.398351
O O17 0.074717 0.196342 0.500000
#
# Coordination Sequence:
#
# PCOD9445564 Si02
#       8
#     8   8   8   8   8   8   8   8
#     4  12  22  35  56  85 119 159 196 237 285 344
#     4  11  21  35  55  83 115 150 190 240 290 345
#     4  11  24  39  57  83 120 162 200 233 276 350
#     4  12  22  34  58  87 118 152 188 244 297 351
#     4  11  22  36  55  84 115 150 189 240 300 350
#     4  11  21  37  57  84 115 152 194 241 296 345
#     4  11  23  36  57  81 117 155 194 241 288 340
#     4  11  24  42  61  84 119 163 206 242 283 347
#
# _framework density 18.485545999999999
#
# number of rings (size 3 to 8) (size 9 to 14) (size 15 to 20)
#    0.000    0.750    5.000    5.625    0.000    3.500 
#    0.000    0.000    0.000    1.500    0.000    0.000 
#    0.000    6.000    0.000    0.000    0.000    0.000 
#
# Total GULP energy -357771.262424 kJ/mol
# GULP energy per Si atom -5590.175975 kJ/mol
# Density = 1.844347 g / cm^3
# Si number density = 18.485546 Si / 1000 Ang^3
#
#
#
# Elastic Constant Matrix: (Units=GPa)
#
#
# Indices 1 2 3 4 5 6 
#
# 1 80.7929 5.7726 9.0912 0.0000 0.0000 0.0000
# 2 5.7726 65.4823 20.2470 0.0000 0.0000 0.0000
# 3 9.0912 20.2470 30.9747 0.0000 0.0000 0.0000
# 4 0.0000 0.0000 0.0000 14.7182 0.0000 0.0000
# 5 0.0000 0.0000 0.0000 0.0000 15.7753 0.0000
# 6 0.0000 0.0000 0.0000 0.0000 0.0000 31.7969
#
#
#
# Elastic Compliance Matrix: (Units=1/GPa)
#
#
# Indices 1 2 3 4 5 6 
#
# 1 0.012800 0.000042 -0.003784 0.000000 0.000000 0.000000
# 2 0.000042 0.019140 -0.012523 0.000000 0.000000 0.000000
# 3 -0.003784 -0.012523 0.041581 0.000000 0.000000 0.000000
# 4 0.000000 0.000000 0.000000 0.067943 0.000000 0.000000
# 5 0.000000 0.000000 0.000000 0.000000 0.063390 0.000000
# 6 0.000000 0.000000 0.000000 0.000000 0.000000 0.031450
#
#
# Mechanical properties :
#
#
# Convention : Reuss Voigt Hill
#
# Bulk Modulus (GPa) = 24.39642 27.49684 25.94663
# Shear Modulus (GPa) = 17.69922 21.93403 19.81663
#
# Velocity S-wave (km/s) = 3.09765 3.44837 3.27770
# Velocity P-wave (km/s) = 5.10099 5.54636 5.32833
#
# Compressibility (1/GPa) = 0.04098963
#
# Stress axis : x y z
#
# Youngs Moduli (GPa) = 78.12407 52.24715 24.04943
#
# Poissons Ratio (x) = -0.00217 0.09101
# Poissons Ratio (y) = -0.00325 0.30118
# Poissons Ratio (z) = 0.29563 0.65430
#
# Static dielectric constant tensor:
#      x y z
#    x 1.684360 0.000000 0.000000 
#    y 0.000000 1.672170 0.000000 
#    z 0.000000 0.000000 1.605960 
# 
# From -- ./inp_files/31670.got.cif
#   From: 2010.05.17/outbox.cif.g08.bks.cpg/sg58_16_cif.got.tgz:31670.got - 2010.06.03 14:20:14.
