data_PCOD9445181
_publ_section_title
;
Structure prediction by ZEFSAII (Michael W. Deem and Ramdas Pophale) SiO2 
 PCOD9445181
Probable space group: P N N M
;
_chemical_formula_sum "Si O2"
_cell_formula_units_Z 40
_cell_length_a 16.774625
_cell_length_b 12.643024
_cell_length_c 8.710488
_cell_angle_alpha 90.000000
_cell_angle_beta 90.000000
_cell_angle_gamma 90.000000
_cell_volume 1847.337598
_symmetry_space_group_name_H-M "P N N M"
_symmetry_group_IT_number 58
_symmetry_cell_setting 'orthorhombic'
loop_
_space_group_symop_operation_xyz
x,y,z
-x,-y,z
1/2+x,1/2-y,1/2-z
1/2-x,1/2+y,1/2-z
-x,-y,-z
x,y,-z
1/2-x,1/2+y,1/2+z
1/2+x,1/2-y,1/2+z
loop_
_atom_site_type_symbol
_atom_site_label
_atom_site_fract_x
_atom_site_fract_y
_atom_site_fract_z
Si Si1 0.551317 0.869257 0.324894
Si Si2 0.391314 0.939101 0.175382
Si Si3 0.857906 0.194178 0.323580
Si Si4 0.094295 0.018304 0.185041
Si Si5 0.180581 0.238284 0.821960
O O1 0.525151 0.879389 0.500000
O O2 0.479697 0.894603 0.209891
O O3 0.582313 0.753700 0.289543
O O4 0.616115 0.959346 0.285095
O O5 0.338712 0.839826 0.220052
O O6 0.380636 0.971121 0.000000
O O7 0.885813 0.196512 0.500000
O O8 0.776309 0.261483 0.318332
O O9 0.854908 0.073586 0.267347
O O10 0.132410 0.132892 0.225200
O O11 0.101153 0.008188 0.000000
O O12 0.000000 0.000000 0.224004
O O13 0.157286 0.259304 0.000000
#
# Coordination Sequence:
#
# PCOD9445181 Si02
#       5
#     8   8   8   8   8
#     4  11  22  39  63  89 123 165 208 252 312 378
#     4  11  22  38  63  93 124 159 206 259 312 371
#     4  11  24  40  61  93 130 165 209 264 318 376
#     4  10  22  42  67  92 123 170 220 264 317 385
#     4  10  23  41  61  91 130 167 207 260 320 378
#
# _framework density 21.652782999999999
#
# number of rings (size 3 to 8) (size 9 to 14) (size 15 to 20)
#    0.000    1.400    0.000    6.600    2.800    4.400 
#    0.000    0.000    0.000    0.000    0.000    0.000 
#    0.000    0.000    0.000    0.000    0.000    0.000 
#
# Total GULP energy -223329.956431 kJ/mol
# GULP energy per Si atom -5583.248911 kJ/mol
# Density = 2.160350 g / cm^3
# Si number density = 21.652783 Si / 1000 Ang^3
#
#
#
# Elastic Constant Matrix: (Units=GPa)
#
#
# Indices 1 2 3 4 5 6 
#
# 1 42.6429 13.8054 9.8690 0.0000 0.0000 0.0000
# 2 13.8054 67.9460 2.4919 0.0000 0.0000 0.0000
# 3 9.8690 2.4919 34.0427 0.0000 0.0000 0.0000
# 4 0.0000 0.0000 0.0000 96.1117 0.0000 0.0000
# 5 0.0000 0.0000 0.0000 0.0000 7.3128 0.0000
# 6 0.0000 0.0000 0.0000 0.0000 0.0000 37.6824
#
#
#
# Elastic Compliance Matrix: (Units=1/GPa)
#
#
# Indices 1 2 3 4 5 6 
#
# 1 0.026841 -0.005182 -0.007402 0.000000 0.000000 0.000000
# 2 -0.005182 0.015758 0.000349 0.000000 0.000000 0.000000
# 3 -0.007402 0.000349 0.031495 0.000000 0.000000 0.000000
# 4 0.000000 0.000000 0.000000 0.010405 0.000000 0.000000
# 5 0.000000 0.000000 0.000000 0.000000 0.136746 0.000000
# 6 0.000000 0.000000 0.000000 0.000000 0.000000 0.026538
#
#
# Mechanical properties :
#
#
# Convention : Reuss Voigt Hill
#
# Bulk Modulus (GPa) = 20.15170 21.88490 21.01830
# Shear Modulus (GPa) = 17.31339 36.11908 26.71624
#
# Velocity S-wave (km/s) = 2.83077 4.08867 3.51643
# Velocity P-wave (km/s) = 4.47340 5.69375 5.12006
#
# Compressibility (1/GPa) = 0.04962360
#
# Stress axis : x y z
#
# Youngs Moduli (GPa) = 37.25604 63.46104 31.75092
#
# Poissons Ratio (x) = 0.32887 0.23502
# Poissons Ratio (y) = 0.19307 -0.01108
# Poissons Ratio (z) = 0.27577 -0.02214
#
# Static dielectric constant tensor:
#      x y z
#    x 1.908520 0.000000 0.000000 
#    y 0.000000 1.845750 0.000000 
#    z 0.000000 0.000000 1.742660 
# 
# From -- ./inp_files/4003.got.cif
#   From: 2010.05.17/outbox.cif.g08.bks.cpg/sg58_3_cif.got.tgz:4003.got - 2010.06.03 14:20:14.
