data_PCOD9445859
_publ_section_title
;
Structure prediction by ZEFSAII (Michael W. Deem and Ramdas Pophale) SiO2 
 PCOD9445859
Probable space group: P N N M
;
_chemical_formula_sum "Si O2"
_cell_formula_units_Z 64
_cell_length_a 20.148715
_cell_length_b 20.028104
_cell_length_c 7.353380
_cell_angle_alpha 90.000000
_cell_angle_beta 90.000000
_cell_angle_gamma 90.000000
_cell_volume 2967.387079
_symmetry_space_group_name_H-M "P N N M"
_symmetry_group_IT_number 58
_symmetry_cell_setting 'orthorhombic'
loop_
_space_group_symop_operation_xyz
x,y,z
-x,-y,z
1/2+x,1/2-y,1/2-z
1/2-x,1/2+y,1/2-z
-x,-y,-z
x,y,-z
1/2-x,1/2+y,1/2+z
1/2+x,1/2-y,1/2+z
loop_
_atom_site_type_symbol
_atom_site_label
_atom_site_fract_x
_atom_site_fract_y
_atom_site_fract_z
Si Si1 0.494563 0.754717 0.279523
Si Si2 0.850122 0.956400 0.277509
Si Si3 0.634647 0.602348 0.218994
Si Si4 0.723561 0.877861 0.277835
Si Si5 0.398422 0.030902 0.720951
Si Si6 0.353084 0.249557 0.712740
Si Si7 0.483964 0.606146 0.790348
Si Si8 0.536596 0.101159 0.278923
O O1 0.494827 0.753010 0.500000
O O2 0.571572 0.757476 0.214896
O O3 0.465475 0.684400 0.216682
O O4 0.458218 0.822322 0.220298
O O5 0.851587 0.954628 0.500000
O O6 0.794920 0.903902 0.217261
O O7 0.923700 0.936576 0.213580
O O8 0.833472 0.032412 0.224910
O O9 0.666256 0.672994 0.270918
O O10 0.558131 0.601700 0.287647
O O11 0.632832 0.603255 0.000000
O O12 0.725650 0.877604 0.500000
O O13 0.667547 0.931357 0.221620
O O14 0.698063 0.805321 0.215742
O O15 0.397625 0.030608 0.500000
O O16 0.463904 0.072971 0.772890
O O17 0.410711 0.954684 0.780261
O O18 0.359787 0.234084 0.500000
O O19 0.490794 0.585139 0.000000
O O20 0.537788 0.101633 0.500000
#
# Coordination Sequence:
#
# PCOD9445859 Si02
#       8
#     8   8   8   8   8   8   8   8
#     4   9  15  25  42  66  92 113 137 175 220 262
#     4   9  17  29  45  62  82 113 151 186 215 250
#     4   9  17  30  48  67  86 111 146 185 220 253
#     4   9  15  25  42  64  88 113 146 181 212 254
#     4   8  12  19  34  58  85 112 139 171 210 250
#     4   9  16  27  45  68  89 111 140 176 215 259
#     4   9  17  29  45  64  85 112 147 186 223 254
#     4   8  12  19  34  58  88 113 135 169 213 252
#
# _framework density 21.567796999999999
#
# number of rings (size 3 to 8) (size 9 to 14) (size 15 to 20)
#    0.000    3.250    1.250    1.125    0.000    1.500 
#    0.000    1.875    0.000    6.000    0.000    2.625 
#    0.000    0.000    0.000    0.000    0.000    0.000 
#
# Total GULP energy -356905.463924 kJ/mol
# GULP energy per Si atom -5576.647874 kJ/mol
# Density = 2.151871 g / cm^3
# Si number density = 21.567797 Si / 1000 Ang^3
#
#
#
# Elastic Constant Matrix: (Units=GPa)
#
#
# Indices 1 2 3 4 5 6 
#
# 1 44.3482 27.7285 -0.2879 0.0000 0.0000 0.0000
# 2 27.7285 146.9051 -8.1190 0.0000 0.0000 0.0000
# 3 -0.2879 -8.1190 77.6209 0.0000 0.0000 0.0000
# 4 0.0000 0.0000 0.0000 15.5664 0.0000 0.0000
# 5 0.0000 0.0000 0.0000 0.0000 -9.2962 0.0000
# 6 0.0000 0.0000 0.0000 0.0000 0.0000 30.0120
#
#
#
# Elastic Compliance Matrix: (Units=1/GPa)
#
#
# Indices 1 2 3 4 5 6 
#
# 1 0.025579 -0.004851 -0.000413 0.000000 0.000000 0.000000
# 2 -0.004851 0.007767 0.000794 0.000000 0.000000 0.000000
# 3 -0.000413 0.000794 0.012965 0.000000 0.000000 0.000000
# 4 0.000000 0.000000 0.000000 0.064241 0.000000 0.000000
# 5 0.000000 0.000000 0.000000 0.000000 -0.107571 0.000000
# 6 0.000000 0.000000 0.000000 0.000000 0.000000 0.033320
#
#
# Mechanical properties :
#
#
# Convention : Reuss Voigt Hill
#
# Bulk Modulus (GPa) = 26.75770 34.16860 30.46315
# Shear Modulus (GPa) = 86.66120 23.89328 55.27724
#
# Velocity S-wave (km/s) = 6.34571 3.33201 5.06805
# Velocity P-wave (km/s) = 8.13167 5.53894 6.95715
#
# Compressibility (1/GPa) = 0.03737242
#
# Stress axis : x y z
#
# Youngs Moduli (GPa) = 39.09438 128.75604 77.13263
#
# Poissons Ratio (x) = 0.62458 0.03182
# Poissons Ratio (y) = 0.18964 -0.06127
# Poissons Ratio (z) = 0.01613 -0.10228
#
# Static dielectric constant tensor:
#      x y z
#    x 1.740810 0.000000 0.000000 
#    y 0.000000 1.798010 0.000000 
#    z 0.000000 0.000000 1.857060 
# 
# From -- ./inp_files/17216.got.cif
#   From: 2010.05.17/outbox.cif.g08.bks.cpg/sg58_9_cif.got.tgz:17216.got - 2010.06.03 14:20:14.
