data_PCOD9445857
_publ_section_title
;
Structure prediction by ZEFSAII (Michael W. Deem and Ramdas Pophale) SiO2 
 PCOD9445857
Probable space group: P N N M
;
_chemical_formula_sum "Si O2"
_cell_formula_units_Z 40
_cell_length_a 16.543820
_cell_length_b 16.295071
_cell_length_c 7.427224
_cell_angle_alpha 90.000000
_cell_angle_beta 90.000000
_cell_angle_gamma 90.000000
_cell_volume 2002.251259
_symmetry_space_group_name_H-M "P N N M"
_symmetry_group_IT_number 58
_symmetry_cell_setting 'orthorhombic'
loop_
_space_group_symop_operation_xyz
x,y,z
-x,-y,z
1/2+x,1/2-y,1/2-z
1/2-x,1/2+y,1/2-z
-x,-y,-z
x,y,-z
1/2-x,1/2+y,1/2+z
1/2+x,1/2-y,1/2+z
loop_
_atom_site_type_symbol
_atom_site_label
_atom_site_fract_x
_atom_site_fract_y
_atom_site_fract_z
Si Si1 0.560239 0.688447 0.285953
Si Si2 0.124699 0.458865 0.280177
Si Si3 0.538465 0.876572 0.215628
Si Si4 0.306933 0.440296 0.721112
Si Si5 0.069770 0.070339 0.206914
O O1 0.557257 0.673310 0.500000
O O2 0.564596 0.784983 0.259640
O O3 0.637218 0.636181 0.220676
O O4 0.476870 0.648312 0.212331
O O5 0.125908 0.457782 0.500000
O O6 0.097450 0.550313 0.223220
O O7 0.214473 0.436626 0.220269
O O8 0.052319 0.398698 0.221711
O O9 0.536756 0.882463 0.000000
O O10 0.307566 0.441436 0.500000
O O11 0.352416 0.523622 0.782843
O O12 0.090916 0.090506 0.000000
O O13 0.000000 0.000000 0.205141
#
# Coordination Sequence:
#
# PCOD9445857 Si02
#       5
#     8   8   8   8   8
#     4   9  16  27  45  69  91 109 137 180 225 258
#     4   8  15  29  46  60  80 119 158 176 197 248
#     4   9  17  30  46  63  86 116 149 178 207 251
#     4   8  13  25  46  66  84 111 149 183 207 246
#     4   7  11  21  39  62  84 106 135 172 209 246
#
# _framework density 19.977512999999998
#
# number of rings (size 3 to 8) (size 9 to 14) (size 15 to 20)
#    0.000    3.800    0.000    3.600    0.000    0.000 
#    3.600    2.000    0.000    6.600    0.000    0.000 
#    0.000    0.000    0.000    0.000    0.000    0.000 
#
# Total GULP energy -222704.028744 kJ/mol
# GULP energy per Si atom -5567.600719 kJ/mol
# Density = 1.993204 g / cm^3
# Si number density = 19.977513 Si / 1000 Ang^3
#
#
#
# Elastic Constant Matrix: (Units=GPa)
#
#
# Indices 1 2 3 4 5 6 
#
# 1 163.8748 79.4300 6.8044 0.0000 0.0000 0.0000
# 2 79.4300 132.1024 -0.3316 0.0000 0.0000 0.0000
# 3 6.8044 -0.3316 59.9721 0.0000 0.0000 0.0000
# 4 0.0000 0.0000 0.0000 24.3255 0.0000 0.0000
# 5 0.0000 0.0000 0.0000 0.0000 -6.2344 0.0000
# 6 0.0000 0.0000 0.0000 0.0000 0.0000 13.4086
#
#
#
# Elastic Compliance Matrix: (Units=1/GPa)
#
#
# Indices 1 2 3 4 5 6 
#
# 1 0.008673 -0.005218 -0.001013 0.000000 0.000000 0.000000
# 2 -0.005218 0.010709 0.000651 0.000000 0.000000 0.000000
# 3 -0.001013 0.000651 0.016793 0.000000 0.000000 0.000000
# 4 0.000000 0.000000 0.000000 0.041109 0.000000 0.000000
# 5 0.000000 0.000000 0.000000 0.000000 -0.160399 0.000000
# 6 0.000000 0.000000 0.000000 0.000000 0.000000 0.074579
#
#
# Mechanical properties :
#
#
# Convention : Reuss Voigt Hill
#
# Bulk Modulus (GPa) = 39.97386 58.63942 49.30664
# Shear Modulus (GPa) = 456.17626 24.30305 240.23965
#
# Velocity S-wave (km/s) = 15.12748 3.49165 10.97798
# Velocity P-wave (km/s) = 18.03257 6.75810 13.61700
#
# Compressibility (1/GPa) = 0.02501635
#
# Stress axis : x y z
#
# Youngs Moduli (GPa) = 115.29752 93.38206 59.54883
#
# Poissons Ratio (x) = 0.48722 0.06032
# Poissons Ratio (y) = 0.60157 -0.03878
# Poissons Ratio (z) = 0.11679 -0.06081
#
# Static dielectric constant tensor:
#      x y z
#    x 1.704480 0.000000 0.000000 
#    y 0.000000 1.703830 0.000000 
#    z 0.000000 0.000000 1.781910 
# 
# From -- ./inp_files/5390.got.cif
#   From: 2010.05.17/outbox.cif.g08.bks.cpg/sg58_3_cif.got.tgz:5390.got - 2010.06.03 14:20:14.
