data_PCOD9445819
_publ_section_title
;
Structure prediction by ZEFSAII (Michael W. Deem and Ramdas Pophale) SiO2 
 PCOD9445819
Probable space group: P N N M
;
_chemical_formula_sum "Si O2"
_cell_formula_units_Z 28
_cell_length_a 10.324011
_cell_length_b 4.978651
_cell_length_c 22.065789
_cell_angle_alpha 90.000000
_cell_angle_beta 90.000000
_cell_angle_gamma 90.000000
_cell_volume 1134.173781
_symmetry_space_group_name_H-M "P N N M"
_symmetry_group_IT_number 58
_symmetry_cell_setting 'orthorhombic'
loop_
_space_group_symop_operation_xyz
x,y,z
-x,-y,z
1/2+x,1/2-y,1/2-z
1/2-x,1/2+y,1/2-z
-x,-y,-z
x,y,-z
1/2-x,1/2+y,1/2+z
1/2+x,1/2-y,1/2+z
loop_
_atom_site_type_symbol
_atom_site_label
_atom_site_fract_x
_atom_site_fract_y
_atom_site_fract_z
Si Si1 0.833606 0.141861 0.238263
Si Si2 0.378372 0.712179 0.067777
Si Si3 0.500000 0.000000 0.825500
Si Si4 0.588481 0.742247 0.399119
O O1 0.712027 0.344605 0.245272
O O2 0.881013 0.156236 0.169889
O O3 0.936673 0.271694 0.284121
O O4 0.500000 0.500000 0.073537
O O5 0.224574 0.655126 0.072030
O O6 0.395107 0.900876 0.125760
O O7 0.393284 0.826197 0.000000
O O8 0.500000 0.500000 0.426255
O O9 0.500000 0.000000 0.397149
#
# Coordination Sequence:
#
# PCOD9445819 Si02
#       4
#     8   8   4   8
#     4  12  25  42  70 108 151 193 243 307 377 450
#     4  11  27  50  77 106 147 202 258 310 369 450
#     4  12  25  40  76 102 147 190 254 302 370 442
#     4  12  27  48  75 113 152 197 250 312 386 451
#
# _framework density 24.687574000000001
#
# number of rings (size 3 to 8) (size 9 to 14) (size 15 to 20)
#    0.000    0.286    4.286    3.857    4.000    1.143 
#    0.000    0.000    0.000    0.000    0.000    0.000 
#    0.000    0.000    0.000    0.000    0.000    0.000 
#
# Total GULP energy -156509.242905 kJ/mol
# GULP energy per Si atom -5589.615818 kJ/mol
# Density = 2.463138 g / cm^3
# Si number density = 24.687574 Si / 1000 Ang^3
#
#
#
# Elastic Constant Matrix: (Units=GPa)
#
#
# Indices 1 2 3 4 5 6 
#
# 1 212.9222 36.9665 45.3913 0.0000 0.0000 0.0000
# 2 36.9665 55.7467 1.6970 0.0000 0.0000 0.0000
# 3 45.3913 1.6970 149.6205 0.0000 0.0000 0.0000
# 4 0.0000 0.0000 0.0000 -21.0617 0.0000 0.0000
# 5 0.0000 0.0000 0.0000 0.0000 3.6122 0.0000
# 6 0.0000 0.0000 0.0000 0.0000 0.0000 61.6247
#
#
#
# Elastic Compliance Matrix: (Units=1/GPa)
#
#
# Indices 1 2 3 4 5 6 
#
# 1 0.005704 -0.003731 -0.001688 0.000000 0.000000 0.000000
# 2 -0.003731 0.020385 0.000901 0.000000 0.000000 0.000000
# 3 -0.001688 0.000901 0.007186 0.000000 0.000000 0.000000
# 4 0.000000 0.000000 0.000000 -0.047479 0.000000 0.000000
# 5 0.000000 0.000000 0.000000 0.000000 0.276836 0.000000
# 6 0.000000 0.000000 0.000000 0.000000 0.000000 0.016227
#
#
# Mechanical properties :
#
#
# Convention : Reuss Voigt Hill
#
# Bulk Modulus (GPa) = 41.25837 65.15546 53.20692
# Shear Modulus (GPa) = 16.89332 31.11735 24.00534
#
# Velocity S-wave (km/s) = 2.61872 3.55413 3.12166
# Velocity P-wave (km/s) = 5.08843 6.57965 5.88149
#
# Compressibility (1/GPa) = 0.02423751
#
# Stress axis : x y z
#
# Youngs Moduli (GPa) = 175.30831 49.05556 139.16874
#
# Poissons Ratio (x) = 0.18303 0.23495
# Poissons Ratio (y) = 0.65411 -0.12535
# Poissons Ratio (z) = 0.29596 -0.04419
#
# Static dielectric constant tensor:
#      x y z
#    x 2.152560 0.000000 0.000000 
#    y 0.000000 1.659490 0.000000 
#    z 0.000000 0.000000 1.896390 
# 
# From -- ./inp_files/33057.got.cif
#   From: 2010.05.17/outbox.cif.g08.bks.cpg/sg58_17_cif.got.tgz:33057.got - 2010.06.03 14:20:14.
