data_PCOD9445521
_publ_section_title
;
Structure prediction by ZEFSAII (Michael W. Deem and Ramdas Pophale) SiO2 
 PCOD9445521
Probable space group: P N N M
;
_chemical_formula_sum "Si O2"
_cell_formula_units_Z 48
_cell_length_a 8.808714
_cell_length_b 17.643052
_cell_length_c 15.364916
_cell_angle_alpha 90.000000
_cell_angle_beta 90.000000
_cell_angle_gamma 90.000000
_cell_volume 2387.901531
_symmetry_space_group_name_H-M "P N N M"
_symmetry_group_IT_number 58
_symmetry_cell_setting 'orthorhombic'
loop_
_space_group_symop_operation_xyz
x,y,z
-x,-y,z
1/2+x,1/2-y,1/2-z
1/2-x,1/2+y,1/2-z
-x,-y,-z
x,y,-z
1/2-x,1/2+y,1/2+z
1/2+x,1/2-y,1/2+z
loop_
_atom_site_type_symbol
_atom_site_label
_atom_site_fract_x
_atom_site_fract_y
_atom_site_fract_z
Si Si1 0.330963 0.699801 0.097885
Si Si2 0.922497 0.626277 0.599148
Si Si3 0.662093 0.526191 0.686325
Si Si4 0.081497 0.919990 0.365895
Si Si5 0.928273 0.582998 0.908588
Si Si6 0.355013 0.115980 0.255431
O O1 0.355088 0.789203 0.102035
O O2 0.484810 0.650743 0.102690
O O3 0.242146 0.672951 0.184559
O O4 0.268659 0.682846 0.000000
O O5 0.965872 0.608112 0.500000
O O6 0.792171 0.567238 0.630254
O O7 0.069169 0.629234 0.661820
O O8 0.500000 0.500000 0.643967
O O9 0.603581 0.582278 0.761859
O O10 0.748626 0.457791 0.738305
O O11 0.248980 0.920957 0.403160
O O12 0.000000 0.000000 0.386900
O O13 0.000000 0.500000 0.914201
O O14 0.998425 0.609913 0.818369
O O15 0.965451 0.623357 0.000000
#
# Coordination Sequence:
#
# PCOD9445521 Si02
#       6
#     8   8   8   8   8   8
#     4  11  25  43  64  99 140 180 219 272 345 416
#     4  11  27  46  67  96 135 179 227 279 341 405
#     4  11  22  42  68  96 128 170 233 277 331 395
#     4  11  20  38  60  93 129 169 215 268 324 396
#     4  11  20  31  54  91 127 165 210 263 323 385
#     4  12  22  40  67  92 130 171 222 282 331 387
#
# _framework density 20.101330999999998
#
# number of rings (size 3 to 8) (size 9 to 14) (size 15 to 20)
#    0.000    0.833    6.667    1.500    2.333    4.333 
#    0.000    0.000    0.000    5.000    0.000    0.000 
#    0.000    0.000    0.000    0.000    0.000    0.000 
#
# Total GULP energy -267402.321635 kJ/mol
# GULP energy per Si atom -5570.881701 kJ/mol
# Density = 2.005558 g / cm^3
# Si number density = 20.101331 Si / 1000 Ang^3
#
#
#
# Elastic Constant Matrix: (Units=GPa)
#
#
# Indices 1 2 3 4 5 6 
#
# 1 133.7642 26.8066 42.4717 0.0000 0.0000 0.0000
# 2 26.8066 51.0264 27.4574 0.0000 0.0000 0.0000
# 3 42.4717 27.4574 148.6209 0.0000 0.0000 0.0000
# 4 0.0000 0.0000 0.0000 31.0859 0.0000 0.0000
# 5 0.0000 0.0000 0.0000 0.0000 91.6945 0.0000
# 6 0.0000 0.0000 0.0000 0.0000 0.0000 17.5740
#
#
#
# Elastic Compliance Matrix: (Units=1/GPa)
#
#
# Indices 1 2 3 4 5 6 
#
# 1 0.008787 -0.003625 -0.001841 0.000000 0.000000 0.000000
# 2 -0.003625 0.023257 -0.003261 0.000000 0.000000 0.000000
# 3 -0.001841 -0.003261 0.007857 0.000000 0.000000 0.000000
# 4 0.000000 0.000000 0.000000 0.032169 0.000000 0.000000
# 5 0.000000 0.000000 0.000000 0.000000 0.010906 0.000000
# 6 0.000000 0.000000 0.000000 0.000000 0.000000 0.056902
#
#
# Mechanical properties :
#
#
# Convention : Reuss Voigt Hill
#
# Bulk Modulus (GPa) = 44.55073 58.54255 51.54664
# Shear Modulus (GPa) = 30.33709 43.84927 37.09318
#
# Velocity S-wave (km/s) = 3.88907 4.67563 4.30037
# Velocity P-wave (km/s) = 6.50981 7.63777 7.09624
#
# Compressibility (1/GPa) = 0.02244632
#
# Stress axis : x y z
#
# Youngs Moduli (GPa) = 113.80427 42.99803 127.27327
#
# Poissons Ratio (x) = 0.15589 0.23435
# Poissons Ratio (y) = 0.41259 0.41499
# Poissons Ratio (z) = 0.20955 0.14020
#
# Static dielectric constant tensor:
#      x y z
#    x 1.740400 0.000000 0.000000 
#    y 0.000000 1.703090 0.000000 
#    z 0.000000 0.000000 1.777660 
# 
# From -- ./inp_files/19845.got.cif
#   From: 2010.05.17/outbox.cif.g08.bks.cpg/sg58_10_cif.got.tgz:19845.got - 2010.06.03 14:20:14.
