data_PCOD9445432
_publ_section_title
;
Structure prediction by ZEFSAII (Michael W. Deem and Ramdas Pophale) SiO2 
 PCOD9445432
Probable space group: P N N M
;
_chemical_formula_sum "Si O2"
_cell_formula_units_Z 40
_cell_length_a 12.003927
_cell_length_b 5.219770
_cell_length_c 29.251062
_cell_angle_alpha 90.000000
_cell_angle_beta 90.000000
_cell_angle_gamma 90.000000
_cell_volume 1832.805380
_symmetry_space_group_name_H-M "P N N M"
_symmetry_group_IT_number 58
_symmetry_cell_setting 'orthorhombic'
loop_
_space_group_symop_operation_xyz
x,y,z
-x,-y,z
1/2+x,1/2-y,1/2-z
1/2-x,1/2+y,1/2-z
-x,-y,-z
x,y,-z
1/2-x,1/2+y,1/2+z
1/2+x,1/2-y,1/2+z
loop_
_atom_site_type_symbol
_atom_site_label
_atom_site_fract_x
_atom_site_fract_y
_atom_site_fract_z
Si Si1 0.073251 0.251034 0.356451
Si Si2 0.267705 0.953015 0.625512
Si Si3 0.764464 0.444457 0.705171
Si Si4 0.925936 0.757669 0.052910
Si Si5 0.896968 0.319147 0.795663
O O1 0.149265 0.343097 0.314131
O O2 0.000000 0.500000 0.370065
O O3 0.168797 0.141283 0.390305
O O4 0.000000 0.000000 0.345647
O O5 0.223875 0.772731 0.666604
O O6 0.321768 0.788729 0.585752
O O7 0.362187 0.110118 0.652676
O O8 0.808559 0.383072 0.755209
O O9 0.632061 0.515497 0.704750
O O10 0.000000 0.500000 0.054547
O O11 0.893100 0.800183 0.000000
O O12 0.000000 0.000000 0.067508
O O13 0.000000 0.500000 0.784624
#
# Coordination Sequence:
#
# PCOD9445432 Si02
#       5
#     8   8   8   8   8
#     4  11  23  41  64  91 124 175 222 270 327 397
#     4  11  24  40  66  96 133 171 231 276 338 405
#     4  11  23  40  57  94 130 177 229 273 331 401
#     4  10  24  45  71 102 136 174 219 278 353 415
#     4  11  24  37  57  89 134 180 224 282 329 399
#
# _framework density 21.824469000000001
#
# number of rings (size 3 to 8) (size 9 to 14) (size 15 to 20)
#    0.000    1.200    4.000    1.200    8.400    0.000 
#    0.000    0.000    0.000    1.200    0.000    0.000 
#    0.000    0.000    0.000    0.000    0.000    0.000 
#
# Total GULP energy -222839.683283 kJ/mol
# GULP energy per Si atom -5570.992082 kJ/mol
# Density = 2.177480 g / cm^3
# Si number density = 21.824469 Si / 1000 Ang^3
#
#
#
# Elastic Constant Matrix: (Units=GPa)
#
#
# Indices 1 2 3 4 5 6 
#
# 1 96.7907 49.1685 40.3259 0.0000 0.0000 0.0000
# 2 49.1685 129.1290 26.5299 0.0000 0.0000 0.0000
# 3 40.3259 26.5299 82.5448 0.0000 0.0000 0.0000
# 4 0.0000 0.0000 0.0000 9.4514 0.0000 0.0000
# 5 0.0000 0.0000 0.0000 0.0000 9.4976 0.0000
# 6 0.0000 0.0000 0.0000 0.0000 0.0000 40.8373
#
#
#
# Elastic Compliance Matrix: (Units=1/GPa)
#
#
# Indices 1 2 3 4 5 6 
#
# 1 0.015101 -0.004534 -0.005920 0.000000 0.000000 0.000000
# 2 -0.004534 0.009653 -0.000888 0.000000 0.000000 0.000000
# 3 -0.005920 -0.000888 0.015292 0.000000 0.000000 0.000000
# 4 0.000000 0.000000 0.000000 0.105805 0.000000 0.000000
# 5 0.000000 0.000000 0.000000 0.000000 0.105290 0.000000
# 6 0.000000 0.000000 0.000000 0.000000 0.000000 0.024487
#
#
# Mechanical properties :
#
#
# Convention : Reuss Voigt Hill
#
# Bulk Modulus (GPa) = 57.59357 60.05700 58.82529
# Shear Modulus (GPa) = 16.44202 24.78659 20.61431
#
# Velocity S-wave (km/s) = 2.74775 3.37371 3.07669
# Velocity P-wave (km/s) = 6.04264 6.53864 6.29553
#
# Compressibility (1/GPa) = 0.01736305
#
# Stress axis : x y z
#
# Youngs Moduli (GPa) = 66.21967 103.59618 65.39297
#
# Poissons Ratio (x) = 0.46968 0.38715
# Poissons Ratio (y) = 0.30022 0.05804
# Poissons Ratio (z) = 0.39204 0.09195
#
# Static dielectric constant tensor:
#      x y z
#    x 1.963720 0.000000 0.000000 
#    y 0.000000 2.051820 0.000000 
#    z 0.000000 0.000000 1.738170 
# 
# From -- ./inp_files/33463.got.cif
#   From: 2010.05.17/outbox.cif.g08.bks.cpg/sg58_17_cif.got.tgz:33463.got - 2010.06.03 14:20:14.
