data_PCOD9445031
_publ_section_title
;
Structure prediction by ZEFSAII (Michael W. Deem and Ramdas Pophale) SiO2 
 PCOD9445031
Probable space group: P N N M
;
_chemical_formula_sum "Si O2"
_cell_formula_units_Z 52
_cell_length_a 17.811958
_cell_length_b 19.233175
_cell_length_c 7.578842
_cell_angle_alpha 90.000000
_cell_angle_beta 90.000000
_cell_angle_gamma 90.000000
_cell_volume 2596.363522
_symmetry_space_group_name_H-M "P N N M"
_symmetry_group_IT_number 58
_symmetry_cell_setting 'orthorhombic'
loop_
_space_group_symop_operation_xyz
x,y,z
-x,-y,z
1/2+x,1/2-y,1/2-z
1/2-x,1/2+y,1/2-z
-x,-y,-z
x,y,-z
1/2-x,1/2+y,1/2+z
1/2+x,1/2-y,1/2+z
loop_
_atom_site_type_symbol
_atom_site_label
_atom_site_fract_x
_atom_site_fract_y
_atom_site_fract_z
Si Si1 0.701568 0.670371 0.709930
Si Si2 0.635889 0.105144 0.210328
Si Si3 0.974869 0.722216 0.200436
Si Si4 0.357202 0.182642 0.711666
Si Si5 0.670319 0.456977 0.000000
Si Si6 0.402786 0.398983 0.000000
Si Si7 0.064454 0.172384 0.500000
Si Si8 0.794666 0.465059 0.298895
O O1 0.686627 0.662120 0.500000
O O2 0.783514 0.640122 0.748603
O O3 0.696443 0.752292 0.751317
O O4 0.640708 0.631556 0.829529
O O5 0.571505 0.150680 0.296812
O O6 0.646372 0.024569 0.259011
O O7 0.622860 0.109158 0.000000
O O8 0.936639 0.777245 0.330429
O O9 0.059200 0.706011 0.264171
O O10 0.979117 0.748883 0.000000
O O11 0.357614 0.172390 0.500000
O O12 0.331301 0.110700 0.793282
O O13 0.609099 0.518289 0.000000
O O14 0.724101 0.465799 0.169104
O O15 0.632615 0.381474 0.000000
O O16 0.487382 0.371734 0.000000
O O17 0.772275 0.482475 0.500000
#
# Coordination Sequence:
#
# PCOD9445031 Si02
#       8
#     8   8   8   8   4   4   4   8
#     4  10  22  39  65  95 128 166 225 273 325 385
#     4  10  22  41  64  95 131 173 219 273 324 391
#     4  11  25  42  66  97 135 174 219 270 331 390
#     4  10  22  41  64  95 131 173 219 273 324 391
#     4  12  27  46  66 100 135 169 223 279 322 395
#     4  12  23  44  76  90 128 184 214 265 336 398
#     4  12  27  46  66 100 135 169 223 279 322 395
#     4  11  25  42  66  97 135 174 219 270 331 390
#
# _framework density 20.028012
#
# number of rings (size 3 to 8) (size 9 to 14) (size 15 to 20)
#    0.000    1.231    4.615    0.231    6.462    1.231 
#    0.000    3.077    0.000    2.769    0.000    0.000 
#    0.000    0.000    0.000    0.000    0.000    0.000 
#
# Total GULP energy -290752.592719 kJ/mol
# GULP energy per Si atom -5591.396014 kJ/mol
# Density = 1.998243 g / cm^3
# Si number density = 20.028012 Si / 1000 Ang^3
#
#
#
# Elastic Constant Matrix: (Units=GPa)
#
#
# Indices 1 2 3 4 5 6 
#
# 1 3.7784 5.0586 8.7543 0.0000 0.0000 0.0000
# 2 5.0586 131.6051 24.5559 0.0000 0.0000 0.0000
# 3 8.7543 24.5559 72.8608 0.0000 0.0000 0.0000
# 4 0.0000 0.0000 0.0000 -35.7028 0.0000 0.0000
# 5 0.0000 0.0000 0.0000 0.0000 4.9481 0.0000
# 6 0.0000 0.0000 0.0000 0.0000 0.0000 41.8670
#
#
#
# Elastic Compliance Matrix: (Units=1/GPa)
#
#
# Indices 1 2 3 4 5 6 
#
# 1 0.371681 -0.006353 -0.042517 0.000000 0.000000 0.000000
# 2 -0.006353 0.008217 -0.002006 0.000000 0.000000 0.000000
# 3 -0.042517 -0.002006 0.019509 0.000000 0.000000 0.000000
# 4 0.000000 0.000000 0.000000 -0.028009 0.000000 0.000000
# 5 0.000000 0.000000 0.000000 0.000000 0.202097 0.000000
# 6 0.000000 0.000000 0.000000 0.000000 0.000000 0.023885
#
#
# Mechanical properties :
#
#
# Convention : Reuss Voigt Hill
#
# Bulk Modulus (GPa) = 3.35959 31.66465 17.51212
# Shear Modulus (GPa) = 6.26292 13.54748 9.90520
#
# Velocity S-wave (km/s) = 1.77027 2.60364 2.22630
# Velocity P-wave (km/s) = 2.42066 4.98830 3.92063
#
# Compressibility (1/GPa) = 0.29765502
#
# Stress axis : x y z
#
# Youngs Moduli (GPa) = 2.69048 121.69908 51.25769
#
# Poissons Ratio (x) = 0.77321 2.17930
# Poissons Ratio (y) = 0.01709 0.10282
# Poissons Ratio (z) = 0.11439 0.24412
#
# Static dielectric constant tensor:
#      x y z
#    x 1.673720 0.000000 0.000000 
#    y 0.000000 1.700900 0.000000 
#    z 0.000000 0.000000 1.721050 
# 
# From -- ./inp_files/7977.got.cif
#   From: 2010.05.17/outbox.cif.g08.bks.cpg/sg58_4_cif.got.tgz:7977.got - 2010.06.03 14:20:14.
