data_PCOD9445127
_publ_section_title
;
Structure prediction by ZEFSAII (Michael W. Deem and Ramdas Pophale) SiO2 
 PCOD9445127
Probable space group: P N N M
;
_chemical_formula_sum "Si O2"
_cell_formula_units_Z 40
_cell_length_a 24.498404
_cell_length_b 8.409868
_cell_length_c 8.570906
_cell_angle_alpha 90.000000
_cell_angle_beta 90.000000
_cell_angle_gamma 90.000000
_cell_volume 1765.849568
_symmetry_space_group_name_H-M "P N N M"
_symmetry_group_IT_number 58
_symmetry_cell_setting 'orthorhombic'
loop_
_space_group_symop_operation_xyz
x,y,z
-x,-y,z
1/2+x,1/2-y,1/2-z
1/2-x,1/2+y,1/2-z
-x,-y,-z
x,y,-z
1/2-x,1/2+y,1/2+z
1/2+x,1/2-y,1/2+z
loop_
_atom_site_type_symbol
_atom_site_label
_atom_site_fract_x
_atom_site_fract_y
_atom_site_fract_z
Si Si1 0.329318 0.669867 0.183858
Si Si2 0.029007 0.833564 0.813352
Si Si3 0.722387 0.644819 0.317284
Si Si4 0.923053 0.644884 0.817267
Si Si5 0.629589 0.832216 0.180377
O O1 0.301759 0.501958 0.222014
O O2 0.283573 0.802616 0.222833
O O3 0.383079 0.706927 0.282618
O O4 0.341721 0.679628 0.000000
O O5 0.083947 0.799709 0.720714
O O6 0.984322 0.697464 0.777957
O O7 0.040319 0.829608 0.000000
O O8 0.000000 0.000000 0.777656
O O9 0.720818 0.605020 0.500000
O O10 0.682463 0.792830 0.282451
O O11 0.898693 0.498442 0.722311
O O12 0.921773 0.604648 0.000000
O O13 0.645037 0.828255 0.000000
#
# Coordination Sequence:
#
# PCOD9445127 Si02
#       5
#     8   8   8   8   8
#     4  11  24  41  64  94 125 159 204 255 303 356
#     4  10  22  41  64  90 121 160 205 250 304 370
#     4  11  24  42  64  90 124 164 203 247 304 368
#     4  11  23  40  64  91 124 165 205 249 304 367
#     4  12  25  40  62  91 124 161 205 258 307 356
#
# _framework density 22.651985
#
# number of rings (size 3 to 8) (size 9 to 14) (size 15 to 20)
#    0.000    1.000    0.000    6.600    0.000   12.400 
#    0.000    0.000    0.000    0.000    0.000    0.000 
#    0.000    0.000    0.000    0.000    0.000    0.000 
#
# Total GULP energy -224119.046561 kJ/mol
# GULP energy per Si atom -5602.976164 kJ/mol
# Density = 2.260043 g / cm^3
# Si number density = 22.651985 Si / 1000 Ang^3
#
#
#
# Elastic Constant Matrix: (Units=GPa)
#
#
# Indices 1 2 3 4 5 6 
#
# 1 74.8712 -19.3618 13.8827 0.0000 0.0000 0.0000
# 2 -19.3618 64.5032 -5.2924 0.0000 0.0000 0.0000
# 3 13.8827 -5.2924 22.5934 0.0000 0.0000 0.0000
# 4 0.0000 0.0000 0.0000 54.5909 0.0000 0.0000
# 5 0.0000 0.0000 0.0000 0.0000 24.5489 0.0000
# 6 0.0000 0.0000 0.0000 0.0000 0.0000 31.9648
#
#
#
# Elastic Compliance Matrix: (Units=1/GPa)
#
#
# Indices 1 2 3 4 5 6 
#
# 1 0.016067 0.004091 -0.008914 0.000000 0.000000 0.000000
# 2 0.004091 0.016849 0.001433 0.000000 0.000000 0.000000
# 3 -0.008914 0.001433 0.050074 0.000000 0.000000 0.000000
# 4 0.000000 0.000000 0.000000 0.018318 0.000000 0.000000
# 5 0.000000 0.000000 0.000000 0.000000 0.040735 0.000000
# 6 0.000000 0.000000 0.000000 0.000000 0.000000 0.031284
#
#
# Mechanical properties :
#
#
# Convention : Reuss Voigt Hill
#
# Bulk Modulus (GPa) = 13.12170 15.60275 14.36223
# Shear Modulus (GPa) = 24.32965 33.73688 29.03326
#
# Velocity S-wave (km/s) = 3.28085 3.86340 3.58398
# Velocity P-wave (km/s) = 4.48968 5.17727 4.84569
#
# Compressibility (1/GPa) = 0.07620963
#
# Stress axis : x y z
#
# Youngs Moduli (GPa) = 62.23850 59.35149 19.97055
#
# Poissons Ratio (x) = -0.24284 0.17802
# Poissons Ratio (y) = -0.25465 -0.02861
# Poissons Ratio (z) = 0.55481 -0.08503
#
# Static dielectric constant tensor:
#      x y z
#    x 1.807190 0.000000 0.000000 
#    y 0.000000 1.899470 0.000000 
#    z 0.000000 0.000000 1.745560 
# 
# From -- ./inp_files/2434.got.cif
#   From: 2010.05.17/outbox.cif.g08.bks.cpg/sg58_2_cif.got.tgz:2434.got - 2010.06.03 14:20:14.
