data_PCOD9445917
_publ_section_title
;
Structure prediction by ZEFSAII (Michael W. Deem and Ramdas Pophale) SiO2 
 PCOD9445917
Probable space group: P N N M
;
_chemical_formula_sum "Si O2"
_cell_formula_units_Z 64
_cell_length_a 12.000000
_cell_length_b 18.000000
_cell_length_c 15.000000
_cell_angle_alpha 90.000000
_cell_angle_beta 90.000000
_cell_angle_gamma 90.000000
_cell_volume 3240.000000
_symmetry_space_group_name_H-M "P N N M"
_symmetry_group_IT_number 58
_symmetry_cell_setting 'orthorhombic'
loop_
_space_group_symop_operation_xyz
x,y,z
-x,-y,z
1/2+x,1/2-y,1/2-z
1/2-x,1/2+y,1/2-z
-x,-y,-z
x,y,-z
1/2-x,1/2+y,1/2+z
1/2+x,1/2-y,1/2+z
loop_
_atom_site_type_symbol
_atom_site_label
_atom_site_fract_x
_atom_site_fract_y
_atom_site_fract_z
Si Si1 0.544733 0.581079 0.217488
Si Si2 0.260851 0.688331 0.401553
Si Si3 0.744764 0.166905 0.679215
Si Si4 0.005939 0.847388 0.895563
Si Si5 0.985588 0.358824 0.603728
Si Si6 0.512674 0.086295 0.285758
Si Si7 0.662303 0.782985 0.667006
Si Si8 0.094155 0.196037 0.398359
O O1 0.500000 0.500000 0.196986
O O2 0.666148 0.601425 0.180793
O O3 0.550451 0.593375 0.324336
O O4 0.465361 0.642111 0.171301
O O5 0.273502 0.658120 0.500000
O O6 0.249326 0.776995 0.402797
O O7 0.380046 0.669152 0.360774
O O8 0.144075 0.654640 0.372859
O O9 0.623900 0.130097 0.684188
O O10 0.785004 0.228261 0.755016
O O11 0.078568 0.772731 0.883529
O O12 0.009854 0.868556 0.000000
O O13 0.997277 0.379928 0.500000
O O14 0.027492 0.414564 0.678195
O O15 0.048408 0.279896 0.616056
O O16 0.410239 0.143033 0.309573
O O17 0.500000 0.000000 0.316333
O O18 0.773066 0.805275 0.613959
O O19 0.064631 0.175667 0.500000
#
# Coordination Sequence:
#
# PCOD9445917 Si02
#       8
#     8   8   8   8   8   8   8   8
#     4  11  25  39  60  88 128 164 201 254 313 371
#     4  10  18  33  62  87 111 148 209 267 301 348
#     4  11  21  40  61  88 116 165 216 247 303 370
#     4  10  21  38  63  92 118 157 209 258 305 366
#     4  10  20  37  60  90 119 159 211 263 311 371
#     4  12  25  38  61  93 131 169 200 258 330 380
#     4  11  21  38  64  85 122 161 210 254 299 371
#     4  11  22  39  64  90 117 159 217 261 303 363
#
# _framework density 19.753086
#
# number of rings (size 3 to 8) (size 9 to 14) (size 15 to 20)
#    0.000    1.250    5.000    1.875    1.750    0.750 
#    0.000    0.000    0.000    1.875    0.000    0.000 
#    0.000    0.000    0.000    0.000    0.000    0.000 
#
# Total GULP energy -356406.386517 kJ/mol
# GULP energy per Si atom -5568.849789 kJ/mol
# Density = 1.970813 g / cm^3
# Si number density = 19.753086 Si / 1000 Ang^3
#
#
#
# Elastic Constant Matrix: (Units=GPa)
#
#
# Indices 1 2 3 4 5 6 
#
# 1 86.0535 -20.5962 -1.9337 0.0000 0.0000 0.0000
# 2 -20.5962 30.4675 -10.4675 0.0000 0.0000 0.0000
# 3 -1.9337 -10.4675 41.9835 0.0000 0.0000 0.0000
# 4 0.0000 0.0000 0.0000 12.4254 0.0000 0.0000
# 5 0.0000 0.0000 0.0000 0.0000 -17.5061 0.0000
# 6 0.0000 0.0000 0.0000 0.0000 0.0000 12.9513
#
#
#
# Elastic Compliance Matrix: (Units=1/GPa)
#
#
# Indices 1 2 3 4 5 6 
#
# 1 0.014283 0.010807 0.003352 0.000000 0.000000 0.000000
# 2 0.010807 0.044074 0.011486 0.000000 0.000000 0.000000
# 3 0.003352 0.011486 0.026837 0.000000 0.000000 0.000000
# 4 0.000000 0.000000 0.000000 0.080480 0.000000 0.000000
# 5 0.000000 0.000000 0.000000 0.000000 -0.057123 0.000000
# 6 0.000000 0.000000 0.000000 0.000000 0.000000 0.077212
#
#
# Mechanical properties :
#
#
# Convention : Reuss Voigt Hill
#
# Bulk Modulus (GPa) = 7.32687 10.27886 8.80286
# Shear Modulus (GPa) = 27.78291 14.34092 21.06192
#
# Velocity S-wave (km/s) = 3.75442 2.69738 3.26891
# Velocity P-wave (km/s) = 4.74462 3.86214 4.32594
#
# Compressibility (1/GPa) = 0.13648396
#
# Stress axis : x y z
#
# Youngs Moduli (GPa) = 70.01569 22.68930 37.26182
#
# Poissons Ratio (x) = -0.24520 -0.12491
# Poissons Ratio (y) = -0.75664 -0.42800
# Poissons Ratio (z) = -0.23471 -0.26062
#
# Static dielectric constant tensor:
#      x y z
#    x 1.745360 0.000000 0.000000 
#    y 0.000000 1.657370 0.000000 
#    z 0.000000 0.000000 1.781160 
# 
# From -- ./inp_files/21505.got.cif
#   From: 2010.05.17/outbox.ucp.g08.bks.cvg/sg58_11_cif.got.tgz:21505.got - 2010.06.11 16:41:41.
