data_PCOD9445002
_publ_section_title
;
Structure prediction by ZEFSAII (Michael W. Deem and Ramdas Pophale) SiO2 
 PCOD9445002
Probable space group: P N N M
;
_chemical_formula_sum "Si O2"
_cell_formula_units_Z 28
_cell_length_a 30.394448
_cell_length_b 4.834884
_cell_length_c 7.147991
_cell_angle_alpha 90.000000
_cell_angle_beta 90.000000
_cell_angle_gamma 90.000000
_cell_volume 1050.423227
_symmetry_space_group_name_H-M "P N N M"
_symmetry_group_IT_number 58
_symmetry_cell_setting 'orthorhombic'
loop_
_space_group_symop_operation_xyz
x,y,z
-x,-y,z
1/2+x,1/2-y,1/2-z
1/2-x,1/2+y,1/2-z
-x,-y,-z
x,y,-z
1/2-x,1/2+y,1/2+z
1/2+x,1/2-y,1/2+z
loop_
_atom_site_type_symbol
_atom_site_label
_atom_site_fract_x
_atom_site_fract_y
_atom_site_fract_z
Si Si1 0.780294 0.926498 0.212925
Si Si2 0.162128 0.720178 0.500000
Si Si3 0.101958 0.377127 0.775720
Si Si4 0.953953 0.118966 0.774908
O O1 0.738385 0.136376 0.213025
O O2 0.815453 0.077829 0.339305
O O3 0.795156 0.889867 0.000000
O O4 0.140638 0.515796 0.662350
O O5 0.058972 0.568557 0.733623
O O6 0.086955 0.072301 0.715244
O O7 0.109095 0.385198 0.000000
O O8 0.955432 0.096679 0.000000
O O9 0.000000 0.000000 0.705932
#
# Coordination Sequence:
#
# PCOD9445002 Si02
#       4
#     8   4   8   8
#     4  12  25  47  72 101 129 171 220 277 335 404
#     4  12  26  44  69  94 140 166 224 268 349 388
#     4  10  22  39  61  95 129 173 216 270 333 384
#     4   9  18  37  64  91 128 174 223 268 320 385
#
# _framework density 26.655919999999998
#
# number of rings (size 3 to 8) (size 9 to 14) (size 15 to 20)
#    0.000    1.429    2.857    1.714    0.000    9.143 
#    0.000   10.000    0.000    0.000    0.000    0.000 
#    0.000    0.000    0.000    0.000    0.000    0.000 
#
# Total GULP energy -156083.887535 kJ/mol
# GULP energy per Si atom -5574.424555 kJ/mol
# Density = 2.659525 g / cm^3
# Si number density = 26.655920 Si / 1000 Ang^3
#
#
#
# Elastic Constant Matrix: (Units=GPa)
#
#
# Indices 1 2 3 4 5 6 
#
# 1 113.3202 21.5739 -4.7265 0.0000 0.0000 0.0000
# 2 21.5739 115.4633 -7.6111 0.0000 0.0000 0.0000
# 3 -4.7265 -7.6111 190.5502 0.0000 0.0000 0.0000
# 4 0.0000 0.0000 0.0000 50.1505 0.0000 0.0000
# 5 0.0000 0.0000 0.0000 0.0000 -12.2377 0.0000
# 6 0.0000 0.0000 0.0000 0.0000 0.0000 53.1427
#
#
#
# Elastic Compliance Matrix: (Units=1/GPa)
#
#
# Indices 1 2 3 4 5 6 
#
# 1 0.009155 -0.001700 0.000159 0.000000 0.000000 0.000000
# 2 -0.001700 0.008999 0.000317 0.000000 0.000000 0.000000
# 3 0.000159 0.000317 0.005265 0.000000 0.000000 0.000000
# 4 0.000000 0.000000 0.000000 0.019940 0.000000 0.000000
# 5 0.000000 0.000000 0.000000 0.000000 -0.081715 0.000000
# 6 0.000000 0.000000 0.000000 0.000000 0.000000 0.018817
#
#
# Mechanical properties :
#
#
# Convention : Reuss Voigt Hill
#
# Bulk Modulus (GPa) = 47.68359 48.64514 48.16436
# Shear Modulus (GPa) = -495.01120 45.55091 -224.73014
#
# Velocity S-wave (km/s) = -13.64211 4.13831 -9.19189
# Velocity P-wave (km/s) = 15.17285 6.41272 9.72349
#
# Compressibility (1/GPa) = 0.02097157
#
# Stress axis : x y z
#
# Youngs Moduli (GPa) = 109.23179 111.11943 189.94859
#
# Poissons Ratio (x) = 0.18891 -0.03024
# Poissons Ratio (y) = 0.18570 -0.06027
# Poissons Ratio (z) = -0.01739 -0.03526
#
# Static dielectric constant tensor:
#      x y z
#    x 2.170600 0.000000 0.000000 
#    y 0.000000 1.990390 0.000000 
#    z 0.000000 0.000000 1.988850 
# 
# From -- ./inp_files/10195.got.cif
#   From: 2010.05.17/outbox.cif.g08.bks.cpg/sg58_6_cif.got.tgz:10195.got - 2010.06.03 14:20:14.
