data_PCOD9445336
_publ_section_title
;
Structure prediction by ZEFSAII (Michael W. Deem and Ramdas Pophale) SiO2 
 PCOD9445336
Probable space group: P N N M
;
_chemical_formula_sum "Si O2"
_cell_formula_units_Z 32
_cell_length_a 11.802077
_cell_length_b 5.233562
_cell_length_c 21.912631
_cell_angle_alpha 90.000000
_cell_angle_beta 90.000000
_cell_angle_gamma 90.000000
_cell_volume 1353.475325
_symmetry_space_group_name_H-M "P N N M"
_symmetry_group_IT_number 58
_symmetry_cell_setting 'orthorhombic'
loop_
_space_group_symop_operation_xyz
x,y,z
-x,-y,z
1/2+x,1/2-y,1/2-z
1/2-x,1/2+y,1/2-z
-x,-y,-z
x,y,-z
1/2-x,1/2+y,1/2+z
1/2+x,1/2-y,1/2+z
loop_
_atom_site_type_symbol
_atom_site_label
_atom_site_fract_x
_atom_site_fract_y
_atom_site_fract_z
Si Si1 0.126710 0.011191 0.880626
Si Si2 0.154103 0.509887 0.202420
Si Si3 0.103581 0.163551 0.302281
Si Si4 0.125910 0.365090 0.568065
O O1 0.127680 0.766531 0.834931
O O2 0.249366 0.997749 0.916872
O O3 0.128030 0.272265 0.842028
O O4 0.000000 0.000000 0.911835
O O5 0.106887 0.434487 0.268687
O O6 0.285879 0.513530 0.216122
O O7 0.111037 0.180248 0.374879
O O8 0.000000 0.000000 0.281332
O O9 0.138087 0.255371 0.500000
O O10 0.000000 0.500000 0.568117
#
# Coordination Sequence:
#
# PCOD9445336 Si02
#       4
#     8   8   8   8
#     4  11  24  43  69 101 135 171 217 279 343 400
#     4  11  24  41  66 102 135 168 216 275 341 407
#     4  11  23  41  67  97 137 180 223 274 339 401
#     4  10  23  43  66  96 135 182 233 277 324 393
#
# _framework density 23.642841000000001
#
# number of rings (size 3 to 8) (size 9 to 14) (size 15 to 20)
#    0.000    1.250    0.000    6.000    0.000    7.000 
#    0.000    7.500    0.000    7.500    0.000    0.000 
#    0.000    0.000    0.000    0.000    0.000    0.000 
#
# Total GULP energy -178392.438322 kJ/mol
# GULP energy per Si atom -5574.763698 kJ/mol
# Density = 2.358903 g / cm^3
# Si number density = 23.642841 Si / 1000 Ang^3
#
#
#
# Elastic Constant Matrix: (Units=GPa)
#
#
# Indices 1 2 3 4 5 6 
#
# 1 250.3263 19.9274 30.0429 0.0000 0.0000 0.0000
# 2 19.9274 96.4410 33.1147 0.0000 0.0000 0.0000
# 3 30.0429 33.1147 136.7541 0.0000 0.0000 0.0000
# 4 0.0000 0.0000 0.0000 14.3105 0.0000 0.0000
# 5 0.0000 0.0000 0.0000 0.0000 23.5107 0.0000
# 6 0.0000 0.0000 0.0000 0.0000 0.0000 38.3515
#
#
#
# Elastic Compliance Matrix: (Units=1/GPa)
#
#
# Indices 1 2 3 4 5 6 
#
# 1 0.004134 -0.000591 -0.000765 0.000000 0.000000 0.000000
# 2 -0.000591 0.011394 -0.002629 0.000000 0.000000 0.000000
# 3 -0.000765 -0.002629 0.008117 0.000000 0.000000 0.000000
# 4 0.000000 0.000000 0.000000 0.069879 0.000000 0.000000
# 5 0.000000 0.000000 0.000000 0.000000 0.042534 0.000000
# 6 0.000000 0.000000 0.000000 0.000000 0.000000 0.026075
#
#
# Mechanical properties :
#
#
# Convention : Reuss Voigt Hill
#
# Bulk Modulus (GPa) = 63.80074 72.18793 67.99434
# Shear Modulus (GPa) = 28.51812 41.93032 35.22422
#
# Velocity S-wave (km/s) = 3.47681 4.21585 3.86404
# Velocity P-wave (km/s) = 6.56974 7.36864 6.98063
#
# Compressibility (1/GPa) = 0.01567380
#
# Stress axis : x y z
#
# Youngs Moduli (GPa) = 241.91582 87.76556 123.19743
#
# Poissons Ratio (x) = 0.05191 0.09423
# Poissons Ratio (y) = 0.14309 0.32390
# Poissons Ratio (z) = 0.18504 0.23074
#
# Static dielectric constant tensor:
#      x y z
#    x 2.032480 0.000000 0.000000 
#    y 0.000000 1.901720 0.000000 
#    z 0.000000 0.000000 1.889180 
# 
# From -- ./inp_files/29299.got.cif
#   From: 2010.05.17/outbox.cif.g08.bks.cpg/sg58_15_cif.got.tgz:29299.got - 2010.06.03 14:20:14.
