data_PCOD9445374
_publ_section_title
;
Structure prediction by ZEFSAII (Michael W. Deem and Ramdas Pophale) SiO2 
 PCOD9445374
Probable space group: P N N M
;
_chemical_formula_sum "Si O2"
_cell_formula_units_Z 48
_cell_length_a 14.746234
_cell_length_b 6.854293
_cell_length_c 18.117263
_cell_angle_alpha 90.000000
_cell_angle_beta 90.000000
_cell_angle_gamma 90.000000
_cell_volume 1831.202511
_symmetry_space_group_name_H-M "P N N M"
_symmetry_group_IT_number 58
_symmetry_cell_setting 'orthorhombic'
loop_
_space_group_symop_operation_xyz
x,y,z
-x,-y,z
1/2+x,1/2-y,1/2-z
1/2-x,1/2+y,1/2-z
-x,-y,-z
x,y,-z
1/2-x,1/2+y,1/2+z
1/2+x,1/2-y,1/2+z
loop_
_atom_site_type_symbol
_atom_site_label
_atom_site_fract_x
_atom_site_fract_y
_atom_site_fract_z
Si Si1 0.427231 0.124238 0.000000
Si Si2 0.652097 0.929175 0.833883
Si Si3 0.876164 0.067424 0.077845
Si Si4 0.981234 0.211052 0.775175
Si Si5 0.714114 0.318861 0.122971
Si Si6 0.070893 0.117962 0.500000
Si Si7 0.829334 0.701434 0.842517
O O1 0.375137 0.116878 0.080592
O O2 0.456137 0.369862 0.000000
O O3 0.452829 0.874544 0.000000
O O4 0.576358 0.833714 0.782505
O O5 0.748258 0.835497 0.810719
O O6 0.778427 0.496809 0.853188
O O7 0.926322 0.148557 0.150491
O O8 0.780863 0.176826 0.078747
O O9 0.856860 0.837138 0.087072
O O10 0.921221 0.114559 0.000000
O O11 0.073161 0.309493 0.803873
O O12 0.000000 0.000000 0.738592
O O13 0.666782 0.160781 0.176140
O O14 0.633125 0.390988 0.072526
#
# Coordination Sequence:
#
# PCOD9445374 Si02
#       7
#     4   8   8   8   8   4   8
#     4  12  24  48  74 115 159 223 272 346 441 509
#     4  11  25  52  82 115 175 221 278 364 440 518
#     4  10  23  48  82 118 168 225 284 352 429 520
#     4  10  25  55  81 123 172 229 292 358 442 532
#     4  11  23  47  74 116 166 214 274 351 430 509
#     4  12  24  42  74 114 160 210 274 348 423 511
#     4  10  25  47  81 119 164 222 287 347 438 513
#
# _framework density 26.212284
#
# number of rings (size 3 to 8) (size 9 to 14) (size 15 to 20)
#    0.000    1.333    2.500    1.000    4.667    5.667 
#   15.000    4.167    3.667    0.000    0.000    0.000 
#    0.000    0.000    0.000    0.000    0.000    0.000 
#
# Total GULP energy -268448.343646 kJ/mol
# GULP energy per Si atom -5592.673826 kJ/mol
# Density = 2.615262 g / cm^3
# Si number density = 26.212284 Si / 1000 Ang^3
#
#
#
# Elastic Constant Matrix: (Units=GPa)
#
#
# Indices 1 2 3 4 5 6 
#
# 1 206.5100 86.7298 90.2555 0.0000 0.0000 0.0000
# 2 86.7298 220.0562 76.7538 0.0000 0.0000 0.0000
# 3 90.2555 76.7538 167.9710 0.0000 0.0000 0.0000
# 4 0.0000 0.0000 0.0000 45.0878 0.0000 0.0000
# 5 0.0000 0.0000 0.0000 0.0000 -1.0095 0.0000
# 6 0.0000 0.0000 0.0000 0.0000 0.0000 82.3741
#
#
#
# Elastic Compliance Matrix: (Units=1/GPa)
#
#
# Indices 1 2 3 4 5 6 
#
# 1 0.006811 -0.001675 -0.002894 0.000000 0.000000 0.000000
# 2 -0.001675 0.005818 -0.001758 0.000000 0.000000 0.000000
# 3 -0.002894 -0.001758 0.008312 0.000000 0.000000 0.000000
# 4 0.000000 0.000000 0.000000 0.022179 0.000000 0.000000
# 5 0.000000 0.000000 0.000000 0.000000 -0.990555 0.000000
# 6 0.000000 0.000000 0.000000 0.000000 0.000000 0.012140
#
#
# Mechanical properties :
#
#
# Convention : Reuss Voigt Hill
#
# Bulk Modulus (GPa) = 120.69368 122.44617 121.56993
# Shear Modulus (GPa) = -5.43550 48.01035 21.28742
#
# Velocity S-wave (km/s) = -1.44158 4.28436 2.85286
# Velocity P-wave (km/s) = 6.58588 8.44328 7.57175
#
# Compressibility (1/GPa) = 0.00828544
#
# Stress axis : x y z
#
# Youngs Moduli (GPa) = 146.82767 171.88912 120.30608
#
# Poissons Ratio (x) = 0.28787 0.34820
# Poissons Ratio (y) = 0.24590 0.21156
# Poissons Ratio (z) = 0.42496 0.30226
#
# Static dielectric constant tensor:
#      x y z
#    x 2.032440 0.000000 0.000000 
#    y 0.000000 2.170230 0.000000 
#    z 0.000000 0.000000 2.119240 
# 
# From -- ./inp_files/22286.got.cif
#   From: 2010.05.17/outbox.cif.g08.bks.cpg/sg58_12_cif.got.tgz:22286.got - 2010.06.03 14:20:14.
