data_PCOD9445825
_publ_section_title
;
Structure prediction by ZEFSAII (Michael W. Deem and Ramdas Pophale) SiO2 
 PCOD9445825
Probable space group: P N N M
;
_chemical_formula_sum "Si O2"
_cell_formula_units_Z 32
_cell_length_a 4.873692
_cell_length_b 25.723405
_cell_length_c 11.281179
_cell_angle_alpha 90.000000
_cell_angle_beta 90.000000
_cell_angle_gamma 90.000000
_cell_volume 1414.298320
_symmetry_space_group_name_H-M "P N N M"
_symmetry_group_IT_number 58
_symmetry_cell_setting 'orthorhombic'
loop_
_space_group_symop_operation_xyz
x,y,z
-x,-y,z
1/2+x,1/2-y,1/2-z
1/2-x,1/2+y,1/2-z
-x,-y,-z
x,y,-z
1/2-x,1/2+y,1/2+z
1/2+x,1/2-y,1/2+z
loop_
_atom_site_type_symbol
_atom_site_label
_atom_site_fract_x
_atom_site_fract_y
_atom_site_fract_z
Si Si1 0.696964 0.340987 0.500000
Si Si2 0.303403 0.912946 0.000000
Si Si3 0.644751 0.889639 0.638121
Si Si4 0.643780 0.554172 0.243300
Si Si5 0.588862 0.785064 0.233905
O O1 0.385924 0.361079 0.500000
O O2 0.780092 0.308220 0.385316
O O3 0.884992 0.393148 0.500000
O O4 0.233326 0.943423 0.119621
O O5 0.712744 0.890036 0.500000
O O6 0.411365 0.931749 0.667879
O O7 0.535417 0.833772 0.680186
O O8 0.914183 0.902768 0.714279
O O9 0.500000 0.500000 0.214153
O O10 0.311451 0.753842 0.210666
#
# Coordination Sequence:
#
# PCOD9445825 Si02
#       5
#     4   4   8   8   8
#     4  12  24  44  71  96 142 176 221 288 336 390
#     4  12  21  46  68 104 138 172 224 282 339 392
#     4  12  27  47  67 100 140 176 228 282 332 406
#     4  12  25  45  72 101 134 180 226 278 342 401
#     4  12  26  44  68  99 131 179 225 275 335 395
#
# _framework density 22.626062999999998
#
# number of rings (size 3 to 8) (size 9 to 14) (size 15 to 20)
#    0.000    0.000    5.000    4.875    3.500    3.000 
#    0.000    3.750    0.000    0.000    0.000    0.000 
#    0.000    0.000    0.000    0.000    0.000    0.000 
#
# Total GULP energy -179393.569654 kJ/mol
# GULP energy per Si atom -5606.049052 kJ/mol
# Density = 2.257457 g / cm^3
# Si number density = 22.626063 Si / 1000 Ang^3
#
#
#
# Elastic Constant Matrix: (Units=GPa)
#
#
# Indices 1 2 3 4 5 6 
#
# 1 61.9060 2.3199 -14.1466 0.0000 0.0000 0.0000
# 2 2.3199 60.6777 5.4583 0.0000 0.0000 0.0000
# 3 -14.1466 5.4583 80.2953 0.0000 0.0000 0.0000
# 4 0.0000 0.0000 0.0000 8.1572 0.0000 0.0000
# 5 0.0000 0.0000 0.0000 0.0000 -11.0088 0.0000
# 6 0.0000 0.0000 0.0000 0.0000 0.0000 30.2385
#
#
#
# Elastic Compliance Matrix: (Units=1/GPa)
#
#
# Indices 1 2 3 4 5 6 
#
# 1 0.016882 -0.000919 0.003037 0.000000 0.000000 0.000000
# 2 -0.000919 0.016632 -0.001292 0.000000 0.000000 0.000000
# 3 0.003037 -0.001292 0.013077 0.000000 0.000000 0.000000
# 4 0.000000 0.000000 0.000000 0.122591 0.000000 0.000000
# 5 0.000000 0.000000 0.000000 0.000000 -0.090837 0.000000
# 6 0.000000 0.000000 0.000000 0.000000 0.000000 0.033070
#
#
# Mechanical properties :
#
#
# Convention : Reuss Voigt Hill
#
# Bulk Modulus (GPa) = 20.72881 21.12691 20.92786
# Shear Modulus (GPa) = 39.73146 19.42721 29.57934
#
# Velocity S-wave (km/s) = 4.19502 2.93340 3.61960
# Velocity P-wave (km/s) = 5.71363 4.56408 5.17090
#
# Compressibility (1/GPa) = 0.04824204
#
# Stress axis : x y z
#
# Youngs Moduli (GPa) = 59.23505 60.12540 76.47064
#
# Poissons Ratio (x) = 0.05523 -0.23222
# Poissons Ratio (y) = 0.05442 0.09883
# Poissons Ratio (z) = -0.17988 0.07771
#
# Static dielectric constant tensor:
#      x y z
#    x 1.803230 0.000000 0.000000 
#    y 0.000000 1.850590 0.000000 
#    z 0.000000 0.000000 1.785710 
# 
# From -- ./inp_files/11554.got.cif
#   From: 2010.05.17/outbox.cif.g08.bks.cpg/sg58_6_cif.got.tgz:11554.got - 2010.06.03 14:20:14.
