data_PCOD9445720
_publ_section_title
;
Structure prediction by ZEFSAII (Michael W. Deem and Ramdas Pophale) SiO2 
 PCOD9445720
Probable space group: P N N M
;
_chemical_formula_sum "Si O2"
_cell_formula_units_Z 28
_cell_length_a 19.461706
_cell_length_b 5.046066
_cell_length_c 11.607555
_cell_angle_alpha 90.000000
_cell_angle_beta 90.000000
_cell_angle_gamma 90.000000
_cell_volume 1139.920553
_symmetry_space_group_name_H-M "P N N M"
_symmetry_group_IT_number 58
_symmetry_cell_setting 'orthorhombic'
loop_
_space_group_symop_operation_xyz
x,y,z
-x,-y,z
1/2+x,1/2-y,1/2-z
1/2-x,1/2+y,1/2-z
-x,-y,-z
x,y,-z
1/2-x,1/2+y,1/2+z
1/2+x,1/2-y,1/2+z
loop_
_atom_site_type_symbol
_atom_site_label
_atom_site_fract_x
_atom_site_fract_y
_atom_site_fract_z
Si Si1 0.425297 0.643432 0.365964
Si Si2 0.341760 0.781833 0.000000
Si Si3 0.070298 0.789725 0.500000
Si Si4 0.000000 0.500000 0.296627
Si Si5 0.208993 0.027312 0.267569
O O1 0.500000 0.500000 0.362718
O O2 0.410866 0.702789 0.500000
O O3 0.360701 0.499819 0.307052
O O4 0.439841 0.896371 0.285805
O O5 0.408810 0.592911 0.000000
O O6 0.304167 0.683378 0.886338
O O7 0.365571 0.084555 0.000000
O O8 0.030823 0.715657 0.616574
O O9 0.258796 0.241627 0.206903
#
# Coordination Sequence:
#
# PCOD9445720 Si02
#       5
#     8   4   4   4   8
#     4  11  26  47  76 108 150 198 256 309 378 447
#     4  12  24  49  70 104 141 195 241 297 371 437
#     4  11  24  40  78 106 144 180 245 303 368 444
#     4  11  23  42  70 110 143 187 236 310 370 435
#     4  12  29  49  75 108 151 198 250 308 374 449
#
# _framework density 24.563113999999999
#
# number of rings (size 3 to 8) (size 9 to 14) (size 15 to 20)
#    0.000    0.571    2.857    3.857    8.000    1.143 
#    0.000    0.000    0.000    0.000    0.000    0.000 
#    0.000    0.000    0.000    0.000    0.000    0.000 
#
# Total GULP energy -156813.491085 kJ/mol
# GULP energy per Si atom -5600.481824 kJ/mol
# Density = 2.450721 g / cm^3
# Si number density = 24.563114 Si / 1000 Ang^3
#
#
#
# Elastic Constant Matrix: (Units=GPa)
#
#
# Indices 1 2 3 4 5 6 
#
# 1 104.9173 41.3819 36.1505 0.0000 0.0000 0.0000
# 2 41.3819 88.3093 13.8762 0.0000 0.0000 0.0000
# 3 36.1505 13.8762 154.0373 0.0000 0.0000 0.0000
# 4 0.0000 0.0000 0.0000 27.2388 0.0000 0.0000
# 5 0.0000 0.0000 0.0000 0.0000 158.4475 0.0000
# 6 0.0000 0.0000 0.0000 0.0000 0.0000 58.8420
#
#
#
# Elastic Compliance Matrix: (Units=1/GPa)
#
#
# Indices 1 2 3 4 5 6 
#
# 1 0.012541 -0.005492 -0.002448 0.000000 0.000000 0.000000
# 2 -0.005492 0.013892 0.000038 0.000000 0.000000 0.000000
# 3 -0.002448 0.000038 0.007063 0.000000 0.000000 0.000000
# 4 0.000000 0.000000 0.000000 0.036712 0.000000 0.000000
# 5 0.000000 0.000000 0.000000 0.000000 0.006311 0.000000
# 6 0.000000 0.000000 0.000000 0.000000 0.000000 0.016995
#
#
# Mechanical properties :
#
#
# Convention : Reuss Voigt Hill
#
# Bulk Modulus (GPa) = 56.52983 58.89790 57.71386
# Shear Modulus (GPa) = 43.39644 65.96269 54.67956
#
# Velocity S-wave (km/s) = 4.20781 5.18774 4.72326
# Velocity P-wave (km/s) = 6.83166 7.74040 7.30019
#
# Compressibility (1/GPa) = 0.01768978
#
# Stress axis : x y z
#
# Youngs Moduli (GPa) = 79.73732 71.98631 141.57917
#
# Poissons Ratio (x) = 0.39535 0.34666
# Poissons Ratio (y) = 0.43792 -0.00531
# Poissons Ratio (z) = 0.19524 -0.00270
#
# Static dielectric constant tensor:
#      x y z
#    x 2.060660 0.000000 0.000000 
#    y 0.000000 1.965150 0.000000 
#    z 0.000000 0.000000 1.930190 
# 
# From -- ./inp_files/11484.got.cif
#   From: 2010.05.17/outbox.cif.g08.bks.cpg/sg58_6_cif.got.tgz:11484.got - 2010.06.03 14:20:14.
