data_PCOD9445889
_publ_section_title
;
Structure prediction by ZEFSAII (Michael W. Deem and Ramdas Pophale) SiO2 
 PCOD9445889
Probable space group: P N N M
;
_chemical_formula_sum "Si O2"
_cell_formula_units_Z 64
_cell_length_a 20.118240
_cell_length_b 20.597342
_cell_length_c 7.377057
_cell_angle_alpha 90.000000
_cell_angle_beta 90.000000
_cell_angle_gamma 90.000000
_cell_volume 3056.921623
_symmetry_space_group_name_H-M "P N N M"
_symmetry_group_IT_number 58
_symmetry_cell_setting 'orthorhombic'
loop_
_space_group_symop_operation_xyz
x,y,z
-x,-y,z
1/2+x,1/2-y,1/2-z
1/2-x,1/2+y,1/2-z
-x,-y,-z
x,y,-z
1/2-x,1/2+y,1/2+z
1/2+x,1/2-y,1/2+z
loop_
_atom_site_type_symbol
_atom_site_label
_atom_site_fract_x
_atom_site_fract_y
_atom_site_fract_z
Si Si1 0.599840 0.681284 0.714233
Si Si2 0.930879 0.324509 0.717934
Si Si3 0.818314 0.596626 0.279236
Si Si4 0.209554 0.009114 0.221344
Si Si5 0.434927 0.461124 0.721655
Si Si6 0.715111 0.863879 0.789286
Si Si7 0.966309 0.567133 0.721490
Si Si8 0.246242 0.778253 0.219101
O O1 0.608179 0.671506 0.500000
O O2 0.560725 0.748557 0.739264
O O3 0.568599 0.614270 0.781920
O O4 0.674198 0.695979 0.784833
O O5 0.928677 0.328471 0.500000
O O6 0.858643 0.349213 0.787148
O O7 0.988962 0.372028 0.780060
O O8 0.818765 0.595653 0.500000
O O9 0.759048 0.548783 0.224120
O O10 0.890352 0.573284 0.218767
O O11 0.800836 0.669766 0.223382
O O12 0.242500 0.076405 0.284841
O O13 0.134267 0.994792 0.278060
O O14 0.207877 0.009639 0.000000
O O15 0.500000 0.500000 0.782121
O O16 0.436396 0.461563 0.500000
O O17 0.753558 0.795754 0.778294
O O18 0.703893 0.880165 0.000000
O O19 0.965832 0.567084 0.500000
O O20 0.000000 0.500000 0.778345
O O21 0.244792 0.777414 0.000000
#
# Coordination Sequence:
#
# PCOD9445889 Si02
#       8
#     8   8   8   8   8   8   8   8
#     4   9  16  29  48  67  87 117 154 185 217 263
#     4   9  17  29  45  68  95 121 147 179 222 268
#     4   9  15  25  44  65  86 115 149 186 220 256
#     4   9  15  26  44  66  88 112 148 189 225 258
#     4   9  16  27  44  65  88 114 149 191 227 260
#     4   9  17  28  45  68  93 117 142 180 225 263
#     4   9  16  26  42  66  92 116 147 185 223 262
#     4   9  16  28  46  65  87 116 150 181 212 261
#
# _framework density 20.936095000000002
#
# number of rings (size 3 to 8) (size 9 to 14) (size 15 to 20)
#    0.000    3.000    1.250    0.750    0.000    3.000 
#    2.250    0.000    0.000    2.250    0.000    0.000 
#    0.000    0.000    0.000    0.000    0.000    0.000 
#
# Total GULP energy -357128.577009 kJ/mol
# GULP energy per Si atom -5580.134016 kJ/mol
# Density = 2.088844 g / cm^3
# Si number density = 20.936095 Si / 1000 Ang^3
#
#
#
# Elastic Constant Matrix: (Units=GPa)
#
#
# Indices 1 2 3 4 5 6 
#
# 1 133.9072 74.4326 -3.4214 0.0000 0.0000 0.0000
# 2 74.4326 139.7221 -9.3688 0.0000 0.0000 0.0000
# 3 -3.4214 -9.3688 70.1098 0.0000 0.0000 0.0000
# 4 0.0000 0.0000 0.0000 15.9621 0.0000 0.0000
# 5 0.0000 0.0000 0.0000 0.0000 131.3664 0.0000
# 6 0.0000 0.0000 0.0000 0.0000 0.0000 32.5413
#
#
#
# Elastic Compliance Matrix: (Units=1/GPa)
#
#
# Indices 1 2 3 4 5 6 
#
# 1 0.010613 -0.005670 -0.000240 0.000000 0.000000 0.000000
# 2 -0.005670 0.010251 0.001093 0.000000 0.000000 0.000000
# 3 -0.000240 0.001093 0.014398 0.000000 0.000000 0.000000
# 4 0.000000 0.000000 0.000000 0.062648 0.000000 0.000000
# 5 0.000000 0.000000 0.000000 0.000000 0.007612 0.000000
# 6 0.000000 0.000000 0.000000 0.000000 0.000000 0.030730
#
#
# Mechanical properties :
#
#
# Convention : Reuss Voigt Hill
#
# Bulk Modulus (GPa) = 39.01872 51.89154 45.45513
# Shear Modulus (GPa) = 32.37729 54.78040 43.57885
#
# Velocity S-wave (km/s) = 3.93680 5.12077 4.56731
# Velocity P-wave (km/s) = 6.27232 7.73321 7.04076
#
# Compressibility (1/GPa) = 0.02562872
#
# Stress axis : x y z
#
# Youngs Moduli (GPa) = 94.22009 97.55235 69.45544
#
# Poissons Ratio (x) = 0.55313 0.01665
# Poissons Ratio (y) = 0.53423 -0.07592
# Poissons Ratio (z) = 0.02259 -0.10664
#
# Static dielectric constant tensor:
#      x y z
#    x 1.713810 0.000000 0.000000 
#    y 0.000000 1.730910 0.000000 
#    z 0.000000 0.000000 1.823800 
# 
# From -- ./inp_files/16667.got.cif
#   From: 2010.05.17/outbox.cif.g08.bks.cpg/sg58_9_cif.got.tgz:16667.got - 2010.06.03 14:20:14.
