data_PCOD9445262
_publ_section_title
;
Structure prediction by ZEFSAII (Michael W. Deem and Ramdas Pophale) SiO2 
 PCOD9445262
Probable space group: P N N M
;
_chemical_formula_sum "Si O2"
_cell_formula_units_Z 64
_cell_length_a 11.811773
_cell_length_b 15.258127
_cell_length_c 18.404794
_cell_angle_alpha 90.000000
_cell_angle_beta 90.000000
_cell_angle_gamma 90.000000
_cell_volume 3317.013800
_symmetry_space_group_name_H-M "P N N M"
_symmetry_group_IT_number 58
_symmetry_cell_setting 'orthorhombic'
loop_
_space_group_symop_operation_xyz
x,y,z
-x,-y,z
1/2+x,1/2-y,1/2-z
1/2-x,1/2+y,1/2-z
-x,-y,-z
x,y,-z
1/2-x,1/2+y,1/2+z
1/2+x,1/2-y,1/2+z
loop_
_atom_site_type_symbol
_atom_site_label
_atom_site_fract_x
_atom_site_fract_y
_atom_site_fract_z
Si Si1 0.503624 0.323502 0.701276
Si Si2 0.165256 0.273011 0.418667
Si Si3 0.573300 0.746457 0.141914
Si Si4 0.489938 0.827231 0.582497
Si Si5 0.748889 0.101369 0.365914
Si Si6 0.759805 0.391603 0.300095
Si Si7 0.729448 0.590849 0.305688
Si Si8 0.714535 0.903850 0.371515
O O1 0.481104 0.281056 0.780270
O O2 0.487977 0.250519 0.639455
O O3 0.630198 0.359661 0.696291
O O4 0.406148 0.396288 0.692122
O O5 0.197601 0.299822 0.500000
O O6 0.216198 0.338233 0.358810
O O7 0.213339 0.175782 0.403752
O O8 0.030464 0.270688 0.409022
O O9 0.647461 0.664498 0.114575
O O10 0.658919 0.826350 0.156647
O O11 0.496561 0.795294 0.500000
O O12 0.366815 0.866400 0.598236
O O13 0.589071 0.897538 0.595694
O O14 0.735534 0.108860 0.278039
O O15 0.767373 0.999441 0.383426
O O16 0.765119 0.492376 0.324618
O O17 0.793483 0.389689 0.215166
#
# Coordination Sequence:
#
# PCOD9445262 Si02
#       8
#     8   8   8   8   8   8   8   8
#     4  11  20  40  66  92 124 158 208 267 310 370
#     4  12  25  43  63  89 130 173 211 251 312 385
#     4  11  22  40  65  90 124 166 209 259 312 372
#     4  12  23  37  61  91 126 166 204 252 319 380
#     4  10  23  40  63  94 127 157 210 268 315 372
#     4  11  21  40  69  95 121 156 214 265 310 363
#     4  10  23  40  67  97 119 162 213 263 312 368
#     4  11  22  39  64  94 122 163 208 262 318 374
#
# _framework density 19.294463
#
# number of rings (size 3 to 8) (size 9 to 14) (size 15 to 20)
#    0.000    1.000    5.000    2.625    0.000    3.000 
#    0.000    2.500    0.000    1.500    0.000    0.000 
#    0.000    0.000    0.000    0.000    0.000    0.000 
#
# Total GULP energy -357845.632730 kJ/mol
# GULP energy per Si atom -5591.338011 kJ/mol
# Density = 1.925055 g / cm^3
# Si number density = 19.294463 Si / 1000 Ang^3
#
#
#
# Elastic Constant Matrix: (Units=GPa)
#
#
# Indices 1 2 3 4 5 6 
#
# 1 98.0988 19.4024 17.2123 0.0000 0.0000 0.0000
# 2 19.4024 70.1904 13.6542 0.0000 0.0000 0.0000
# 3 17.2123 13.6542 47.3739 0.0000 0.0000 0.0000
# 4 0.0000 0.0000 0.0000 7.9308 0.0000 0.0000
# 5 0.0000 0.0000 0.0000 0.0000 -64.5057 0.0000
# 6 0.0000 0.0000 0.0000 0.0000 0.0000 14.1401
#
#
#
# Elastic Compliance Matrix: (Units=1/GPa)
#
#
# Indices 1 2 3 4 5 6 
#
# 1 0.011274 -0.002457 -0.003388 0.000000 0.000000 0.000000
# 2 -0.002457 0.015629 -0.003612 0.000000 0.000000 0.000000
# 3 -0.003388 -0.003612 0.023381 0.000000 0.000000 0.000000
# 4 0.000000 0.000000 0.000000 0.126090 0.000000 0.000000
# 5 0.000000 0.000000 0.000000 0.000000 -0.015502 0.000000
# 6 0.000000 0.000000 0.000000 0.000000 0.000000 0.070721
#
#
# Mechanical properties :
#
#
# Convention : Reuss Voigt Hill
#
# Bulk Modulus (GPa) = 31.87814 35.13342 33.50578
# Shear Modulus (GPa) = 19.15979 2.53932 10.84955
#
# Velocity S-wave (km/s) = 3.15464 1.14845 2.37389
# Velocity P-wave (km/s) = 5.46139 4.47294 4.99169
#
# Compressibility (1/GPa) = 0.03136946
#
# Stress axis : x y z
#
# Youngs Moduli (GPa) = 88.69734 63.98421 42.77056
#
# Poissons Ratio (x) = 0.15724 0.14491
# Poissons Ratio (y) = 0.21797 0.15448
# Poissons Ratio (z) = 0.30051 0.23109
#
# Static dielectric constant tensor:
#      x y z
#    x 1.666340 0.000000 0.000000 
#    y 0.000000 1.665410 0.000000 
#    z 0.000000 0.000000 1.654060 
# 
# From -- ./inp_files/26387.got.cif
#   From: 2010.05.17/outbox.cif.g08.bks.cpg/sg58_14_cif.got.tgz:26387.got - 2010.06.03 14:20:14.
