data_PCOD9445021
_publ_section_title
;
Structure prediction by ZEFSAII (Michael W. Deem and Ramdas Pophale) SiO2 
 PCOD9445021
Probable space group: P N N M
;
_chemical_formula_sum "Si O2"
_cell_formula_units_Z 48
_cell_length_a 9.420307
_cell_length_b 17.650135
_cell_length_c 14.427913
_cell_angle_alpha 90.000000
_cell_angle_beta 90.000000
_cell_angle_gamma 90.000000
_cell_volume 2398.924626
_symmetry_space_group_name_H-M "P N N M"
_symmetry_group_IT_number 58
_symmetry_cell_setting 'orthorhombic'
loop_
_space_group_symop_operation_xyz
x,y,z
-x,-y,z
1/2+x,1/2-y,1/2-z
1/2-x,1/2+y,1/2-z
-x,-y,-z
x,y,-z
1/2-x,1/2+y,1/2+z
1/2+x,1/2-y,1/2+z
loop_
_atom_site_type_symbol
_atom_site_label
_atom_site_fract_x
_atom_site_fract_y
_atom_site_fract_z
Si Si1 0.333226 0.511617 0.000000
Si Si2 0.759744 0.309778 0.205586
Si Si3 0.331901 0.511679 0.500000
Si Si4 0.644201 0.041513 0.668740
Si Si5 0.139011 0.360382 0.500000
Si Si6 0.262365 0.186012 0.500000
Si Si7 0.453354 0.829297 0.200174
Si Si8 0.849320 0.955119 0.797422
O O1 0.500000 0.500000 0.000000
O O2 0.257128 0.471364 0.912679
O O3 0.315832 0.603444 0.000000
O O4 0.828710 0.318206 0.102833
O O5 0.657522 0.238752 0.200391
O O6 0.659274 0.379353 0.236757
O O7 0.886819 0.303998 0.278392
O O8 0.500000 0.500000 0.500000
O O9 0.254823 0.429087 0.500000
O O10 0.308664 0.556176 0.595322
O O11 0.595569 0.119955 0.712835
O O12 0.500000 0.000000 0.639384
O O13 0.721047 0.003050 0.755747
O O14 0.193797 0.271657 0.500000
O O15 0.057589 0.367565 0.401678
O O16 0.000000 0.000000 0.790227
#
# Coordination Sequence:
#
# PCOD9445021 Si02
#       8
#     4   8   4   8   4   4   8   8
#     4  12  25  41  69 102 133 175 230 281 330 403
#     4  11  25  44  66  98 131 178 222 277 341 400
#     4  10  22  39  64 101 130 176 225 275 333 404
#     4  12  23  42  65  96 134 176 222 272 338 398
#     4  10  22  41  66  95 132 171 222 279 330 399
#     4  10  22  41  65  94 131 170 223 268 335 396
#     4  11  25  43  67  95 134 177 220 278 340 400
#     4  11  23  40  67  97 132 172 227 275 332 403
#
# _framework density 20.008966000000001
#
# number of rings (size 3 to 8) (size 9 to 14) (size 15 to 20)
#    0.000    1.000    5.000    0.750    2.333    4.000 
#    0.000    3.333    0.000    0.000    0.000    0.000 
#    0.000    0.000    0.000    0.000    0.000    0.000 
#
# Total GULP energy -267248.101585 kJ/mol
# GULP energy per Si atom -5567.668783 kJ/mol
# Density = 1.996342 g / cm^3
# Si number density = 20.008966 Si / 1000 Ang^3
#
#
#
# Elastic Constant Matrix: (Units=GPa)
#
#
# Indices 1 2 3 4 5 6 
#
# 1 118.1509 19.4834 48.7344 0.0000 0.0000 0.0000
# 2 19.4834 68.0942 17.0181 0.0000 0.0000 0.0000
# 3 48.7344 17.0181 146.7871 0.0000 0.0000 0.0000
# 4 0.0000 0.0000 0.0000 33.6383 0.0000 0.0000
# 5 0.0000 0.0000 0.0000 0.0000 83.8218 0.0000
# 6 0.0000 0.0000 0.0000 0.0000 0.0000 22.4315
#
#
#
# Elastic Compliance Matrix: (Units=1/GPa)
#
#
# Indices 1 2 3 4 5 6 
#
# 1 0.010093 -0.002112 -0.003106 0.000000 0.000000 0.000000
# 2 -0.002112 0.015566 -0.001104 0.000000 0.000000 0.000000
# 3 -0.003106 -0.001104 0.007972 0.000000 0.000000 0.000000
# 4 0.000000 0.000000 0.000000 0.029728 0.000000 0.000000
# 5 0.000000 0.000000 0.000000 0.000000 0.011930 0.000000
# 6 0.000000 0.000000 0.000000 0.000000 0.000000 0.044580
#
#
# Mechanical properties :
#
#
# Convention : Reuss Voigt Hill
#
# Bulk Modulus (GPa) = 47.64673 55.94488 51.79581
# Shear Modulus (GPa) = 35.84037 44.49807 40.16922
#
# Velocity S-wave (km/s) = 4.23687 4.72095 4.48544
# Velocity P-wave (km/s) = 6.91369 7.59849 7.26416
#
# Compressibility (1/GPa) = 0.02098780
#
# Stress axis : x y z
#
# Youngs Moduli (GPa) = 99.07670 64.24461 125.44201
#
# Poissons Ratio (x) = 0.13566 0.38965
# Poissons Ratio (y) = 0.20921 0.13843
# Poissons Ratio (z) = 0.30775 0.07090
#
# Static dielectric constant tensor:
#      x y z
#    x 1.978130 0.000000 0.000000 
#    y 0.000000 2.228410 0.000000 
#    z 0.000000 0.000000 1.783510 
# 
# From -- ./inp_files/19917.got.cif
#   From: 2010.05.17/outbox.cif.g08.bks.cpg/sg58_10_cif.got.tgz:19917.got - 2010.06.03 14:20:14.
