data_PCOD9445863
_publ_section_title
;
Structure prediction by ZEFSAII (Michael W. Deem and Ramdas Pophale) SiO2 
 PCOD9445863
Probable space group: P N N M
;
_chemical_formula_sum "Si O2"
_cell_formula_units_Z 40
_cell_length_a 7.816446
_cell_length_b 24.196720
_cell_length_c 7.401229
_cell_angle_alpha 90.000000
_cell_angle_beta 90.000000
_cell_angle_gamma 90.000000
_cell_volume 1399.811873
_symmetry_space_group_name_H-M "P N N M"
_symmetry_group_IT_number 58
_symmetry_cell_setting 'orthorhombic'
loop_
_space_group_symop_operation_xyz
x,y,z
-x,-y,z
1/2+x,1/2-y,1/2-z
1/2-x,1/2+y,1/2-z
-x,-y,-z
x,y,-z
1/2-x,1/2+y,1/2+z
1/2+x,1/2-y,1/2+z
loop_
_atom_site_type_symbol
_atom_site_label
_atom_site_fract_x
_atom_site_fract_y
_atom_site_fract_z
Si Si1 0.599075 0.161496 0.289525
Si Si2 0.607726 0.939729 0.711117
Si Si3 0.836333 0.033798 0.715795
Si Si4 0.263251 0.233013 0.220303
Si Si5 0.444063 0.631911 0.285786
O O1 0.640052 0.151930 0.500000
O O2 0.527311 0.104182 0.208331
O O3 0.429979 0.200985 0.285570
O O4 0.736044 0.204698 0.210478
O O5 0.560410 0.944769 0.500000
O O6 0.788167 0.906175 0.714493
O O7 0.669756 0.000020 0.780650
O O8 0.833995 0.026913 0.500000
O O9 0.882590 0.097937 0.745543
O O10 0.000000 0.000000 0.789582
O O11 0.105354 0.193020 0.279032
O O12 0.266801 0.234801 0.000000
O O13 0.428648 0.632463 0.500000
#
# Coordination Sequence:
#
# PCOD9445863 Si02
#       5
#     8   8   8   8   8
#     4   9  17  30  46  62  84 114 142 171 210 249
#     4   8  14  24  37  53  75 104 134 163 199 242
#     4   8  13  21  33  51  75 101 130 162 197 241
#     4   9  18  30  43  63  88 111 140 175 207 246
#     4   9  15  22  34  54  80 105 128 161 203 242
#
# _framework density 28.57527
#
# number of rings (size 3 to 8) (size 9 to 14) (size 15 to 20)
#    0.000    3.400    0.000    1.800    0.000    5.200 
#    0.000    0.000    0.000    0.000    0.000    1.400 
#    0.000   11.200    0.000    0.000    0.000    0.000 
#
# Total GULP energy -223694.632514 kJ/mol
# GULP energy per Si atom -5592.365813 kJ/mol
# Density = 2.851023 g / cm^3
# Si number density = 28.575270 Si / 1000 Ang^3
#
#
#
# Elastic Constant Matrix: (Units=GPa)
#
#
# Indices 1 2 3 4 5 6 
#
# 1 112.8442 9.6209 -3.8856 0.0000 0.0000 0.0000
# 2 9.6209 254.8636 10.9031 0.0000 0.0000 0.0000
# 3 -3.8856 10.9031 129.2769 0.0000 0.0000 0.0000
# 4 0.0000 0.0000 0.0000 18.1567 0.0000 0.0000
# 5 0.0000 0.0000 0.0000 0.0000 19.2291 0.0000
# 6 0.0000 0.0000 0.0000 0.0000 0.0000 64.2977
#
#
#
# Elastic Compliance Matrix: (Units=1/GPa)
#
#
# Indices 1 2 3 4 5 6 
#
# 1 0.008902 -0.000349 0.000297 0.000000 0.000000 0.000000
# 2 -0.000349 0.003952 -0.000344 0.000000 0.000000 0.000000
# 3 0.000297 -0.000344 0.007773 0.000000 0.000000 0.000000
# 4 0.000000 0.000000 0.000000 0.055076 0.000000 0.000000
# 5 0.000000 0.000000 0.000000 0.000000 0.052005 0.000000
# 6 0.000000 0.000000 0.000000 0.000000 0.000000 0.015553
#
#
# Mechanical properties :
#
#
# Convention : Reuss Voigt Hill
#
# Bulk Modulus (GPa) = 50.41472 58.91796 54.66634
# Shear Modulus (GPa) = 33.18672 52.35979 42.77326
#
# Velocity S-wave (km/s) = 3.41160 4.28524 3.87313
# Velocity P-wave (km/s) = 5.76192 6.71920 6.25889
#
# Compressibility (1/GPa) = 0.01983548
#
# Stress axis : x y z
#
# Youngs Moduli (GPa) = 112.33766 253.06607 128.64633
#
# Poissons Ratio (x) = 0.08825 -0.03820
# Poissons Ratio (y) = 0.03918 0.04422
# Poissons Ratio (z) = -0.03336 0.08699
#
# Static dielectric constant tensor:
#      x y z
#    x 2.334000 0.000000 0.000000 
#    y 0.000000 2.267720 0.000000 
#    z 0.000000 0.000000 2.052230 
# 
# From -- ./inp_files/2616.got.cif
#   From: 2010.05.17/outbox.cif.g08.bks.cpg/sg58_2_cif.got.tgz:2616.got - 2010.06.03 14:20:14.
