data_PCOD9445719
_publ_section_title
;
Structure prediction by ZEFSAII (Michael W. Deem and Ramdas Pophale) SiO2 
 PCOD9445719
Probable space group: P N N M
;
_chemical_formula_sum "Si O2"
_cell_formula_units_Z 40
_cell_length_a 16.065652
_cell_length_b 7.586260
_cell_length_c 15.990343
_cell_angle_alpha 90.000000
_cell_angle_beta 90.000000
_cell_angle_gamma 90.000000
_cell_volume 1948.874432
_symmetry_space_group_name_H-M "P N N M"
_symmetry_group_IT_number 58
_symmetry_cell_setting 'orthorhombic'
loop_
_space_group_symop_operation_xyz
x,y,z
-x,-y,z
1/2+x,1/2-y,1/2-z
1/2-x,1/2+y,1/2-z
-x,-y,-z
x,y,-z
1/2-x,1/2+y,1/2+z
1/2+x,1/2-y,1/2+z
loop_
_atom_site_type_symbol
_atom_site_label
_atom_site_fract_x
_atom_site_fract_y
_atom_site_fract_z
Si Si1 0.249046 0.042566 0.646962
Si Si2 0.165218 0.182678 0.190230
Si Si3 0.514002 0.793095 0.258655
Si Si4 0.868657 0.159581 0.093026
Si Si5 0.421770 0.368049 0.907961
O O1 0.307831 0.872013 0.655569
O O2 0.163140 0.975261 0.607150
O O3 0.229372 0.115673 0.739696
O O4 0.293486 0.200639 0.598682
O O5 0.075806 0.200065 0.235545
O O6 0.160162 0.035423 0.118842
O O7 0.567256 0.720327 0.335819
O O8 0.561392 0.754920 0.171920
O O9 0.500000 0.000000 0.267845
O O10 0.904612 0.161556 0.000000
O O11 0.500000 0.500000 0.908886
O O12 0.417700 0.281069 0.000000
#
# Coordination Sequence:
#
# PCOD9445719 Si02
#       5
#     8   8   8   8   8
#     4  12  23  45  72 104 137 178 231 287 343 411
#     4  12  24  43  74 100 136 187 226 283 349 409
#     4  12  24  46  70  98 139 184 232 283 343 411
#     4  12  27  46  72 105 141 182 230 285 345 412
#     4  11  23  42  69  99 136 179 226 282 342 406
#
# _framework density 20.524668999999999
#
# number of rings (size 3 to 8) (size 9 to 14) (size 15 to 20)
#    0.000    0.200    8.000    1.200    0.000    4.000 
#    0.000    0.000    0.000    0.000    0.000    0.000 
#    0.000    0.000    0.000    0.000    0.000    0.000 
#
# Total GULP energy -223793.495540 kJ/mol
# GULP energy per Si atom -5594.837388 kJ/mol
# Density = 2.047795 g / cm^3
# Si number density = 20.524669 Si / 1000 Ang^3
#
#
#
# Elastic Constant Matrix: (Units=GPa)
#
#
# Indices 1 2 3 4 5 6 
#
# 1 80.7837 24.7966 16.2711 0.0000 0.0000 0.0000
# 2 24.7966 110.6290 34.2455 0.0000 0.0000 0.0000
# 3 16.2711 34.2455 148.2175 0.0000 0.0000 0.0000
# 4 0.0000 0.0000 0.0000 1104.0777 0.0000 0.0000
# 5 0.0000 0.0000 0.0000 0.0000 -19.8264 0.0000
# 6 0.0000 0.0000 0.0000 0.0000 0.0000 34.2619
#
#
#
# Elastic Compliance Matrix: (Units=1/GPa)
#
#
# Indices 1 2 3 4 5 6 
#
# 1 0.013389 -0.002742 -0.000836 0.000000 0.000000 0.000000
# 2 -0.002742 0.010297 -0.002078 0.000000 0.000000 0.000000
# 3 -0.000836 -0.002078 0.007319 0.000000 0.000000 0.000000
# 4 0.000000 0.000000 0.000000 0.000906 0.000000 0.000000
# 5 0.000000 0.000000 0.000000 0.000000 -0.050438 0.000000
# 6 0.000000 0.000000 0.000000 0.000000 0.000000 0.029187
#
#
# Mechanical properties :
#
#
# Convention : Reuss Voigt Hill
#
# Bulk Modulus (GPa) = 50.78256 54.47295 52.62776
# Shear Modulus (GPa) = 175.21336 241.32377 208.26856
#
# Velocity S-wave (km/s) = 9.24946 10.85508 10.08427
# Velocity P-wave (km/s) = 11.78414 13.55390 12.69988
#
# Compressibility (1/GPa) = 0.01969180
#
# Stress axis : x y z
#
# Youngs Moduli (GPa) = 74.68889 97.11442 136.63469
#
# Poissons Ratio (x) = 0.26630 0.11426
# Poissons Ratio (y) = 0.20481 0.28394
# Poissons Ratio (z) = 0.06246 0.20181
#
# Static dielectric constant tensor:
#      x y z
#    x 1.736150 0.000000 0.000000 
#    y 0.000000 1.700570 0.000000 
#    z 0.000000 0.000000 1.739660 
# 
# From -- ./inp_files/21891.got.cif
#   From: 2010.05.17/outbox.cif.g08.bks.cpg/sg58_11_cif.got.tgz:21891.got - 2010.06.03 14:20:14.
