data_PCOD9445321
_publ_section_title
;
Structure prediction by ZEFSAII (Michael W. Deem and Ramdas Pophale) SiO2 
 PCOD9445321
Probable space group: P N N M
;
_chemical_formula_sum "Si O2"
_cell_formula_units_Z 34
_cell_length_a 20.422636
_cell_length_b 9.569010
_cell_length_c 7.583711
_cell_angle_alpha 90.000000
_cell_angle_beta 90.000000
_cell_angle_gamma 90.000000
_cell_volume 1482.042233
_symmetry_space_group_name_H-M "P N N M"
_symmetry_group_IT_number 58
_symmetry_cell_setting 'orthorhombic'
loop_
_space_group_symop_operation_xyz
x,y,z
-x,-y,z
1/2+x,1/2-y,1/2-z
1/2-x,1/2+y,1/2-z
-x,-y,-z
x,y,-z
1/2-x,1/2+y,1/2+z
1/2+x,1/2-y,1/2+z
loop_
_atom_site_type_symbol
_atom_site_label
_atom_site_fract_x
_atom_site_fract_y
_atom_site_fract_z
Si Si1 0.166864 0.208913 0.211531
Si Si2 0.217261 0.519734 0.289630
Si Si3 0.080047 0.604739 0.796282
Si Si4 0.519771 0.345816 0.714510
Si Si5 0.000000 0.500000 0.500000
O O1 0.199726 0.359928 0.243923
O O2 0.214691 0.085332 0.276165
O O3 0.092510 0.192355 0.277410
O O4 0.161869 0.195818 0.000000
O O5 0.217930 0.529856 0.500000
O O6 0.157622 0.615184 0.220046
O O7 0.037746 0.738329 0.735683
O O8 0.056071 0.491619 0.656430
O O9 0.065411 0.570989 0.000000
O O10 0.500000 0.500000 0.772196
O O11 0.520201 0.343744 0.500000
#
# Coordination Sequence:
#
# PCOD9445321 Si02
#       5
#     8   8   8   8   2
#     4  10  23  42  66  96 133 179 227 280 341 409
#     4  11  24  42  67  99 140 178 227 285 341 413
#     4  11  23  40  70  98 134 179 223 284 343 402
#     4   9  20  40  68  99 131 174 228 281 343 406
#     4  12  22  40  66  98 136 164 232 280 330 406
#
# _framework density 22.941313999999998
#
# number of rings (size 3 to 8) (size 9 to 14) (size 15 to 20)
#    0.000    1.647    1.176    2.471    3.294    3.765 
#    0.000    0.588    0.000    0.000    0.000    0.000 
#    0.000    0.000    0.000    0.000    0.000    0.000 
#
# Total GULP energy -189498.220572 kJ/mol
# GULP energy per Si atom -5573.477076 kJ/mol
# Density = 2.288910 g / cm^3
# Si number density = 22.941314 Si / 1000 Ang^3
#
#
#
# Elastic Constant Matrix: (Units=GPa)
#
#
# Indices 1 2 3 4 5 6 
#
# 1 130.0012 76.1114 6.1650 0.0000 0.0000 0.0000
# 2 76.1114 142.0195 -5.8304 0.0000 0.0000 0.0000
# 3 6.1650 -5.8304 91.9207 0.0000 0.0000 0.0000
# 4 0.0000 0.0000 0.0000 10.6484 0.0000 0.0000
# 5 0.0000 0.0000 0.0000 0.0000 24.8663 0.0000
# 6 0.0000 0.0000 0.0000 0.0000 0.0000 41.1525
#
#
#
# Elastic Compliance Matrix: (Units=1/GPa)
#
#
# Indices 1 2 3 4 5 6 
#
# 1 0.011329 -0.006119 -0.001148 0.000000 0.000000 0.000000
# 2 -0.006119 0.010364 0.001068 0.000000 0.000000 0.000000
# 3 -0.001148 0.001068 0.011024 0.000000 0.000000 0.000000
# 4 0.000000 0.000000 0.000000 0.093911 0.000000 0.000000
# 5 0.000000 0.000000 0.000000 0.000000 0.040215 0.000000
# 6 0.000000 0.000000 0.000000 0.000000 0.000000 0.024300
#
#
# Mechanical properties :
#
#
# Convention : Reuss Voigt Hill
#
# Bulk Modulus (GPa) = 49.21417 57.42592 53.32005
# Shear Modulus (GPa) = 23.77409 34.49980 29.13695
#
# Velocity S-wave (km/s) = 3.22265 3.88213 3.56766
# Velocity P-wave (km/s) = 5.94526 6.72165 6.34534
#
# Compressibility (1/GPa) = 0.02031935
#
# Stress axis : x y z
#
# Youngs Moduli (GPa) = 88.27018 96.48633 90.71403
#
# Poissons Ratio (x) = 0.59035 0.10413
# Poissons Ratio (y) = 0.54008 -0.09686
# Poissons Ratio (z) = 0.10132 -0.10302
#
# Static dielectric constant tensor:
#      x y z
#    x 1.921580 0.000000 0.000000 
#    y 0.000000 1.925020 0.000000 
#    z 0.000000 0.000000 1.860330 
# 
# From -- ./inp_files/2264.got.cif
#   From: 2010.05.17/outbox.cif.g08.bks.cpg/sg58_2_cif.got.tgz:2264.got - 2010.06.03 14:20:14.
