data_PCOD9445055
_publ_section_title
;
Structure prediction by ZEFSAII (Michael W. Deem and Ramdas Pophale) SiO2 
 PCOD9445055
Probable space group: P N N M
;
_chemical_formula_sum "Si O2"
_cell_formula_units_Z 64
_cell_length_a 24.139761
_cell_length_b 15.734545
_cell_length_c 8.911461
_cell_angle_alpha 90.000000
_cell_angle_beta 90.000000
_cell_angle_gamma 90.000000
_cell_volume 3384.823797
_symmetry_space_group_name_H-M "P N N M"
_symmetry_group_IT_number 58
_symmetry_cell_setting 'orthorhombic'
loop_
_space_group_symop_operation_xyz
x,y,z
-x,-y,z
1/2+x,1/2-y,1/2-z
1/2-x,1/2+y,1/2-z
-x,-y,-z
x,y,-z
1/2-x,1/2+y,1/2+z
1/2+x,1/2-y,1/2+z
loop_
_atom_site_type_symbol
_atom_site_label
_atom_site_fract_x
_atom_site_fract_y
_atom_site_fract_z
Si Si1 0.369133 0.166197 0.179198
Si Si2 0.434824 0.995486 0.820419
Si Si3 0.365140 0.343120 0.321628
Si Si4 0.370269 0.838702 0.321434
Si Si5 0.935302 0.005313 0.320069
Si Si6 0.364019 0.661871 0.820797
Si Si7 0.747848 0.593671 0.179563
Si Si8 0.752218 0.905954 0.179430
O O1 0.405433 0.084136 0.220669
O O2 0.385056 0.251333 0.265167
O O3 0.305128 0.142543 0.210198
O O4 0.374719 0.180092 0.000000
O O5 0.500000 0.000000 0.789457
O O6 0.406168 0.917377 0.737052
O O7 0.427058 0.984024 0.000000
O O8 0.361619 0.345940 0.500000
O O9 0.404619 0.417824 0.261981
O O10 0.304574 0.359543 0.250858
O O11 0.375739 0.829853 0.500000
O O12 0.385805 0.751140 0.240937
O O13 0.305839 0.860110 0.287755
O O14 0.930708 0.018762 0.500000
O O15 0.904204 0.917099 0.284797
O O16 0.000000 0.000000 0.281487
O O17 0.304945 0.642635 0.745086
O O18 0.357701 0.665727 0.000000
O O19 0.750077 0.498845 0.246249
O O20 0.740721 0.589471 0.000000
O O21 0.757745 0.914753 0.000000
#
# Coordination Sequence:
#
# PCOD9445055 Si02
#       8
#     8   8   8   8   8   8   8   8
#     4  10  22  40  62  89 124 162 199 247 303 364
#     4  10  22  42  66  90 119 161 211 256 303 365
#     4  12  25  39  62  93 124 160 201 253 305 361
#     4  11  24  40  62  91 126 162 200 253 307 362
#     4  10  23  44  66  87 117 161 209 255 305 364
#     4  11  23  39  63  91 122 161 202 249 302 368
#     4  11  22  38  61  89 123 163 199 241 303 370
#     4  11  21  36  62  93 124 158 196 249 308 360
#
# _framework density 18.907927000000001
#
# number of rings (size 3 to 8) (size 9 to 14) (size 15 to 20)
#    0.000    1.250    2.500    3.375    0.000    8.000 
#    0.000    5.000    0.000    0.000    0.000    0.000 
#    0.000    0.000    0.000    0.000    0.000    0.000 
#
# Total GULP energy -357981.133549 kJ/mol
# GULP energy per Si atom -5593.455212 kJ/mol
# Density = 1.886489 g / cm^3
# Si number density = 18.907927 Si / 1000 Ang^3
#
#
#
# Elastic Constant Matrix: (Units=GPa)
#
#
# Indices 1 2 3 4 5 6 
#
# 1 119.5933 66.9173 62.5238 0.0000 0.0000 0.0000
# 2 66.9173 166.5889 70.4765 0.0000 0.0000 0.0000
# 3 62.5238 70.4765 64.6589 0.0000 0.0000 0.0000
# 4 0.0000 0.0000 0.0000 31.4533 0.0000 0.0000
# 5 0.0000 0.0000 0.0000 0.0000 12.1929 0.0000
# 6 0.0000 0.0000 0.0000 0.0000 0.0000 -4.4443
#
#
#
# Elastic Compliance Matrix: (Units=1/GPa)
#
#
# Indices 1 2 3 4 5 6 
#
# 1 0.016916 0.000232 -0.016610 0.000000 0.000000 0.000000
# 2 0.000232 0.011143 -0.012370 0.000000 0.000000 0.000000
# 3 -0.016610 -0.012370 0.045010 0.000000 0.000000 0.000000
# 4 0.000000 0.000000 0.000000 0.031793 0.000000 0.000000
# 5 0.000000 0.000000 0.000000 0.000000 0.082015 0.000000
# 6 0.000000 0.000000 0.000000 0.000000 0.000000 -0.225009
#
#
# Mechanical properties :
#
#
# Convention : Reuss Voigt Hill
#
# Bulk Modulus (GPa) = 64.21349 83.40846 73.81097
# Shear Modulus (GPa) = 203.63615 17.90195 110.76905
#
# Velocity S-wave (km/s) = 10.38906 3.08034 7.66228
# Velocity P-wave (km/s) = 13.33960 7.54056 10.83525
#
# Compressibility (1/GPa) = 0.01557305
#
# Stress axis : x y z
#
# Youngs Moduli (GPa) = 59.11725 89.74570 22.21734
#
# Poissons Ratio (x) = -0.02083 0.36903
# Poissons Ratio (y) = -0.01372 0.27482
# Poissons Ratio (z) = 0.98194 1.11012
#
# Static dielectric constant tensor:
#      x y z
#    x 1.635240 0.000000 0.000000 
#    y 0.000000 1.640260 0.000000 
#    z 0.000000 0.000000 1.629830 
# 
# From -- ./inp_files/10020.got.cif
#   From: 2010.05.17/outbox.cif.g08.bks.cpg/sg58_6_cif.got.tgz:10020.got - 2010.06.03 14:20:14.
