data_PCOD9445789
_publ_section_title
;
Structure prediction by ZEFSAII (Michael W. Deem and Ramdas Pophale) SiO2 
 PCOD9445789
Probable space group: P N N M
;
_chemical_formula_sum "Si O2"
_cell_formula_units_Z 32
_cell_length_a 7.859597
_cell_length_b 12.448524
_cell_length_c 14.264838
_cell_angle_alpha 90.000000
_cell_angle_beta 90.000000
_cell_angle_gamma 90.000000
_cell_volume 1395.677197
_symmetry_space_group_name_H-M "P N N M"
_symmetry_group_IT_number 58
_symmetry_cell_setting 'orthorhombic'
loop_
_space_group_symop_operation_xyz
x,y,z
-x,-y,z
1/2+x,1/2-y,1/2-z
1/2-x,1/2+y,1/2-z
-x,-y,-z
x,y,-z
1/2-x,1/2+y,1/2+z
1/2+x,1/2-y,1/2+z
loop_
_atom_site_type_symbol
_atom_site_label
_atom_site_fract_x
_atom_site_fract_y
_atom_site_fract_z
Si Si1 0.900008 0.271232 0.000000
Si Si2 0.495869 0.875244 0.688420
Si Si3 0.000000 0.000000 0.163141
Si Si4 0.477128 0.752357 0.000000
Si Si5 0.298051 0.594041 0.500000
Si Si6 0.896559 0.183519 0.307917
O O1 0.913578 0.344992 0.091438
O O2 0.718603 0.212180 0.000000
O O3 0.056673 0.187973 0.000000
O O4 0.300535 0.840616 0.678620
O O5 0.579538 0.802735 0.767915
O O6 0.500000 0.000000 0.709222
O O7 0.033119 0.898790 0.230352
O O8 0.843450 0.973925 0.093026
O O9 0.615562 0.848553 0.000000
O O10 0.510541 0.681800 0.907383
#
# Coordination Sequence:
#
# PCOD9445789 Si02
#       6
#     4   8   4   4   4   8
#     4  12  24  50  70 114 156 207 255 325 382 465
#     4  12  28  48  77 110 157 202 259 319 389 461
#     4  11  26  47  86 106 160 197 266 323 394 452
#     4  12  27  46  79 105 166 193 260 311 390 458
#     4  11  24  53  75 115 150 211 250 335 379 460
#     4  12  26  49  75 114 152 203 256 320 385 468
#
# _framework density 22.927938999999999
#
# number of rings (size 3 to 8) (size 9 to 14) (size 15 to 20)
#    0.000    0.250    5.000    1.875   10.500    0.500 
#    0.000    3.125    0.000    0.000    0.000    0.000 
#    0.000    0.000    0.000    0.000    0.000    0.000 
#
# Total GULP energy -179425.486645 kJ/mol
# GULP energy per Si atom -5607.046458 kJ/mol
# Density = 2.287575 g / cm^3
# Si number density = 22.927939 Si / 1000 Ang^3
#
#
#
# Elastic Constant Matrix: (Units=GPa)
#
#
# Indices 1 2 3 4 5 6 
#
# 1 126.1824 48.1749 36.9789 0.0000 0.0000 0.0000
# 2 48.1749 159.2811 68.1355 0.0000 0.0000 0.0000
# 3 36.9789 68.1355 182.6151 0.0000 0.0000 0.0000
# 4 0.0000 0.0000 0.0000 33.2644 0.0000 0.0000
# 5 0.0000 0.0000 0.0000 0.0000 18.9412 0.0000
# 6 0.0000 0.0000 0.0000 0.0000 0.0000 21.4792
#
#
#
# Elastic Compliance Matrix: (Units=1/GPa)
#
#
# Indices 1 2 3 4 5 6 
#
# 1 0.009102 -0.002338 -0.000971 0.000000 0.000000 0.000000
# 2 -0.002338 0.008071 -0.002538 0.000000 0.000000 0.000000
# 3 -0.000971 -0.002538 0.006620 0.000000 0.000000 0.000000
# 4 0.000000 0.000000 0.000000 0.030062 0.000000 0.000000
# 5 0.000000 0.000000 0.000000 0.000000 0.052795 0.000000
# 6 0.000000 0.000000 0.000000 0.000000 0.000000 0.046557
#
#
# Mechanical properties :
#
#
# Convention : Reuss Voigt Hill
#
# Bulk Modulus (GPa) = 82.64836 86.07302 84.36069
# Shear Modulus (GPa) = 29.59761 35.72290 32.66025
#
# Velocity S-wave (km/s) = 3.59680 3.95150 3.77832
# Velocity P-wave (km/s) = 7.30579 7.64469 7.47716
#
# Compressibility (1/GPa) = 0.01209945
#
# Stress axis : x y z
#
# Youngs Moduli (GPa) = 109.86542 123.90217 151.06756
#
# Poissons Ratio (x) = 0.28963 0.14668
# Poissons Ratio (y) = 0.25682 0.38341
# Poissons Ratio (z) = 0.10667 0.31446
#
# Static dielectric constant tensor:
#      x y z
#    x 1.844190 0.000000 0.000000 
#    y 0.000000 1.841230 0.000000 
#    z 0.000000 0.000000 1.839360 
# 
# From -- ./inp_files/19163.got.cif
#   From: 2010.05.17/outbox.cif.g08.bks.cpg/sg58_10_cif.got.tgz:19163.got - 2010.06.03 14:20:14.
