data_PCOD9445390
_publ_section_title
;
Structure prediction by ZEFSAII (Michael W. Deem and Ramdas Pophale) SiO2 
 PCOD9445390
Probable space group: P N N M
;
_chemical_formula_sum "Si O2"
_cell_formula_units_Z 64
_cell_length_a 10.253110
_cell_length_b 11.130629
_cell_length_c 28.632532
_cell_angle_alpha 90.000000
_cell_angle_beta 90.000000
_cell_angle_gamma 90.000000
_cell_volume 3267.646584
_symmetry_space_group_name_H-M "P N N M"
_symmetry_group_IT_number 58
_symmetry_cell_setting 'orthorhombic'
loop_
_space_group_symop_operation_xyz
x,y,z
-x,-y,z
1/2+x,1/2-y,1/2-z
1/2-x,1/2+y,1/2-z
-x,-y,-z
x,y,-z
1/2-x,1/2+y,1/2+z
1/2+x,1/2-y,1/2+z
loop_
_atom_site_type_symbol
_atom_site_label
_atom_site_fract_x
_atom_site_fract_y
_atom_site_fract_z
Si Si1 0.147242 0.493307 0.101716
Si Si2 0.618892 0.157312 0.781366
Si Si3 0.820606 0.241600 0.858927
Si Si4 0.886759 0.726904 0.173691
Si Si5 0.911883 0.360957 0.576625
Si Si6 0.109383 0.910036 0.554165
Si Si7 0.358672 0.109024 0.180646
Si Si8 0.709954 0.093938 0.051817
O O1 0.184065 0.619898 0.125037
O O2 0.147055 0.384248 0.139278
O O3 0.251310 0.469079 0.061846
O O4 0.000000 0.500000 0.083763
O O5 0.719579 0.222037 0.816328
O O6 0.626364 0.180787 0.726671
O O7 0.468823 0.188311 0.794147
O O8 0.644526 0.016725 0.792422
O O9 0.780913 0.156600 0.903616
O O10 0.969263 0.225843 0.840542
O O11 0.780559 0.832081 0.172427
O O12 0.883302 0.220622 0.576594
O O13 0.915625 0.405406 0.629282
O O14 0.802782 0.448366 0.554498
O O15 0.055971 0.372421 0.554919
O O16 0.078376 0.890715 0.500000
O O17 0.000000 0.000000 0.574118
O O18 0.759784 0.128906 0.000000
#
# Coordination Sequence:
#
# PCOD9445390 Si02
#       8
#     8   8   8   8   8   8   8   8
#     4  10  24  41  60  86 122 170 207 254 317 382
#     4  11  23  41  66  94 122 168 214 256 315 389
#     4  11  23  42  63  95 130 167 215 268 321 382
#     4  11  25  41  65  91 130 169 209 263 322 383
#     4  11  19  40  63  99 131 163 214 270 329 379
#     4  11  23  39  63  94 126 163 212 269 317 371
#     4  11  22  41  67  93 128 165 206 267 320 383
#     4  11  21  38  67  97 128 170 218 268 326 387
#
# _framework density 19.585963
#
# number of rings (size 3 to 8) (size 9 to 14) (size 15 to 20)
#    0.000    1.125    3.750    3.750    7.000    2.250 
#    0.000    1.875    0.000    0.750    0.000    0.000 
#    0.000    0.000    0.000    0.000    0.000    0.000 
#
# Total GULP energy -356890.837206 kJ/mol
# GULP energy per Si atom -5576.419331 kJ/mol
# Density = 1.954138 g / cm^3
# Si number density = 19.585963 Si / 1000 Ang^3
#
#
#
# Elastic Constant Matrix: (Units=GPa)
#
#
# Indices 1 2 3 4 5 6 
#
# 1 96.5301 61.0246 16.7153 0.0000 0.0000 0.0000
# 2 61.0246 93.3369 18.8955 0.0000 0.0000 0.0000
# 3 16.7153 18.8955 94.0982 0.0000 0.0000 0.0000
# 4 0.0000 0.0000 0.0000 8.8967 0.0000 0.0000
# 5 0.0000 0.0000 0.0000 0.0000 19.4910 0.0000
# 6 0.0000 0.0000 0.0000 0.0000 0.0000 29.4954
#
#
#
# Elastic Compliance Matrix: (Units=1/GPa)
#
#
# Indices 1 2 3 4 5 6 
#
# 1 0.017724 -0.011415 -0.000856 0.000000 0.000000 0.000000
# 2 -0.011415 0.018519 -0.001691 0.000000 0.000000 0.000000
# 3 -0.000856 -0.001691 0.011119 0.000000 0.000000 0.000000
# 4 0.000000 0.000000 0.000000 0.112401 0.000000 0.000000
# 5 0.000000 0.000000 0.000000 0.000000 0.051306 0.000000
# 6 0.000000 0.000000 0.000000 0.000000 0.000000 0.033904
#
#
# Mechanical properties :
#
#
# Convention : Reuss Voigt Hill
#
# Bulk Modulus (GPa) = 51.44596 53.02624 52.23610
# Shear Modulus (GPa) = 17.89704 24.06527 20.98115
#
# Velocity S-wave (km/s) = 3.02614 3.50908 3.27652
# Velocity P-wave (km/s) = 6.20756 6.59929 6.40642
#
# Compressibility (1/GPa) = 0.01943787
#
# Stress axis : x y z
#
# Youngs Moduli (GPa) = 56.42091 53.99774 89.93702
#
# Poissons Ratio (x) = 0.61637 0.07701
# Poissons Ratio (y) = 0.64403 0.15209
# Poissons Ratio (z) = 0.04831 0.09132
#
# Static dielectric constant tensor:
#      x y z
#    x 1.735920 0.000000 0.000000 
#    y 0.000000 1.758750 0.000000 
#    z 0.000000 0.000000 1.749160 
# 
# From -- ./inp_files/34779.got.cif
#   From: 2010.05.17/outbox.cif.g08.bks.cpg/sg58_18_cif.got.tgz:34779.got - 2010.06.03 14:20:14.
