data_PCOD9445213
_publ_section_title
;
Structure prediction by ZEFSAII (Michael W. Deem and Ramdas Pophale) SiO2 
 PCOD9445213
Probable space group: P N N M
;
_chemical_formula_sum "Si O2"
_cell_formula_units_Z 60
_cell_length_a 12.652223
_cell_length_b 20.678868
_cell_length_c 11.956558
_cell_angle_alpha 90.000000
_cell_angle_beta 90.000000
_cell_angle_gamma 90.000000
_cell_volume 3128.237903
_symmetry_space_group_name_H-M "P N N M"
_symmetry_group_IT_number 58
_symmetry_cell_setting 'orthorhombic'
loop_
_space_group_symop_operation_xyz
x,y,z
-x,-y,z
1/2+x,1/2-y,1/2-z
1/2-x,1/2+y,1/2-z
-x,-y,-z
x,y,-z
1/2-x,1/2+y,1/2+z
1/2+x,1/2-y,1/2+z
loop_
_atom_site_type_symbol
_atom_site_label
_atom_site_fract_x
_atom_site_fract_y
_atom_site_fract_z
Si Si1 0.785010 0.215433 0.622115
Si Si2 0.821257 0.844250 0.370628
Si Si3 0.902723 0.316587 0.754918
Si Si4 0.125638 0.004581 0.371589
Si Si5 0.934196 0.783069 0.167967
Si Si6 0.065565 0.869605 0.000000
Si Si7 0.466825 0.925545 0.131953
Si Si8 0.724822 0.597824 0.704351
O O1 0.804657 0.186607 0.500000
O O2 0.871030 0.268983 0.653891
O O3 0.674303 0.253569 0.622381
O O4 0.781539 0.162014 0.718895
O O5 0.828472 0.824231 0.500000
O O6 0.704562 0.830616 0.322324
O O7 0.904713 0.807518 0.292206
O O8 0.842162 0.920617 0.362315
O O9 0.959422 0.379398 0.706391
O O10 0.981726 0.274826 0.830350
O O11 0.147314 0.983726 0.500000
O O12 0.185451 0.960940 0.281944
O O13 0.000000 0.000000 0.353164
O O14 0.983897 0.840671 0.096749
O O15 0.148570 0.893154 0.901425
O O16 0.345143 0.913736 0.165787
O O17 0.500000 0.000000 0.149232
O O18 0.479877 0.910875 0.000000
#
# Coordination Sequence:
#
# PCOD9445213 Si02
#       8
#     8   8   8   8   8   4   8   8
#     4  11  23  39  63  95 130 170 217 270 330 390
#     4  10  24  43  67  98 131 172 221 270 333 398
#     4  11  23  41  64  97 129 173 216 271 327 392
#     4  10  22  43  67  94 130 170 220 278 330 393
#     4  11  23  40  63  92 133 172 211 274 327 387
#     4  12  24  42  64  96 135 168 225 272 329 394
#     4  11  24  43  66  93 132 176 220 271 329 396
#     4  12  23  41  68  95 128 176 223 267 333 406
#
# _framework density 19.180126999999999
#
# number of rings (size 3 to 8) (size 9 to 14) (size 15 to 20)
#    0.000    1.067    4.000    2.400    0.933    1.067 
#    0.000    3.000    0.000    2.800    0.000    0.000 
#    0.000    0.000    0.000    0.000    0.000    0.000 
#
# Total GULP energy -334229.479196 kJ/mol
# GULP energy per Si atom -5570.491320 kJ/mol
# Density = 1.913647 g / cm^3
# Si number density = 19.180127 Si / 1000 Ang^3
#
#
#
# Elastic Constant Matrix: (Units=GPa)
#
#
# Indices 1 2 3 4 5 6 
#
# 1 64.0040 16.3183 24.1405 0.0000 0.0000 0.0000
# 2 16.3183 51.2053 28.9497 0.0000 0.0000 0.0000
# 3 24.1405 28.9497 129.2933 0.0000 0.0000 0.0000
# 4 0.0000 0.0000 0.0000 8.9956 0.0000 0.0000
# 5 0.0000 0.0000 0.0000 0.0000 19.5069 0.0000
# 6 0.0000 0.0000 0.0000 0.0000 0.0000 29.2757
#
#
#
# Elastic Compliance Matrix: (Units=1/GPa)
#
#
# Indices 1 2 3 4 5 6 
#
# 1 0.017595 -0.004293 -0.002324 0.000000 0.000000 0.000000
# 2 -0.004293 0.023407 -0.004439 0.000000 0.000000 0.000000
# 3 -0.002324 -0.004439 0.009162 0.000000 0.000000 0.000000
# 4 0.000000 0.000000 0.000000 0.111166 0.000000 0.000000
# 5 0.000000 0.000000 0.000000 0.000000 0.051264 0.000000
# 6 0.000000 0.000000 0.000000 0.000000 0.000000 0.034158
#
#
# Mechanical properties :
#
#
# Convention : Reuss Voigt Hill
#
# Bulk Modulus (GPa) = 35.64901 42.59107 39.12004
# Shear Modulus (GPa) = 17.97161 23.22857 20.60009
#
# Velocity S-wave (km/s) = 3.06435 3.48383 3.28080
# Velocity P-wave (km/s) = 5.58096 6.19974 5.89847
#
# Compressibility (1/GPa) = 0.02805127
#
# Stress axis : x y z
#
# Youngs Moduli (GPa) = 56.83379 42.72152 109.14317
#
# Poissons Ratio (x) = 0.18342 0.25364
# Poissons Ratio (y) = 0.24401 0.48454
# Poissons Ratio (z) = 0.13208 0.18966
#
# Static dielectric constant tensor:
#      x y z
#    x 1.673310 0.000000 0.000000 
#    y 0.000000 1.652360 0.000000 
#    z 0.000000 0.000000 1.683620 
# 
# From -- ./inp_files/14645.got.cif
#   From: 2010.05.17/outbox.cif.g08.bks.cpg/sg58_8_cif.got.tgz:14645.got - 2010.06.03 14:20:14.
