data_PCOD9445851
_publ_section_title
;
Structure prediction by ZEFSAII (Michael W. Deem and Ramdas Pophale) SiO2 
 PCOD9445851
Probable space group: P N N M
;
_chemical_formula_sum "Si O2"
_cell_formula_units_Z 26
_cell_length_a 4.864014
_cell_length_b 25.964502
_cell_length_c 9.058980
_cell_angle_alpha 90.000000
_cell_angle_beta 90.000000
_cell_angle_gamma 90.000000
_cell_volume 1144.073996
_symmetry_space_group_name_H-M "P N N M"
_symmetry_group_IT_number 58
_symmetry_cell_setting 'orthorhombic'
loop_
_space_group_symop_operation_xyz
x,y,z
-x,-y,z
1/2+x,1/2-y,1/2-z
1/2-x,1/2+y,1/2-z
-x,-y,-z
x,y,-z
1/2-x,1/2+y,1/2+z
1/2+x,1/2-y,1/2+z
loop_
_atom_site_type_symbol
_atom_site_label
_atom_site_fract_x
_atom_site_fract_y
_atom_site_fract_z
Si Si1 0.343097 0.617569 0.832122
Si Si2 0.000000 0.000000 0.000000
Si Si3 0.844573 0.776605 0.177688
Si Si4 0.847574 0.548298 0.769091
O O1 0.426207 0.667185 0.737564
O O2 0.597953 0.578675 0.842848
O O3 0.091621 0.589540 0.749631
O O4 0.259317 0.631767 0.000000
O O5 0.204552 0.975836 0.873297
O O6 0.546285 0.764076 0.244328
O O7 0.850752 0.773370 0.000000
O O8 0.000000 0.500000 0.844492
#
# Coordination Sequence:
#
# PCOD9445851 Si02
#       4
#     8   2   8   8
#     4  12  27  46  74 108 146 190 244 303 370 442
#     4  12  26  48  68 104 150 196 244 312 346 452
#     4  12  27  50  79 109 148 191 244 307 374 442
#     4  12  26  45  72 101 148 192 245 296 363 428
#
# _framework density 22.725804
#
# number of rings (size 3 to 8) (size 9 to 14) (size 15 to 20)
#    0.000    0.000    3.077    6.000    4.308    3.692 
#    0.000    0.000    0.000    0.000    0.000    0.000 
#    0.000    0.000    0.000    0.000    0.000    0.000 
#
# Total GULP energy -144864.108462 kJ/mol
# GULP energy per Si atom -5571.696479 kJ/mol
# Density = 2.267408 g / cm^3
# Si number density = 22.725804 Si / 1000 Ang^3
#
#
#
# Elastic Constant Matrix: (Units=GPa)
#
#
# Indices 1 2 3 4 5 6 
#
# 1 119.7747 31.4061 35.1911 0.0000 0.0000 0.0000
# 2 31.4061 85.0580 72.8125 0.0000 0.0000 0.0000
# 3 35.1911 72.8125 195.4019 0.0000 0.0000 0.0000
# 4 0.0000 0.0000 0.0000 72.2064 0.0000 0.0000
# 5 0.0000 0.0000 0.0000 0.0000 3.2152 0.0000
# 6 0.0000 0.0000 0.0000 0.0000 0.0000 50.2648
#
#
#
# Elastic Compliance Matrix: (Units=1/GPa)
#
#
# Indices 1 2 3 4 5 6 
#
# 1 0.009288 -0.002933 -0.000580 0.000000 0.000000 0.000000
# 2 -0.002933 0.018190 -0.006250 0.000000 0.000000 0.000000
# 3 -0.000580 -0.006250 0.007551 0.000000 0.000000 0.000000
# 4 0.000000 0.000000 0.000000 0.013849 0.000000 0.000000
# 5 0.000000 0.000000 0.000000 0.000000 0.311027 0.000000
# 6 0.000000 0.000000 0.000000 0.000000 0.000000 0.019895
#
#
# Mechanical properties :
#
#
# Convention : Reuss Voigt Hill
#
# Bulk Modulus (GPa) = 64.50162 75.45047 69.97604
# Shear Modulus (GPa) = 12.36115 42.52559 27.44337
#
# Velocity S-wave (km/s) = 2.33475 4.33048 3.47880
# Velocity P-wave (km/s) = 5.97597 7.63391 6.85525
#
# Compressibility (1/GPa) = 0.01550349
#
# Stress axis : x y z
#
# Youngs Moduli (GPa) = 107.66004 54.97595 132.43412
#
# Poissons Ratio (x) = 0.16126 0.07678
# Poissons Ratio (y) = 0.31580 0.82768
# Poissons Ratio (z) = 0.06242 0.34359
#
# Static dielectric constant tensor:
#      x y z
#    x 1.869200 0.000000 0.000000 
#    y 0.000000 1.889380 0.000000 
#    z 0.000000 0.000000 1.747820 
# 
# From -- ./inp_files/1249.got.cif
#   From: 2010.05.17/outbox.cif.g08.bks.cpg/sg58_1_cif.got.tgz:1249.got - 2010.06.03 14:20:14.
