data_PCOD9445299
_publ_section_title
;
Structure prediction by ZEFSAII (Michael W. Deem and Ramdas Pophale) SiO2 
 PCOD9445299
Probable space group: P N N M
;
_chemical_formula_sum "Si O2"
_cell_formula_units_Z 34
_cell_length_a 7.938659
_cell_length_b 9.229263
_cell_length_c 19.969838
_cell_angle_alpha 90.000000
_cell_angle_beta 90.000000
_cell_angle_gamma 90.000000
_cell_volume 1463.149527
_symmetry_space_group_name_H-M "P N N M"
_symmetry_group_IT_number 58
_symmetry_cell_setting 'orthorhombic'
loop_
_space_group_symop_operation_xyz
x,y,z
-x,-y,z
1/2+x,1/2-y,1/2-z
1/2-x,1/2+y,1/2-z
-x,-y,-z
x,y,-z
1/2-x,1/2+y,1/2+z
1/2+x,1/2-y,1/2+z
loop_
_atom_site_type_symbol
_atom_site_label
_atom_site_fract_x
_atom_site_fract_y
_atom_site_fract_z
Si Si1 0.023356 0.326128 0.920557
Si Si2 0.674005 0.343128 0.124044
Si Si3 0.000000 0.000000 0.500000
Si Si4 0.686558 0.535263 0.742719
Si Si5 0.172059 0.704939 0.332236
O O1 0.848353 0.262485 0.891876
O O2 0.000000 0.500000 0.908420
O O3 0.183485 0.256825 0.883629
O O4 0.039570 0.304741 0.000000
O O5 0.624756 0.434891 0.058549
O O6 0.697527 0.452727 0.185807
O O7 0.510312 0.247195 0.140304
O O8 0.500000 0.500000 0.717441
O O9 0.809474 0.459640 0.690936
O O10 0.705648 0.700466 0.764488
#
# Coordination Sequence:
#
# PCOD9445299 Si02
#       5
#     8   8   2   8   8
#     4  11  22  34  62  99 127 165 225 279 330 383
#     4  11  22  37  59  95 133 162 213 280 337 376
#     4  12  16  40  62  88 140 152 214 298 324 362
#     4  10  23  42  62  99 133 173 222 263 334 401
#     4  11  24  42  64  94 137 173 212 276 334 398
#
# _framework density 23.237542999999999
#
# number of rings (size 3 to 8) (size 9 to 14) (size 15 to 20)
#    0.000    1.176    7.059    0.000   11.529    0.000 
#    0.000    0.000    0.000    0.706    3.059    3.294 
#    0.000    0.000    0.000    0.000    0.000    0.000 
#
# Total GULP energy -189836.672943 kJ/mol
# GULP energy per Si atom -5583.431557 kJ/mol
# Density = 2.318465 g / cm^3
# Si number density = 23.237543 Si / 1000 Ang^3
#
#
#
# Elastic Constant Matrix: (Units=GPa)
#
#
# Indices 1 2 3 4 5 6 
#
# 1 169.4456 41.5424 52.0038 0.0000 0.0000 0.0000
# 2 41.5424 60.6013 37.8112 0.0000 0.0000 0.0000
# 3 52.0038 37.8112 91.5498 0.0000 0.0000 0.0000
# 4 0.0000 0.0000 0.0000 10.9186 0.0000 0.0000
# 5 0.0000 0.0000 0.0000 0.0000 29.2570 0.0000
# 6 0.0000 0.0000 0.0000 0.0000 0.0000 26.7456
#
#
#
# Elastic Compliance Matrix: (Units=1/GPa)
#
#
# Indices 1 2 3 4 5 6 
#
# 1 0.007636 -0.003406 -0.002931 0.000000 0.000000 0.000000
# 2 -0.003406 0.023749 -0.007874 0.000000 0.000000 0.000000
# 3 -0.002931 -0.007874 0.015840 0.000000 0.000000 0.000000
# 4 0.000000 0.000000 0.000000 0.091587 0.000000 0.000000
# 5 0.000000 0.000000 0.000000 0.000000 0.034180 0.000000
# 6 0.000000 0.000000 0.000000 0.000000 0.000000 0.037389
#
#
# Mechanical properties :
#
#
# Convention : Reuss Voigt Hill
#
# Bulk Modulus (GPa) = 53.18172 64.92348 59.05260
# Shear Modulus (GPa) = 20.40233 26.06686 23.23460
#
# Velocity S-wave (km/s) = 2.96630 3.35290 3.16551
# Velocity P-wave (km/s) = 5.88793 6.55659 6.23124
#
# Compressibility (1/GPa) = 0.01880345
#
# Stress axis : x y z
#
# Youngs Moduli (GPa) = 130.95640 42.10734 63.13166
#
# Poissons Ratio (x) = 0.14341 0.18504
# Poissons Ratio (y) = 0.44602 0.49709
# Poissons Ratio (z) = 0.38383 0.33155
#
# Static dielectric constant tensor:
#      x y z
#    x 1.955870 0.000000 0.000000 
#    y 0.000000 1.930200 0.000000 
#    z 0.000000 0.000000 1.807030 
# 
# From -- ./inp_files/28567.got.cif
#   From: 2010.05.17/outbox.cif.g08.bks.cpg/sg58_15_cif.got.tgz:28567.got - 2010.06.03 14:20:14.
