data_PCOD9445644
_publ_section_title
;
Structure prediction by ZEFSAII (Michael W. Deem and Ramdas Pophale) SiO2 
 PCOD9445644
Probable space group: P N N M
;
_chemical_formula_sum "Si O2"
_cell_formula_units_Z 34
_cell_length_a 9.257505
_cell_length_b 8.865476
_cell_length_c 21.254181
_cell_angle_alpha 90.000000
_cell_angle_beta 90.000000
_cell_angle_gamma 90.000000
_cell_volume 1744.377147
_symmetry_space_group_name_H-M "P N N M"
_symmetry_group_IT_number 58
_symmetry_cell_setting 'orthorhombic'
loop_
_space_group_symop_operation_xyz
x,y,z
-x,-y,z
1/2+x,1/2-y,1/2-z
1/2-x,1/2+y,1/2-z
-x,-y,-z
x,y,-z
1/2-x,1/2+y,1/2+z
1/2+x,1/2-y,1/2+z
loop_
_atom_site_type_symbol
_atom_site_label
_atom_site_fract_x
_atom_site_fract_y
_atom_site_fract_z
Si Si1 0.512020 0.183933 0.571364
Si Si2 0.811390 0.114033 0.382366
Si Si3 0.511517 0.168258 0.197002
Si Si4 0.810123 0.319204 0.182115
Si Si5 0.000000 0.000000 0.500000
O O1 0.493235 0.236549 0.500000
O O2 0.672166 0.212160 0.597595
O O3 0.390465 0.239413 0.619423
O O4 0.500000 0.000000 0.571120
O O5 0.930697 0.214405 0.348119
O O6 0.755203 0.982222 0.336226
O O7 0.880400 0.040598 0.444495
O O8 0.677293 0.216481 0.203216
O O9 0.428271 0.168670 0.263366
O O10 0.500000 0.000000 0.170526
#
# Coordination Sequence:
#
# PCOD9445644 Si02
#       5
#     8   8   8   8   2
#     4   9  18  33  61  89 114 149 207 263 300 357
#     4  11  22  40  67  94 124 167 214 262 315 381
#     4  12  24  39  59  92 128 162 208 261 325 382
#     4  11  22  39  62  90 122 166 209 260 317 386
#     4  12  20  40  72  96 122 170 232 260 310 396
#
# _framework density 19.491199000000002
#
# number of rings (size 3 to 8) (size 9 to 14) (size 15 to 20)
#    0.000    1.176    3.529    4.941    1.647    0.000 
#    0.000    4.118    0.000    1.412    0.000    0.000 
#    0.000    0.000    0.000    0.000    0.000    0.000 
#
# Total GULP energy -189475.103809 kJ/mol
# GULP energy per Si atom -5572.797171 kJ/mol
# Density = 1.944684 g / cm^3
# Si number density = 19.491199 Si / 1000 Ang^3
#
#
#
# Elastic Constant Matrix: (Units=GPa)
#
#
# Indices 1 2 3 4 5 6 
#
# 1 151.4492 32.7393 53.5175 0.0000 0.0000 0.0000
# 2 32.7393 33.8520 30.3159 0.0000 0.0000 0.0000
# 3 53.5175 30.3159 118.8532 0.0000 0.0000 0.0000
# 4 0.0000 0.0000 0.0000 8.1338 0.0000 0.0000
# 5 0.0000 0.0000 0.0000 0.0000 38.2173 0.0000
# 6 0.0000 0.0000 0.0000 0.0000 0.0000 23.0254
#
#
#
# Elastic Compliance Matrix: (Units=1/GPa)
#
#
# Indices 1 2 3 4 5 6 
#
# 1 0.008818 -0.006445 -0.002327 0.000000 0.000000 0.000000
# 2 -0.006445 0.042996 -0.008065 0.000000 0.000000 0.000000
# 3 -0.002327 -0.008065 0.011519 0.000000 0.000000 0.000000
# 4 0.000000 0.000000 0.000000 0.122943 0.000000 0.000000
# 5 0.000000 0.000000 0.000000 0.000000 0.026166 0.000000
# 6 0.000000 0.000000 0.000000 0.000000 0.000000 0.043430
#
#
# Mechanical properties :
#
#
# Convention : Reuss Voigt Hill
#
# Bulk Modulus (GPa) = 33.71591 59.69997 46.70794
# Shear Modulus (GPa) = 16.69830 26.38075 21.53952
#
# Velocity S-wave (km/s) = 2.93014 3.68294 3.32790
# Velocity P-wave (km/s) = 5.36499 6.98435 6.22753
#
# Compressibility (1/GPa) = 0.02965959
#
# Stress axis : x y z
#
# Youngs Moduli (GPa) = 113.40079 23.25816 86.81576
#
# Poissons Ratio (x) = 0.14989 0.20201
# Poissons Ratio (y) = 0.73082 0.70017
# Poissons Ratio (z) = 0.26387 0.18758
#
# Static dielectric constant tensor:
#      x y z
#    x 1.703390 0.000000 0.000000 
#    y 0.000000 1.694890 0.000000 
#    z 0.000000 0.000000 1.671440 
# 
# From -- ./inp_files/28525.got.cif
#   From: 2010.05.17/outbox.cif.g08.bks.cpg/sg58_15_cif.got.tgz:28525.got - 2010.06.03 14:20:14.
