data_PCOD9445548
_publ_section_title
;
Structure prediction by ZEFSAII (Michael W. Deem and Ramdas Pophale) SiO2 
 PCOD9445548
Probable space group: P N N M
;
_chemical_formula_sum "Si O2"
_cell_formula_units_Z 36
_cell_length_a 9.597871
_cell_length_b 13.515039
_cell_length_c 14.949067
_cell_angle_alpha 90.000000
_cell_angle_beta 90.000000
_cell_angle_gamma 90.000000
_cell_volume 1939.127209
_symmetry_space_group_name_H-M "P N N M"
_symmetry_group_IT_number 58
_symmetry_cell_setting 'orthorhombic'
loop_
_space_group_symop_operation_xyz
x,y,z
-x,-y,z
1/2+x,1/2-y,1/2-z
1/2-x,1/2+y,1/2-z
-x,-y,-z
x,y,-z
1/2-x,1/2+y,1/2+z
1/2+x,1/2-y,1/2+z
loop_
_atom_site_type_symbol
_atom_site_label
_atom_site_fract_x
_atom_site_fract_y
_atom_site_fract_z
Si Si1 0.947288 0.612001 0.000000
Si Si2 0.500797 0.618325 0.000000
Si Si3 0.830358 0.113772 0.840255
Si Si4 0.276062 0.315803 0.141419
Si Si5 0.774725 0.257615 0.000000
Si Si6 0.153636 0.106946 0.107925
O O1 0.850745 0.635084 0.914222
O O2 0.000000 0.500000 0.000000
O O3 0.077697 0.686031 0.000000
O O4 0.500000 0.500000 0.000000
O O5 0.585889 0.656837 0.913997
O O6 0.347217 0.662472 0.000000
O O7 0.787429 0.144741 0.741333
O O8 0.998102 0.119962 0.852924
O O9 0.792819 0.000160 0.861665
O O10 0.766899 0.187492 0.913451
O O11 0.247590 0.198524 0.138112
O O12 0.142255 0.107906 0.000000
#
# Coordination Sequence:
#
# PCOD9445548 Si02
#       6
#     4   4   8   8   4   8
#     4  11  23  44  65  90 134 176 225 272 329 388
#     4  11  27  42  62  94 139 173 215 273 341 383
#     4  11  23  38  71 100 126 171 226 268 327 397
#     4  11  24  43  65  98 131 176 218 281 325 390
#     4  12  22  41  68  96 125 177 226 266 320 404
#     4  11  20  46  69  93 133 180 218 264 337 399
#
# _framework density 18.565052999999999
#
# number of rings (size 3 to 8) (size 9 to 14) (size 15 to 20)
#    0.000    0.889    6.667    2.000    6.222    1.778 
#    0.000    2.222    0.000    0.000    0.000    0.000 
#    0.000    0.000    0.000    0.000    0.000    0.000 
#
# Total GULP energy -201288.284635 kJ/mol
# GULP energy per Si atom -5591.341240 kJ/mol
# Density = 1.852280 g / cm^3
# Si number density = 18.565053 Si / 1000 Ang^3
#
#
#
# Elastic Constant Matrix: (Units=GPa)
#
#
# Indices 1 2 3 4 5 6 
#
# 1 81.4322 43.2624 61.4034 0.0000 0.0000 0.0000
# 2 43.2624 157.6052 88.5324 0.0000 0.0000 0.0000
# 3 61.4034 88.5324 193.6558 0.0000 0.0000 0.0000
# 4 0.0000 0.0000 0.0000 31.5747 0.0000 0.0000
# 5 0.0000 0.0000 0.0000 0.0000 7.6885 0.0000
# 6 0.0000 0.0000 0.0000 0.0000 0.0000 36.4711
#
#
#
# Elastic Compliance Matrix: (Units=1/GPa)
#
#
# Indices 1 2 3 4 5 6 
#
# 1 0.016669 -0.002162 -0.004297 0.000000 0.000000 0.000000
# 2 -0.002162 0.008818 -0.003346 0.000000 0.000000 0.000000
# 3 -0.004297 -0.003346 0.008056 0.000000 0.000000 0.000000
# 4 0.000000 0.000000 0.000000 0.031671 0.000000 0.000000
# 5 0.000000 0.000000 0.000000 0.000000 0.130064 0.000000
# 6 0.000000 0.000000 0.000000 0.000000 0.000000 0.027419
#
#
# Mechanical properties :
#
#
# Convention : Reuss Voigt Hill
#
# Bulk Modulus (GPa) = 71.77002 91.00995 81.38998
# Shear Modulus (GPa) = 20.24702 31.11319 25.68011
#
# Velocity S-wave (km/s) = 3.30600 4.09822 3.72324
# Velocity P-wave (km/s) = 7.30174 8.45710 7.90057
#
# Compressibility (1/GPa) = 0.01393340
#
# Stress axis : x y z
#
# Youngs Moduli (GPa) = 59.99259 113.40717 124.13426
#
# Poissons Ratio (x) = 0.24516 0.53340
# Poissons Ratio (y) = 0.12969 0.41532
# Poissons Ratio (z) = 0.25778 0.37943
#
# Static dielectric constant tensor:
#      x y z
#    x 1.626710 0.000000 0.000000 
#    y 0.000000 1.633820 0.000000 
#    z 0.000000 0.000000 1.611150 
# 
# From -- ./inp_files/19413.got.cif
#   From: 2010.05.17/outbox.cif.g08.bks.cpg/sg58_10_cif.got.tgz:19413.got - 2010.06.03 14:20:14.
