data_PCOD9445307
_publ_section_title
;
Structure prediction by ZEFSAII (Michael W. Deem and Ramdas Pophale) SiO2 
 PCOD9445307
Probable space group: P N N M
;
_chemical_formula_sum "Si O2"
_cell_formula_units_Z 56
_cell_length_a 5.824000
_cell_length_b 13.357750
_cell_length_c 34.666540
_cell_angle_alpha 90.000000
_cell_angle_beta 90.000000
_cell_angle_gamma 90.000000
_cell_volume 2696.902061
_symmetry_space_group_name_H-M "P N N M"
_symmetry_group_IT_number 58
_symmetry_cell_setting 'orthorhombic'
loop_
_space_group_symop_operation_xyz
x,y,z
-x,-y,z
1/2+x,1/2-y,1/2-z
1/2-x,1/2+y,1/2-z
-x,-y,-z
x,y,-z
1/2-x,1/2+y,1/2+z
1/2+x,1/2-y,1/2+z
loop_
_atom_site_type_symbol
_atom_site_label
_atom_site_fract_x
_atom_site_fract_y
_atom_site_fract_z
Si Si1 0.192814 0.271039 0.331799
Si Si2 0.254921 0.943010 0.228938
Si Si3 0.356911 0.202555 0.544393
Si Si4 0.350151 0.590028 0.544015
Si Si5 0.471377 0.196935 0.092877
Si Si6 0.571395 0.154486 0.380527
Si Si7 0.158904 0.904813 0.313503
O O1 0.265935 0.347323 0.298958
O O2 0.388295 0.202500 0.351133
O O3 0.111314 0.332359 0.369478
O O4 0.993154 0.195979 0.317252
O O5 0.291220 0.905012 0.272999
O O6 0.500000 0.000000 0.219197
O O7 0.000000 0.000000 0.226536
O O8 0.344098 0.166815 0.500000
O O9 0.505588 0.305927 0.543815
O O10 0.462891 0.130950 0.577677
O O11 0.115517 0.235740 0.562879
O O12 0.500000 0.500000 0.559809
O O13 0.289720 0.566418 0.500000
O O14 0.128097 0.606612 0.569082
O O15 0.261505 0.262499 0.108905
O O16 0.701969 0.078007 0.353102
O O17 0.000000 0.000000 0.310344
#
# Coordination Sequence:
#
# PCOD9445307 Si02
#       7
#     8   8   8   8   8   8   8
#     4  10  23  42  64  90 130 173 216 271 330 392
#     4  11  28  46  67 103 138 179 229 271 336 405
#     4   9  17  32  54  81 113 158 210 261 321 395
#     4   9  17  29  46  73 111 155 208 264 314 376
#     4   9  18  35  50  81 111 163 210 259 322 388
#     4   9  20  37  61  87 126 160 220 258 338 386
#     4  10  24  40  69  97 125 164 218 276 336 404
#
# _framework density 20.764567
#
# number of rings (size 3 to 8) (size 9 to 14) (size 15 to 20)
#    0.000    2.429    0.000    0.429   10.000    1.143 
#    7.714    2.143    0.000    0.429    0.000    9.000 
#    0.000    0.000    0.000    0.000    0.000    0.000 
#
# Total GULP energy -311881.381670 kJ/mol
# GULP energy per Si atom -5569.310387 kJ/mol
# Density = 2.071731 g / cm^3
# Si number density = 20.764567 Si / 1000 Ang^3
#
#
#
# Elastic Constant Matrix: (Units=GPa)
#
#
# Indices 1 2 3 4 5 6 
#
# 1 48.9392 9.4174 15.4183 0.0000 0.0000 0.0000
# 2 9.4174 36.2645 23.5492 0.0000 0.0000 0.0000
# 3 15.4183 23.5492 122.7002 0.0000 0.0000 0.0000
# 4 0.0000 0.0000 0.0000 57.9660 0.0000 0.0000
# 5 0.0000 0.0000 0.0000 0.0000 -70.4722 0.0000
# 6 0.0000 0.0000 0.0000 0.0000 0.0000 19.9250
#
#
#
# Elastic Compliance Matrix: (Units=1/GPa)
#
#
# Indices 1 2 3 4 5 6 
#
# 1 0.021888 -0.004453 -0.001896 0.000000 0.000000 0.000000
# 2 -0.004453 0.032407 -0.005660 0.000000 0.000000 0.000000
# 3 -0.001896 -0.005660 0.009475 0.000000 0.000000 0.000000
# 4 0.000000 0.000000 0.000000 0.017251 0.000000 0.000000
# 5 0.000000 0.000000 0.000000 0.000000 -0.014190 0.000000
# 6 0.000000 0.000000 0.000000 0.000000 0.000000 0.050188
#
#
# Mechanical properties :
#
#
# Convention : Reuss Voigt Hill
#
# Bulk Modulus (GPa) = 25.15621 33.85265 29.50443
# Shear Modulus (GPa) = 32.40710 12.11835 22.26272
#
# Velocity S-wave (km/s) = 3.95485 2.41842 3.27792
# Velocity P-wave (km/s) = 5.74419 4.91292 5.34474
#
# Compressibility (1/GPa) = 0.03975161
#
# Stress axis : x y z
#
# Youngs Moduli (GPa) = 45.68786 30.85738 105.54646
#
# Poissons Ratio (x) = 0.13740 0.20009
# Poissons Ratio (y) = 0.20344 0.59741
# Poissons Ratio (z) = 0.08661 0.17466
#
# Static dielectric constant tensor:
#      x y z
#    x 1.812800 0.000000 0.000000 
#    y 0.000000 1.734930 0.000000 
#    z 0.000000 0.000000 1.755880 
# 
# From -- ./inp_files/34198.got.cif
#   From: 2010.05.17/outbox.cif.g08.bks.cpg/sg58_18_cif.got.tgz:34198.got - 2010.06.03 14:20:14.
