data_PCOD9445813
_publ_section_title
;
Structure prediction by ZEFSAII (Michael W. Deem and Ramdas Pophale) SiO2 
 PCOD9445813
Probable space group: P N N M
;
_chemical_formula_sum "Si O2"
_cell_formula_units_Z 30
_cell_length_a 4.980818
_cell_length_b 10.801416
_cell_length_c 21.720854
_cell_angle_alpha 90.000000
_cell_angle_beta 90.000000
_cell_angle_gamma 90.000000
_cell_volume 1168.579496
_symmetry_space_group_name_H-M "P N N M"
_symmetry_group_IT_number 58
_symmetry_cell_setting 'orthorhombic'
loop_
_space_group_symop_operation_xyz
x,y,z
-x,-y,z
1/2+x,1/2-y,1/2-z
1/2-x,1/2+y,1/2-z
-x,-y,-z
x,y,-z
1/2-x,1/2+y,1/2+z
1/2+x,1/2-y,1/2+z
loop_
_atom_site_type_symbol
_atom_site_label
_atom_site_fract_x
_atom_site_fract_y
_atom_site_fract_z
Si Si1 0.000000 0.000000 0.670279
Si Si2 0.000000 0.500000 0.500000
Si Si3 0.684999 0.617814 0.601166
Si Si4 0.818014 0.378007 0.930367
Si Si5 0.326865 0.833251 0.240052
O O1 0.224779 0.937040 0.712673
O O2 0.895819 0.894863 0.623798
O O3 0.072819 0.398406 0.553987
O O4 0.500000 0.500000 0.587032
O O5 0.542864 0.747448 0.584478
O O6 0.776806 0.618205 0.671392
O O7 0.000000 0.500000 0.925873
O O8 0.710527 0.376213 0.000000
O O9 0.626472 0.783793 0.249772
#
# Coordination Sequence:
#
# PCOD9445813 Si02
#       5
#     4   2   8   8   8
#     4  12  25  46  76 113 158 208 272 334 408 491
#     4  12  30  48  82 112 170 212 286 334 422 484
#     4  12  27  51  79 117 158 217 271 346 415 499
#     4  11  25  49  77 111 156 211 269 332 407 489
#     4  12  28  49  81 117 165 214 271 341 417 494
#
# _framework density 25.672196
#
# number of rings (size 3 to 8) (size 9 to 14) (size 15 to 20)
#    0.000    0.267    5.333    2.400    3.733    2.133 
#    4.800    0.000    0.000    0.000    0.000    0.000 
#    0.000    0.000    0.000    0.000    0.000    0.000 
#
# Total GULP energy -167756.468713 kJ/mol
# GULP energy per Si atom -5591.882290 kJ/mol
# Density = 2.561376 g / cm^3
# Si number density = 25.672196 Si / 1000 Ang^3
#
#
#
# Elastic Constant Matrix: (Units=GPa)
#
#
# Indices 1 2 3 4 5 6 
#
# 1 49.7841 30.5296 20.7812 0.0000 0.0000 0.0000
# 2 30.5296 189.5545 42.4653 0.0000 0.0000 0.0000
# 3 20.7812 42.4653 231.1381 0.0000 0.0000 0.0000
# 4 0.0000 0.0000 0.0000 -38.9151 0.0000 0.0000
# 5 0.0000 0.0000 0.0000 0.0000 -5.0636 0.0000
# 6 0.0000 0.0000 0.0000 0.0000 0.0000 48.2801
#
#
#
# Elastic Compliance Matrix: (Units=1/GPa)
#
#
# Indices 1 2 3 4 5 6 
#
# 1 0.022732 -0.003341 -0.001430 0.000000 0.000000 0.000000
# 2 -0.003341 0.005993 -0.000801 0.000000 0.000000 0.000000
# 3 -0.001430 -0.000801 0.004602 0.000000 0.000000 0.000000
# 4 0.000000 0.000000 0.000000 -0.025697 0.000000 0.000000
# 5 0.000000 0.000000 0.000000 0.000000 -0.197489 0.000000
# 6 0.000000 0.000000 0.000000 0.000000 0.000000 0.020712
#
#
# Mechanical properties :
#
#
# Convention : Reuss Voigt Hill
#
# Bulk Modulus (GPa) = 45.07694 73.11432 59.09563
# Shear Modulus (GPa) = -33.19869 25.97366 -3.61252
#
# Velocity S-wave (km/s) = -3.59998 3.18424 -1.18753
# Velocity P-wave (km/s) = 0.56302 6.48544 4.60315
#
# Compressibility (1/GPa) = 0.02218429
#
# Stress axis : x y z
#
# Youngs Moduli (GPa) = 43.98996 166.86165 217.29257
#
# Poissons Ratio (x) = 0.55747 0.31073
# Poissons Ratio (y) = 0.14697 0.17398
# Poissons Ratio (z) = 0.06291 0.13360
#
# Static dielectric constant tensor:
#      x y z
#    x 2.112840 0.000000 0.000000 
#    y 0.000000 2.091640 0.000000 
#    z 0.000000 0.000000 1.939600 
# 
# From -- ./inp_files/27946.got.cif
#   From: 2010.05.17/outbox.cif.g08.bks.cpg/sg58_14_cif.got.tgz:27946.got - 2010.06.03 14:20:14.
