data_PCOD9445294
_publ_section_title
;
Structure prediction by ZEFSAII (Michael W. Deem and Ramdas Pophale) SiO2 
 PCOD9445294
Probable space group: P N N M
;
_chemical_formula_sum "Si O2"
_cell_formula_units_Z 56
_cell_length_a 9.388536
_cell_length_b 13.850909
_cell_length_c 21.959714
_cell_angle_alpha 90.000000
_cell_angle_beta 90.000000
_cell_angle_gamma 90.000000
_cell_volume 2855.635889
_symmetry_space_group_name_H-M "P N N M"
_symmetry_group_IT_number 58
_symmetry_cell_setting 'orthorhombic'
loop_
_space_group_symop_operation_xyz
x,y,z
-x,-y,z
1/2+x,1/2-y,1/2-z
1/2-x,1/2+y,1/2-z
-x,-y,-z
x,y,-z
1/2-x,1/2+y,1/2+z
1/2+x,1/2-y,1/2+z
loop_
_atom_site_type_symbol
_atom_site_label
_atom_site_fract_x
_atom_site_fract_y
_atom_site_fract_z
Si Si1 0.013601 0.114859 0.431567
Si Si2 0.403086 0.907784 0.167933
Si Si3 0.747144 0.771542 0.623707
Si Si4 0.736836 0.641384 0.850322
Si Si5 0.993145 0.617716 0.932021
Si Si6 0.651492 0.805288 0.756243
Si Si7 0.668392 0.493583 0.249064
O O1 0.051447 0.147203 0.500000
O O2 0.125095 0.151449 0.381833
O O3 0.862762 0.152691 0.408979
O O4 0.000000 0.000000 0.432520
O O5 0.334992 0.830107 0.120774
O O6 0.505812 0.852056 0.216966
O O7 0.266567 0.949205 0.203110
O O8 0.500000 0.000000 0.146232
O O9 0.635710 0.818448 0.576083
O O10 0.660243 0.768722 0.687070
O O11 0.893572 0.646486 0.876222
O O12 0.695037 0.721273 0.801747
O O13 0.707022 0.540586 0.816138
O O14 0.000000 0.500000 0.927881
O O15 0.936192 0.636747 0.000000
O O16 0.774069 0.886028 0.755757
O O17 0.500000 0.500000 0.258751
#
# Coordination Sequence:
#
# PCOD9445294 Si02
#       7
#     8   8   8   8   8   8   8
#     4  11  23  39  61  90 124 167 213 259 310 382
#     4  10  23  42  58  90 132 166 208 265 327 390
#     4  12  22  39  66  90 128 169 216 264 322 393
#     4  12  22  39  61  92 132 167 205 262 316 396
#     4  11  25  42  62  93 131 177 219 263 324 389
#     4  11  23  37  60  95 127 166 206 259 335 391
#     4  11  23  36  60  93 129 166 206 255 321 390
#
# _framework density 19.610343
#
# number of rings (size 3 to 8) (size 9 to 14) (size 15 to 20)
#    0.000    0.857    2.857    5.571    2.000    3.429 
#    0.000    0.000    0.000    1.714    0.000    4.000 
#    0.000    0.000    0.000    0.000    0.000    0.000 
#
# Total GULP energy -312249.140238 kJ/mol
# GULP energy per Si atom -5575.877504 kJ/mol
# Density = 1.956571 g / cm^3
# Si number density = 19.610343 Si / 1000 Ang^3
#
#
#
# Elastic Constant Matrix: (Units=GPa)
#
#
# Indices 1 2 3 4 5 6 
#
# 1 106.5255 25.0316 12.3188 0.0000 0.0000 0.0000
# 2 25.0316 91.6826 37.8135 0.0000 0.0000 0.0000
# 3 12.3188 37.8135 61.3717 0.0000 0.0000 0.0000
# 4 0.0000 0.0000 0.0000 2.5577 0.0000 0.0000
# 5 0.0000 0.0000 0.0000 0.0000 16.7664 0.0000
# 6 0.0000 0.0000 0.0000 0.0000 0.0000 23.7130
#
#
#
# Elastic Compliance Matrix: (Units=1/GPa)
#
#
# Indices 1 2 3 4 5 6 
#
# 1 0.010040 -0.002561 -0.000438 0.000000 0.000000 0.000000
# 2 -0.002561 0.015276 -0.008898 0.000000 0.000000 0.000000
# 3 -0.000438 -0.008898 0.021865 0.000000 0.000000 0.000000
# 4 0.000000 0.000000 0.000000 0.390981 0.000000 0.000000
# 5 0.000000 0.000000 0.000000 0.000000 0.059643 0.000000
# 6 0.000000 0.000000 0.000000 0.000000 0.000000 0.042171
#
#
# Mechanical properties :
#
#
# Convention : Reuss Voigt Hill
#
# Bulk Modulus (GPa) = 42.75764 45.54530 44.15147
# Shear Modulus (GPa) = 8.74791 20.90181 14.82486
#
# Velocity S-wave (km/s) = 2.11437 3.26829 2.75248
# Velocity P-wave (km/s) = 5.27368 6.12518 5.71531
#
# Compressibility (1/GPa) = 0.02338763
#
# Stress axis : x y z
#
# Youngs Moduli (GPa) = 99.60433 65.46068 45.73602
#
# Poissons Ratio (x) = 0.16762 0.02001
# Poissons Ratio (y) = 0.25505 0.40698
# Poissons Ratio (z) = 0.04358 0.58249
#
# Static dielectric constant tensor:
#      x y z
#    x 1.736190 0.000000 0.000000 
#    y 0.000000 1.783910 0.000000 
#    z 0.000000 0.000000 1.693440 
# 
# From -- ./inp_files/28958.got.cif
#   From: 2010.05.17/outbox.cif.g08.bks.cpg/sg58_15_cif.got.tgz:28958.got - 2010.06.03 14:20:14.
