data_PCOD9445643
_publ_section_title
;
Structure prediction by ZEFSAII (Michael W. Deem and Ramdas Pophale) SiO2 
 PCOD9445643
Probable space group: P N N M
;
_chemical_formula_sum "Si O2"
_cell_formula_units_Z 46
_cell_length_a 7.793346
_cell_length_b 12.311955
_cell_length_c 24.401823
_cell_angle_alpha 90.000000
_cell_angle_beta 90.000000
_cell_angle_gamma 90.000000
_cell_volume 2341.387255
_symmetry_space_group_name_H-M "P N N M"
_symmetry_group_IT_number 58
_symmetry_cell_setting 'orthorhombic'
loop_
_space_group_symop_operation_xyz
x,y,z
-x,-y,z
1/2+x,1/2-y,1/2-z
1/2-x,1/2+y,1/2-z
-x,-y,-z
x,y,-z
1/2-x,1/2+y,1/2+z
1/2+x,1/2-y,1/2+z
loop_
_atom_site_type_symbol
_atom_site_label
_atom_site_fract_x
_atom_site_fract_y
_atom_site_fract_z
Si Si1 0.327290 0.568070 0.320287
Si Si2 0.169788 0.932109 0.563294
Si Si3 0.357900 0.164829 0.276982
Si Si4 0.358832 0.849233 0.184153
Si Si5 0.115362 0.682322 0.409629
Si Si6 0.000000 0.500000 0.866347
Si Si7 0.500000 0.000000 0.000000
O O1 0.500000 0.500000 0.327900
O O2 0.300635 0.620276 0.260125
O O3 0.184338 0.474199 0.322457
O O4 0.274403 0.649556 0.369242
O O5 0.196691 0.964422 0.500000
O O6 0.141470 0.802123 0.565993
O O7 0.340900 0.957657 0.597601
O O8 0.000000 0.000000 0.582612
O O9 0.511399 0.167671 0.233969
O O10 0.308785 0.280803 0.301193
O O11 0.416337 0.088881 0.326193
O O12 0.450610 0.807532 0.129944
O O13 0.074747 0.585793 0.452282
#
# Coordination Sequence:
#
# PCOD9445643 Si02
#       7
#     8   8   8   8   8   4   2
#     4  11  23  40  63  98 137 174 220 276 334 409
#     4  11  26  47  71 100 132 182 233 284 342 393
#     4  11  23  39  62  94 133 174 222 269 337 406
#     4  11  22  39  61  97 131 176 217 276 335 404
#     4  11  23  44  72  96 132 172 228 278 340 405
#     4  12  25  43  66  98 137 177 232 282 330 410
#     4  12  20  46  76  94 126 182 212 286 344 392
#
# _framework density 19.646471999999999
#
# number of rings (size 3 to 8) (size 9 to 14) (size 15 to 20)
#    0.000    0.870    4.348    3.391    7.304    2.087 
#    0.000    0.435    7.652    0.000    0.000    0.000 
#    0.000    0.000    0.000    0.000    0.000    0.000 
#
# Total GULP energy -256261.057160 kJ/mol
# GULP energy per Si atom -5570.892547 kJ/mol
# Density = 1.960176 g / cm^3
# Si number density = 19.646472 Si / 1000 Ang^3
#
#
#
# Elastic Constant Matrix: (Units=GPa)
#
#
# Indices 1 2 3 4 5 6 
#
# 1 93.0109 35.1216 39.1504 0.0000 0.0000 0.0000
# 2 35.1216 101.4329 32.6050 0.0000 0.0000 0.0000
# 3 39.1504 32.6050 114.7813 0.0000 0.0000 0.0000
# 4 0.0000 0.0000 0.0000 -7.2236 0.0000 0.0000
# 5 0.0000 0.0000 0.0000 0.0000 0.1489 0.0000
# 6 0.0000 0.0000 0.0000 0.0000 0.0000 -2.2485
#
#
#
# Elastic Compliance Matrix: (Units=1/GPa)
#
#
# Indices 1 2 3 4 5 6 
#
# 1 0.013623 -0.003547 -0.003639 0.000000 0.000000 0.000000
# 2 -0.003547 0.011773 -0.002134 0.000000 0.000000 0.000000
# 3 -0.003639 -0.002134 0.010560 0.000000 0.000000 0.000000
# 4 0.000000 0.000000 0.000000 -0.138435 0.000000 0.000000
# 5 0.000000 0.000000 0.000000 0.000000 6.717447 0.000000
# 6 0.000000 0.000000 0.000000 0.000000 0.000000 -0.444749
#
#
# Mechanical properties :
#
#
# Convention : Reuss Voigt Hill
#
# Bulk Modulus (GPa) = 57.75526 58.10882 57.93204
# Shear Modulus (GPa) = 0.80715 11.62523 6.21619
#
# Velocity S-wave (km/s) = 0.64166 2.43517 1.78070
# Velocity P-wave (km/s) = 5.47814 6.12766 5.81198
#
# Compressibility (1/GPa) = 0.01731444
#
# Stress axis : x y z
#
# Youngs Moduli (GPa) = 73.40773 84.93981 94.69983
#
# Poissons Ratio (x) = 0.30130 0.34460
# Poissons Ratio (y) = 0.26039 0.20213
# Poissons Ratio (z) = 0.26712 0.18129
#
# Static dielectric constant tensor:
#      x y z
#    x 1.740980 0.000000 0.000000 
#    y 0.000000 1.707000 0.000000 
#    z 0.000000 0.000000 1.685160 
# 
# From -- ./inp_files/31488.got.cif
#   From: 2010.05.17/outbox.cif.g08.bks.cpg/sg58_16_cif.got.tgz:31488.got - 2010.06.03 14:20:14.
