data_PCOD9445994
_publ_section_title
;
Structure prediction by ZEFSAII (Michael W. Deem and Ramdas Pophale) SiO2 
 PCOD9445994
Probable space group: P N N M
;
_chemical_formula_sum "Si O2"
_cell_formula_units_Z 56
_cell_length_a 15.000000
_cell_length_b 21.000000
_cell_length_c 9.000000
_cell_angle_alpha 90.000000
_cell_angle_beta 90.000000
_cell_angle_gamma 90.000000
_cell_volume 2835.000000
_symmetry_space_group_name_H-M "P N N M"
_symmetry_group_IT_number 58
_symmetry_cell_setting 'orthorhombic'
loop_
_space_group_symop_operation_xyz
x,y,z
-x,-y,z
1/2+x,1/2-y,1/2-z
1/2-x,1/2+y,1/2-z
-x,-y,-z
x,y,-z
1/2-x,1/2+y,1/2+z
1/2+x,1/2-y,1/2+z
loop_
_atom_site_type_symbol
_atom_site_label
_atom_site_fract_x
_atom_site_fract_y
_atom_site_fract_z
Si Si1 0.732875 0.278824 0.680491
Si Si2 0.054715 0.562977 0.178239
Si Si3 0.744614 0.996420 0.320564
Si Si4 0.059939 0.696159 0.321131
Si Si5 0.251364 0.359893 0.175316
Si Si6 0.619858 0.402182 0.322108
Si Si7 0.964087 0.161926 0.325216
O O1 0.728918 0.275922 0.500000
O O2 0.835020 0.296301 0.717864
O O3 0.712116 0.206953 0.736496
O O4 0.671405 0.337338 0.727517
O O5 0.157573 0.546062 0.213266
O O6 0.027150 0.630205 0.250128
O O7 0.000000 0.500000 0.224623
O O8 0.045232 0.568865 0.000000
O O9 0.755200 0.998343 0.500000
O O10 0.829704 0.962098 0.249051
O O11 0.729628 0.069402 0.267116
O O12 0.053279 0.692153 0.500000
O O13 0.018694 0.764588 0.275536
O O14 0.358382 0.350880 0.186511
O O15 0.227699 0.361479 0.000000
O O16 0.623626 0.406809 0.500000
O O17 0.520361 0.389169 0.265719
O O18 0.986916 0.157418 0.500000
#
# Coordination Sequence:
#
# PCOD9445994 Si02
#       7
#     8   8   8   8   8   8   8
#     4   8  15  30  53  76  97 132 179 220 259 313
#     4  10  21  34  51  80 113 142 175 224 276 321
#     4  10  20  35  55  77 105 143 182 220 265 320
#     4   9  17  34  56  75 100 136 177 220 266 320
#     4   8  16  33  55  75  99 139 186 222 254 309
#     4  11  21  33  54  81 110 141 176 220 273 327
#     4   9  19  35  55  78 103 135 182 229 263 309
#
# _framework density 19.753086
#
# number of rings (size 3 to 8) (size 9 to 14) (size 15 to 20)
#    0.000    2.714    1.429    2.143    0.000    2.571 
#    0.000    6.429    0.000    2.571    0.000    0.000 
#    0.000    0.000    0.000    0.000    0.000    0.000 
#
# Total GULP energy -312288.628694 kJ/mol
# GULP energy per Si atom -5576.582655 kJ/mol
# Density = 1.970813 g / cm^3
# Si number density = 19.753086 Si / 1000 Ang^3
#
#
#
# Elastic Constant Matrix: (Units=GPa)
#
#
# Indices 1 2 3 4 5 6 
#
# 1 1.5665 -15.3718 2.3403 0.0000 0.0000 0.0000
# 2 -15.3718 98.9168 8.3814 0.0000 0.0000 0.0000
# 3 2.3403 8.3814 12.8474 0.0000 0.0000 0.0000
# 4 0.0000 0.0000 0.0000 28.1577 0.0000 0.0000
# 5 0.0000 0.0000 0.0000 0.0000 12.0337 0.0000
# 6 0.0000 0.0000 0.0000 0.0000 0.0000 33.3972
#
#
#
# Elastic Compliance Matrix: (Units=1/GPa)
#
#
# Indices 1 2 3 4 5 6 
#
# 1 -0.522037 -0.094401 0.156680 0.000000 0.000000 0.000000
# 2 -0.094401 -0.006370 0.021352 0.000000 0.000000 0.000000
# 3 0.156680 0.021352 0.035367 0.000000 0.000000 0.000000
# 4 0.000000 0.000000 0.000000 0.035514 0.000000 0.000000
# 5 0.000000 0.000000 0.000000 0.000000 0.083100 0.000000
# 6 0.000000 0.000000 0.000000 0.000000 0.000000 0.029943
#
#
# Mechanical properties :
#
#
# Convention : Reuss Voigt Hill
#
# Bulk Modulus (GPa) = -3.06957 11.55894 4.24469
# Shear Modulus (GPa) = -8.06014 22.58311 7.26148
#
# Velocity S-wave (km/s) = -2.02220 3.38490 1.91940
# Velocity P-wave (km/s) = 2.64759 4.59795 2.65813
#
# Compressibility (1/GPa) = -0.32577905
#
# Stress axis : x y z
#
# Youngs Moduli (GPa) = -1.91557 -156.99307 28.27531
#
# Poissons Ratio (x) = -14.82030 -4.43017
# Poissons Ratio (y) = -0.18083 -0.60372
# Poissons Ratio (z) = 0.30013 3.35206
#
# Static dielectric constant tensor:
#      x y z
#    x 1.718020 0.000000 0.000000 
#    y 0.000000 1.719330 0.000000 
#    z 0.000000 0.000000 1.655960 
# 
# From -- ./inp_files/6272.got.cif
#   From: 2010.05.17/outbox.ucp.g08.bks.cvg/sg58_4_cif.got.tgz:6272.got - 2010.06.11 16:41:41.
