data_PCOD9445597
_publ_section_title
;
Structure prediction by ZEFSAII (Michael W. Deem and Ramdas Pophale) SiO2 
 PCOD9445597
Probable space group: P N N M
;
_chemical_formula_sum "Si O2"
_cell_formula_units_Z 32
_cell_length_a 18.377043
_cell_length_b 7.434550
_cell_length_c 10.932565
_cell_angle_alpha 90.000000
_cell_angle_beta 90.000000
_cell_angle_gamma 90.000000
_cell_volume 1493.662185
_symmetry_space_group_name_H-M "P N N M"
_symmetry_group_IT_number 58
_symmetry_cell_setting 'orthorhombic'
loop_
_space_group_symop_operation_xyz
x,y,z
-x,-y,z
1/2+x,1/2-y,1/2-z
1/2-x,1/2+y,1/2-z
-x,-y,-z
x,y,-z
1/2-x,1/2+y,1/2+z
1/2+x,1/2-y,1/2+z
loop_
_atom_site_type_symbol
_atom_site_label
_atom_site_fract_x
_atom_site_fract_y
_atom_site_fract_z
Si Si1 0.180781 0.759543 0.246965
Si Si2 0.606835 0.859282 0.000000
Si Si3 0.577957 0.417572 0.732641
Si Si4 0.438975 0.733060 0.000000
Si Si5 0.672682 0.123663 0.360679
O O1 0.146105 0.707345 0.377940
O O2 0.265179 0.802627 0.269559
O O3 0.168389 0.588534 0.161475
O O4 0.139286 0.936287 0.201457
O O5 0.524377 0.784502 0.000000
O O6 0.602746 0.076340 0.000000
O O7 0.500000 0.500000 0.700159
O O8 0.598896 0.230224 0.669299
O O9 0.578420 0.376932 0.877915
O O10 0.694055 0.160153 0.500000
#
# Coordination Sequence:
#
# PCOD9445597 Si02
#       5
#     8   4   8   4   8
#     4  12  24  45  72 103 136 176 231 286 342 409
#     4  11  21  40  75 107 135 171 227 295 345 400
#     4  12  25  43  72 104 140 182 227 283 347 403
#     4  11  22  39  74 109 137 171 225 294 352 394
#     4  12  28  46  69 102 139 183 228 280 345 414
#
# _framework density 21.423855
#
# number of rings (size 3 to 8) (size 9 to 14) (size 15 to 20)
#    0.000    0.250    8.750    1.125    0.000    2.500 
#    2.250    1.250    0.000    0.000    0.000    0.000 
#    0.000    0.000    0.000    0.000    0.000    0.000 
#
# Total GULP energy -179172.790365 kJ/mol
# GULP energy per Si atom -5599.149699 kJ/mol
# Density = 2.137509 g / cm^3
# Si number density = 21.423855 Si / 1000 Ang^3
#
#
#
# Elastic Constant Matrix: (Units=GPa)
#
#
# Indices 1 2 3 4 5 6 
#
# 1 56.7176 22.8274 3.8668 0.0000 0.0000 0.0000
# 2 22.8274 121.9246 5.3743 0.0000 0.0000 0.0000
# 3 3.8668 5.3743 34.8293 0.0000 0.0000 0.0000
# 4 0.0000 0.0000 0.0000 25.5386 0.0000 0.0000
# 5 0.0000 0.0000 0.0000 0.0000 14.5399 0.0000
# 6 0.0000 0.0000 0.0000 0.0000 0.0000 41.4559
#
#
#
# Elastic Compliance Matrix: (Units=1/GPa)
#
#
# Indices 1 2 3 4 5 6 
#
# 1 0.019154 -0.003516 -0.001584 0.000000 0.000000 0.000000
# 2 -0.003516 0.008903 -0.000983 0.000000 0.000000 0.000000
# 3 -0.001584 -0.000983 0.029039 0.000000 0.000000 0.000000
# 4 0.000000 0.000000 0.000000 0.039156 0.000000 0.000000
# 5 0.000000 0.000000 0.000000 0.000000 0.068776 0.000000
# 6 0.000000 0.000000 0.000000 0.000000 0.000000 0.024122
#
#
# Mechanical properties :
#
#
# Convention : Reuss Voigt Hill
#
# Bulk Modulus (GPa) = 22.25715 30.84539 26.55127
# Shear Modulus (GPa) = 23.11649 28.40042 25.75846
#
# Velocity S-wave (km/s) = 3.28839 3.64489 3.47122
# Velocity P-wave (km/s) = 4.98292 5.66944 5.33723
#
# Compressibility (1/GPa) = 0.04492939
#
# Stress axis : x y z
#
# Youngs Moduli (GPa) = 52.20716 112.31545 34.43638
#
# Poissons Ratio (x) = 0.39494 0.05455
# Poissons Ratio (y) = 0.18358 0.03387
# Poissons Ratio (z) = 0.08270 0.11046
#
# Static dielectric constant tensor:
#      x y z
#    x 1.761620 0.000000 0.000000 
#    y 0.000000 1.774020 0.000000 
#    z 0.000000 0.000000 1.710700 
# 
# From -- ./inp_files/16788.got.cif
#   From: 2010.05.17/outbox.cif.g08.bks.cpg/sg58_9_cif.got.tgz:16788.got - 2010.06.03 14:20:14.
