data_PCOD9445850
_publ_section_title
;
Structure prediction by ZEFSAII (Michael W. Deem and Ramdas Pophale) SiO2 
 PCOD9445850
Probable space group: P N N M
;
_chemical_formula_sum "Si O2"
_cell_formula_units_Z 32
_cell_length_a 6.387346
_cell_length_b 7.255331
_cell_length_c 32.956544
_cell_angle_alpha 90.000000
_cell_angle_beta 90.000000
_cell_angle_gamma 90.000000
_cell_volume 1527.282360
_symmetry_space_group_name_H-M "P N N M"
_symmetry_group_IT_number 58
_symmetry_cell_setting 'orthorhombic'
loop_
_space_group_symop_operation_xyz
x,y,z
-x,-y,z
1/2+x,1/2-y,1/2-z
1/2-x,1/2+y,1/2-z
-x,-y,-z
x,y,-z
1/2-x,1/2+y,1/2+z
1/2+x,1/2-y,1/2+z
loop_
_atom_site_type_symbol
_atom_site_label
_atom_site_fract_x
_atom_site_fract_y
_atom_site_fract_z
Si Si1 0.500000 0.500000 0.263673
Si Si2 0.000000 0.000000 0.921828
Si Si3 0.116625 0.690342 0.621827
Si Si4 0.816824 0.639371 0.196193
Si Si5 0.380231 0.802663 0.956019
O O1 0.690251 0.561647 0.234636
O O2 0.423856 0.669443 0.290705
O O3 0.839448 0.879565 0.895471
O O4 0.141200 0.859984 0.947879
O O5 0.158320 0.819025 0.659740
O O6 0.000000 0.500000 0.634363
O O7 0.983161 0.777684 0.584765
O O8 0.000000 0.500000 0.183983
O O9 0.500000 0.000000 0.958268
O O10 0.405226 0.711358 0.000000
#
# Coordination Sequence:
#
# PCOD9445850 Si02
#       5
#     4   4   8   8   8
#     4  12  27  44  66  95 120 162 210 261 320 387
#     4   8  14  28  50  85 118 166 202 253 300 359
#     4   9  20  33  57  87 124 161 207 258 305 369
#     4  12  26  44  66  93 126 163 208 261 323 380
#     4   8  14  26  47  82 123 163 205 250 300 359
#
# _framework density 20.952248000000001
#
# number of rings (size 3 to 8) (size 9 to 14) (size 15 to 20)
#    0.000    2.750    2.500    1.125    3.500    5.000 
#    0.000    0.000    0.000    0.750    0.000    2.625 
#    0.000    0.000    0.000    0.000    0.000    0.250 
#
# Total GULP energy -178615.449253 kJ/mol
# GULP energy per Si atom -5581.732789 kJ/mol
# Density = 2.090456 g / cm^3
# Si number density = 20.952248 Si / 1000 Ang^3
#
#
#
# Elastic Constant Matrix: (Units=GPa)
#
#
# Indices 1 2 3 4 5 6 
#
# 1 106.4927 34.3939 37.8360 0.0000 0.0000 0.0000
# 2 34.3939 92.9157 50.3291 0.0000 0.0000 0.0000
# 3 37.8360 50.3291 144.9025 0.0000 0.0000 0.0000
# 4 0.0000 0.0000 0.0000 -13.3911 0.0000 0.0000
# 5 0.0000 0.0000 0.0000 0.0000 3.5066 0.0000
# 6 0.0000 0.0000 0.0000 0.0000 0.0000 25.6706
#
#
#
# Elastic Compliance Matrix: (Units=1/GPa)
#
#
# Indices 1 2 3 4 5 6 
#
# 1 0.011034 -0.003109 -0.001801 0.000000 0.000000 0.000000
# 2 -0.003109 0.014132 -0.004097 0.000000 0.000000 0.000000
# 3 -0.001801 -0.004097 0.008795 0.000000 0.000000 0.000000
# 4 0.000000 0.000000 0.000000 -0.074676 0.000000 0.000000
# 5 0.000000 0.000000 0.000000 0.000000 0.285177 0.000000
# 6 0.000000 0.000000 0.000000 0.000000 0.000000 0.038955
#
#
# Mechanical properties :
#
#
# Convention : Reuss Voigt Hill
#
# Bulk Modulus (GPa) = 62.70722 65.49211 64.09966
# Shear Modulus (GPa) = 16.30006 17.94068 17.12037
#
# Velocity S-wave (km/s) = 2.79222 2.92938 2.86162
# Velocity P-wave (km/s) = 6.35523 6.53967 6.44811
#
# Compressibility (1/GPa) = 0.01594713
#
# Stress axis : x y z
#
# Youngs Moduli (GPa) = 90.62576 70.75995 113.70690
#
# Poissons Ratio (x) = 0.21997 0.20484
# Poissons Ratio (y) = 0.28173 0.46584
# Poissons Ratio (z) = 0.16326 0.28989
#
# Static dielectric constant tensor:
#      x y z
#    x 1.757860 0.000000 0.000000 
#    y 0.000000 1.749770 0.000000 
#    z 0.000000 0.000000 1.799340 
# 
# From -- ./inp_files/34032.got.cif
#   From: 2010.05.17/outbox.cif.g08.bks.cpg/sg58_18_cif.got.tgz:34032.got - 2010.06.03 14:20:14.
