data_PCOD9445721
_publ_section_title
;
Structure prediction by ZEFSAII (Michael W. Deem and Ramdas Pophale) SiO2 
 PCOD9445721
Probable space group: P N N M
;
_chemical_formula_sum "Si O2"
_cell_formula_units_Z 40
_cell_length_a 9.879185
_cell_length_b 8.829207
_cell_length_c 23.202959
_cell_angle_alpha 90.000000
_cell_angle_beta 90.000000
_cell_angle_gamma 90.000000
_cell_volume 2023.886669
_symmetry_space_group_name_H-M "P N N M"
_symmetry_group_IT_number 58
_symmetry_cell_setting 'orthorhombic'
loop_
_space_group_symop_operation_xyz
x,y,z
-x,-y,z
1/2+x,1/2-y,1/2-z
1/2-x,1/2+y,1/2-z
-x,-y,-z
x,y,-z
1/2-x,1/2+y,1/2+z
1/2+x,1/2-y,1/2+z
loop_
_atom_site_type_symbol
_atom_site_label
_atom_site_fract_x
_atom_site_fract_y
_atom_site_fract_z
Si Si1 0.859971 0.406093 0.311032
Si Si2 0.361690 0.092715 0.322321
Si Si3 0.867523 0.102339 0.619136
Si Si4 0.899950 0.267965 0.500000
Si Si5 0.701467 0.115528 0.000000
Si Si6 0.639129 0.590156 0.616398
O O1 0.816357 0.402202 0.244382
O O2 0.882895 0.238173 0.335117
O O3 0.745584 0.485079 0.349562
O O4 0.000000 0.500000 0.316337
O O5 0.384992 0.260839 0.345686
O O6 0.500000 0.000000 0.323719
O O7 0.254768 0.003924 0.361364
O O8 0.852417 0.180844 0.556946
O O9 0.000000 0.000000 0.617795
O O10 0.843608 0.438926 0.500000
O O11 0.063825 0.285913 0.500000
O O12 0.790146 0.139407 0.943121
O O13 0.500000 0.500000 0.606234
#
# Coordination Sequence:
#
# PCOD9445721 Si02
#       6
#     8   8   8   4   4   8
#     4  11  23  43  68  95 132 179 223 266 327 404
#     4  11  26  43  63  98 137 172 218 277 335 388
#     4  12  24  41  68 102 132 169 223 282 332 383
#     4  11  23  42  72  97 131 172 223 279 328 398
#     4  11  23  44  70  98 129 173 227 269 328 406
#     4  12  25  44  69  95 133 177 222 269 329 404
#
# _framework density 19.763952
#
# number of rings (size 3 to 8) (size 9 to 14) (size 15 to 20)
#    0.000    0.600    2.000    6.600    0.000    7.200 
#    0.000    1.000    0.000    0.000    0.000    0.000 
#    0.000    0.000    0.000    0.000    0.000    0.000 
#
# Total GULP energy -223940.253476 kJ/mol
# GULP energy per Si atom -5598.506337 kJ/mol
# Density = 1.971897 g / cm^3
# Si number density = 19.763952 Si / 1000 Ang^3
#
#
#
# Elastic Constant Matrix: (Units=GPa)
#
#
# Indices 1 2 3 4 5 6 
#
# 1 29.5329 -22.5408 21.7702 0.0000 0.0000 0.0000
# 2 -22.5408 64.8597 3.8255 0.0000 0.0000 0.0000
# 3 21.7702 3.8255 122.2073 0.0000 0.0000 0.0000
# 4 0.0000 0.0000 0.0000 -4.2713 0.0000 0.0000
# 5 0.0000 0.0000 0.0000 0.0000 224.0855 0.0000
# 6 0.0000 0.0000 0.0000 0.0000 0.0000 42.7652
#
#
#
# Elastic Compliance Matrix: (Units=1/GPa)
#
#
# Indices 1 2 3 4 5 6 
#
# 1 0.057720 0.020704 -0.010930 0.000000 0.000000 0.000000
# 2 0.020704 0.022873 -0.004404 0.000000 0.000000 0.000000
# 3 -0.010930 -0.004404 0.010268 0.000000 0.000000 0.000000
# 4 0.000000 0.000000 0.000000 -0.234119 0.000000 0.000000
# 5 0.000000 0.000000 0.000000 0.000000 0.004463 0.000000
# 6 0.000000 0.000000 0.000000 0.000000 0.000000 0.023384
#
#
# Mechanical properties :
#
#
# Convention : Reuss Voigt Hill
#
# Bulk Modulus (GPa) = 9.84250 24.74553 17.29402
# Shear Modulus (GPa) = -54.18087 66.75219 6.28566
#
# Velocity S-wave (km/s) = -5.24152 5.81791 1.78529
# Velocity P-wave (km/s) = 5.62499 7.59463 3.60818
#
# Compressibility (1/GPa) = 0.10160020
#
# Stress axis : x y z
#
# Youngs Moduli (GPa) = 17.32493 43.71956 97.39124
#
# Poissons Ratio (x) = -0.90518 1.06453
# Poissons Ratio (y) = -0.35870 0.42894
# Poissons Ratio (z) = 0.18937 0.19255
#
# Static dielectric constant tensor:
#      x y z
#    x 1.660220 0.000000 0.000000 
#    y 0.000000 1.663020 0.000000 
#    z 0.000000 0.000000 1.692310 
# 
# From -- ./inp_files/31323.got.cif
#   From: 2010.05.17/outbox.cif.g08.bks.cpg/sg58_16_cif.got.tgz:31323.got - 2010.06.03 14:20:14.
