data_PCOD9445732
_publ_section_title
;
Structure prediction by ZEFSAII (Michael W. Deem and Ramdas Pophale) SiO2 
 PCOD9445732
Probable space group: P N N M
;
_chemical_formula_sum "Si O2"
_cell_formula_units_Z 40
_cell_length_a 15.946699
_cell_length_b 5.061046
_cell_length_c 18.171164
_cell_angle_alpha 90.000000
_cell_angle_beta 90.000000
_cell_angle_gamma 90.000000
_cell_volume 1466.539718
_symmetry_space_group_name_H-M "P N N M"
_symmetry_group_IT_number 58
_symmetry_cell_setting 'orthorhombic'
loop_
_space_group_symop_operation_xyz
x,y,z
-x,-y,z
1/2+x,1/2-y,1/2-z
1/2-x,1/2+y,1/2-z
-x,-y,-z
x,y,-z
1/2-x,1/2+y,1/2+z
1/2+x,1/2-y,1/2+z
loop_
_atom_site_type_symbol
_atom_site_label
_atom_site_fract_x
_atom_site_fract_y
_atom_site_fract_z
Si Si1 0.383309 0.086731 0.236024
Si Si2 0.783833 0.777915 0.671863
Si Si3 0.576653 0.845250 0.386890
Si Si4 0.908627 0.137391 0.415310
Si Si5 0.682489 0.354181 0.417028
O O1 0.292274 0.175138 0.270157
O O2 0.411902 0.172798 0.155667
O O3 0.363804 0.777497 0.224966
O O4 0.441588 0.189179 0.300553
O O5 0.750737 0.515295 0.629589
O O6 0.827550 0.959122 0.609170
O O7 0.651204 0.065323 0.392123
O O8 0.500000 0.000000 0.421776
O O9 0.605341 0.564648 0.416142
O O10 0.897830 0.236834 0.500000
O O11 0.000000 0.000000 0.416119
O O12 0.710888 0.328113 0.500000
#
# Coordination Sequence:
#
# PCOD9445732 Si02
#       5
#     8   8   8   8   8
#     4  11  24  43  73 100 142 187 253 310 371 455
#     4  11  23  44  72 105 139 197 257 312 377 462
#     4  11  26  43  72 110 146 198 250 304 381 451
#     4  11  27  47  72 110 156 200 251 324 405 470
#     4  11  25  44  71 108 151 195 246 311 379 453
#
# _framework density 27.275086999999999
#
# number of rings (size 3 to 8) (size 9 to 14) (size 15 to 20)
#    0.000    1.000    2.000    3.000    8.400    4.000 
#    0.000    2.000    0.000    0.000    0.000    0.000 
#    0.000    0.800    0.000    0.000    0.000    0.000 
#
# Total GULP energy -223133.748737 kJ/mol
# GULP energy per Si atom -5578.343718 kJ/mol
# Density = 2.721301 g / cm^3
# Si number density = 27.275087 Si / 1000 Ang^3
#
#
#
# Elastic Constant Matrix: (Units=GPa)
#
#
# Indices 1 2 3 4 5 6 
#
# 1 122.8660 0.4869 19.2489 0.0000 0.0000 0.0000
# 2 0.4869 81.2052 24.7727 0.0000 0.0000 0.0000
# 3 19.2489 24.7727 236.7041 0.0000 0.0000 0.0000
# 4 0.0000 0.0000 0.0000 47.1600 0.0000 0.0000
# 5 0.0000 0.0000 0.0000 0.0000 -38.5716 0.0000
# 6 0.0000 0.0000 0.0000 0.0000 0.0000 54.1261
#
#
#
# Elastic Compliance Matrix: (Units=1/GPa)
#
#
# Indices 1 2 3 4 5 6 
#
# 1 0.008246 0.000160 -0.000687 0.000000 0.000000 0.000000
# 2 0.000160 0.012724 -0.001345 0.000000 0.000000 0.000000
# 3 -0.000687 -0.001345 0.004421 0.000000 0.000000 0.000000
# 4 0.000000 0.000000 0.000000 0.021204 0.000000 0.000000
# 5 0.000000 0.000000 0.000000 0.000000 -0.025926 0.000000
# 6 0.000000 0.000000 0.000000 0.000000 0.000000 0.018475
#
#
# Mechanical properties :
#
#
# Convention : Reuss Voigt Hill
#
# Bulk Modulus (GPa) = 46.19467 58.86581 52.53024
# Shear Modulus (GPa) = 99.79169 38.96068 69.37619
#
# Velocity S-wave (km/s) = 6.05529 3.78356 5.04886
# Velocity P-wave (km/s) = 8.11555 6.38093 7.29994
#
# Compressibility (1/GPa) = 0.02164752
#
# Stress axis : x y z
#
# Youngs Moduli (GPa) = 121.27100 78.59336 226.17757
#
# Poissons Ratio (x) = -0.01259 0.15546
# Poissons Ratio (y) = -0.01943 0.30413
# Poissons Ratio (z) = 0.08335 0.10568
#
# Static dielectric constant tensor:
#      x y z
#    x 2.309920 0.000000 0.000000 
#    y 0.000000 2.272010 0.000000 
#    z 0.000000 0.000000 2.142910 
# 
# From -- ./inp_files/27158.got.cif
#   From: 2010.05.17/outbox.cif.g08.bks.cpg/sg58_14_cif.got.tgz:27158.got - 2010.06.03 14:20:14.
