data_PCOD9445770
_publ_section_title
;
Structure prediction by ZEFSAII (Michael W. Deem and Ramdas Pophale) SiO2 
 PCOD9445770
Probable space group: P N N M
;
_chemical_formula_sum "Si O2"
_cell_formula_units_Z 24
_cell_length_a 5.247201
_cell_length_b 10.403224
_cell_length_c 17.994408
_cell_angle_alpha 90.000000
_cell_angle_beta 90.000000
_cell_angle_gamma 90.000000
_cell_volume 982.275278
_symmetry_space_group_name_H-M "P N N M"
_symmetry_group_IT_number 58
_symmetry_cell_setting 'orthorhombic'
loop_
_space_group_symop_operation_xyz
x,y,z
-x,-y,z
1/2+x,1/2-y,1/2-z
1/2-x,1/2+y,1/2-z
-x,-y,-z
x,y,-z
1/2-x,1/2+y,1/2+z
1/2+x,1/2-y,1/2+z
loop_
_atom_site_type_symbol
_atom_site_label
_atom_site_fract_x
_atom_site_fract_y
_atom_site_fract_z
Si Si1 0.253300 0.964676 0.800793
Si Si2 0.848999 0.638222 0.086018
Si Si3 0.181568 0.185037 0.675619
O O1 0.306417 0.818106 0.777852
O O2 0.500000 0.000000 0.846978
O O3 0.234491 0.064655 0.730769
O O4 0.000000 0.000000 0.842829
O O5 0.579821 0.656126 0.129921
O O6 0.000000 0.500000 0.088876
O O7 0.082008 0.716152 0.121248
O O8 0.795619 0.664099 0.000000
#
# Coordination Sequence:
#
# PCOD9445770 Si02
#       3
#     8   8   8
#     4  12  24  40  65 102 143 179 221 288 360 424
#     4  11  24  43  69  99 135 183 239 291 335 407
#     4  12  24  42  69 104 140 177 230 288 358 423
#
# _framework density 24.433070000000001
#
# number of rings (size 3 to 8) (size 9 to 14) (size 15 to 20)
#    0.000    0.333    0.000   11.000    0.000    2.667 
#    0.000    0.000    0.000   20.000    0.000   14.000 
#    0.000    0.000    0.000    0.000    0.000    0.000 
#
# Total GULP energy -133761.901226 kJ/mol
# GULP energy per Si atom -5573.412551 kJ/mol
# Density = 2.437746 g / cm^3
# Si number density = 24.433070 Si / 1000 Ang^3
#
#
#
# Elastic Constant Matrix: (Units=GPa)
#
#
# Indices 1 2 3 4 5 6 
#
# 1 272.9123 54.1460 71.6152 0.0000 0.0000 0.0000
# 2 54.1460 179.7633 43.7461 0.0000 0.0000 0.0000
# 3 71.6152 43.7461 96.7526 0.0000 0.0000 0.0000
# 4 0.0000 0.0000 0.0000 14.2113 0.0000 0.0000
# 5 0.0000 0.0000 0.0000 0.0000 29.7734 0.0000
# 6 0.0000 0.0000 0.0000 0.0000 0.0000 34.4730
#
#
#
# Elastic Compliance Matrix: (Units=1/GPa)
#
#
# Indices 1 2 3 4 5 6 
#
# 1 0.004610 -0.000627 -0.003128 0.000000 0.000000 0.000000
# 2 -0.000627 0.006336 -0.002401 0.000000 0.000000 0.000000
# 3 -0.003128 -0.002401 0.013737 0.000000 0.000000 0.000000
# 4 0.000000 0.000000 0.000000 0.070366 0.000000 0.000000
# 5 0.000000 0.000000 0.000000 0.000000 0.033587 0.000000
# 6 0.000000 0.000000 0.000000 0.000000 0.000000 0.029008
#
#
# Mechanical properties :
#
#
# Convention : Reuss Voigt Hill
#
# Bulk Modulus (GPa) = 80.84089 98.71586 89.77838
# Shear Modulus (GPa) = 28.72257 41.01961 34.87109
#
# Velocity S-wave (km/s) = 3.43237 4.10183 3.78194
# Velocity P-wave (km/s) = 6.99047 7.93244 7.47631
#
# Compressibility (1/GPa) = 0.01236998
#
# Stress axis : x y z
#
# Youngs Moduli (GPa) = 216.94234 157.82947 72.79809
#
# Poissons Ratio (x) = 0.09898 0.22774
# Poissons Ratio (y) = 0.13605 0.17476
# Poissons Ratio (z) = 0.67868 0.37888
#
# Static dielectric constant tensor:
#      x y z
#    x 2.289160 0.000000 0.000000 
#    y 0.000000 2.195960 0.000000 
#    z 0.000000 0.000000 1.885190 
# 
# From -- ./inp_files/27816.got.cif
#   From: 2010.05.17/outbox.cif.g08.bks.cpg/sg58_14_cif.got.tgz:27816.got - 2010.06.03 14:20:14.
