data_PCOD9445047
_publ_section_title
;
Structure prediction by ZEFSAII (Michael W. Deem and Ramdas Pophale) SiO2 
 PCOD9445047
Probable space group: P N N M
;
_chemical_formula_sum "Si O2"
_cell_formula_units_Z 48
_cell_length_a 28.734124
_cell_length_b 10.480852
_cell_length_c 8.644671
_cell_angle_alpha 90.000000
_cell_angle_beta 90.000000
_cell_angle_gamma 90.000000
_cell_volume 2603.412702
_symmetry_space_group_name_H-M "P N N M"
_symmetry_group_IT_number 58
_symmetry_cell_setting 'orthorhombic'
loop_
_space_group_symop_operation_xyz
x,y,z
-x,-y,z
1/2+x,1/2-y,1/2-z
1/2-x,1/2+y,1/2-z
-x,-y,-z
x,y,-z
1/2-x,1/2+y,1/2+z
1/2+x,1/2-y,1/2+z
loop_
_atom_site_type_symbol
_atom_site_label
_atom_site_fract_x
_atom_site_fract_y
_atom_site_fract_z
Si Si1 0.803358 0.001922 0.685604
Si Si2 0.048966 0.359119 0.815938
Si Si3 0.644461 0.748371 0.684404
Si Si4 0.550995 0.855028 0.185031
Si Si5 0.641283 0.244882 0.814415
Si Si6 0.199419 0.509415 0.314940
O O1 0.798162 0.005949 0.500000
O O2 0.831439 0.873413 0.726363
O O3 0.752614 0.999381 0.762000
O O4 0.831525 0.124548 0.743101
O O5 0.058174 0.499795 0.744767
O O6 0.091873 0.270849 0.768065
O O7 0.999653 0.315033 0.746848
O O8 0.045326 0.370847 0.000000
O O9 0.643491 0.738171 0.500000
O O10 0.592711 0.770477 0.749496
O O11 0.674228 0.872198 0.733719
O O12 0.551615 0.855564 0.000000
O O13 0.672652 0.121570 0.775614
O O14 0.633902 0.243868 0.000000
O O15 0.196736 0.526781 0.500000
#
# Coordination Sequence:
#
# PCOD9445047 Si02
#       6
#     8   8   8   8   8   8
#     4  11  24  41  61  88 124 163 203 249 304 360
#     4  11  21  35  60  92 121 152 195 247 300 357
#     4  12  24  40  61  90 124 160 204 251 300 358
#     4  11  21  37  61  88 120 156 197 247 300 354
#     4  10  22  40  61  87 121 160 201 247 300 359
#     4  11  22  39  64  91 120 157 204 253 302 356
#
# _framework density 18.437336999999999
#
# number of rings (size 3 to 8) (size 9 to 14) (size 15 to 20)
#    0.000    1.000    1.667    7.500    0.000    3.333 
#    0.000    0.833    0.000    5.000    0.000    0.000 
#    0.000    0.000    0.000    0.000    0.000    0.000 
#
# Total GULP energy -268523.236450 kJ/mol
# GULP energy per Si atom -5594.234093 kJ/mol
# Density = 1.839537 g / cm^3
# Si number density = 18.437337 Si / 1000 Ang^3
#
#
#
# Elastic Constant Matrix: (Units=GPa)
#
#
# Indices 1 2 3 4 5 6 
#
# 1 119.0352 31.2705 11.3061 0.0000 0.0000 0.0000
# 2 31.2705 87.8758 12.3673 0.0000 0.0000 0.0000
# 3 11.3061 12.3673 56.1381 0.0000 0.0000 0.0000
# 4 0.0000 0.0000 0.0000 32.0264 0.0000 0.0000
# 5 0.0000 0.0000 0.0000 0.0000 38.1311 0.0000
# 6 0.0000 0.0000 0.0000 0.0000 0.0000 -25.6812
#
#
#
# Elastic Compliance Matrix: (Units=1/GPa)
#
#
# Indices 1 2 3 4 5 6 
#
# 1 0.009343 -0.003158 -0.001186 0.000000 0.000000 0.000000
# 2 -0.003158 0.012811 -0.002186 0.000000 0.000000 0.000000
# 3 -0.001186 -0.002186 0.018534 0.000000 0.000000 0.000000
# 4 0.000000 0.000000 0.000000 0.031224 0.000000 0.000000
# 5 0.000000 0.000000 0.000000 0.000000 0.026225 0.000000
# 6 0.000000 0.000000 0.000000 0.000000 0.000000 -0.038939
#
#
# Mechanical properties :
#
#
# Convention : Reuss Voigt Hill
#
# Bulk Modulus (GPa) = 36.19567 41.43745 38.81656
# Shear Modulus (GPa) = 61.37386 22.76895 42.07141
#
# Velocity S-wave (km/s) = 5.77582 3.51798 4.78206
# Velocity P-wave (km/s) = 8.00965 6.24701 7.18260
#
# Compressibility (1/GPa) = 0.02762761
#
# Stress axis : x y z
#
# Youngs Moduli (GPa) = 107.03109 78.05728 53.95567
#
# Poissons Ratio (x) = 0.24649 0.06399
# Poissons Ratio (y) = 0.33798 0.11796
# Poissons Ratio (z) = 0.12694 0.17066
#
# Static dielectric constant tensor:
#      x y z
#    x 1.620700 0.000000 0.000000 
#    y 0.000000 1.607070 0.000000 
#    z 0.000000 0.000000 1.615120 
# 
# From -- ./inp_files/10327.got.cif
#   From: 2010.05.17/outbox.cif.g08.bks.cpg/sg58_6_cif.got.tgz:10327.got - 2010.06.03 14:20:14.
