data_PCOD9445868
_publ_section_title
;
Structure prediction by ZEFSAII (Michael W. Deem and Ramdas Pophale) SiO2 
 PCOD9445868
Probable space group: P N N M
;
_chemical_formula_sum "Si O2"
_cell_formula_units_Z 56
_cell_length_a 19.820799
_cell_length_b 18.711883
_cell_length_c 7.472708
_cell_angle_alpha 90.000000
_cell_angle_beta 90.000000
_cell_angle_gamma 90.000000
_cell_volume 2771.511360
_symmetry_space_group_name_H-M "P N N M"
_symmetry_group_IT_number 58
_symmetry_cell_setting 'orthorhombic'
loop_
_space_group_symop_operation_xyz
x,y,z
-x,-y,z
1/2+x,1/2-y,1/2-z
1/2-x,1/2+y,1/2-z
-x,-y,-z
x,y,-z
1/2-x,1/2+y,1/2+z
1/2+x,1/2-y,1/2+z
loop_
_atom_site_type_symbol
_atom_site_label
_atom_site_fract_x
_atom_site_fract_y
_atom_site_fract_z
Si Si1 0.569475 0.532020 0.287459
Si Si2 0.539971 0.833721 0.719755
Si Si3 0.106324 0.810484 0.789164
Si Si4 0.750208 0.153224 0.715118
Si Si5 0.787480 0.992208 0.285369
Si Si6 0.144654 0.545220 0.218195
Si Si7 0.107135 0.383317 0.218211
O O1 0.500000 0.500000 0.214720
O O2 0.560814 0.540279 0.500000
O O3 0.587095 0.611257 0.213883
O O4 0.634873 0.481281 0.264556
O O5 0.540071 0.833895 0.500000
O O6 0.564658 0.756264 0.782287
O O7 0.593624 0.893732 0.777197
O O8 0.464662 0.853950 0.777617
O O9 0.186886 0.798730 0.770903
O O10 0.092319 0.813376 0.000000
O O11 0.749821 0.153545 0.500000
O O12 0.770294 0.073051 0.775530
O O13 0.672991 0.162239 0.774649
O O14 0.785704 0.991852 0.500000
O O15 0.722967 0.946377 0.224471
O O16 0.119236 0.466001 0.270869
O O17 0.144198 0.545851 0.000000
O O18 0.106555 0.383244 0.000000
#
# Coordination Sequence:
#
# PCOD9445868 Si02
#       7
#     8   8   8   8   8   8   8
#     4   9  17  29  43  58  79 108 141 175 205 232
#     4   9  15  23  38  61  87 109 131 165 205 243
#     4   9  17  28  42  60  81 108 139 167 200 240
#     4   8  14  26  43  60  79 104 134 166 197 235
#     4   8  14  25  42  63  82 100 128 165 203 243
#     4   8  13  22  38  61  86 107 128 161 204 245
#     4   8  13  22  39  62  83 105 134 165 199 239
#
# _framework density 20.205584000000002
#
# number of rings (size 3 to 8) (size 9 to 14) (size 15 to 20)
#    0.000    3.571    0.000    2.143    0.000    2.000 
#    0.000    1.429    0.000    3.429    0.000    0.000 
#    0.000    8.000    0.000    0.000    0.000    0.000 
#
# Total GULP energy -311815.987760 kJ/mol
# GULP energy per Si atom -5568.142639 kJ/mol
# Density = 2.015959 g / cm^3
# Si number density = 20.205584 Si / 1000 Ang^3
#
#
#
# Elastic Constant Matrix: (Units=GPa)
#
#
# Indices 1 2 3 4 5 6 
#
# 1 228.8777 78.8345 3.7208 0.0000 0.0000 0.0000
# 2 78.8345 64.9606 4.2741 0.0000 0.0000 0.0000
# 3 3.7208 4.2741 54.4137 0.0000 0.0000 0.0000
# 4 0.0000 0.0000 0.0000 -1.3777 0.0000 0.0000
# 5 0.0000 0.0000 0.0000 0.0000 27.7519 0.0000
# 6 0.0000 0.0000 0.0000 0.0000 0.0000 20.1903
#
#
#
# Elastic Compliance Matrix: (Units=1/GPa)
#
#
# Indices 1 2 3 4 5 6 
#
# 1 0.007509 -0.009127 0.000203 0.000000 0.000000 0.000000
# 2 -0.009127 0.026566 -0.001463 0.000000 0.000000 0.000000
# 3 0.000203 -0.001463 0.018479 0.000000 0.000000 0.000000
# 4 0.000000 0.000000 0.000000 -0.725837 0.000000 0.000000
# 5 0.000000 0.000000 0.000000 0.000000 0.036034 0.000000
# 6 0.000000 0.000000 0.000000 0.000000 0.000000 0.049529
#
#
# Mechanical properties :
#
#
# Convention : Reuss Voigt Hill
#
# Bulk Modulus (GPa) = 31.46394 57.99007 44.72700
# Shear Modulus (GPa) = -8.98707 26.74109 8.87701
#
# Velocity S-wave (km/s) = -2.11127 3.64187 2.09830
# Velocity P-wave (km/s) = 3.10844 6.81518 5.29665
#
# Compressibility (1/GPa) = 0.03178242
#
# Stress axis : x y z
#
# Youngs Moduli (GPa) = 133.16658 37.64218 54.11631
#
# Poissons Ratio (x) = 0.34354 -0.01101
# Poissons Ratio (y) = 1.21536 0.07915
# Poissons Ratio (z) = -0.02708 0.05506
#
# Static dielectric constant tensor:
#      x y z
#    x 1.749450 0.000000 0.000000 
#    y 0.000000 1.691420 0.000000 
#    z 0.000000 0.000000 1.782600 
# 
# From -- ./inp_files/8170.got.cif
#   From: 2010.05.17/outbox.cif.g08.bks.cpg/sg58_5_cif.got.tgz:8170.got - 2010.06.03 14:20:14.
