data_PCOD9445762
_publ_section_title
;
Structure prediction by ZEFSAII (Michael W. Deem and Ramdas Pophale) SiO2 
 PCOD9445762
Probable space group: P N N M
;
_chemical_formula_sum "Si O2"
_cell_formula_units_Z 64
_cell_length_a 8.539924
_cell_length_b 22.950521
_cell_length_c 13.911372
_cell_angle_alpha 90.000000
_cell_angle_beta 90.000000
_cell_angle_gamma 90.000000
_cell_volume 2726.569164
_symmetry_space_group_name_H-M "P N N M"
_symmetry_group_IT_number 58
_symmetry_cell_setting 'orthorhombic'
loop_
_space_group_symop_operation_xyz
x,y,z
-x,-y,z
1/2+x,1/2-y,1/2-z
1/2-x,1/2+y,1/2-z
-x,-y,-z
x,y,-z
1/2-x,1/2+y,1/2+z
1/2+x,1/2-y,1/2+z
loop_
_atom_site_type_symbol
_atom_site_label
_atom_site_fract_x
_atom_site_fract_y
_atom_site_fract_z
Si Si1 0.855597 0.761525 0.616555
Si Si2 0.824013 0.370105 0.888764
Si Si3 0.933036 0.633252 0.387503
Si Si4 0.643486 0.087675 0.696897
Si Si5 0.296247 0.672863 0.386302
Si Si6 0.708356 0.703715 0.883104
Si Si7 0.366278 0.549542 0.608727
Si Si8 0.822872 0.977393 0.684586
O O1 0.850771 0.765740 0.500000
O O2 0.729990 0.808173 0.652638
O O3 0.841612 0.693414 0.635956
O O4 0.029439 0.782066 0.643124
O O5 0.689210 0.417897 0.874143
O O6 0.970429 0.398090 0.837556
O O7 0.862825 0.362713 0.000000
O O8 0.912914 0.618829 0.500000
O O9 0.867847 0.586856 0.312654
O O10 0.117579 0.649008 0.371743
O O11 0.741474 0.143349 0.662397
O O12 0.711776 0.029397 0.651209
O O13 0.311016 0.681821 0.500000
O O14 0.308380 0.739248 0.349047
O O15 0.409261 0.617599 0.366955
O O16 0.718971 0.699044 0.000000
O O17 0.500000 0.500000 0.604680
O O18 0.296683 0.550562 0.500000
O O19 0.273046 0.534113 0.704705
O O20 0.000000 0.000000 0.684190
#
# Coordination Sequence:
#
# PCOD9445762 Si02
#       8
#     8   8   8   8   8   8   8   8
#     4   8  17  37  62  86 116 157 196 232 289 360
#     4  11  24  42  62  86 120 154 192 252 308 351
#     4   9  19  36  58  86 120 155 195 242 292 356
#     4  12  24  36  58  90 118 152 196 245 303 354
#     4   8  15  32  58  84 113 154 197 237 291 355
#     4   9  18  35  59  87 118 151 193 239 285 355
#     4   9  18  35  59  86 119 158 200 251 303 350
#     4  11  25  42  59  83 114 155 207 245 289 368
#
# _framework density 23.472722999999998
#
# number of rings (size 3 to 8) (size 9 to 14) (size 15 to 20)
#    0.000    2.375    0.000    3.750    0.000    5.250 
#    0.000    3.750    0.000   11.250    0.000    0.875 
#    0.000    0.000    0.000    0.000    0.000    0.000 
#
# Total GULP energy -357200.243812 kJ/mol
# GULP energy per Si atom -5581.253810 kJ/mol
# Density = 2.341930 g / cm^3
# Si number density = 23.472723 Si / 1000 Ang^3
#
#
#
# Elastic Constant Matrix: (Units=GPa)
#
#
# Indices 1 2 3 4 5 6 
#
# 1 33.3495 2.8265 5.1877 0.0000 0.0000 0.0000
# 2 2.8265 46.1050 -3.2231 0.0000 0.0000 0.0000
# 3 5.1877 -3.2231 63.1639 0.0000 0.0000 0.0000
# 4 0.0000 0.0000 0.0000 24.0914 0.0000 0.0000
# 5 0.0000 0.0000 0.0000 0.0000 16.2619 0.0000
# 6 0.0000 0.0000 0.0000 0.0000 0.0000 38.7951
#
#
#
# Elastic Compliance Matrix: (Units=1/GPa)
#
#
# Indices 1 2 3 4 5 6 
#
# 1 0.030567 -0.002057 -0.002615 0.000000 0.000000 0.000000
# 2 -0.002057 0.021906 0.001287 0.000000 0.000000 0.000000
# 3 -0.002615 0.001287 0.016112 0.000000 0.000000 0.000000
# 4 0.000000 0.000000 0.000000 0.041509 0.000000 0.000000
# 5 0.000000 0.000000 0.000000 0.000000 0.061494 0.000000
# 6 0.000000 0.000000 0.000000 0.000000 0.000000 0.025776
#
#
# Mechanical properties :
#
#
# Convention : Reuss Voigt Hill
#
# Bulk Modulus (GPa) = 16.17765 16.91118 16.54441
# Shear Modulus (GPa) = 22.24807 25.01817 23.63312
#
# Velocity S-wave (km/s) = 3.08202 3.26826 3.17651
# Velocity P-wave (km/s) = 4.42405 4.63274 4.52960
#
# Compressibility (1/GPa) = 0.06181369
#
# Stress axis : x y z
#
# Youngs Moduli (GPa) = 32.71541 45.65031 62.06439
#
# Poissons Ratio (x) = 0.09389 0.16232
# Poissons Ratio (y) = 0.06729 -0.07986
# Poissons Ratio (z) = 0.08556 -0.05874
#
# Static dielectric constant tensor:
#      x y z
#    x 1.909460 0.000000 0.000000 
#    y 0.000000 1.929780 0.000000 
#    z 0.000000 0.000000 1.911740 
# 
# From -- ./inp_files/20324.got.cif
#   From: 2010.05.17/outbox.cif.g08.bks.cpg/sg58_11_cif.got.tgz:20324.got - 2010.06.03 14:20:14.
