data_PCOD9445726
_publ_section_title
;
Structure prediction by ZEFSAII (Michael W. Deem and Ramdas Pophale) SiO2 
 PCOD9445726
Probable space group: P N N M
;
_chemical_formula_sum "Si O2"
_cell_formula_units_Z 32
_cell_length_a 16.881604
_cell_length_b 11.530529
_cell_length_c 7.787164
_cell_angle_alpha 90.000000
_cell_angle_beta 90.000000
_cell_angle_gamma 90.000000
_cell_volume 1515.801255
_symmetry_space_group_name_H-M "P N N M"
_symmetry_group_IT_number 58
_symmetry_cell_setting 'orthorhombic'
loop_
_space_group_symop_operation_xyz
x,y,z
-x,-y,z
1/2+x,1/2-y,1/2-z
1/2-x,1/2+y,1/2-z
-x,-y,-z
x,y,-z
1/2-x,1/2+y,1/2+z
1/2+x,1/2-y,1/2+z
loop_
_atom_site_type_symbol
_atom_site_label
_atom_site_fract_x
_atom_site_fract_y
_atom_site_fract_z
Si Si1 0.560604 0.668640 0.500000
Si Si2 0.409229 0.969488 0.292661
Si Si3 0.381109 0.582592 0.500000
Si Si4 0.144314 0.712811 0.697084
Si Si5 0.680799 0.263403 0.802062
O O1 0.471015 0.627886 0.500000
O O2 0.615662 0.555233 0.500000
O O3 0.579409 0.741969 0.669156
O O4 0.405508 0.968509 0.500000
O O5 0.376075 0.846978 0.227994
O O6 0.500000 0.000000 0.242653
O O7 0.355589 0.073942 0.221077
O O8 0.342096 0.636066 0.669204
O O9 0.127563 0.741761 0.500000
O O10 0.228368 0.765063 0.754616
O O11 0.676479 0.299531 0.000000
#
# Coordination Sequence:
#
# PCOD9445726 Si02
#       5
#     4   8   4   8   8
#     4  11  26  47  69  97 139 181 225 279 340 408
#     4  11  23  43  71 102 139 176 224 284 345 406
#     4  11  26  47  69  97 139 181 225 279 340 408
#     4  12  25  43  70 102 137 179 226 282 340 405
#     4  12  25  43  70 102 137 179 226 282 340 405
#
# _framework density 21.110945999999998
#
# number of rings (size 3 to 8) (size 9 to 14) (size 15 to 20)
#    0.000    0.500    5.000    2.250    3.500    6.000 
#    0.000    2.500    0.000    0.000    0.000    0.000 
#    0.000    0.000    0.000    0.000    0.000    0.000 
#
# Total GULP energy -179126.253167 kJ/mol
# GULP energy per Si atom -5597.695411 kJ/mol
# Density = 2.106290 g / cm^3
# Si number density = 21.110946 Si / 1000 Ang^3
#
#
#
# Elastic Constant Matrix: (Units=GPa)
#
#
# Indices 1 2 3 4 5 6 
#
# 1 66.2375 -4.4175 14.2570 0.0000 0.0000 0.0000
# 2 -4.4175 62.5180 23.2552 0.0000 0.0000 0.0000
# 3 14.2570 23.2552 186.6787 0.0000 0.0000 0.0000
# 4 0.0000 0.0000 0.0000 32.7845 0.0000 0.0000
# 5 0.0000 0.0000 0.0000 0.0000 20.9306 0.0000
# 6 0.0000 0.0000 0.0000 0.0000 0.0000 39.0113
#
#
#
# Elastic Compliance Matrix: (Units=1/GPa)
#
#
# Indices 1 2 3 4 5 6 
#
# 1 0.015503 0.001610 -0.001385 0.000000 0.000000 0.000000
# 2 0.001610 0.016940 -0.002233 0.000000 0.000000 0.000000
# 3 -0.001385 -0.002233 0.005741 0.000000 0.000000 0.000000
# 4 0.000000 0.000000 0.000000 0.030502 0.000000 0.000000
# 5 0.000000 0.000000 0.000000 0.000000 0.047777 0.000000
# 6 0.000000 0.000000 0.000000 0.000000 0.000000 0.025634
#
#
# Mechanical properties :
#
#
# Convention : Reuss Voigt Hill
#
# Bulk Modulus (GPa) = 29.26675 42.40262 35.83468
# Shear Modulus (GPa) = 31.74596 37.36791 34.55694
#
# Velocity S-wave (km/s) = 3.88205 4.21179 4.05028
# Velocity P-wave (km/s) = 5.82985 6.61675 6.23573
#
# Compressibility (1/GPa) = 0.03416847
#
# Stress axis : x y z
#
# Youngs Moduli (GPa) = 64.50526 59.03219 174.19343
#
# Poissons Ratio (x) = -0.09507 0.24118
# Poissons Ratio (y) = -0.10388 0.38902
# Poissons Ratio (z) = 0.08931 0.13183
#
# Static dielectric constant tensor:
#      x y z
#    x 1.777770 0.000000 0.000000 
#    y 0.000000 1.744340 0.000000 
#    z 0.000000 0.000000 1.741340 
# 
# From -- ./inp_files/5084.got.cif
#   From: 2010.05.17/outbox.cif.g08.bks.cpg/sg58_3_cif.got.tgz:5084.got - 2010.06.03 14:20:14.
