data_PCOD9445518
_publ_section_title
;
Structure prediction by ZEFSAII (Michael W. Deem and Ramdas Pophale) SiO2 
 PCOD9445518
Probable space group: P N N M
;
_chemical_formula_sum "Si O2"
_cell_formula_units_Z 64
_cell_length_a 24.731497
_cell_length_b 15.051905
_cell_length_c 7.937447
_cell_angle_alpha 90.000000
_cell_angle_beta 90.000000
_cell_angle_gamma 90.000000
_cell_volume 2954.763408
_symmetry_space_group_name_H-M "P N N M"
_symmetry_group_IT_number 58
_symmetry_cell_setting 'orthorhombic'
loop_
_space_group_symop_operation_xyz
x,y,z
-x,-y,z
1/2+x,1/2-y,1/2-z
1/2-x,1/2+y,1/2-z
-x,-y,-z
x,y,-z
1/2-x,1/2+y,1/2+z
1/2+x,1/2-y,1/2+z
loop_
_atom_site_type_symbol
_atom_site_label
_atom_site_fract_x
_atom_site_fract_y
_atom_site_fract_z
Si Si1 0.667408 0.493654 0.299393
Si Si2 0.249474 0.645850 0.795989
Si Si3 0.951597 0.567295 0.794299
Si Si4 0.948534 0.945698 0.698469
Si Si5 0.601153 0.746976 0.192711
Si Si6 0.790235 0.169974 0.192246
Si Si7 0.863164 0.435758 0.203520
Si Si8 0.483675 0.736994 0.697499
O O1 0.663650 0.504767 0.500000
O O2 0.696253 0.401451 0.258916
O O3 0.607377 0.496449 0.227385
O O4 0.705530 0.572740 0.228824
O O5 0.241651 0.746638 0.731810
O O6 0.197538 0.587373 0.738295
O O7 0.247315 0.649110 0.000000
O O8 0.894694 0.523646 0.739648
O O9 0.961733 0.668291 0.737644
O O10 0.000000 0.500000 0.744190
O O11 0.951487 0.568359 0.000000
O O12 0.956681 0.933590 0.500000
O O13 0.945594 0.847607 0.777327
O O14 0.000000 0.000000 0.767434
O O15 0.647224 0.702593 0.305662
O O16 0.601662 0.851054 0.239202
O O17 0.540801 0.713290 0.217888
O O18 0.617985 0.734749 0.000000
O O19 0.771010 0.160099 0.000000
O O20 0.862223 0.436452 0.000000
O O21 0.494926 0.748536 0.500000
#
# Coordination Sequence:
#
# PCOD9445518 Si02
#       8
#     8   8   8   8   8   8   8   8
#     4  11  23  41  65  91 119 153 199 248 296 359
#     4   9  19  37  61  86 117 153 192 242 299 353
#     4   9  16  30  55  84 116 156 200 241 288 352
#     4  11  25  44  64  88 120 155 194 246 308 367
#     4  11  20  30  51  84 118 150 195 246 289 340
#     4   9  20  39  62  85 112 152 197 241 296 352
#     4   9  17  34  56  79 112 157 201 240 289 346
#     4  11  21  35  57  84 118 158 198 240 292 354
#
# _framework density 21.659939999999999
#
# number of rings (size 3 to 8) (size 9 to 14) (size 15 to 20)
#    0.000    2.000    1.250    3.750    0.000    6.000 
#    2.250    1.875    0.000    0.000    0.000    0.000 
#    0.000    0.000    0.000    0.000    0.000    0.000 
#
# Total GULP energy -357300.829154 kJ/mol
# GULP energy per Si atom -5582.825456 kJ/mol
# Density = 2.161064 g / cm^3
# Si number density = 21.659940 Si / 1000 Ang^3
#
#
#
# Elastic Constant Matrix: (Units=GPa)
#
#
# Indices 1 2 3 4 5 6 
#
# 1 62.5377 24.5322 -2.7568 0.0000 0.0000 0.0000
# 2 24.5322 118.4522 -1.3686 0.0000 0.0000 0.0000
# 3 -2.7568 -1.3686 29.4653 0.0000 0.0000 0.0000
# 4 0.0000 0.0000 0.0000 2.9773 0.0000 0.0000
# 5 0.0000 0.0000 0.0000 0.0000 20.8488 0.0000
# 6 0.0000 0.0000 0.0000 0.0000 0.0000 30.4460
#
#
#
# Elastic Compliance Matrix: (Units=1/GPa)
#
#
# Indices 1 2 3 4 5 6 
#
# 1 0.017467 -0.003601 0.001467 0.000000 0.000000 0.000000
# 2 -0.003601 0.009189 0.000090 0.000000 0.000000 0.000000
# 3 0.001467 0.000090 0.034080 0.000000 0.000000 0.000000
# 4 0.000000 0.000000 0.000000 0.335880 0.000000 0.000000
# 5 0.000000 0.000000 0.000000 0.000000 0.047964 0.000000
# 6 0.000000 0.000000 0.000000 0.000000 0.000000 0.032845
#
#
# Mechanical properties :
#
#
# Convention : Reuss Voigt Hill
#
# Bulk Modulus (GPa) = 17.65263 27.91874 22.78569
# Shear Modulus (GPa) = 9.99209 23.52431 16.75820
#
# Velocity S-wave (km/s) = 2.15016 3.29914 2.78456
# Velocity P-wave (km/s) = 3.78574 5.23736 4.56956
#
# Compressibility (1/GPa) = 0.05664877
#
# Stress axis : x y z
#
# Youngs Moduli (GPa) = 57.24922 108.82593 29.34299
#
# Poissons Ratio (x) = 0.39185 -0.04305
# Poissons Ratio (y) = 0.20614 -0.00264
# Poissons Ratio (z) = -0.08399 -0.00979
#
# Static dielectric constant tensor:
#      x y z
#    x 1.763650 0.000000 0.000000 
#    y 0.000000 1.842480 0.000000 
#    z 0.000000 0.000000 1.789870 
# 
# From -- ./inp_files/9947.got.cif
#   From: 2010.05.17/outbox.cif.g08.bks.cpg/sg58_5_cif.got.tgz:9947.got - 2010.06.03 14:20:14.
