data_PCOD9445385
_publ_section_title
;
Structure prediction by ZEFSAII (Michael W. Deem and Ramdas Pophale) SiO2 
 PCOD9445385
Probable space group: P N N M
;
_chemical_formula_sum "Si O2"
_cell_formula_units_Z 26
_cell_length_a 4.923668
_cell_length_b 19.057168
_cell_length_c 13.245596
_cell_angle_alpha 90.000000
_cell_angle_beta 90.000000
_cell_angle_gamma 90.000000
_cell_volume 1242.849747
_symmetry_space_group_name_H-M "P N N M"
_symmetry_group_IT_number 58
_symmetry_cell_setting 'orthorhombic'
loop_
_space_group_symop_operation_xyz
x,y,z
-x,-y,z
1/2+x,1/2-y,1/2-z
1/2-x,1/2+y,1/2-z
-x,-y,-z
x,y,-z
1/2-x,1/2+y,1/2+z
1/2+x,1/2-y,1/2+z
loop_
_atom_site_type_symbol
_atom_site_label
_atom_site_fract_x
_atom_site_fract_y
_atom_site_fract_z
Si Si1 0.837191 0.842379 0.000000
Si Si2 0.612491 0.570821 0.332388
Si Si3 0.848687 0.756484 0.500000
Si Si4 0.430434 0.292645 0.787484
Si Si5 0.500000 0.000000 0.000000
O O1 0.889984 0.892984 0.905643
O O2 0.048954 0.777094 0.000000
O O3 0.539939 0.811762 0.000000
O O4 0.500000 0.500000 0.282030
O O5 0.674668 0.633212 0.255056
O O6 0.835402 0.544309 0.411095
O O7 0.935483 0.796185 0.601754
O O8 0.673366 0.259665 0.719563
#
# Coordination Sequence:
#
# PCOD9445385 Si02
#       5
#     4   8   4   8   2
#     4  11  22  38  69  93 133 168 218 280 340 388
#     4  11  25  38  63 100 134 172 217 284 343 395
#     4  12  22  43  64 100 129 174 229 273 323 405
#     4  12  25  42  68  96 136 181 226 276 336 405
#     4  10  24  40  68  96 132 172 222 284 350 406
#
# _framework density 20.919663
#
# number of rings (size 3 to 8) (size 9 to 14) (size 15 to 20)
#    0.000    0.615    6.154    1.846   12.923    0.000 
#    0.000    0.769    0.000    0.923    0.000    0.000 
#    0.000    0.000    0.000    0.000    0.000    0.000 
#
# Total GULP energy -144794.602721 kJ/mol
# GULP energy per Si atom -5569.023182 kJ/mol
# Density = 2.087205 g / cm^3
# Si number density = 20.919663 Si / 1000 Ang^3
#
#
#
# Elastic Constant Matrix: (Units=GPa)
#
#
# Indices 1 2 3 4 5 6 
#
# 1 79.1117 24.7078 13.8090 0.0000 0.0000 0.0000
# 2 24.7078 154.5785 57.9315 0.0000 0.0000 0.0000
# 3 13.8090 57.9315 112.7091 0.0000 0.0000 0.0000
# 4 0.0000 0.0000 0.0000 13.7059 0.0000 0.0000
# 5 0.0000 0.0000 0.0000 0.0000 12.9672 0.0000
# 6 0.0000 0.0000 0.0000 0.0000 0.0000 43.4868
#
#
#
# Elastic Compliance Matrix: (Units=1/GPa)
#
#
# Indices 1 2 3 4 5 6 
#
# 1 0.013345 -0.001883 -0.000667 0.000000 0.000000 0.000000
# 2 -0.001883 0.008278 -0.004024 0.000000 0.000000 0.000000
# 3 -0.000667 -0.004024 0.011023 0.000000 0.000000 0.000000
# 4 0.000000 0.000000 0.000000 0.072961 0.000000 0.000000
# 5 0.000000 0.000000 0.000000 0.000000 0.077117 0.000000
# 6 0.000000 0.000000 0.000000 0.000000 0.000000 0.022995
#
#
# Mechanical properties :
#
#
# Convention : Reuss Voigt Hill
#
# Bulk Modulus (GPa) = 51.29013 59.92176 55.60594
# Shear Modulus (GPa) = 22.18594 30.69538 26.44066
#
# Velocity S-wave (km/s) = 3.26011 3.83469 3.55901
# Velocity P-wave (km/s) = 6.22431 6.95071 6.59751
#
# Compressibility (1/GPa) = 0.01949693
#
# Stress axis : x y z
#
# Youngs Moduli (GPa) = 74.93495 120.79654 90.72269
#
# Poissons Ratio (x) = 0.22746 0.06053
# Poissons Ratio (y) = 0.14110 0.36510
# Poissons Ratio (z) = 0.04999 0.48612
#
# Static dielectric constant tensor:
#      x y z
#    x 1.830520 0.000000 0.000000 
#    y 0.000000 1.817760 0.000000 
#    z 0.000000 0.000000 1.660680 
# 
# From -- ./inp_files/18222.got.cif
#   From: 2010.05.17/outbox.cif.g08.bks.cpg/sg58_10_cif.got.tgz:18222.got - 2010.06.03 14:20:14.
