data_PCOD9445636
_publ_section_title
;
Structure prediction by ZEFSAII (Michael W. Deem and Ramdas Pophale) SiO2 
 PCOD9445636
Probable space group: P N N M
;
_chemical_formula_sum "Si O2"
_cell_formula_units_Z 48
_cell_length_a 8.308681
_cell_length_b 29.335920
_cell_length_c 8.194271
_cell_angle_alpha 90.000000
_cell_angle_beta 90.000000
_cell_angle_gamma 90.000000
_cell_volume 1997.294567
_symmetry_space_group_name_H-M "P N N M"
_symmetry_group_IT_number 58
_symmetry_cell_setting 'orthorhombic'
loop_
_space_group_symop_operation_xyz
x,y,z
-x,-y,z
1/2+x,1/2-y,1/2-z
1/2-x,1/2+y,1/2-z
-x,-y,-z
x,y,-z
1/2-x,1/2+y,1/2+z
1/2+x,1/2-y,1/2+z
loop_
_atom_site_type_symbol
_atom_site_label
_atom_site_fract_x
_atom_site_fract_y
_atom_site_fract_z
Si Si1 0.732550 0.318422 0.307973
Si Si2 0.755417 0.654752 0.685092
Si Si3 0.551019 0.399066 0.190517
Si Si4 0.918976 0.569338 0.803394
Si Si5 0.245076 0.018635 0.302755
Si Si6 0.453632 0.769155 0.688619
O O1 0.710924 0.327764 0.500000
O O2 0.702630 0.364818 0.210364
O O3 0.600263 0.280710 0.254608
O O4 0.902961 0.294044 0.281824
O O5 0.753809 0.670711 0.500000
O O6 0.593150 0.627624 0.724638
O O7 0.891942 0.616696 0.715319
O O8 0.799038 0.697790 0.795103
O O9 0.602159 0.448769 0.256276
O O10 0.509896 0.403921 0.000000
O O11 0.781352 0.532905 0.750780
O O12 0.089211 0.545808 0.769516
O O13 0.907367 0.575853 0.000000
O O14 0.228559 0.016533 0.500000
O O15 0.501189 0.765761 0.500000
#
# Coordination Sequence:
#
# PCOD9445636 Si02
#       6
#     8   8   8   8   8   8
#     4  11  24  41  63  92 122 151 190 242 292 338
#     4  12  25  39  56  84 120 155 196 247 298 343
#     4  11  22  38  60  86 118 158 200 239 288 349
#     4   9  17  36  62  86 113 148 194 242 292 351
#     4   8  17  34  60  88 112 146 194 243 286 346
#     4  11  24  42  64  88 117 156 196 233 284 351
#
# _framework density 24.032508
#
# number of rings (size 3 to 8) (size 9 to 14) (size 15 to 20)
#    0.000    1.667    0.000    6.000    0.000    7.333 
#    0.000    7.500    0.000    0.000    0.000    0.000 
#    0.000    0.000    0.000    0.000    0.000    0.000 
#
# Total GULP energy -268617.605896 kJ/mol
# GULP energy per Si atom -5596.200123 kJ/mol
# Density = 2.397781 g / cm^3
# Si number density = 24.032508 Si / 1000 Ang^3
#
#
#
# Elastic Constant Matrix: (Units=GPa)
#
#
# Indices 1 2 3 4 5 6 
#
# 1 65.1152 -5.9525 2.5389 0.0000 0.0000 0.0000
# 2 -5.9525 100.8619 0.9392 0.0000 0.0000 0.0000
# 3 2.5389 0.9392 32.3163 0.0000 0.0000 0.0000
# 4 0.0000 0.0000 0.0000 19.8560 0.0000 0.0000
# 5 0.0000 0.0000 0.0000 0.0000 31.6783 0.0000
# 6 0.0000 0.0000 0.0000 0.0000 0.0000 41.0449
#
#
#
# Elastic Compliance Matrix: (Units=1/GPa)
#
#
# Indices 1 2 3 4 5 6 
#
# 1 0.015491 0.000926 -0.001244 0.000000 0.000000 0.000000
# 2 0.000926 0.009973 -0.000363 0.000000 0.000000 0.000000
# 3 -0.001244 -0.000363 0.031052 0.000000 0.000000 0.000000
# 4 0.000000 0.000000 0.000000 0.050363 0.000000 0.000000
# 5 0.000000 0.000000 0.000000 0.000000 0.031567 0.000000
# 6 0.000000 0.000000 0.000000 0.000000 0.000000 0.024364
#
#
# Mechanical properties :
#
#
# Convention : Reuss Voigt Hill
#
# Bulk Modulus (GPa) = 18.13099 21.48271 19.80685
# Shear Modulus (GPa) = 27.38900 31.90037 29.64468
#
# Velocity S-wave (km/s) = 3.37955 3.64728 3.51597
# Velocity P-wave (km/s) = 4.77381 5.16675 4.97416
#
# Compressibility (1/GPa) = 0.05515420
#
# Stress axis : x y z
#
# Youngs Moduli (GPa) = 64.55554 100.27513 32.20359
#
# Poissons Ratio (x) = -0.09283 0.04006
# Poissons Ratio (y) = -0.05976 0.01168
# Poissons Ratio (z) = 0.08030 0.03636
#
# Static dielectric constant tensor:
#      x y z
#    x 2.021120 0.000000 0.000000 
#    y 0.000000 1.896590 0.000000 
#    z 0.000000 0.000000 1.818450 
# 
# From -- ./inp_files/2857.got.cif
#   From: 2010.05.17/outbox.cif.g08.bks.cpg/sg58_2_cif.got.tgz:2857.got - 2010.06.03 14:20:14.
