data_PCOD9445347
_publ_section_title
;
Structure prediction by ZEFSAII (Michael W. Deem and Ramdas Pophale) SiO2 
 PCOD9445347
Probable space group: P N N M
;
_chemical_formula_sum "Si O2"
_cell_formula_units_Z 48
_cell_length_a 14.758625
_cell_length_b 9.851218
_cell_length_c 15.972337
_cell_angle_alpha 90.000000
_cell_angle_beta 90.000000
_cell_angle_gamma 90.000000
_cell_volume 2322.224981
_symmetry_space_group_name_H-M "P N N M"
_symmetry_group_IT_number 58
_symmetry_cell_setting 'orthorhombic'
loop_
_space_group_symop_operation_xyz
x,y,z
-x,-y,z
1/2+x,1/2-y,1/2-z
1/2-x,1/2+y,1/2-z
-x,-y,-z
x,y,-z
1/2-x,1/2+y,1/2+z
1/2+x,1/2-y,1/2+z
loop_
_atom_site_type_symbol
_atom_site_label
_atom_site_fract_x
_atom_site_fract_y
_atom_site_fract_z
Si Si1 0.255807 0.470541 0.206460
Si Si2 0.636515 0.381090 0.500000
Si Si3 0.414289 0.600571 0.095795
Si Si4 0.423363 0.314051 0.500000
Si Si5 0.575278 0.894382 0.353673
Si Si6 0.232847 0.674821 0.649960
Si Si7 0.529094 0.846840 0.161395
O O1 0.339679 0.533303 0.155456
O O2 0.165096 0.519046 0.160906
O O3 0.249673 0.539609 0.296694
O O4 0.258413 0.308501 0.207251
O O5 0.531629 0.340053 0.500000
O O6 0.631548 0.545332 0.500000
O O7 0.692175 0.324636 0.578622
O O8 0.500000 0.500000 0.094744
O O9 0.453943 0.741604 0.130829
O O10 0.381143 0.615840 0.000000
O O11 0.405277 0.225574 0.417647
O O12 0.543295 0.839314 0.262409
O O13 0.500000 0.000000 0.385600
O O14 0.128036 0.678193 0.620847
O O15 0.500000 0.000000 0.143022
#
# Coordination Sequence:
#
# PCOD9445347 Si02
#       7
#     8   4   8   4   8   8   8
#     4  11  26  43  73 100 137 183 230 284 347 409
#     4  11  28  42  73  97 151 175 231 288 345 413
#     4  11  25  43  68 100 132 177 228 281 338 403
#     4  11  25  44  64 110 133 187 226 279 351 405
#     4  10  23  43  69  98 138 176 234 280 340 410
#     4  11  26  47  69 102 136 182 230 283 348 413
#     4  10  24  44  68  98 135 177 228 284 341 402
#
# _framework density 20.669832
#
# number of rings (size 3 to 8) (size 9 to 14) (size 15 to 20)
#    0.000    1.333    1.667    1.250   17.500    0.333 
#    0.000    0.000    0.000    0.000    0.000    0.000 
#    0.000    0.000    0.000    0.000    0.000    0.000 
#
# Total GULP energy -268415.619298 kJ/mol
# GULP energy per Si atom -5591.992069 kJ/mol
# Density = 2.062279 g / cm^3
# Si number density = 20.669832 Si / 1000 Ang^3
#
#
#
# Elastic Constant Matrix: (Units=GPa)
#
#
# Indices 1 2 3 4 5 6 
#
# 1 42.7061 -22.7175 4.9202 0.0000 0.0000 0.0000
# 2 -22.7175 85.2770 7.8885 0.0000 0.0000 0.0000
# 3 4.9202 7.8885 13.7835 0.0000 0.0000 0.0000
# 4 0.0000 0.0000 0.0000 14.4887 0.0000 0.0000
# 5 0.0000 0.0000 0.0000 0.0000 7.5358 0.0000
# 6 0.0000 0.0000 0.0000 0.0000 0.0000 31.5280
#
#
#
# Elastic Compliance Matrix: (Units=1/GPa)
#
#
# Indices 1 2 3 4 5 6 
#
# 1 0.030416 0.009616 -0.016361 0.000000 0.000000 0.000000
# 2 0.009616 0.015422 -0.012259 0.000000 0.000000 0.000000
# 3 -0.016361 -0.012259 0.085406 0.000000 0.000000 0.000000
# 4 0.000000 0.000000 0.000000 0.069019 0.000000 0.000000
# 5 0.000000 0.000000 0.000000 0.000000 0.132699 0.000000
# 6 0.000000 0.000000 0.000000 0.000000 0.000000 0.031718
#
#
# Mechanical properties :
#
#
# Convention : Reuss Voigt Hill
#
# Bulk Modulus (GPa) = 10.72527 13.54989 12.13758
# Shear Modulus (GPa) = 11.52693 20.82220 16.17456
#
# Velocity S-wave (km/s) = 2.36406 3.17736 2.80039
# Velocity P-wave (km/s) = 3.55694 4.47553 4.04242
#
# Compressibility (1/GPa) = 0.09323772
#
# Stress axis : x y z
#
# Youngs Moduli (GPa) = 32.87734 64.84167 11.70875
#
# Poissons Ratio (x) = -0.62353 0.19156
# Poissons Ratio (y) = -0.31615 0.14354
# Poissons Ratio (z) = 0.53790 0.79488
#
# Static dielectric constant tensor:
#      x y z
#    x 1.738010 0.000000 0.000000 
#    y 0.000000 1.720790 0.000000 
#    z 0.000000 0.000000 1.741160 
# 
# From -- ./inp_files/25333.got.cif
#   From: 2010.05.17/outbox.cif.g08.bks.cpg/sg58_13_cif.got.tgz:25333.got - 2010.06.03 14:20:14.
