data_PCOD9445078
_publ_section_title
;
Structure prediction by ZEFSAII (Michael W. Deem and Ramdas Pophale) SiO2 
 PCOD9445078
Probable space group: P N N M
;
_chemical_formula_sum "Si O2"
_cell_formula_units_Z 58
_cell_length_a 11.864016
_cell_length_b 27.136511
_cell_length_c 8.163117
_cell_angle_alpha 90.000000
_cell_angle_beta 90.000000
_cell_angle_gamma 90.000000
_cell_volume 2628.099198
_symmetry_space_group_name_H-M "P N N M"
_symmetry_group_IT_number 58
_symmetry_cell_setting 'orthorhombic'
loop_
_space_group_symop_operation_xyz
x,y,z
-x,-y,z
1/2+x,1/2-y,1/2-z
1/2-x,1/2+y,1/2-z
-x,-y,-z
x,y,-z
1/2-x,1/2+y,1/2+z
1/2+x,1/2-y,1/2+z
loop_
_atom_site_type_symbol
_atom_site_label
_atom_site_fract_x
_atom_site_fract_y
_atom_site_fract_z
Si Si1 0.692839 0.610861 0.809600
Si Si2 0.350591 0.501133 0.185709
Si Si3 0.779758 0.846243 0.814236
Si Si4 0.500000 0.500000 0.500000
Si Si5 0.442046 0.887230 0.191912
Si Si6 0.927490 0.293851 0.186635
Si Si7 0.510755 0.688938 0.809230
Si Si8 0.644595 0.948464 0.193581
O O1 0.634349 0.557702 0.805406
O O2 0.809936 0.607524 0.715459
O O3 0.607270 0.652016 0.745444
O O4 0.719195 0.621489 0.000000
O O5 0.413877 0.519682 0.350067
O O6 0.218077 0.512282 0.209604
O O7 0.382302 0.518198 0.000000
O O8 0.684027 0.804735 0.792019
O O9 0.715586 0.897582 0.782651
O O10 0.888851 0.835906 0.707244
O O11 0.820353 0.846674 0.000000
O O12 0.485467 0.837924 0.279029
O O13 0.518477 0.933657 0.246986
O O14 0.469241 0.881199 0.000000
O O15 0.982418 0.241369 0.221791
O O16 0.890012 0.296713 0.000000
O O17 0.533431 0.697749 0.000000
O O18 0.642183 0.961432 0.000000
#
# Coordination Sequence:
#
# PCOD9445078 Si02
#       8
#     8   8   8   2   8   8   8   8
#     4  10  25  44  62  95 133 170 217 272 327 391
#     4  11  25  43  68 100 133 178 228 272 337 396
#     4  10  22  40  64  92 125 161 211 263 319 386
#     4  12  26  44  68  92 140 180 214 280 322 402
#     4  10  22  41  69  94 129 170 217 269 328 393
#     4  11  23  41  63  91 123 165 214 263 322 387
#     4  11  24  41  62  87 126 167 212 266 324 387
#     4   9  20  41  65  96 129 171 217 269 324 389
#
# _framework density 22.069182999999999
#
# number of rings (size 3 to 8) (size 9 to 14) (size 15 to 20)
#    0.000    1.655    0.690    3.517    4.828    4.966 
#    0.000    2.759    0.000    0.000    0.000    0.000 
#    0.000    0.000    0.000    0.000    0.000    0.000 
#
# Total GULP energy -323537.288571 kJ/mol
# GULP energy per Si atom -5578.229113 kJ/mol
# Density = 2.201895 g / cm^3
# Si number density = 22.069183 Si / 1000 Ang^3
#
#
#
# Elastic Constant Matrix: (Units=GPa)
#
#
# Indices 1 2 3 4 5 6 
#
# 1 94.6912 -5.4610 16.9941 0.0000 0.0000 0.0000
# 2 -5.4610 27.8525 21.4439 0.0000 0.0000 0.0000
# 3 16.9941 21.4439 82.7111 0.0000 0.0000 0.0000
# 4 0.0000 0.0000 0.0000 17.3407 0.0000 0.0000
# 5 0.0000 0.0000 0.0000 0.0000 3.9715 0.0000
# 6 0.0000 0.0000 0.0000 0.0000 0.0000 10.1053
#
#
#
# Elastic Compliance Matrix: (Units=1/GPa)
#
#
# Indices 1 2 3 4 5 6 
#
# 1 0.011516 0.005097 -0.003688 0.000000 0.000000 0.000000
# 2 0.005097 0.047113 -0.013262 0.000000 0.000000 0.000000
# 3 -0.003688 -0.013262 0.016286 0.000000 0.000000 0.000000
# 4 0.000000 0.000000 0.000000 0.057668 0.000000 0.000000
# 5 0.000000 0.000000 0.000000 0.000000 0.251796 0.000000
# 6 0.000000 0.000000 0.000000 0.000000 0.000000 0.098958
#
#
# Mechanical properties :
#
#
# Convention : Reuss Voigt Hill
#
# Bulk Modulus (GPa) = 19.52701 30.13431 24.83066
# Shear Modulus (GPa) = 9.53991 17.76867 13.65429
#
# Velocity S-wave (km/s) = 2.08137 2.84057 2.49007
# Velocity P-wave (km/s) = 3.82668 4.94394 4.42075
#
# Compressibility (1/GPa) = 0.05121112
#
# Stress axis : x y z
#
# Youngs Moduli (GPa) = 86.83237 21.22534 61.40119
#
# Poissons Ratio (x) = -0.10819 0.22643
# Poissons Ratio (y) = -0.44260 0.81431
# Poissons Ratio (z) = 0.32021 0.28149
#
# Static dielectric constant tensor:
#      x y z
#    x 1.813650 0.000000 0.000000 
#    y 0.000000 1.816540 0.000000 
#    z 0.000000 0.000000 1.790360 
# 
# From -- ./inp_files/4453.got.cif
#   From: 2010.05.17/outbox.cif.g08.bks.cpg/sg58_3_cif.got.tgz:4453.got - 2010.06.03 14:20:14.
