data_PCOD9445828
_publ_section_title
;
Structure prediction by ZEFSAII (Michael W. Deem and Ramdas Pophale) SiO2 
 PCOD9445828
Probable space group: P N N M
;
_chemical_formula_sum "Si O2"
_cell_formula_units_Z 36
_cell_length_a 14.698107
_cell_length_b 12.280948
_cell_length_c 7.342157
_cell_angle_alpha 90.000000
_cell_angle_beta 90.000000
_cell_angle_gamma 90.000000
_cell_volume 1325.308441
_symmetry_space_group_name_H-M "P N N M"
_symmetry_group_IT_number 58
_symmetry_cell_setting 'orthorhombic'
loop_
_space_group_symop_operation_xyz
x,y,z
-x,-y,z
1/2+x,1/2-y,1/2-z
1/2-x,1/2+y,1/2-z
-x,-y,-z
x,y,-z
1/2-x,1/2+y,1/2+z
1/2+x,1/2-y,1/2+z
loop_
_atom_site_type_symbol
_atom_site_label
_atom_site_fract_x
_atom_site_fract_y
_atom_site_fract_z
Si Si1 0.835890 0.407840 0.200783
Si Si2 0.986433 0.177501 0.781369
Si Si3 0.115957 0.360077 0.294040
Si Si4 0.240583 0.754962 0.500000
Si Si5 0.357976 0.503647 0.721008
O O1 0.895419 0.512367 0.254016
O O2 0.817515 0.313252 0.342995
O O3 0.736822 0.466502 0.195389
O O4 0.859981 0.366944 0.000000
O O5 0.020806 0.294656 0.721431
O O6 0.897772 0.111833 0.715811
O O7 0.068868 0.095557 0.730689
O O8 0.982941 0.174281 0.000000
O O9 0.150813 0.348779 0.500000
O O10 0.188010 0.304380 0.157613
O O11 0.348332 0.505953 0.500000
#
# Coordination Sequence:
#
# PCOD9445828 Si02
#       5
#     8   8   8   4   8
#     4  12  22  36  57  81 114 152 187 225 277 336
#     4   9  16  30  51  77 111 143 175 224 281 334
#     4  12  22  36  57  81 114 152 187 225 277 336
#     4  12  22  40  53  82 117 146 188 232 278 322
#     4   9  16  30  51  77 111 143 175 224 281 334
#
# _framework density 27.163488999999998
#
# number of rings (size 3 to 8) (size 9 to 14) (size 15 to 20)
#    0.000    1.333    6.667    2.000    0.000    0.889 
#    0.000    2.222    0.000    0.000    0.000    3.111 
#    0.000    7.111    0.000    0.000    0.000    0.000 
#
# Total GULP energy -200868.859646 kJ/mol
# GULP energy per Si atom -5579.690546 kJ/mol
# Density = 2.710166 g / cm^3
# Si number density = 27.163489 Si / 1000 Ang^3
#
#
#
# Elastic Constant Matrix: (Units=GPa)
#
#
# Indices 1 2 3 4 5 6 
#
# 1 102.8609 65.4665 -10.8231 0.0000 0.0000 0.0000
# 2 65.4665 166.0602 40.0593 0.0000 0.0000 0.0000
# 3 -10.8231 40.0593 231.6922 0.0000 0.0000 0.0000
# 4 0.0000 0.0000 0.0000 -269.8461 0.0000 0.0000
# 5 0.0000 0.0000 0.0000 0.0000 -107.0386 0.0000
# 6 0.0000 0.0000 0.0000 0.0000 0.0000 50.9039
#
#
#
# Elastic Compliance Matrix: (Units=1/GPa)
#
#
# Indices 1 2 3 4 5 6 
#
# 1 0.013539 -0.005729 0.001623 0.000000 0.000000 0.000000
# 2 -0.005729 0.008708 -0.001773 0.000000 0.000000 0.000000
# 3 0.001623 -0.001773 0.004698 0.000000 0.000000 0.000000
# 4 0.000000 0.000000 0.000000 -0.003706 0.000000 0.000000
# 5 0.000000 0.000000 0.000000 0.000000 -0.009342 0.000000
# 6 0.000000 0.000000 0.000000 0.000000 0.000000 0.019645
#
#
# Mechanical properties :
#
#
# Convention : Reuss Voigt Hill
#
# Bulk Modulus (GPa) = 65.84556 76.66875 71.25715
# Shear Modulus (GPa) = 99.27885 -38.13546 30.57170
#
# Velocity S-wave (km/s) = 6.05211 -3.75096 3.35844
# Velocity P-wave (km/s) = 8.55163 3.08652 6.42872
#
# Compressibility (1/GPa) = 0.01518705
#
# Stress axis : x y z
#
# Youngs Moduli (GPa) = 73.86126 114.83361 212.83467
#
# Poissons Ratio (x) = 0.65788 -0.34543
# Poissons Ratio (y) = 0.42315 0.37741
# Poissons Ratio (z) = -0.11988 0.20363
#
# Static dielectric constant tensor:
#      x y z
#    x 2.163830 0.000000 0.000000 
#    y 0.000000 2.166450 0.000000 
#    z 0.000000 0.000000 2.033820 
# 
# From -- ./inp_files/7527.got.cif
#   From: 2010.05.17/outbox.cif.g08.bks.cpg/sg58_4_cif.got.tgz:7527.got - 2010.06.03 14:20:14.
