data_PCOD9445003
_publ_section_title
;
Structure prediction by ZEFSAII (Michael W. Deem and Ramdas Pophale) SiO2 
 PCOD9445003
Probable space group: P N N M
;
_chemical_formula_sum "Si O2"
_cell_formula_units_Z 60
_cell_length_a 22.523154
_cell_length_b 5.534506
_cell_length_c 21.719250
_cell_angle_alpha 90.000000
_cell_angle_beta 90.000000
_cell_angle_gamma 90.000000
_cell_volume 2707.402921
_symmetry_space_group_name_H-M "P N N M"
_symmetry_group_IT_number 58
_symmetry_cell_setting 'orthorhombic'
loop_
_space_group_symop_operation_xyz
x,y,z
-x,-y,z
1/2+x,1/2-y,1/2-z
1/2-x,1/2+y,1/2-z
-x,-y,-z
x,y,-z
1/2-x,1/2+y,1/2+z
1/2+x,1/2-y,1/2+z
loop_
_atom_site_type_symbol
_atom_site_label
_atom_site_fract_x
_atom_site_fract_y
_atom_site_fract_z
Si Si1 0.215665 0.153848 0.069815
Si Si2 0.356197 0.197966 0.073169
Si Si3 0.033012 0.245771 0.000000
Si Si4 0.646803 0.695992 0.659664
Si Si5 0.065132 0.119413 0.232399
Si Si6 0.105573 0.402567 0.111003
Si Si7 0.251190 0.568852 0.785596
Si Si8 0.627298 0.309881 0.143228
O O1 0.284304 0.214771 0.079735
O O2 0.189847 0.977147 0.122031
O O3 0.171046 0.374875 0.079204
O O4 0.210366 0.057213 0.000000
O O5 0.372958 0.940120 0.104399
O O6 0.382664 0.441441 0.104475
O O7 0.369431 0.193504 0.000000
O O8 0.069592 0.253454 0.937705
O O9 0.000000 0.500000 0.000000
O O10 0.000000 0.000000 0.000000
O O11 0.615158 0.581321 0.717720
O O12 0.687339 0.913950 0.682592
O O13 0.597282 0.810424 0.615746
O O14 0.080910 0.214068 0.300282
O O15 0.081629 0.303349 0.177021
O O16 0.000000 0.000000 0.228669
O O17 0.255079 0.293900 0.762289
O O18 0.307102 0.648129 0.826874
#
# Coordination Sequence:
#
# PCOD9445003 Si02
#       8
#     8   8   4   8   8   8   8   8
#     4  10  22  39  61  96 142 181 229 278 350 417
#     4  11  25  45  73 108 143 180 225 286 361 441
#     4  12  30  48  70  92 130 196 256 304 339 395
#     4  11  24  38  64  95 134 182 224 289 342 406
#     4  11  27  46  68  98 141 185 239 292 351 413
#     4  11  25  43  65  97 137 186 242 295 346 398
#     4  12  23  39  65 100 143 181 225 276 346 416
#     4  12  24  45  72 102 143 187 230 287 358 428
#
# _framework density 22.161458
#
# number of rings (size 3 to 8) (size 9 to 14) (size 15 to 20)
#    0.000    0.800    3.333    3.200   10.267    0.000 
#    0.000    0.000    0.000    2.400    0.000    0.000 
#    0.000    0.000    0.000    0.000    0.000    0.000 
#
# Total GULP energy -334593.481871 kJ/mol
# GULP energy per Si atom -5576.558031 kJ/mol
# Density = 2.211102 g / cm^3
# Si number density = 22.161458 Si / 1000 Ang^3
#
#
#
# Elastic Constant Matrix: (Units=GPa)
#
#
# Indices 1 2 3 4 5 6 
#
# 1 35.2167 0.3884 22.8373 0.0000 0.0000 0.0000
# 2 0.3884 94.7929 46.0806 0.0000 0.0000 0.0000
# 3 22.8373 46.0806 125.8687 0.0000 0.0000 0.0000
# 4 0.0000 0.0000 0.0000 20.9874 0.0000 0.0000
# 5 0.0000 0.0000 0.0000 0.0000 -267.6078 0.0000
# 6 0.0000 0.0000 0.0000 0.0000 0.0000 21.9812
#
#
#
# Elastic Compliance Matrix: (Units=1/GPa)
#
#
# Indices 1 2 3 4 5 6 
#
# 1 0.033050 0.003381 -0.007234 0.000000 0.000000 0.000000
# 2 0.003381 0.013179 -0.005438 0.000000 0.000000 0.000000
# 3 -0.007234 -0.005438 0.011248 0.000000 0.000000 0.000000
# 4 0.000000 0.000000 0.000000 0.047648 0.000000 0.000000
# 5 0.000000 0.000000 0.000000 0.000000 -0.003737 0.000000
# 6 0.000000 0.000000 0.000000 0.000000 0.000000 0.045493
#
#
# Mechanical properties :
#
#
# Convention : Reuss Voigt Hill
#
# Bulk Modulus (GPa) = 25.71064 43.83231 34.77147
# Shear Modulus (GPa) = 28.02234 -32.48970 -2.23368
#
# Velocity S-wave (km/s) = 3.55979 -3.83305 -1.00504
# Velocity P-wave (km/s) = 5.34067 0.48151 3.79174
#
# Compressibility (1/GPa) = 0.03889441
#
# Stress axis : x y z
#
# Youngs Moduli (GPa) = 30.25745 75.87729 88.90174
#
# Poissons Ratio (x) = -0.25657 0.64315
# Poissons Ratio (y) = -0.10231 0.48348
# Poissons Ratio (z) = 0.21889 0.41265
#
# Static dielectric constant tensor:
#      x y z
#    x 1.898420 0.000000 0.000000 
#    y 0.000000 1.866930 0.000000 
#    z 0.000000 0.000000 1.860740 
# 
# From -- ./inp_files/30547.got.cif
#   From: 2010.05.17/outbox.cif.g08.bks.cpg/sg58_16_cif.got.tgz:30547.got - 2010.06.03 14:20:14.
