data_PCOD9445425
_publ_section_title
;
Structure prediction by ZEFSAII (Michael W. Deem and Ramdas Pophale) SiO2 
 PCOD9445425
Probable space group: P N N M
;
_chemical_formula_sum "Si O2"
_cell_formula_units_Z 28
_cell_length_a 8.279735
_cell_length_b 8.939200
_cell_length_c 17.761305
_cell_angle_alpha 90.000000
_cell_angle_beta 90.000000
_cell_angle_gamma 90.000000
_cell_volume 1314.588907
_symmetry_space_group_name_H-M "P N N M"
_symmetry_group_IT_number 58
_symmetry_cell_setting 'orthorhombic'
loop_
_space_group_symop_operation_xyz
x,y,z
-x,-y,z
1/2+x,1/2-y,1/2-z
1/2-x,1/2+y,1/2-z
-x,-y,-z
x,y,-z
1/2-x,1/2+y,1/2+z
1/2+x,1/2-y,1/2+z
loop_
_atom_site_type_symbol
_atom_site_label
_atom_site_fract_x
_atom_site_fract_y
_atom_site_fract_z
Si Si1 0.000000 0.000000 0.877039
Si Si2 0.561787 0.247956 0.500000
Si Si3 0.339020 0.586484 0.831870
Si Si4 0.249145 0.040896 0.500000
Si Si5 0.832928 0.571776 0.289434
O O1 0.167588 0.970811 0.832935
O O2 0.958380 0.856503 0.928681
O O3 0.413568 0.134461 0.500000
O O4 0.716103 0.137759 0.500000
O O5 0.500000 0.500000 0.811112
O O6 0.193621 0.492852 0.794594
O O7 0.343560 0.750291 0.795859
O O8 0.332184 0.588800 0.921994
O O9 0.000000 0.500000 0.319458
#
# Coordination Sequence:
#
# PCOD9445425 Si02
#       5
#     4   4   8   4   8
#     4  11  24  52  72 107 148 184 248 297 368 434
#     4  10  24  44  76 103 143 193 235 304 365 441
#     4  12  27  49  72 109 149 190 247 304 363 440
#     4  11  25  44  73 104 147 189 244 294 372 429
#     4  12  28  46  78 107 146 193 247 302 365 432
#
# _framework density 21.299434999999999
#
# number of rings (size 3 to 8) (size 9 to 14) (size 15 to 20)
#    0.000    0.571    4.286    2.143   12.000    0.000 
#    0.000    3.571    0.000    0.000    0.000    0.000 
#    0.000    0.000    0.000    0.000    0.000    0.000 
#
# Total GULP energy -156459.123937 kJ/mol
# GULP energy per Si atom -5587.825855 kJ/mol
# Density = 2.125096 g / cm^3
# Si number density = 21.299435 Si / 1000 Ang^3
#
#
#
# Elastic Constant Matrix: (Units=GPa)
#
#
# Indices 1 2 3 4 5 6 
#
# 1 120.7046 48.2819 23.8286 0.0000 0.0000 0.0000
# 2 48.2819 176.6328 54.9750 0.0000 0.0000 0.0000
# 3 23.8286 54.9750 92.0964 0.0000 0.0000 0.0000
# 4 0.0000 0.0000 0.0000 23.0387 0.0000 0.0000
# 5 0.0000 0.0000 0.0000 0.0000 -25.6820 0.0000
# 6 0.0000 0.0000 0.0000 0.0000 0.0000 31.4418
#
#
#
# Elastic Compliance Matrix: (Units=1/GPa)
#
#
# Indices 1 2 3 4 5 6 
#
# 1 0.009392 -0.002224 -0.001102 0.000000 0.000000 0.000000
# 2 -0.002224 0.007480 -0.003890 0.000000 0.000000 0.000000
# 3 -0.001102 -0.003890 0.013465 0.000000 0.000000 0.000000
# 4 0.000000 0.000000 0.000000 0.043405 0.000000 0.000000
# 5 0.000000 0.000000 0.000000 0.000000 -0.038938 0.000000
# 6 0.000000 0.000000 0.000000 0.000000 0.000000 0.031805
#
#
# Mechanical properties :
#
#
# Convention : Reuss Voigt Hill
#
# Bulk Modulus (GPa) = 62.87330 71.51164 67.19247
# Shear Modulus (GPa) = 57.90845 23.24960 40.57903
#
# Velocity S-wave (km/s) = 5.21985 3.30746 4.36956
# Velocity P-wave (km/s) = 8.11862 6.94500 7.55463
#
# Compressibility (1/GPa) = 0.01590500
#
# Stress axis : x y z
#
# Youngs Moduli (GPa) = 106.47390 133.68965 74.26550
#
# Poissons Ratio (x) = 0.29735 0.08187
# Poissons Ratio (y) = 0.23682 0.28886
# Poissons Ratio (z) = 0.11737 0.51999
#
# Static dielectric constant tensor:
#      x y z
#    x 1.850040 0.000000 0.000000 
#    y 0.000000 1.842700 0.000000 
#    z 0.000000 0.000000 1.816290 
# 
# From -- ./inp_files/24738.got.cif
#   From: 2010.05.17/outbox.cif.g08.bks.cpg/sg58_13_cif.got.tgz:24738.got - 2010.06.03 14:20:14.
