data_PCOD9445692
_publ_section_title
;
Structure prediction by ZEFSAII (Michael W. Deem and Ramdas Pophale) SiO2 
 PCOD9445692
Probable space group: P N N M
;
_chemical_formula_sum "Si O2"
_cell_formula_units_Z 58
_cell_length_a 17.470881
_cell_length_b 5.039407
_cell_length_c 28.623535
_cell_angle_alpha 90.000000
_cell_angle_beta 90.000000
_cell_angle_gamma 90.000000
_cell_volume 2520.098457
_symmetry_space_group_name_H-M "P N N M"
_symmetry_group_IT_number 58
_symmetry_cell_setting 'orthorhombic'
loop_
_space_group_symop_operation_xyz
x,y,z
-x,-y,z
1/2+x,1/2-y,1/2-z
1/2-x,1/2+y,1/2-z
-x,-y,-z
x,y,-z
1/2-x,1/2+y,1/2+z
1/2+x,1/2-y,1/2+z
loop_
_atom_site_type_symbol
_atom_site_label
_atom_site_fract_x
_atom_site_fract_y
_atom_site_fract_z
Si Si1 0.290858 0.494796 0.610182
Si Si2 0.635672 0.950159 0.733250
Si Si3 0.705790 0.251520 0.192067
Si Si4 0.418412 0.367316 0.823600
Si Si5 0.549478 0.762761 0.644395
Si Si6 0.927695 0.203308 0.423924
Si Si7 0.240152 0.995539 0.445345
Si Si8 0.000000 0.500000 0.500000
O O1 0.239781 0.477676 0.658125
O O2 0.374609 0.369175 0.621146
O O3 0.286643 0.786558 0.587831
O O4 0.255766 0.290228 0.573133
O O5 0.717653 0.878264 0.712011
O O6 0.607801 0.779903 0.777332
O O7 0.578826 0.913929 0.690874
O O8 0.653900 0.216179 0.761234
O O9 0.648797 0.429694 0.162447
O O10 0.500000 0.500000 0.814899
O O11 0.427895 0.198907 0.870640
O O12 0.500000 0.500000 0.655330
O O13 0.500000 0.000000 0.619568
O O14 0.848955 0.067112 0.438207
O O15 0.937643 0.440808 0.459292
O O16 0.000000 0.000000 0.431137
O O17 0.260496 0.966075 0.500000
#
# Coordination Sequence:
#
# PCOD9445692 Si02
#       8
#     8   8   8   8   8   8   8   2
#     4  11  26  46  74 106 143 186 242 291 374 445
#     4  11  24  38  66  97 133 184 243 289 347 423
#     4  11  23  40  66  89 140 186 237 289 357 410
#     4  11  24  41  59  94 133 179 231 292 346 415
#     4  11  26  47  75 105 143 188 237 303 365 443
#     4  11  26  42  67  95 141 188 246 292 361 419
#     4  12  25  45  75 108 142 184 241 308 357 440
#     4  12  26  44  68  98 136 200 246 314 366 428
#
# _framework density 23.014972
#
# number of rings (size 3 to 8) (size 9 to 14) (size 15 to 20)
#    0.000    0.828    3.448    2.690    5.793    2.207 
#    0.000    0.000    0.000    8.276    0.000    0.000 
#    0.000    0.000    0.000    0.000    0.000    0.000 
#
# Total GULP energy -323445.560047 kJ/mol
# GULP energy per Si atom -5576.647587 kJ/mol
# Density = 2.296259 g / cm^3
# Si number density = 23.014972 Si / 1000 Ang^3
#
#
#
# Elastic Constant Matrix: (Units=GPa)
#
#
# Indices 1 2 3 4 5 6 
#
# 1 133.3456 15.9590 25.5052 0.0000 0.0000 0.0000
# 2 15.9590 47.3766 3.5701 0.0000 0.0000 0.0000
# 3 25.5052 3.5701 91.2352 0.0000 0.0000 0.0000
# 4 0.0000 0.0000 0.0000 54.8713 0.0000 0.0000
# 5 0.0000 0.0000 0.0000 0.0000 4.6095 0.0000
# 6 0.0000 0.0000 0.0000 0.0000 0.0000 39.9225
#
#
#
# Elastic Compliance Matrix: (Units=1/GPa)
#
#
# Indices 1 2 3 4 5 6 
#
# 1 0.008232 -0.002607 -0.002199 0.000000 0.000000 0.000000
# 2 -0.002607 0.021996 -0.000132 0.000000 0.000000 0.000000
# 3 -0.002199 -0.000132 0.011581 0.000000 0.000000 0.000000
# 4 0.000000 0.000000 0.000000 0.018224 0.000000 0.000000
# 5 0.000000 0.000000 0.000000 0.000000 0.216943 0.000000
# 6 0.000000 0.000000 0.000000 0.000000 0.000000 0.025049
#
#
# Mechanical properties :
#
#
# Convention : Reuss Voigt Hill
#
# Bulk Modulus (GPa) = 31.31695 40.22512 35.77104
# Shear Modulus (GPa) = 15.50172 35.00887 25.25529
#
# Velocity S-wave (km/s) = 2.59810 3.90440 3.31621
# Velocity P-wave (km/s) = 4.75783 6.15155 5.49902
#
# Compressibility (1/GPa) = 0.03193159
#
# Stress axis : x y z
#
# Youngs Moduli (GPa) = 121.47702 45.46350 86.35090
#
# Poissons Ratio (x) = 0.11854 0.18991
# Poissons Ratio (y) = 0.31672 0.01138
# Poissons Ratio (z) = 0.26716 0.00599
#
# Static dielectric constant tensor:
#      x y z
#    x 1.897710 0.000000 0.000000 
#    y 0.000000 1.992370 0.000000 
#    z 0.000000 0.000000 1.884580 
# 
# From -- ./inp_files/33826.got.cif
#   From: 2010.05.17/outbox.cif.g08.bks.cpg/sg58_17_cif.got.tgz:33826.got - 2010.06.03 14:20:14.
