data_PCOD9445501
_publ_section_title
;
Structure prediction by ZEFSAII (Michael W. Deem and Ramdas Pophale) SiO2 
 PCOD9445501
Probable space group: P N N M
;
_chemical_formula_sum "Si O2"
_cell_formula_units_Z 52
_cell_length_a 11.484481
_cell_length_b 7.808456
_cell_length_c 32.679680
_cell_angle_alpha 90.000000
_cell_angle_beta 90.000000
_cell_angle_gamma 90.000000
_cell_volume 2930.585094
_symmetry_space_group_name_H-M "P N N M"
_symmetry_group_IT_number 58
_symmetry_cell_setting 'orthorhombic'
loop_
_space_group_symop_operation_xyz
x,y,z
-x,-y,z
1/2+x,1/2-y,1/2-z
1/2-x,1/2+y,1/2-z
-x,-y,-z
x,y,-z
1/2-x,1/2+y,1/2+z
1/2+x,1/2-y,1/2+z
loop_
_atom_site_type_symbol
_atom_site_label
_atom_site_fract_x
_atom_site_fract_y
_atom_site_fract_z
Si Si1 0.137093 0.042402 0.831937
Si Si2 0.776707 0.337943 0.823884
Si Si3 0.500000 0.000000 0.279218
Si Si4 0.171189 0.622116 0.911495
Si Si5 0.086866 0.240727 0.000000
Si Si6 0.678610 0.885651 0.500000
Si Si7 0.092927 0.154391 0.252796
Si Si8 0.419853 0.733385 0.588432
O O1 0.161906 0.146374 0.790537
O O2 0.146973 0.143615 0.874425
O O3 0.201892 0.864865 0.826514
O O4 0.000000 0.000000 0.830662
O O5 0.894112 0.434492 0.808257
O O6 0.752066 0.384212 0.870913
O O7 0.677749 0.368942 0.790780
O O8 0.467160 0.839074 0.250866
O O9 0.120516 0.430075 0.915280
O O10 0.059423 0.747672 0.903851
O O11 0.226426 0.667112 0.955537
O O12 0.169464 0.407788 0.000000
O O13 0.101029 0.150010 0.043740
O O14 0.954669 0.314799 0.000000
O O15 0.000000 0.000000 0.253837
#
# Coordination Sequence:
#
# PCOD9445501 Si02
#       8
#     8   8   4   8   4   4   8   8
#     4  11  19  33  46  71 105 135 175 220 251 318
#     4  12  22  35  57  78 108 143 180 222 272 315
#     4  12  22  38  60  79 106 149 176 218 278 314
#     4   9  15  26  46  71  97 143 174 216 260 313
#     4   7  12  22  40  65  96 145 170 211 249 304
#     4   7  12  22  39  66 100 128 181 211 248 313
#     4  11  24  42  55  79 107 139 185 231 264 321
#     4   9  15  27  45  68 106 138 182 208 256 317
#
# _framework density 17.743898000000002
#
# number of rings (size 3 to 8) (size 9 to 14) (size 15 to 20)
#    0.000    2.000    4.615    4.615    0.000    0.000 
#    2.769    1.154    0.000    0.000    0.000    0.538 
#    0.000    0.615    0.000    0.462    0.000    0.000 
#
# Total GULP energy -289591.912255 kJ/mol
# GULP energy per Si atom -5569.075236 kJ/mol
# Density = 1.770351 g / cm^3
# Si number density = 17.743898 Si / 1000 Ang^3
#
#
#
# Elastic Constant Matrix: (Units=GPa)
#
#
# Indices 1 2 3 4 5 6 
#
# 1 23.8250 20.5986 45.1752 0.0000 0.0000 0.0000
# 2 20.5986 78.0801 35.7540 0.0000 0.0000 0.0000
# 3 45.1752 35.7540 201.1001 0.0000 0.0000 0.0000
# 4 0.0000 0.0000 0.0000 22.5515 0.0000 0.0000
# 5 0.0000 0.0000 0.0000 0.0000 19.3102 0.0000
# 6 0.0000 0.0000 0.0000 0.0000 0.0000 8.0538
#
#
#
# Elastic Compliance Matrix: (Units=1/GPa)
#
#
# Indices 1 2 3 4 5 6 
#
# 1 0.087146 -0.015269 -0.016862 0.000000 0.000000 0.000000
# 2 -0.015269 0.016618 0.000476 0.000000 0.000000 0.000000
# 3 -0.016862 0.000476 0.008676 0.000000 0.000000 0.000000
# 4 0.000000 0.000000 0.000000 0.044343 0.000000 0.000000
# 5 0.000000 0.000000 0.000000 0.000000 0.051786 0.000000
# 6 0.000000 0.000000 0.000000 0.000000 0.000000 0.124165
#
#
# Mechanical properties :
#
#
# Convention : Reuss Voigt Hill
#
# Bulk Modulus (GPa) = 20.35451 56.22899 38.29175
# Shear Modulus (GPa) = 12.12353 23.41492 17.76923
#
# Velocity S-wave (km/s) = 2.61674 3.63658 3.16797
# Velocity P-wave (km/s) = 4.54158 7.02787 5.91679
#
# Compressibility (1/GPa) = 0.04912917
#
# Stress axis : x y z
#
# Youngs Moduli (GPa) = 11.47497 60.17645 115.26119
#
# Poissons Ratio (x) = 0.91884 1.94351
# Poissons Ratio (y) = 0.17521 -0.05481
# Poissons Ratio (z) = 0.19349 -0.02862
#
# Static dielectric constant tensor:
#      x y z
#    x 1.429980 0.000000 0.000000 
#    y 0.000000 1.664410 0.000000 
#    z 0.000000 0.000000 1.708480 
# 
# From -- ./inp_files/34906.got.cif
#   From: 2010.05.17/outbox.cif.g08.bks.cpg/sg58_18_cif.got.tgz:34906.got - 2010.06.03 14:20:14.
