data_PCOD9445746
_publ_section_title
;
Structure prediction by ZEFSAII (Michael W. Deem and Ramdas Pophale) SiO2 
 PCOD9445746
Probable space group: P N N M
;
_chemical_formula_sum "Si O2"
_cell_formula_units_Z 36
_cell_length_a 8.741013
_cell_length_b 9.743041
_cell_length_c 20.602445
_cell_angle_alpha 90.000000
_cell_angle_beta 90.000000
_cell_angle_gamma 90.000000
_cell_volume 1754.587616
_symmetry_space_group_name_H-M "P N N M"
_symmetry_group_IT_number 58
_symmetry_cell_setting 'orthorhombic'
loop_
_space_group_symop_operation_xyz
x,y,z
-x,-y,z
1/2+x,1/2-y,1/2-z
1/2-x,1/2+y,1/2-z
-x,-y,-z
x,y,-z
1/2-x,1/2+y,1/2+z
1/2+x,1/2-y,1/2+z
loop_
_atom_site_type_symbol
_atom_site_label
_atom_site_fract_x
_atom_site_fract_y
_atom_site_fract_z
Si Si1 0.989208 0.657523 0.116364
Si Si2 0.828136 0.748110 0.632001
Si Si3 0.658436 0.071268 0.000000
Si Si4 0.165893 0.420809 0.236965
Si Si5 0.410861 0.642590 0.500000
Si Si6 0.500000 0.500000 0.815429
O O1 0.865126 0.673162 0.173688
O O2 0.947963 0.764428 0.061216
O O3 0.000000 0.500000 0.092029
O O4 0.160718 0.685777 0.139864
O O5 0.824380 0.666289 0.564041
O O6 0.841633 0.648605 0.693341
O O7 0.956017 0.867108 0.640771
O O8 0.500000 0.000000 0.000000
O O9 0.749970 0.928131 0.000000
O O10 0.340541 0.477652 0.225619
O O11 0.000000 0.500000 0.234035
O O12 0.500000 0.500000 0.500000
#
# Coordination Sequence:
#
# PCOD9445746 Si02
#       6
#     8   8   4   8   4   4
#     4  11  23  48  72 107 143 188 245 289 352 440
#     4  12  25  48  71 103 145 187 242 297 362 429
#     4  12  30  45  67 108 145 185 240 303 361 427
#     4  11  25  47  72 108 140 186 242 297 356 428
#     4  12  25  48  74 104 136 196 237 292 365 416
#     4  12  26  43  74 105 138 194 230 298 370 413
#
# _framework density 20.517641999999999
#
# number of rings (size 3 to 8) (size 9 to 14) (size 15 to 20)
#    0.000    0.444    6.667    2.333    3.111    4.000 
#    2.000    0.000    0.000    0.000    0.000    0.000 
#    0.000    0.000    0.000    0.000    0.000    0.000 
#
# Total GULP energy -200417.769218 kJ/mol
# GULP energy per Si atom -5567.160256 kJ/mol
# Density = 2.047094 g / cm^3
# Si number density = 20.517642 Si / 1000 Ang^3
#
#
#
# Elastic Constant Matrix: (Units=GPa)
#
#
# Indices 1 2 3 4 5 6 
#
# 1 168.4880 40.7948 40.7591 0.0000 0.0000 0.0000
# 2 40.7948 93.9263 76.3782 0.0000 0.0000 0.0000
# 3 40.7591 76.3782 162.0519 0.0000 0.0000 0.0000
# 4 0.0000 0.0000 0.0000 -213.9064 0.0000 0.0000
# 5 0.0000 0.0000 0.0000 0.0000 25.9194 0.0000
# 6 0.0000 0.0000 0.0000 0.0000 0.0000 45.9173
#
#
#
# Elastic Compliance Matrix: (Units=1/GPa)
#
#
# Indices 1 2 3 4 5 6 
#
# 1 0.006658 -0.002481 -0.000505 0.000000 0.000000 0.000000
# 2 -0.002481 0.018187 -0.007948 0.000000 0.000000 0.000000
# 3 -0.000505 -0.007948 0.010044 0.000000 0.000000 0.000000
# 4 0.000000 0.000000 0.000000 -0.004675 0.000000 0.000000
# 5 0.000000 0.000000 0.000000 0.000000 0.038581 0.000000
# 6 0.000000 0.000000 0.000000 0.000000 0.000000 0.021778
#
#
# Mechanical properties :
#
#
# Convention : Reuss Voigt Hill
#
# Bulk Modulus (GPa) = 76.79964 82.25893 79.52929
# Shear Modulus (GPa) = 42.81456 -10.64502 16.08477
#
# Velocity S-wave (km/s) = 4.57302 -2.28024 2.80295
# Velocity P-wave (km/s) = 8.08676 5.76595 7.02288
#
# Compressibility (1/GPa) = 0.01302089
#
# Stress axis : x y z
#
# Youngs Moduli (GPa) = 150.19389 54.98349 99.56154
#
# Poissons Ratio (x) = 0.13641 0.05031
# Poissons Ratio (y) = 0.37261 0.79132
# Poissons Ratio (z) = 0.07590 0.43701
#
# Static dielectric constant tensor:
#      x y z
#    x 1.701190 0.000000 0.000000 
#    y 0.000000 1.824520 0.000000 
#    z 0.000000 0.000000 1.670000 
# 
# From -- ./inp_files/28581.got.cif
#   From: 2010.05.17/outbox.cif.g08.bks.cpg/sg58_15_cif.got.tgz:28581.got - 2010.06.03 14:20:14.
