data_PCOD9445004
_publ_section_title
;
Structure prediction by ZEFSAII (Michael W. Deem and Ramdas Pophale) SiO2 
 PCOD9445004
Probable space group: P N N M
;
_chemical_formula_sum "Si O2"
_cell_formula_units_Z 64
_cell_length_a 15.811751
_cell_length_b 8.744352
_cell_length_c 22.575020
_cell_angle_alpha 90.000000
_cell_angle_beta 90.000000
_cell_angle_gamma 90.000000
_cell_volume 3121.301650
_symmetry_space_group_name_H-M "P N N M"
_symmetry_group_IT_number 58
_symmetry_cell_setting 'orthorhombic'
loop_
_space_group_symop_operation_xyz
x,y,z
-x,-y,z
1/2+x,1/2-y,1/2-z
1/2-x,1/2+y,1/2-z
-x,-y,-z
x,y,-z
1/2-x,1/2+y,1/2+z
1/2+x,1/2-y,1/2+z
loop_
_atom_site_type_symbol
_atom_site_label
_atom_site_fract_x
_atom_site_fract_y
_atom_site_fract_z
Si Si1 0.358845 0.558259 0.266616
Si Si2 0.085916 0.940077 0.109299
Si Si3 0.910255 0.429062 0.652234
Si Si4 0.924837 0.383732 0.932843
Si Si5 0.754351 0.413044 0.568495
Si Si6 0.585999 0.562994 0.858044
Si Si7 0.182055 0.416168 0.242828
Si Si8 0.772176 0.565307 0.891947
O O1 0.406850 0.523075 0.327140
O O2 0.405896 0.507552 0.207412
O O3 0.273133 0.458417 0.270067
O O4 0.335765 0.735756 0.258302
O O5 0.078572 0.758050 0.111450
O O6 0.172023 0.982249 0.075775
O O7 0.000000 0.000000 0.079857
O O8 0.833027 0.469339 0.608062
O O9 0.916199 0.245634 0.649985
O O10 0.884821 0.492816 0.717111
O O11 0.000000 0.500000 0.634832
O O12 0.835833 0.471660 0.932133
O O13 0.000000 0.500000 0.917105
O O14 0.941578 0.327943 0.000000
O O15 0.778957 0.400648 0.500000
O O16 0.727533 0.244973 0.592264
O O17 0.500000 0.500000 0.886086
O O18 0.673197 0.520951 0.891420
O O19 0.191720 0.460881 0.174247
#
# Coordination Sequence:
#
# PCOD9445004 Si02
#       8
#     8   8   8   8   8   8   8   8
#     4  11  22  38  63  94 132 167 214 263 323 405
#     4  12  25  41  65  95 127 169 217 268 328 390
#     4  11  24  41  66  97 134 174 223 273 336 394
#     4  11  26  44  64  93 128 171 221 273 326 386
#     4  11  23  45  69  94 131 175 228 276 327 390
#     4  10  22  39  61  97 131 177 211 264 329 390
#     4  11  21  39  63  97 131 170 214 269 336 399
#     4  10  22  40  69  93 128 172 217 272 330 390
#
# _framework density 20.504266000000001
#
# number of rings (size 3 to 8) (size 9 to 14) (size 15 to 20)
#    0.000    1.125    2.500    4.125    5.250    3.750 
#    0.000    0.000    0.000    9.375    0.000    0.000 
#    0.000    0.000    0.000    0.000    0.000    0.000 
#
# Total GULP energy -357644.633131 kJ/mol
# GULP energy per Si atom -5588.197393 kJ/mol
# Density = 2.045760 g / cm^3
# Si number density = 20.504266 Si / 1000 Ang^3
#
#
#
# Elastic Constant Matrix: (Units=GPa)
#
#
# Indices 1 2 3 4 5 6 
#
# 1 145.3594 66.6215 27.3858 0.0000 0.0000 0.0000
# 2 66.6215 92.6585 11.8517 0.0000 0.0000 0.0000
# 3 27.3858 11.8517 65.2618 0.0000 0.0000 0.0000
# 4 0.0000 0.0000 0.0000 35.6370 0.0000 0.0000
# 5 0.0000 0.0000 0.0000 0.0000 8.5470 0.0000
# 6 0.0000 0.0000 0.0000 0.0000 0.0000 39.2641
#
#
#
# Elastic Compliance Matrix: (Units=1/GPa)
#
#
# Indices 1 2 3 4 5 6 
#
# 1 0.010884 -0.007414 -0.003221 0.000000 0.000000 0.000000
# 2 -0.007414 0.016099 0.000187 0.000000 0.000000 0.000000
# 3 -0.003221 0.000187 0.016640 0.000000 0.000000 0.000000
# 4 0.000000 0.000000 0.000000 0.028061 0.000000 0.000000
# 5 0.000000 0.000000 0.000000 0.000000 0.117000 0.000000
# 6 0.000000 0.000000 0.000000 0.000000 0.000000 0.025469
#
#
# Mechanical properties :
#
#
# Convention : Reuss Voigt Hill
#
# Bulk Modulus (GPa) = 43.99680 57.22196 50.60938
# Shear Modulus (GPa) = 20.60808 29.85102 25.22955
#
# Velocity S-wave (km/s) = 3.17371 3.81969 3.51159
# Velocity P-wave (km/s) = 5.91049 6.88631 6.41698
#
# Compressibility (1/GPa) = 0.02272892
#
# Stress axis : x y z
#
# Youngs Moduli (GPa) = 91.87597 62.11622 60.09447
#
# Poissons Ratio (x) = 0.46052 0.19356
# Poissons Ratio (y) = 0.68115 -0.01126
# Poissons Ratio (z) = 0.29593 -0.01164
#
# Static dielectric constant tensor:
#      x y z
#    x 1.746550 0.000000 0.000000 
#    y 0.000000 1.723660 0.000000 
#    z 0.000000 0.000000 1.720020 
# 
# From -- ./inp_files/32220.got.cif
#   From: 2010.05.17/outbox.cif.g08.bks.cpg/sg58_17_cif.got.tgz:32220.got - 2010.06.03 14:20:14.
