data_PCOD9445515
_publ_section_title
;
Structure prediction by ZEFSAII (Michael W. Deem and Ramdas Pophale) SiO2 
 PCOD9445515
Probable space group: P N N M
;
_chemical_formula_sum "Si O2"
_cell_formula_units_Z 48
_cell_length_a 12.090452
_cell_length_b 13.820274
_cell_length_c 13.684796
_cell_angle_alpha 90.000000
_cell_angle_beta 90.000000
_cell_angle_gamma 90.000000
_cell_volume 2286.638537
_symmetry_space_group_name_H-M "P N N M"
_symmetry_group_IT_number 58
_symmetry_cell_setting 'orthorhombic'
loop_
_space_group_symop_operation_xyz
x,y,z
-x,-y,z
1/2+x,1/2-y,1/2-z
1/2-x,1/2+y,1/2-z
-x,-y,-z
x,y,-z
1/2-x,1/2+y,1/2+z
1/2+x,1/2-y,1/2+z
loop_
_atom_site_type_symbol
_atom_site_label
_atom_site_fract_x
_atom_site_fract_y
_atom_site_fract_z
Si Si1 0.383696 0.608202 0.382460
Si Si2 0.519264 0.161997 0.113023
Si Si3 0.670292 0.972034 0.114993
Si Si4 0.686507 0.220111 0.748309
Si Si5 0.944409 0.602413 0.887837
Si Si6 0.101074 0.793177 0.885317
O O1 0.387920 0.614465 0.500000
O O2 0.297816 0.523836 0.353733
O O3 0.318730 0.698086 0.334306
O O4 0.511803 0.623748 0.356447
O O5 0.408369 0.113220 0.156087
O O6 0.581450 0.239146 0.179522
O O7 0.605574 0.072320 0.116663
O O8 0.505916 0.191551 0.000000
O O9 0.673132 0.947316 0.000000
O O10 0.653755 0.124740 0.686959
O O11 0.795608 0.214139 0.813127
O O12 0.000000 0.500000 0.865084
O O13 0.031426 0.691881 0.882152
O O14 0.905416 0.599216 0.000000
O O15 0.134930 0.807863 0.000000
#
# Coordination Sequence:
#
# PCOD9445515 Si02
#       6
#     8   8   8   8   8   8
#     4   9  19  34  51  72 104 142 177 213 261 323
#     4   9  18  30  48  79 106 131 167 219 276 315
#     4   8  16  32  51  70 101 134 171 217 262 316
#     4  11  20  28  53  76 110 137 175 224 273 322
#     4   9  20  38  58  81 110 147 192 233 270 321
#     4   9  19  35  51  76 111 142 175 221 277 330
#
# _framework density 20.991513000000001
#
# number of rings (size 3 to 8) (size 9 to 14) (size 15 to 20)
#    0.000    2.833    0.000    3.000    7.000    0.000 
#    0.000    0.833    0.000    4.000    0.000    0.000 
#    0.000   18.667    0.000    0.000    0.000    0.000 
#
# Total GULP energy -267402.926128 kJ/mol
# GULP energy per Si atom -5570.894294 kJ/mol
# Density = 2.094374 g / cm^3
# Si number density = 20.991513 Si / 1000 Ang^3
#
#
#
# Elastic Constant Matrix: (Units=GPa)
#
#
# Indices 1 2 3 4 5 6 
#
# 1 129.4187 25.8166 37.8544 0.0000 0.0000 0.0000
# 2 25.8166 19.6771 -2.8486 0.0000 0.0000 0.0000
# 3 37.8544 -2.8486 67.0188 0.0000 0.0000 0.0000
# 4 0.0000 0.0000 0.0000 17.8378 0.0000 0.0000
# 5 0.0000 0.0000 0.0000 0.0000 37.8138 0.0000
# 6 0.0000 0.0000 0.0000 0.0000 0.0000 27.6577
#
#
#
# Elastic Compliance Matrix: (Units=1/GPa)
#
#
# Indices 1 2 3 4 5 6 
#
# 1 0.014373 -0.020157 -0.008975 0.000000 0.000000 0.000000
# 2 -0.020157 0.079403 0.014760 0.000000 0.000000 0.000000
# 3 -0.008975 0.014760 0.020618 0.000000 0.000000 0.000000
# 4 0.000000 0.000000 0.000000 0.056061 0.000000 0.000000
# 5 0.000000 0.000000 0.000000 0.000000 0.026445 0.000000
# 6 0.000000 0.000000 0.000000 0.000000 0.000000 0.036156
#
#
# Mechanical properties :
#
#
# Convention : Reuss Voigt Hill
#
# Bulk Modulus (GPa) = 11.67534 37.52882 24.60208
# Shear Modulus (GPa) = 17.22064 27.01468 22.11766
#
# Velocity S-wave (km/s) = 2.86730 3.59128 3.24952
# Velocity P-wave (km/s) = 4.06644 5.92564 5.08179
#
# Compressibility (1/GPa) = 0.08565058
#
# Stress axis : x y z
#
# Youngs Moduli (GPa) = 69.57553 12.59400 48.50149
#
# Poissons Ratio (x) = 0.25385 0.43530
# Poissons Ratio (y) = 1.40241 -0.71589
# Poissons Ratio (z) = 0.62444 -0.18589
#
# Static dielectric constant tensor:
#      x y z
#    x 1.847900 0.000000 0.000000 
#    y 0.000000 1.858110 0.000000 
#    z 0.000000 0.000000 1.803250 
# 
# From -- ./inp_files/21170.got.cif
#   From: 2010.05.17/outbox.cif.g08.bks.cpg/sg58_11_cif.got.tgz:21170.got - 2010.06.03 14:20:14.
