data_PCOD9445180
_publ_section_title
;
Structure prediction by ZEFSAII (Michael W. Deem and Ramdas Pophale) SiO2 
 PCOD9445180
Probable space group: P N N M
;
_chemical_formula_sum "Si O2"
_cell_formula_units_Z 34
_cell_length_a 19.207642
_cell_length_b 7.436517
_cell_length_c 9.845002
_cell_angle_alpha 90.000000
_cell_angle_beta 90.000000
_cell_angle_gamma 90.000000
_cell_volume 1406.239965
_symmetry_space_group_name_H-M "P N N M"
_symmetry_group_IT_number 58
_symmetry_cell_setting 'orthorhombic'
loop_
_space_group_symop_operation_xyz
x,y,z
-x,-y,z
1/2+x,1/2-y,1/2-z
1/2-x,1/2+y,1/2-z
-x,-y,-z
x,y,-z
1/2-x,1/2+y,1/2+z
1/2+x,1/2-y,1/2+z
loop_
_atom_site_type_symbol
_atom_site_label
_atom_site_fract_x
_atom_site_fract_y
_atom_site_fract_z
Si Si1 0.500000 0.000000 0.000000
Si Si2 0.077614 0.057524 0.700220
Si Si3 0.803274 0.972732 0.500000
Si Si4 0.892918 0.529815 0.298039
Si Si5 0.856060 0.463842 0.000000
Si Si6 0.277759 0.960836 0.000000
Si Si7 0.378514 0.465410 0.500000
O O1 0.551208 0.917370 0.119669
O O2 0.086889 0.266852 0.661514
O O3 0.146600 0.976686 0.626675
O O4 0.000000 0.000000 0.658231
O O5 0.085008 0.024904 0.861223
O O6 0.723529 0.038143 0.500000
O O7 0.785861 0.757061 0.500000
O O8 0.818728 0.482975 0.364057
O O9 0.892038 0.523053 0.138279
O O10 0.866409 0.248784 0.000000
O O11 0.200664 0.034531 0.000000
#
# Coordination Sequence:
#
# PCOD9445180 Si02
#       7
#     2   8   4   8   4   4   4
#     4  10  24  42  66  90 118 160 206 248 308 382
#     4  11  23  41  63  91 129 170 208 255 313 376
#     4   9  20  40  66  92 123 161 213 262 308 368
#     4  10  22  42  67  88 128 165 208 255 321 364
#     4  11  23  40  65  98 123 161 211 266 312 363
#     4   8  18  40  63  89 125 166 204 264 305 370
#     4  11  23  38  60  96 130 159 215 256 310 372
#
# _framework density 24.177951
#
# number of rings (size 3 to 8) (size 9 to 14) (size 15 to 20)
#    0.000    1.882    0.000    3.529    3.294    0.471 
#    0.000    2.353    0.000    0.000    0.000    0.000 
#    0.000    0.000    0.000    0.000    0.000    0.000 
#
# Total GULP energy -189423.689626 kJ/mol
# GULP energy per Si atom -5571.284989 kJ/mol
# Density = 2.412292 g / cm^3
# Si number density = 24.177951 Si / 1000 Ang^3
#
#
#
# Elastic Constant Matrix: (Units=GPa)
#
#
# Indices 1 2 3 4 5 6 
#
# 1 136.3791 10.6378 54.5513 0.0000 0.0000 0.0000
# 2 10.6378 66.5677 -15.0435 0.0000 0.0000 0.0000
# 3 54.5513 -15.0435 204.9231 0.0000 0.0000 0.0000
# 4 0.0000 0.0000 0.0000 -56.5939 0.0000 0.0000
# 5 0.0000 0.0000 0.0000 0.0000 34.5718 0.0000
# 6 0.0000 0.0000 0.0000 0.0000 0.0000 25.0130
#
#
#
# Elastic Compliance Matrix: (Units=1/GPa)
#
#
# Indices 1 2 3 4 5 6 
#
# 1 0.008433 -0.001886 -0.002383 0.000000 0.000000 0.000000
# 2 -0.001886 0.015698 0.001654 0.000000 0.000000 0.000000
# 3 -0.002383 0.001654 0.005636 0.000000 0.000000 0.000000
# 4 0.000000 0.000000 0.000000 -0.017670 0.000000 0.000000
# 5 0.000000 0.000000 0.000000 0.000000 0.028925 0.000000
# 6 0.000000 0.000000 0.000000 0.000000 0.000000 0.039979
#
#
# Mechanical properties :
#
#
# Convention : Reuss Voigt Hill
#
# Bulk Modulus (GPa) = 40.75613 56.46235 48.60924
# Shear Modulus (GPa) = 52.96047 24.44648 38.70347
#
# Velocity S-wave (km/s) = 4.68530 3.18324 4.00531
# Velocity P-wave (km/s) = 6.79431 6.07571 6.44503
#
# Compressibility (1/GPa) = 0.02453619
#
# Stress axis : x y z
#
# Youngs Moduli (GPa) = 118.58225 63.70394 177.43727
#
# Poissons Ratio (x) = 0.12016 0.42290
# Poissons Ratio (y) = 0.22367 -0.29357
# Poissons Ratio (z) = 0.28262 -0.10540
#
# Static dielectric constant tensor:
#      x y z
#    x 2.002860 0.000000 0.000000 
#    y 0.000000 2.026030 0.000000 
#    z 0.000000 0.000000 1.817620 
# 
# From -- ./inp_files/8702.got.cif
#   From: 2010.05.17/outbox.cif.g08.bks.cpg/sg58_5_cif.got.tgz:8702.got - 2010.06.03 14:20:14.
