data_PCOD9445153
_publ_section_title
;
Structure prediction by ZEFSAII (Michael W. Deem and Ramdas Pophale) SiO2 
 PCOD9445153
Probable space group: P N N M
;
_chemical_formula_sum "Si O2"
_cell_formula_units_Z 64
_cell_length_a 16.630926
_cell_length_b 11.852929
_cell_length_c 15.048452
_cell_angle_alpha 90.000000
_cell_angle_beta 90.000000
_cell_angle_gamma 90.000000
_cell_volume 2966.428886
_symmetry_space_group_name_H-M "P N N M"
_symmetry_group_IT_number 58
_symmetry_cell_setting 'orthorhombic'
loop_
_space_group_symop_operation_xyz
x,y,z
-x,-y,z
1/2+x,1/2-y,1/2-z
1/2-x,1/2+y,1/2-z
-x,-y,-z
x,y,-z
1/2-x,1/2+y,1/2+z
1/2+x,1/2-y,1/2+z
loop_
_atom_site_type_symbol
_atom_site_label
_atom_site_fract_x
_atom_site_fract_y
_atom_site_fract_z
Si Si1 0.630052 0.585465 0.901253
Si Si2 0.913324 0.560717 0.597056
Si Si3 0.321981 0.168824 0.868676
Si Si4 0.914919 0.053809 0.199619
Si Si5 0.683468 0.014845 0.596350
Si Si6 0.386563 0.187043 0.322568
Si Si7 0.141776 0.145835 0.898424
Si Si8 0.430198 0.839756 0.282291
O O1 0.627567 0.722566 0.900570
O O2 0.590902 0.550680 0.807239
O O3 0.722536 0.541722 0.893014
O O4 0.601235 0.548226 0.000000
O O5 0.904359 0.614163 0.500000
O O6 0.852763 0.454407 0.603937
O O7 0.911016 0.648300 0.678107
O O8 0.000000 0.500000 0.602550
O O9 0.329690 0.173057 0.762853
O O10 0.232142 0.191866 0.899896
O O11 0.901176 0.180477 0.166431
O O12 0.851928 0.974772 0.149283
O O13 0.000000 0.000000 0.173054
O O14 0.658827 0.061102 0.500000
O O15 0.629356 0.072825 0.670614
O O16 0.657927 0.884128 0.602378
O O17 0.475395 0.138347 0.299288
O O18 0.090670 0.223321 0.831585
O O19 0.111046 0.141037 0.000000
#
# Coordination Sequence:
#
# PCOD9445153 Si02
#       8
#     8   8   8   8   8   8   8   8
#     4  10  22  41  68  99 130 173 224 273 334 409
#     4  11  22  37  65 102 137 172 215 278 342 399
#     4  11  21  42  66  96 134 177 221 268 330 406
#     4  11  25  45  64  92 130 177 230 273 336 399
#     4  11  22  39  66 101 132 169 219 275 341 402
#     4  11  23  41  66  96 134 175 215 285 341 390
#     4  12  26  43  68  95 131 183 232 274 330 412
#     4  12  22  42  63  99 136 166 221 276 338 394
#
# _framework density 21.574762
#
# number of rings (size 3 to 8) (size 9 to 14) (size 15 to 20)
#    0.000    0.875    5.000    2.625    0.000    2.500 
#    0.000    0.625    0.000    2.250    0.000    0.000 
#    0.000    0.000    0.000    0.000    0.000    0.000 
#
# Total GULP energy -357294.316214 kJ/mol
# GULP energy per Si atom -5582.723691 kJ/mol
# Density = 2.152566 g / cm^3
# Si number density = 21.574762 Si / 1000 Ang^3
#
#
#
# Elastic Constant Matrix: (Units=GPa)
#
#
# Indices 1 2 3 4 5 6 
#
# 1 36.0570 7.3948 -1.2066 0.0000 0.0000 0.0000
# 2 7.3948 79.4669 24.5828 0.0000 0.0000 0.0000
# 3 -1.2066 24.5828 108.0475 0.0000 0.0000 0.0000
# 4 0.0000 0.0000 0.0000 7.7965 0.0000 0.0000
# 5 0.0000 0.0000 0.0000 0.0000 18.1941 0.0000
# 6 0.0000 0.0000 0.0000 0.0000 0.0000 21.4248
#
#
#
# Elastic Compliance Matrix: (Units=1/GPa)
#
#
# Indices 1 2 3 4 5 6 
#
# 1 0.028371 -0.002945 0.000987 0.000000 0.000000 0.000000
# 2 -0.002945 0.013842 -0.003182 0.000000 0.000000 0.000000
# 3 0.000987 -0.003182 0.009990 0.000000 0.000000 0.000000
# 4 0.000000 0.000000 0.000000 0.128263 0.000000 0.000000
# 5 0.000000 0.000000 0.000000 0.000000 0.054963 0.000000
# 6 0.000000 0.000000 0.000000 0.000000 0.000000 0.046675
#
#
# Mechanical properties :
#
#
# Convention : Reuss Voigt Hill
#
# Bulk Modulus (GPa) = 23.85377 31.67930 27.76653
# Shear Modulus (GPa) = 16.32068 22.33644 19.32856
#
# Velocity S-wave (km/s) = 2.75339 3.22111 2.99639
# Velocity P-wave (km/s) = 4.60310 5.34316 4.98688
#
# Compressibility (1/GPa) = 0.04192209
#
# Stress axis : x y z
#
# Youngs Moduli (GPa) = 35.24736 72.24195 100.09772
#
# Poissons Ratio (x) = 0.21278 -0.09879
# Poissons Ratio (y) = 0.10382 0.31854
# Poissons Ratio (z) = -0.03479 0.22989
#
# Static dielectric constant tensor:
#      x y z
#    x 1.775430 0.000000 0.000000 
#    y 0.000000 1.882060 0.000000 
#    z 0.000000 0.000000 1.800450 
# 
# From -- ./inp_files/22942.got.cif
#   From: 2010.05.17/outbox.cif.g08.bks.cpg/sg58_12_cif.got.tgz:22942.got - 2010.06.03 14:20:14.
