data_PCOD9445670
_publ_section_title
;
Structure prediction by ZEFSAII (Michael W. Deem and Ramdas Pophale) SiO2 
 PCOD9445670
Probable space group: P N N M
;
_chemical_formula_sum "Si O2"
_cell_formula_units_Z 48
_cell_length_a 9.126475
_cell_length_b 11.896097
_cell_length_c 23.965197
_cell_angle_alpha 90.000000
_cell_angle_beta 90.000000
_cell_angle_gamma 90.000000
_cell_volume 2601.887823
_symmetry_space_group_name_H-M "P N N M"
_symmetry_group_IT_number 58
_symmetry_cell_setting 'orthorhombic'
loop_
_space_group_symop_operation_xyz
x,y,z
-x,-y,z
1/2+x,1/2-y,1/2-z
1/2-x,1/2+y,1/2-z
-x,-y,-z
x,y,-z
1/2-x,1/2+y,1/2+z
1/2+x,1/2-y,1/2+z
loop_
_atom_site_type_symbol
_atom_site_label
_atom_site_fract_x
_atom_site_fract_y
_atom_site_fract_z
Si Si1 0.452460 0.667921 0.163234
Si Si2 0.782123 0.736669 0.167415
Si Si3 0.239866 0.578873 0.934347
Si Si4 0.086831 0.335640 0.935995
Si Si5 0.096355 0.387006 0.732935
Si Si6 0.145825 0.042549 0.775191
O O1 0.629289 0.670208 0.160279
O O2 0.363856 0.623715 0.108673
O O3 0.423085 0.795950 0.184137
O O4 0.397807 0.592366 0.214917
O O5 0.851077 0.752139 0.107170
O O6 0.902430 0.673895 0.206693
O O7 0.764478 0.857596 0.195864
O O8 0.179337 0.451323 0.925442
O O9 0.086502 0.645737 0.927257
O O10 0.285422 0.587321 0.000000
O O11 0.109620 0.306278 0.000000
O O12 0.259675 0.432265 0.729569
O O13 0.000000 0.500000 0.731958
O O14 0.000000 0.000000 0.805347
#
# Coordination Sequence:
#
# PCOD9445670 Si02
#       6
#     8   8   8   8   8   8
#     4  11  23  36  56  86 112 147 190 228 280 333
#     4  11  23  35  58  85 111 149 186 230 279 332
#     4   9  20  37  58  83 114 148 183 229 283 334
#     4   9  20  37  57  84 113 147 186 227 281 336
#     4  11  23  38  54  80 117 150 180 227 281 333
#     4  11  23  38  54  83 117 147 186 229 276 337
#
# _framework density 18.448143000000002
#
# number of rings (size 3 to 8) (size 9 to 14) (size 15 to 20)
#    0.000    1.667    3.333    2.000    7.000    0.667 
#    0.000    1.667    0.000    2.000    0.000    0.000 
#    0.000    0.000    0.000    0.000    0.000    0.000 
#
# Total GULP energy -267348.059184 kJ/mol
# GULP energy per Si atom -5569.751233 kJ/mol
# Density = 1.840615 g / cm^3
# Si number density = 18.448143 Si / 1000 Ang^3
#
#
#
# Elastic Constant Matrix: (Units=GPa)
#
#
# Indices 1 2 3 4 5 6 
#
# 1 54.7041 9.3950 44.3412 0.0000 0.0000 0.0000
# 2 9.3950 51.8774 24.2484 0.0000 0.0000 0.0000
# 3 44.3412 24.2484 103.8792 0.0000 0.0000 0.0000
# 4 0.0000 0.0000 0.0000 8.8387 0.0000 0.0000
# 5 0.0000 0.0000 0.0000 0.0000 27.6008 0.0000
# 6 0.0000 0.0000 0.0000 0.0000 0.0000 38.1747
#
#
#
# Elastic Compliance Matrix: (Units=1/GPa)
#
#
# Indices 1 2 3 4 5 6 
#
# 1 0.027966 0.000578 -0.012073 0.000000 0.000000 0.000000
# 2 0.000578 0.021649 -0.005300 0.000000 0.000000 0.000000
# 3 -0.012073 -0.005300 0.016017 0.000000 0.000000 0.000000
# 4 0.000000 0.000000 0.000000 0.113138 0.000000 0.000000
# 5 0.000000 0.000000 0.000000 0.000000 0.036231 0.000000
# 6 0.000000 0.000000 0.000000 0.000000 0.000000 0.026195
#
#
# Mechanical properties :
#
#
# Convention : Reuss Voigt Hill
#
# Bulk Modulus (GPa) = 31.20794 40.71443 35.96118
# Shear Modulus (GPa) = 17.51514 23.75460 20.63487
#
# Velocity S-wave (km/s) = 3.08462 3.59227 3.34808
# Velocity P-wave (km/s) = 5.44424 6.27084 5.87210
#
# Compressibility (1/GPa) = 0.03204313
#
# Stress axis : x y z
#
# Youngs Moduli (GPa) = 35.75712 46.19161 62.43365
#
# Poissons Ratio (x) = -0.02671 0.75373
# Poissons Ratio (y) = -0.02067 0.33092
# Poissons Ratio (z) = 0.43168 0.24483
#
# Static dielectric constant tensor:
#      x y z
#    x 1.681610 0.000000 0.000000 
#    y 0.000000 1.639070 0.000000 
#    z 0.000000 0.000000 1.627550 
# 
# From -- ./inp_files/31433.got.cif
#   From: 2010.05.17/outbox.cif.g08.bks.cpg/sg58_16_cif.got.tgz:31433.got - 2010.06.03 14:20:14.
