data_PCOD9445624
_publ_section_title
;
Structure prediction by ZEFSAII (Michael W. Deem and Ramdas Pophale) SiO2 
 PCOD9445624
Probable space group: P N N M
;
_chemical_formula_sum "Si O2"
_cell_formula_units_Z 64
_cell_length_a 9.156962
_cell_length_b 16.872515
_cell_length_c 23.208336
_cell_angle_alpha 90.000000
_cell_angle_beta 90.000000
_cell_angle_gamma 90.000000
_cell_volume 3585.710626
_symmetry_space_group_name_H-M "P N N M"
_symmetry_group_IT_number 58
_symmetry_cell_setting 'orthorhombic'
loop_
_space_group_symop_operation_xyz
x,y,z
-x,-y,z
1/2+x,1/2-y,1/2-z
1/2-x,1/2+y,1/2-z
-x,-y,-z
x,y,-z
1/2-x,1/2+y,1/2+z
1/2+x,1/2-y,1/2+z
loop_
_atom_site_type_symbol
_atom_site_label
_atom_site_fract_x
_atom_site_fract_y
_atom_site_fract_z
Si Si1 0.343572 0.960387 0.269906
Si Si2 0.097451 0.197475 0.065147
Si Si3 0.690800 0.593283 0.568336
Si Si4 0.943595 0.230797 0.272086
Si Si5 0.914266 0.634215 0.656476
Si Si6 0.371177 0.801286 0.676225
Si Si7 0.102844 0.072449 0.765670
Si Si8 0.276525 0.077364 0.119227
O O1 0.332180 0.911713 0.209032
O O2 0.346023 0.895197 0.319809
O O3 0.500000 0.000000 0.267443
O O4 0.223017 0.028622 0.273704
O O5 0.109329 0.264691 0.113424
O O6 0.241450 0.144008 0.072418
O O7 0.965641 0.134927 0.077302
O O8 0.079631 0.226508 0.000000
O O9 0.715104 0.588434 0.500000
O O10 0.807614 0.644803 0.603105
O O11 0.717979 0.506195 0.595378
O O12 0.027521 0.282655 0.319646
O O13 0.986172 0.276731 0.213339
O O14 0.010551 0.142998 0.262900
O O15 0.774231 0.230164 0.290124
O O16 0.054865 0.583312 0.636881
O O17 0.186988 0.099614 0.822965
O O18 0.000000 0.000000 0.783616
#
# Coordination Sequence:
#
# PCOD9445624 Si02
#       8
#     8   8   8   8   8   8   8   8
#     4  11  22  37  57  87 120 149 190 243 305 359
#     4  11  24  41  59  83 118 161 208 243 285 346
#     4  11  24  38  56  84 119 165 207 237 274 342
#     4  11  23  37  57  88 117 156 196 243 300 357
#     4  11  22  37  55  82 124 156 196 244 292 345
#     4  11  24  39  59  87 118 155 198 244 301 352
#     4  12  21  34  57  84 118 155 187 238 300 359
#     4  12  21  36  57  85 121 161 198 235 286 344
#
# _framework density 17.848623
#
# number of rings (size 3 to 8) (size 9 to 14) (size 15 to 20)
#    0.000    0.750    6.250    1.875    5.250    2.500 
#    0.000    0.000    0.000    0.375    0.000    2.625 
#    0.000    0.000    0.000    0.000    0.000    0.000 
#
# Total GULP energy -357315.615110 kJ/mol
# GULP energy per Si atom -5583.056486 kJ/mol
# Density = 1.780800 g / cm^3
# Si number density = 17.848623 Si / 1000 Ang^3
#
#
#
# Elastic Constant Matrix: (Units=GPa)
#
#
# Indices 1 2 3 4 5 6 
#
# 1 44.8230 5.0188 20.4063 0.0000 0.0000 0.0000
# 2 5.0188 66.3210 39.1560 0.0000 0.0000 0.0000
# 3 20.4063 39.1560 90.7065 0.0000 0.0000 0.0000
# 4 0.0000 0.0000 0.0000 25.9222 0.0000 0.0000
# 5 0.0000 0.0000 0.0000 0.0000 18.8374 0.0000
# 6 0.0000 0.0000 0.0000 0.0000 0.0000 26.4605
#
#
#
# Elastic Compliance Matrix: (Units=1/GPa)
#
#
# Indices 1 2 3 4 5 6 
#
# 1 0.025037 0.001920 -0.006461 0.000000 0.000000 0.000000
# 2 0.001920 0.020383 -0.009231 0.000000 0.000000 0.000000
# 3 -0.006461 -0.009231 0.016463 0.000000 0.000000 0.000000
# 4 0.000000 0.000000 0.000000 0.038577 0.000000 0.000000
# 5 0.000000 0.000000 0.000000 0.000000 0.053086 0.000000
# 6 0.000000 0.000000 0.000000 0.000000 0.000000 0.037792
#
#
# Mechanical properties :
#
#
# Convention : Reuss Voigt Hill
#
# Bulk Modulus (GPa) = 29.12199 36.77919 32.95059
# Shear Modulus (GPa) = 21.70822 23.39530 22.55176
#
# Velocity S-wave (km/s) = 3.49125 3.62437 3.55843
# Velocity P-wave (km/s) = 5.70993 6.17784 5.94849
#
# Compressibility (1/GPa) = 0.03433832
#
# Stress axis : x y z
#
# Youngs Moduli (GPa) = 39.94146 49.06108 60.74254
#
# Poissons Ratio (x) = -0.09421 0.39248
# Poissons Ratio (y) = -0.07670 0.56070
# Poissons Ratio (z) = 0.25808 0.45287
#
# Static dielectric constant tensor:
#      x y z
#    x 1.656250 0.000000 0.000000 
#    y 0.000000 1.647970 0.000000 
#    z 0.000000 0.000000 1.603170 
# 
# From -- ./inp_files/31693.got.cif
#   From: 2010.05.17/outbox.cif.g08.bks.cpg/sg58_16_cif.got.tgz:31693.got - 2010.06.03 14:20:14.
