data_PCOD9445162
_publ_section_title
;
Structure prediction by ZEFSAII (Michael W. Deem and Ramdas Pophale) SiO2 
 PCOD9445162
Probable space group: P N N M
;
_chemical_formula_sum "Si O2"
_cell_formula_units_Z 48
_cell_length_a 30.202466
_cell_length_b 4.987824
_cell_length_c 14.551354
_cell_angle_alpha 90.000000
_cell_angle_beta 90.000000
_cell_angle_gamma 90.000000
_cell_volume 2192.082681
_symmetry_space_group_name_H-M "P N N M"
_symmetry_group_IT_number 58
_symmetry_cell_setting 'orthorhombic'
loop_
_space_group_symop_operation_xyz
x,y,z
-x,-y,z
1/2+x,1/2-y,1/2-z
1/2-x,1/2+y,1/2-z
-x,-y,-z
x,y,-z
1/2-x,1/2+y,1/2+z
1/2+x,1/2-y,1/2+z
loop_
_atom_site_type_symbol
_atom_site_label
_atom_site_fract_x
_atom_site_fract_y
_atom_site_fract_z
Si Si1 0.166995 0.147451 0.394833
Si Si2 0.252989 0.891556 0.697084
Si Si3 0.652428 0.003654 0.609791
Si Si4 0.393209 0.124752 0.892790
Si Si5 0.029326 0.754859 0.746069
Si Si6 0.596230 0.502703 0.610156
O O1 0.177725 0.218023 0.500000
O O2 0.141760 0.405525 0.355130
O O3 0.211386 0.030109 0.351780
O O4 0.131403 0.908973 0.392171
O O5 0.244091 0.578504 0.712211
O O6 0.299952 0.926381 0.648821
O O7 0.655378 0.027089 0.500000
O O8 0.613552 0.209704 0.637434
O O9 0.636796 0.704473 0.631769
O O10 0.435951 0.149680 0.829423
O O11 0.403672 0.057031 0.000000
O O12 0.055541 0.887513 0.831368
O O13 0.000000 0.500000 0.774875
O O14 0.000000 0.000000 0.707182
O O15 0.587779 0.511301 0.500000
#
# Coordination Sequence:
#
# PCOD9445162 Si02
#       6
#     8   8   8   8   8   8
#     4  10  22  42  63  89 127 173 212 255 308 369
#     4  12  25  36  59 100 130 168 212 262 309 360
#     4  10  22  42  63  89 127 173 212 255 308 369
#     4  10  23  42  67  92 125 170 211 258 318 380
#     4  12  26  42  66  98 126 162 206 270 332 386
#     4  10  23  42  67  92 125 170 211 258 318 380
#
# _framework density 21.896984
#
# number of rings (size 3 to 8) (size 9 to 14) (size 15 to 20)
#    0.000    1.333    0.000    4.500    7.000    1.333 
#    0.000    6.667    0.000    0.000    0.000    0.000 
#    0.000    0.000    0.000    0.000    0.000    0.000 
#
# Total GULP energy -268517.854223 kJ/mol
# GULP energy per Si atom -5594.121963 kJ/mol
# Density = 2.184715 g / cm^3
# Si number density = 21.896984 Si / 1000 Ang^3
#
#
#
# Elastic Constant Matrix: (Units=GPa)
#
#
# Indices 1 2 3 4 5 6 
#
# 1 97.2915 -5.2110 26.5561 0.0000 0.0000 0.0000
# 2 -5.2110 56.6664 -6.6330 0.0000 0.0000 0.0000
# 3 26.5561 -6.6330 42.9891 0.0000 0.0000 0.0000
# 4 0.0000 0.0000 0.0000 4.6842 0.0000 0.0000
# 5 0.0000 0.0000 0.0000 0.0000 -10.9953 0.0000
# 6 0.0000 0.0000 0.0000 0.0000 0.0000 33.4331
#
#
#
# Elastic Compliance Matrix: (Units=1/GPa)
#
#
# Indices 1 2 3 4 5 6 
#
# 1 0.012366 0.000247 -0.007601 0.000000 0.000000 0.000000
# 2 0.000247 0.017977 0.002621 0.000000 0.000000 0.000000
# 3 -0.007601 0.002621 0.028362 0.000000 0.000000 0.000000
# 4 0.000000 0.000000 0.000000 0.213483 0.000000 0.000000
# 5 0.000000 0.000000 0.000000 0.000000 -0.090948 0.000000
# 6 0.000000 0.000000 0.000000 0.000000 0.000000 0.029910
#
#
# Mechanical properties :
#
#
# Convention : Reuss Voigt Hill
#
# Bulk Modulus (GPa) = 20.30903 25.15234 22.73069
# Shear Modulus (GPa) = 21.09450 17.57341 19.33395
#
# Velocity S-wave (km/s) = 3.10716 2.83600 2.97467
# Velocity P-wave (km/s) = 4.70824 4.71545 4.71185
#
# Compressibility (1/GPa) = 0.04923919
#
# Stress axis : x y z
#
# Youngs Moduli (GPa) = 80.86442 55.62766 35.25900
#
# Poissons Ratio (x) = -0.01377 0.26800
# Poissons Ratio (y) = -0.02001 -0.09241
# Poissons Ratio (z) = 0.61465 -0.14579
#
# Static dielectric constant tensor:
#      x y z
#    x 1.778010 0.000000 0.000000 
#    y 0.000000 1.776410 0.000000 
#    z 0.000000 0.000000 1.846690 
# 
# From -- ./inp_files/23652.got.cif
#   From: 2010.05.17/outbox.cif.g08.bks.cpg/sg58_12_cif.got.tgz:23652.got - 2010.06.03 14:20:14.
