data_PCOD9445705
_publ_section_title
;
Structure prediction by ZEFSAII (Michael W. Deem and Ramdas Pophale) SiO2 
 PCOD9445705
Probable space group: P N N M
;
_chemical_formula_sum "Si O2"
_cell_formula_units_Z 32
_cell_length_a 16.595721
_cell_length_b 9.727557
_cell_length_c 8.197634
_cell_angle_alpha 90.000000
_cell_angle_beta 90.000000
_cell_angle_gamma 90.000000
_cell_volume 1323.391783
_symmetry_space_group_name_H-M "P N N M"
_symmetry_group_IT_number 58
_symmetry_cell_setting 'orthorhombic'
loop_
_space_group_symop_operation_xyz
x,y,z
-x,-y,z
1/2+x,1/2-y,1/2-z
1/2-x,1/2+y,1/2-z
-x,-y,-z
x,y,-z
1/2-x,1/2+y,1/2+z
1/2+x,1/2-y,1/2+z
loop_
_atom_site_type_symbol
_atom_site_label
_atom_site_fract_x
_atom_site_fract_y
_atom_site_fract_z
Si Si1 0.761066 0.421630 0.690123
Si Si2 0.655839 0.666960 0.690950
Si Si3 0.487490 0.654260 0.810686
Si Si4 0.083826 0.423672 0.191534
O O1 0.748698 0.390612 0.500000
O O2 0.689012 0.519857 0.747533
O O3 0.776003 0.281627 0.785187
O O4 0.841786 0.512886 0.711773
O O5 0.634658 0.660553 0.500000
O O6 0.578312 0.711797 0.792144
O O7 0.500000 0.500000 0.742599
O O8 0.430057 0.761801 0.721526
O O9 0.464515 0.645246 0.000000
O O10 0.000000 0.500000 0.235092
O O11 0.098705 0.449442 0.000000
#
# Coordination Sequence:
#
# PCOD9445705 Si02
#       4
#     8   8   8   8
#     4  11  25  43  66  95 128 169 213 262 319 379
#     4  11  25  44  65  95 129 167 214 261 316 380
#     4  11  25  43  66  96 129 168 213 264 319 376
#     4  11  23  41  67  96 125 166 212 261 316 374
#
# _framework density 24.180294
#
# number of rings (size 3 to 8) (size 9 to 14) (size 15 to 20)
#    0.000    1.000    2.500    3.000    3.500    7.000 
#    0.000    0.000    0.000    0.000    0.000    0.000 
#    0.000    0.000    0.000    0.000    0.000    0.000 
#
# Total GULP energy -179226.589015 kJ/mol
# GULP energy per Si atom -5600.830907 kJ/mol
# Density = 2.412526 g / cm^3
# Si number density = 24.180294 Si / 1000 Ang^3
#
#
#
# Elastic Constant Matrix: (Units=GPa)
#
#
# Indices 1 2 3 4 5 6 
#
# 1 39.6359 -5.5924 0.7182 0.0000 0.0000 0.0000
# 2 -5.5924 115.6209 -6.2461 0.0000 0.0000 0.0000
# 3 0.7182 -6.2461 37.9165 0.0000 0.0000 0.0000
# 4 0.0000 0.0000 0.0000 51.3853 0.0000 0.0000
# 5 0.0000 0.0000 0.0000 0.0000 0.4438 0.0000
# 6 0.0000 0.0000 0.0000 0.0000 0.0000 43.7233
#
#
#
# Elastic Compliance Matrix: (Units=1/GPa)
#
#
# Indices 1 2 3 4 5 6 
#
# 1 0.025406 0.001214 -0.000281 0.000000 0.000000 0.000000
# 2 0.001214 0.008785 0.001424 0.000000 0.000000 0.000000
# 3 -0.000281 0.001424 0.026614 0.000000 0.000000 0.000000
# 4 0.000000 0.000000 0.000000 0.019461 0.000000 0.000000
# 5 0.000000 0.000000 0.000000 0.000000 2.253245 0.000000
# 6 0.000000 0.000000 0.000000 0.000000 0.000000 0.022871
#
#
# Mechanical properties :
#
#
# Convention : Reuss Voigt Hill
#
# Bulk Modulus (GPa) = 15.26316 18.99251 17.12783
# Shear Modulus (GPa) = 2.10659 32.73006 17.41833
#
# Velocity S-wave (km/s) = 0.93439 3.68310 2.68685
# Velocity P-wave (km/s) = 2.73680 5.09495 4.08954
#
# Compressibility (1/GPa) = 0.06551724
#
# Stress axis : x y z
#
# Youngs Moduli (GPa) = 39.36076 113.83564 37.57470
#
# Poissons Ratio (x) = -0.13816 0.01057
# Poissons Ratio (y) = -0.04777 -0.05351
# Poissons Ratio (z) = 0.01107 -0.16212
#
# Static dielectric constant tensor:
#      x y z
#    x 1.975940 0.000000 0.000000 
#    y 0.000000 1.961180 0.000000 
#    z 0.000000 0.000000 1.807220 
# 
# From -- ./inp_files/2136.got.cif
#   From: 2010.05.17/outbox.cif.g08.bks.cpg/sg58_2_cif.got.tgz:2136.got - 2010.06.03 14:20:14.
