data_PCOD9445609
_publ_section_title
;
Structure prediction by ZEFSAII (Michael W. Deem and Ramdas Pophale) SiO2 
 PCOD9445609
Probable space group: P N N M
;
_chemical_formula_sum "Si O2"
_cell_formula_units_Z 38
_cell_length_a 22.432434
_cell_length_b 9.714046
_cell_length_c 8.568487
_cell_angle_alpha 90.000000
_cell_angle_beta 90.000000
_cell_angle_gamma 90.000000
_cell_volume 1867.156395
_symmetry_space_group_name_H-M "P N N M"
_symmetry_group_IT_number 58
_symmetry_cell_setting 'orthorhombic'
loop_
_space_group_symop_operation_xyz
x,y,z
-x,-y,z
1/2+x,1/2-y,1/2-z
1/2-x,1/2+y,1/2-z
-x,-y,-z
x,y,-z
1/2-x,1/2+y,1/2+z
1/2+x,1/2-y,1/2+z
loop_
_atom_site_type_symbol
_atom_site_label
_atom_site_fract_x
_atom_site_fract_y
_atom_site_fract_z
Si Si1 0.893109 0.514054 0.746771
Si Si2 0.767664 0.645079 0.327079
Si Si3 0.591144 0.802680 0.500000
Si Si4 0.608144 0.478407 0.500000
Si Si5 0.181808 0.053536 0.678379
Si Si6 0.500000 0.000000 0.000000
Si Si7 0.952144 0.704506 0.000000
O O1 0.831453 0.568626 0.677422
O O2 0.881448 0.378710 0.850536
O O3 0.947326 0.484622 0.632314
O O4 0.917790 0.637220 0.855227
O O5 0.740965 0.623313 0.500000
O O6 0.780336 0.806026 0.307468
O O7 0.725111 0.576855 0.200237
O O8 0.595530 0.640089 0.500000
O O9 0.520809 0.838218 0.500000
O O10 0.640229 0.448887 0.667603
O O11 0.554300 0.368613 0.500000
O O12 0.155803 0.053802 0.500000
#
# Coordination Sequence:
#
# PCOD9445609 Si02
#       7
#     8   8   4   4   8   2   4
#     4  11  22  39  69  97 128 170 218 270 319 391
#     4  11  24  42  66  95 129 169 215 266 329 384
#     4  11  25  41  64 101 127 173 224 264 323 401
#     4  12  25  47  66  93 142 175 210 280 338 379
#     4  11  27  44  65  98 129 171 221 267 325 400
#     4  12  20  40  68 100 134 162 222 274 318 378
#     4  11  21  45  68  91 128 177 219 262 331 387
#
# _framework density 20.351803
#
# number of rings (size 3 to 8) (size 9 to 14) (size 15 to 20)
#    0.000    0.842    6.316    0.947    7.368    0.000 
#    1.895    0.000    0.000    2.526    0.000    0.000 
#    0.000    0.000    0.000    0.000    0.000    0.000 
#
# Total GULP energy -211567.928597 kJ/mol
# GULP energy per Si atom -5567.577068 kJ/mol
# Density = 2.030548 g / cm^3
# Si number density = 20.351803 Si / 1000 Ang^3
#
#
#
# Elastic Constant Matrix: (Units=GPa)
#
#
# Indices 1 2 3 4 5 6 
#
# 1 24.7121 -15.0172 10.7800 0.0000 0.0000 0.0000
# 2 -15.0172 120.3572 30.6296 0.0000 0.0000 0.0000
# 3 10.7800 30.6296 131.3431 0.0000 0.0000 0.0000
# 4 0.0000 0.0000 0.0000 1.4710 0.0000 0.0000
# 5 0.0000 0.0000 0.0000 0.0000 21.2568 0.0000
# 6 0.0000 0.0000 0.0000 0.0000 0.0000 27.5987
#
#
#
# Elastic Compliance Matrix: (Units=1/GPa)
#
#
# Indices 1 2 3 4 5 6 
#
# 1 0.047365 0.007334 -0.005598 0.000000 0.000000 0.000000
# 2 0.007334 0.009969 -0.002927 0.000000 0.000000 0.000000
# 3 -0.005598 -0.002927 0.008756 0.000000 0.000000 0.000000
# 4 0.000000 0.000000 0.000000 0.679811 0.000000 0.000000
# 5 0.000000 0.000000 0.000000 0.000000 0.047044 0.000000
# 6 0.000000 0.000000 0.000000 0.000000 0.000000 0.036234
#
#
# Mechanical properties :
#
#
# Convention : Reuss Voigt Hill
#
# Bulk Modulus (GPa) = 15.69642 36.57747 26.13694
# Shear Modulus (GPa) = 5.86308 26.73329 16.29819
#
# Velocity S-wave (km/s) = 1.69915 3.62824 2.83295
# Velocity P-wave (km/s) = 3.40276 5.96354 4.85502
#
# Compressibility (1/GPa) = 0.06370881
#
# Stress axis : x y z
#
# Youngs Moduli (GPa) = 21.11264 100.31563 114.21254
#
# Poissons Ratio (x) = -0.73576 0.63935
# Poissons Ratio (y) = -0.15485 0.33426
# Poissons Ratio (z) = 0.11819 0.29359
#
# Static dielectric constant tensor:
#      x y z
#    x 1.703060 0.000000 0.000000 
#    y 0.000000 1.710560 0.000000 
#    z 0.000000 0.000000 1.775260 
# 
# From -- ./inp_files/2506.got.cif
#   From: 2010.05.17/outbox.cif.g08.bks.cpg/sg58_2_cif.got.tgz:2506.got - 2010.06.03 14:20:14.
