data_PCOD9445158
_publ_section_title
;
Structure prediction by ZEFSAII (Michael W. Deem and Ramdas Pophale) SiO2 
 PCOD9445158
Probable space group: P N N M
;
_chemical_formula_sum "Si O2"
_cell_formula_units_Z 40
_cell_length_a 13.890688
_cell_length_b 14.003940
_cell_length_c 9.472638
_cell_angle_alpha 90.000000
_cell_angle_beta 90.000000
_cell_angle_gamma 90.000000
_cell_volume 1842.658857
_symmetry_space_group_name_H-M "P N N M"
_symmetry_group_IT_number 58
_symmetry_cell_setting 'orthorhombic'
loop_
_space_group_symop_operation_xyz
x,y,z
-x,-y,z
1/2+x,1/2-y,1/2-z
1/2-x,1/2+y,1/2-z
-x,-y,-z
x,y,-z
1/2-x,1/2+y,1/2+z
1/2+x,1/2-y,1/2+z
loop_
_atom_site_type_symbol
_atom_site_label
_atom_site_fract_x
_atom_site_fract_y
_atom_site_fract_z
Si Si1 0.906710 0.067237 0.337702
Si Si2 0.509968 0.272599 0.333627
Si Si3 0.304167 0.727893 0.841424
Si Si4 0.114340 0.596922 0.162545
Si Si5 0.224044 0.456021 0.338006
O O1 0.880865 0.087027 0.500000
O O2 0.937562 0.161443 0.253952
O O3 0.816844 0.021157 0.257594
O O4 0.000000 0.000000 0.335210
O O5 0.501115 0.292694 0.500000
O O6 0.615716 0.292841 0.274802
O O7 0.478168 0.162966 0.310926
O O8 0.205759 0.669332 0.824996
O O9 0.286519 0.841543 0.835410
O O10 0.342218 0.704935 0.000000
O O11 0.134984 0.511585 0.268945
O O12 0.111539 0.562845 0.000000
O O13 0.238037 0.485400 0.500000
#
# Coordination Sequence:
#
# PCOD9445158 Si02
#       5
#     8   8   8   8   8
#     4  11  23  39  61  91 125 162 205 256 317 371
#     4  11  23  40  63  91 123 162 209 258 306 368
#     4  10  22  42  62  86 126 165 202 255 315 369
#     4  10  22  42  62  86 126 165 202 255 315 369
#     4  11  23  40  63  91 123 162 209 258 306 368
#
# _framework density 21.707761999999999
#
# number of rings (size 3 to 8) (size 9 to 14) (size 15 to 20)
#    0.000    1.400    2.000    3.000    0.000   11.200 
#    0.000    4.000    0.000    0.000    0.000    0.000 
#    0.000    0.000    0.000    0.000    0.000    0.000 
#
# Total GULP energy -223808.011844 kJ/mol
# GULP energy per Si atom -5595.200296 kJ/mol
# Density = 2.165835 g / cm^3
# Si number density = 21.707762 Si / 1000 Ang^3
#
#
#
# Elastic Constant Matrix: (Units=GPa)
#
#
# Indices 1 2 3 4 5 6 
#
# 1 50.0100 -0.3130 35.5504 0.0000 0.0000 0.0000
# 2 -0.3130 62.2173 44.5041 0.0000 0.0000 0.0000
# 3 35.5504 44.5041 134.8841 0.0000 0.0000 0.0000
# 4 0.0000 0.0000 0.0000 -743.5733 0.0000 0.0000
# 5 0.0000 0.0000 0.0000 0.0000 -76.5092 0.0000
# 6 0.0000 0.0000 0.0000 0.0000 0.0000 33.1827
#
#
#
# Elastic Compliance Matrix: (Units=1/GPa)
#
#
# Indices 1 2 3 4 5 6 
#
# 1 0.026603 0.006740 -0.009235 0.000000 0.000000 0.000000
# 2 0.006740 0.022745 -0.009281 0.000000 0.000000 0.000000
# 3 -0.009235 -0.009281 0.012910 0.000000 0.000000 0.000000
# 4 0.000000 0.000000 0.000000 -0.001345 0.000000 0.000000
# 5 0.000000 0.000000 0.000000 0.000000 -0.013070 0.000000
# 6 0.000000 0.000000 0.000000 0.000000 0.000000 0.030136
#
#
# Mechanical properties :
#
#
# Convention : Reuss Voigt Hill
#
# Bulk Modulus (GPa) = 25.83599 45.17715 35.50657
# Shear Modulus (GPa) = 43.69299 -146.22196 -51.26449
#
# Velocity S-wave (km/s) = 4.49127 -8.21617 -4.86487
# Velocity P-wave (km/s) = 6.23080 8.31569 3.89408
#
# Compressibility (1/GPa) = 0.03870569
#
# Stress axis : x y z
#
# Youngs Moduli (GPa) = 37.58923 43.96503 77.45868
#
# Poissons Ratio (x) = -0.29632 0.71537
# Poissons Ratio (y) = -0.25335 0.71890
# Poissons Ratio (z) = 0.34715 0.40804
#
# Static dielectric constant tensor:
#      x y z
#    x 1.788530 0.000000 0.000000 
#    y 0.000000 1.817550 0.000000 
#    z 0.000000 0.000000 1.744950 
# 
# From -- ./inp_files/5367.got.cif
#   From: 2010.05.17/outbox.cif.g08.bks.cpg/sg58_3_cif.got.tgz:5367.got - 2010.06.03 14:20:14.
