data_PCOD9445149
_publ_section_title
;
Structure prediction by ZEFSAII (Michael W. Deem and Ramdas Pophale) SiO2 
 PCOD9445149
Probable space group: P N N M
;
_chemical_formula_sum "Si O2"
_cell_formula_units_Z 32
_cell_length_a 7.162516
_cell_length_b 11.992036
_cell_length_c 15.386721
_cell_angle_alpha 90.000000
_cell_angle_beta 90.000000
_cell_angle_gamma 90.000000
_cell_volume 1321.613931
_symmetry_space_group_name_H-M "P N N M"
_symmetry_group_IT_number 58
_symmetry_cell_setting 'orthorhombic'
loop_
_space_group_symop_operation_xyz
x,y,z
-x,-y,z
1/2+x,1/2-y,1/2-z
1/2-x,1/2+y,1/2-z
-x,-y,-z
x,y,-z
1/2-x,1/2+y,1/2+z
1/2+x,1/2-y,1/2+z
loop_
_atom_site_type_symbol
_atom_site_label
_atom_site_fract_x
_atom_site_fract_y
_atom_site_fract_z
Si Si1 0.605394 0.899375 0.348134
Si Si2 0.615461 0.226352 0.900044
Si Si3 0.178431 0.219322 0.897968
Si Si4 0.791958 0.503450 0.337965
O O1 0.782286 0.843738 0.391911
O O2 0.452139 0.800413 0.342293
O O3 0.500000 0.000000 0.395425
O O4 0.677739 0.954186 0.258363
O O5 0.397751 0.238170 0.876548
O O6 0.732701 0.135603 0.844284
O O7 0.626912 0.189824 0.000000
O O8 0.158942 0.086378 0.882705
O O9 0.144743 0.243337 0.000000
O O10 0.000000 0.500000 0.380867
#
# Coordination Sequence:
#
# PCOD9445149 Si02
#       4
#     8   8   8   8
#     4  11  25  41  65 100 139 175 222 279 337 401
#     4  10  22  44  71  98 135 179 226 278 337 401
#     4  10  22  41  67  97 133 176 223 273 337 404
#     4   9  21  40  65  97 132 172 226 277 328 394
#
# _framework density 24.212817999999999
#
# number of rings (size 3 to 8) (size 9 to 14) (size 15 to 20)
#    0.000    2.000    0.000    1.500   10.500    7.000 
#    0.000   12.500    0.000    0.000    0.000    0.000 
#    0.000    0.000    0.000    0.000    0.000    0.000 
#
# Total GULP energy -178651.017714 kJ/mol
# GULP energy per Si atom -5582.844304 kJ/mol
# Density = 2.415771 g / cm^3
# Si number density = 24.212818 Si / 1000 Ang^3
#
#
#
# Elastic Constant Matrix: (Units=GPa)
#
#
# Indices 1 2 3 4 5 6 
#
# 1 95.5221 42.0320 11.7987 0.0000 0.0000 0.0000
# 2 42.0320 115.2611 33.5295 0.0000 0.0000 0.0000
# 3 11.7987 33.5295 108.2981 0.0000 0.0000 0.0000
# 4 0.0000 0.0000 0.0000 31.4989 0.0000 0.0000
# 5 0.0000 0.0000 0.0000 0.0000 4.9669 0.0000
# 6 0.0000 0.0000 0.0000 0.0000 0.0000 55.6499
#
#
#
# Elastic Compliance Matrix: (Units=1/GPa)
#
#
# Indices 1 2 3 4 5 6 
#
# 1 0.012470 -0.004563 0.000054 0.000000 0.000000 0.000000
# 2 -0.004563 0.011204 -0.002972 0.000000 0.000000 0.000000
# 3 0.000054 -0.002972 0.010148 0.000000 0.000000 0.000000
# 4 0.000000 0.000000 0.000000 0.031747 0.000000 0.000000
# 5 0.000000 0.000000 0.000000 0.000000 0.201331 0.000000
# 6 0.000000 0.000000 0.000000 0.000000 0.000000 0.017969
#
#
# Mechanical properties :
#
#
# Convention : Reuss Voigt Hill
#
# Bulk Modulus (GPa) = 53.01976 54.86686 53.94331
# Shear Modulus (GPa) = 16.33354 33.87122 25.10238
#
# Velocity S-wave (km/s) = 2.60009 3.74424 3.22334
# Velocity P-wave (km/s) = 5.56407 6.43443 6.01501
#
# Compressibility (1/GPa) = 0.01886089
#
# Stress axis : x y z
#
# Youngs Moduli (GPa) = 80.19252 89.24990 98.54209
#
# Poissons Ratio (x) = 0.40726 -0.00534
# Poissons Ratio (y) = 0.36593 0.29285
# Poissons Ratio (z) = -0.00435 0.26523
#
# Static dielectric constant tensor:
#      x y z
#    x 1.973120 0.000000 0.000000 
#    y 0.000000 2.061390 0.000000 
#    z 0.000000 0.000000 1.942880 
# 
# From -- ./inp_files/19172.got.cif
#   From: 2010.05.17/outbox.cif.g08.bks.cpg/sg58_10_cif.got.tgz:19172.got - 2010.06.03 14:20:14.
