data_PCOD9445123
_publ_section_title
;
Structure prediction by ZEFSAII (Michael W. Deem and Ramdas Pophale) SiO2 
 PCOD9445123
Probable space group: P N N M
;
_chemical_formula_sum "Si O2"
_cell_formula_units_Z 48
_cell_length_a 8.516527
_cell_length_b 9.513195
_cell_length_c 29.289017
_cell_angle_alpha 90.000000
_cell_angle_beta 90.000000
_cell_angle_gamma 90.000000
_cell_volume 2372.978059
_symmetry_space_group_name_H-M "P N N M"
_symmetry_group_IT_number 58
_symmetry_cell_setting 'orthorhombic'
loop_
_space_group_symop_operation_xyz
x,y,z
-x,-y,z
1/2+x,1/2-y,1/2-z
1/2-x,1/2+y,1/2-z
-x,-y,-z
x,y,-z
1/2-x,1/2+y,1/2+z
1/2+x,1/2-y,1/2+z
loop_
_atom_site_type_symbol
_atom_site_label
_atom_site_fract_x
_atom_site_fract_y
_atom_site_fract_z
Si Si1 0.901364 0.214584 0.212781
Si Si2 0.662457 0.213031 0.446378
Si Si3 0.847524 0.211655 0.893048
Si Si4 0.833000 0.926352 0.447423
Si Si5 0.247894 0.085180 0.217410
Si Si6 0.667481 0.929775 0.113569
O O1 0.880522 0.248631 0.159439
O O2 0.856527 0.344233 0.244690
O O3 0.078288 0.160677 0.219715
O O4 0.787783 0.080643 0.223038
O O5 0.663523 0.247693 0.500000
O O6 0.497780 0.252497 0.423590
O O7 0.793658 0.301071 0.419289
O O8 0.703374 0.048723 0.442143
O O9 0.705025 0.302832 0.912870
O O10 0.800345 0.048589 0.894503
O O11 0.828321 0.875513 0.500000
O O12 0.000000 0.000000 0.440155
O O13 0.318642 0.109513 0.166966
O O14 0.500000 0.000000 0.104894
#
# Coordination Sequence:
#
# PCOD9445123 Si02
#       6
#     8   8   8   8   8   8
#     4  10  23  42  63  92 125 162 208 260 315 380
#     4  11  23  41  66  95 128 169 216 265 317 380
#     4  11  22  41  63  92 126 168 211 262 320 379
#     4  10  22  41  63  92 131 167 209 263 313 371
#     4  10  23  43  64  91 126 162 209 260 316 378
#     4  11  24  41  64  91 130 167 211 266 319 379
#
# _framework density 20.227747999999998
#
# number of rings (size 3 to 8) (size 9 to 14) (size 15 to 20)
#    0.000    1.500    1.667    2.500    4.667    5.000 
#    6.000    0.000    0.000    0.000    0.000    0.000 
#    0.000    0.000    0.000    0.000    0.000    0.000 
#
# Total GULP energy -268492.992531 kJ/mol
# GULP energy per Si atom -5593.604011 kJ/mol
# Density = 2.018171 g / cm^3
# Si number density = 20.227748 Si / 1000 Ang^3
#
#
#
# Elastic Constant Matrix: (Units=GPa)
#
#
# Indices 1 2 3 4 5 6 
#
# 1 51.5229 -3.2863 5.0570 0.0000 0.0000 0.0000
# 2 -3.2863 35.9609 33.9279 0.0000 0.0000 0.0000
# 3 5.0570 33.9279 65.3964 0.0000 0.0000 0.0000
# 4 0.0000 0.0000 0.0000 -169.9924 0.0000 0.0000
# 5 0.0000 0.0000 0.0000 0.0000 16.3599 0.0000
# 6 0.0000 0.0000 0.0000 0.0000 0.0000 29.9578
#
#
#
# Elastic Compliance Matrix: (Units=1/GPa)
#
#
# Indices 1 2 3 4 5 6 
#
# 1 0.020313 0.006539 -0.004963 0.000000 0.000000 0.000000
# 2 0.006539 0.056574 -0.029857 0.000000 0.000000 0.000000
# 3 -0.004963 -0.029857 0.031165 0.000000 0.000000 0.000000
# 4 0.000000 0.000000 0.000000 -0.005883 0.000000 0.000000
# 5 0.000000 0.000000 0.000000 0.000000 0.061125 0.000000
# 6 0.000000 0.000000 0.000000 0.000000 0.000000 0.033380
#
#
# Mechanical properties :
#
#
# Convention : Reuss Voigt Hill
#
# Bulk Modulus (GPa) = 19.42106 24.91971 22.17038
# Shear Modulus (GPa) = 18.49108 -16.92285 0.78411
#
# Velocity S-wave (km/s) = 3.02676 -2.89557 0.62328
# Velocity P-wave (km/s) = 4.67302 1.08038 3.39148
#
# Compressibility (1/GPa) = 0.05149050
#
# Stress axis : x y z
#
# Youngs Moduli (GPa) = 49.22939 17.67585 32.08733
#
# Poissons Ratio (x) = -0.11558 0.15926
# Poissons Ratio (y) = -0.32191 0.95802
# Poissons Ratio (z) = 0.24434 0.52774
#
# Static dielectric constant tensor:
#      x y z
#    x 1.697600 0.000000 0.000000 
#    y 0.000000 1.695430 0.000000 
#    z 0.000000 0.000000 1.665020 
# 
# From -- ./inp_files/34531.got.cif
#   From: 2010.05.17/outbox.cif.g08.bks.cpg/sg58_18_cif.got.tgz:34531.got - 2010.06.03 14:20:14.
