data_PCOD9445657
_publ_section_title
;
Structure prediction by ZEFSAII (Michael W. Deem and Ramdas Pophale) SiO2 
 PCOD9445657
Probable space group: P N N M
;
_chemical_formula_sum "Si O2"
_cell_formula_units_Z 28
_cell_length_a 7.968395
_cell_length_b 18.218515
_cell_length_c 8.190706
_cell_angle_alpha 90.000000
_cell_angle_beta 90.000000
_cell_angle_gamma 90.000000
_cell_volume 1189.063824
_symmetry_space_group_name_H-M "P N N M"
_symmetry_group_IT_number 58
_symmetry_cell_setting 'orthorhombic'
loop_
_space_group_symop_operation_xyz
x,y,z
-x,-y,z
1/2+x,1/2-y,1/2-z
1/2-x,1/2+y,1/2-z
-x,-y,-z
x,y,-z
1/2-x,1/2+y,1/2+z
1/2+x,1/2-y,1/2+z
loop_
_atom_site_type_symbol
_atom_site_label
_atom_site_fract_x
_atom_site_fract_y
_atom_site_fract_z
Si Si1 0.000000 0.500000 0.749023
Si Si2 0.530287 0.692939 0.309043
Si Si3 0.112183 0.350979 0.806668
Si Si4 0.633875 0.441791 0.185869
O O1 0.055260 0.418416 0.693116
O O2 0.181995 0.523607 0.819197
O O3 0.572859 0.693725 0.500000
O O4 0.690914 0.663857 0.212478
O O5 0.478335 0.775041 0.263172
O O6 0.381165 0.634909 0.278898
O O7 0.076392 0.368782 0.000000
O O8 0.500000 0.500000 0.256722
O O9 0.582206 0.426825 0.000000
#
# Coordination Sequence:
#
# PCOD9445657 Si02
#       4
#     4   8   8   8
#     4  12  23  42  71 100 127 174 237 274 313 396
#     4  11  25  43  66  98 138 174 218 282 339 393
#     4  11  23  42  67  94 130 176 225 274 328 397
#     4  11  22  41  71  97 128 176 224 270 321 393
#
# _framework density 23.547937000000001
#
# number of rings (size 3 to 8) (size 9 to 14) (size 15 to 20)
#    0.000    0.857    2.857    5.143    0.000    5.143 
#    0.000    2.857    0.000    0.000    0.000    0.000 
#    0.000    0.000    0.000    0.000    0.000    0.000 
#
# Total GULP energy -156174.531987 kJ/mol
# GULP energy per Si atom -5577.661857 kJ/mol
# Density = 2.349434 g / cm^3
# Si number density = 23.547937 Si / 1000 Ang^3
#
#
#
# Elastic Constant Matrix: (Units=GPa)
#
#
# Indices 1 2 3 4 5 6 
#
# 1 135.9395 62.3276 8.1988 0.0000 0.0000 0.0000
# 2 62.3276 211.2287 36.3171 0.0000 0.0000 0.0000
# 3 8.1988 36.3171 41.7067 0.0000 0.0000 0.0000
# 4 0.0000 0.0000 0.0000 0.6084 0.0000 0.0000
# 5 0.0000 0.0000 0.0000 0.0000 8.7734 0.0000
# 6 0.0000 0.0000 0.0000 0.0000 0.0000 53.3990
#
#
#
# Elastic Compliance Matrix: (Units=1/GPa)
#
#
# Indices 1 2 3 4 5 6 
#
# 1 0.008520 -0.002618 0.000605 0.000000 0.000000 0.000000
# 2 -0.002618 0.006372 -0.005034 0.000000 0.000000 0.000000
# 3 0.000605 -0.005034 0.028242 0.000000 0.000000 0.000000
# 4 0.000000 0.000000 0.000000 1.643554 0.000000 0.000000
# 5 0.000000 0.000000 0.000000 0.000000 0.113981 0.000000
# 6 0.000000 0.000000 0.000000 0.000000 0.000000 0.018727
#
#
# Mechanical properties :
#
#
# Convention : Reuss Voigt Hill
#
# Bulk Modulus (GPa) = 34.43610 66.95130 50.69370
# Shear Modulus (GPa) = 2.71272 31.35827 17.03549
#
# Velocity S-wave (km/s) = 1.07448 3.65318 2.69260
# Velocity P-wave (km/s) = 4.02429 6.80352 5.58940
#
# Compressibility (1/GPa) = 0.02903929
#
# Stress axis : x y z
#
# Youngs Moduli (GPa) = 117.36967 156.93068 35.40872
#
# Poissons Ratio (x) = 0.41085 -0.02142
# Poissons Ratio (y) = 0.30728 0.17825
# Poissons Ratio (z) = -0.07099 0.79001
#
# Static dielectric constant tensor:
#      x y z
#    x 1.864590 0.000000 0.000000 
#    y 0.000000 1.887080 0.000000 
#    z 0.000000 0.000000 1.864750 
# 
# From -- ./inp_files/2018.got.cif
#   From: 2010.05.17/outbox.cif.g08.bks.cpg/sg58_2_cif.got.tgz:2018.got - 2010.06.03 14:20:14.
