data_PCOD9445198
_publ_section_title
;
Structure prediction by ZEFSAII (Michael W. Deem and Ramdas Pophale) SiO2 
 PCOD9445198
Probable space group: P N N M
;
_chemical_formula_sum "Si O2"
_cell_formula_units_Z 32
_cell_length_a 5.130156
_cell_length_b 10.428894
_cell_length_c 28.466541
_cell_angle_alpha 90.000000
_cell_angle_beta 90.000000
_cell_angle_gamma 90.000000
_cell_volume 1523.012696
_symmetry_space_group_name_H-M "P N N M"
_symmetry_group_IT_number 58
_symmetry_cell_setting 'orthorhombic'
loop_
_space_group_symop_operation_xyz
x,y,z
-x,-y,z
1/2+x,1/2-y,1/2-z
1/2-x,1/2+y,1/2-z
-x,-y,-z
x,y,-z
1/2-x,1/2+y,1/2+z
1/2+x,1/2-y,1/2+z
loop_
_atom_site_type_symbol
_atom_site_label
_atom_site_fract_x
_atom_site_fract_y
_atom_site_fract_z
Si Si1 0.255161 0.083956 0.360192
Si Si2 0.680846 0.133690 0.106108
Si Si3 0.752623 0.087785 0.000000
Si Si4 0.000000 0.000000 0.816453
Si Si5 0.171359 0.666122 0.754972
O O1 0.136565 0.217491 0.380939
O O2 0.339741 0.111876 0.306934
O O3 0.500000 0.000000 0.381548
O O4 0.000000 0.000000 0.358680
O O5 0.890302 0.102129 0.146467
O O6 0.500000 0.000000 0.107867
O O7 0.757597 0.150011 0.051414
O O8 0.500000 0.000000 0.000000
O O9 0.000000 0.000000 0.000000
O O10 0.785127 0.933444 0.783191
O O11 0.388888 0.778339 0.756855
#
# Coordination Sequence:
#
# PCOD9445198 Si02
#       5
#     8   8   4   4   8
#     4  12  27  45  66  98 145 183 226 280 344 409
#     4  11  25  45  73 100 134 175 233 284 344 400
#     4  10  22  42  72 104 130 166 225 295 344 396
#     4  12  24  35  70  92 130 175 228 272 328 394
#     4  12  25  40  60  94 135 180 229 272 329 402
#
# _framework density 21.010985999999999
#
# number of rings (size 3 to 8) (size 9 to 14) (size 15 to 20)
#    0.000    0.500    5.000    3.000    3.500    0.000 
#    0.000    1.250    0.000    0.000    0.000    0.000 
#    0.000    0.000    0.000    0.000    0.000    0.000 
#
# Total GULP energy -178139.128822 kJ/mol
# GULP energy per Si atom -5566.847776 kJ/mol
# Density = 2.096316 g / cm^3
# Si number density = 21.010986 Si / 1000 Ang^3
#
#
#
# Elastic Constant Matrix: (Units=GPa)
#
#
# Indices 1 2 3 4 5 6 
#
# 1 59.2108 15.1656 -11.9632 0.0000 0.0000 0.0000
# 2 15.1656 127.6177 36.9450 0.0000 0.0000 0.0000
# 3 -11.9632 36.9450 134.3811 0.0000 0.0000 0.0000
# 4 0.0000 0.0000 0.0000 2.6750 0.0000 0.0000
# 5 0.0000 0.0000 0.0000 0.0000 -7.8937 0.0000
# 6 0.0000 0.0000 0.0000 0.0000 0.0000 50.9877
#
#
#
# Elastic Compliance Matrix: (Units=1/GPa)
#
#
# Indices 1 2 3 4 5 6 
#
# 1 0.018101 -0.002844 0.002393 0.000000 0.000000 0.000000
# 2 -0.002844 0.008960 -0.002717 0.000000 0.000000 0.000000
# 3 0.002393 -0.002717 0.008401 0.000000 0.000000 0.000000
# 4 0.000000 0.000000 0.000000 0.373826 0.000000 0.000000
# 5 0.000000 0.000000 0.000000 0.000000 -0.126683 0.000000
# 6 0.000000 0.000000 0.000000 0.000000 0.000000 0.019613
#
#
# Mechanical properties :
#
#
# Convention : Reuss Voigt Hill
#
# Bulk Modulus (GPa) = 34.33113 44.61162 39.47138
# Shear Modulus (GPa) = 15.71031 27.89128 21.80079
#
# Velocity S-wave (km/s) = 2.73741 3.64739 3.22466
# Velocity P-wave (km/s) = 5.13481 6.24632 5.71764
#
# Compressibility (1/GPa) = 0.02912808
#
# Stress axis : x y z
#
# Youngs Moduli (GPa) = 55.24636 111.60334 119.02711
#
# Poissons Ratio (x) = 0.31738 -0.28486
# Poissons Ratio (y) = 0.15711 0.32335
# Poissons Ratio (z) = -0.13222 0.30318
#
# Static dielectric constant tensor:
#      x y z
#    x 1.774020 0.000000 0.000000 
#    y 0.000000 2.238410 0.000000 
#    z 0.000000 0.000000 1.652250 
# 
# From -- ./inp_files/34008.got.cif
#   From: 2010.05.17/outbox.cif.g08.bks.cpg/sg58_18_cif.got.tgz:34008.got - 2010.06.03 14:20:14.
