data_PCOD9445465
_publ_section_title
;
Structure prediction by ZEFSAII (Michael W. Deem and Ramdas Pophale) SiO2 
 PCOD9445465
Probable space group: P N N M
;
_chemical_formula_sum "Si O2"
_cell_formula_units_Z 32
_cell_length_a 4.957508
_cell_length_b 13.068123
_cell_length_c 18.692109
_cell_angle_alpha 90.000000
_cell_angle_beta 90.000000
_cell_angle_gamma 90.000000
_cell_volume 1210.974344
_symmetry_space_group_name_H-M "P N N M"
_symmetry_group_IT_number 58
_symmetry_cell_setting 'orthorhombic'
loop_
_space_group_symop_operation_xyz
x,y,z
-x,-y,z
1/2+x,1/2-y,1/2-z
1/2-x,1/2+y,1/2-z
-x,-y,-z
x,y,-z
1/2-x,1/2+y,1/2+z
1/2+x,1/2-y,1/2+z
loop_
_atom_site_type_symbol
_atom_site_label
_atom_site_fract_x
_atom_site_fract_y
_atom_site_fract_z
Si Si1 0.306750 0.589343 0.417025
Si Si2 0.868758 0.112194 0.580929
Si Si3 0.736937 0.072714 0.270356
Si Si4 0.214798 0.298361 0.636266
O O1 0.500000 0.500000 0.385298
O O2 0.270326 0.566159 0.500000
O O3 0.506776 0.684235 0.405016
O O4 0.016011 0.620009 0.388087
O O5 0.781352 0.140053 0.500000
O O6 0.668010 0.104659 0.648348
O O7 0.086010 0.192273 0.612155
O O8 0.000000 0.000000 0.574951
O O9 0.766240 0.171506 0.219131
O O10 0.500000 0.000000 0.243960
O O11 0.000000 0.000000 0.271446
#
# Coordination Sequence:
#
# PCOD9445465 Si02
#       4
#     8   8   8   8
#     4  11  23  40  66 102 142 183 227 282 352 424
#     4  10  25  48  72 102 142 189 240 289 341 410
#     4  11  25  46  73 104 140 183 233 293 355 416
#     4  12  24  43  70 103 140 182 231 288 353 414
#
# _framework density 26.425004999999999
#
# number of rings (size 3 to 8) (size 9 to 14) (size 15 to 20)
#    0.000    1.000    0.000    6.750    0.000   12.500 
#    0.000    5.000    0.000    0.000    0.000    0.000 
#    0.000    0.000    0.000    0.000    0.000    0.000 
#
# Total GULP energy -179162.604448 kJ/mol
# GULP energy per Si atom -5598.831389 kJ/mol
# Density = 2.636486 g / cm^3
# Si number density = 26.425005 Si / 1000 Ang^3
#
#
#
# Elastic Constant Matrix: (Units=GPa)
#
#
# Indices 1 2 3 4 5 6 
#
# 1 136.4332 2.4877 20.2516 0.0000 0.0000 0.0000
# 2 2.4877 119.1754 49.8321 0.0000 0.0000 0.0000
# 3 20.2516 49.8321 220.3995 0.0000 0.0000 0.0000
# 4 0.0000 0.0000 0.0000 79.6824 0.0000 0.0000
# 5 0.0000 0.0000 0.0000 0.0000 24.9509 0.0000
# 6 0.0000 0.0000 0.0000 0.0000 0.0000 43.5955
#
#
#
# Elastic Compliance Matrix: (Units=1/GPa)
#
#
# Indices 1 2 3 4 5 6 
#
# 1 0.007433 0.000144 -0.000716 0.000000 0.000000 0.000000
# 2 0.000144 0.009270 -0.002109 0.000000 0.000000 0.000000
# 3 -0.000716 -0.002109 0.005080 0.000000 0.000000 0.000000
# 4 0.000000 0.000000 0.000000 0.012550 0.000000 0.000000
# 5 0.000000 0.000000 0.000000 0.000000 0.040079 0.000000
# 6 0.000000 0.000000 0.000000 0.000000 0.000000 0.022938
#
#
# Mechanical properties :
#
#
# Convention : Reuss Voigt Hill
#
# Bulk Modulus (GPa) = 60.89547 69.01676 64.95611
# Shear Modulus (GPa) = 46.21717 56.54154 51.37935
#
# Velocity S-wave (km/s) = 4.18663 4.63071 4.41426
# Velocity P-wave (km/s) = 6.81654 7.40040 7.11446
#
# Compressibility (1/GPa) = 0.01642158
#
# Stress axis : x y z
#
# Youngs Moduli (GPa) = 134.53187 107.87593 196.85652
#
# Poissons Ratio (x) = -0.01554 0.14087
# Poissons Ratio (y) = -0.01938 0.41520
# Poissons Ratio (z) = 0.09627 0.22753
#
# Static dielectric constant tensor:
#      x y z
#    x 1.958400 0.000000 0.000000 
#    y 0.000000 2.230270 0.000000 
#    z 0.000000 0.000000 2.076550 
# 
# From -- ./inp_files/24085.got.cif
#   From: 2010.05.17/outbox.cif.g08.bks.cpg/sg58_13_cif.got.tgz:24085.got - 2010.06.03 14:20:14.
