data_PCOD9445704
_publ_section_title
;
Structure prediction by ZEFSAII (Michael W. Deem and Ramdas Pophale) SiO2 
 PCOD9445704
Probable space group: P N N M
;
_chemical_formula_sum "Si O2"
_cell_formula_units_Z 32
_cell_length_a 14.139582
_cell_length_b 7.783252
_cell_length_c 11.559517
_cell_angle_alpha 90.000000
_cell_angle_beta 90.000000
_cell_angle_gamma 90.000000
_cell_volume 1272.147154
_symmetry_space_group_name_H-M "P N N M"
_symmetry_group_IT_number 58
_symmetry_cell_setting 'orthorhombic'
loop_
_space_group_symop_operation_xyz
x,y,z
-x,-y,z
1/2+x,1/2-y,1/2-z
1/2-x,1/2+y,1/2-z
-x,-y,-z
x,y,-z
1/2-x,1/2+y,1/2+z
1/2+x,1/2-y,1/2+z
loop_
_atom_site_type_symbol
_atom_site_label
_atom_site_fract_x
_atom_site_fract_y
_atom_site_fract_z
Si Si1 0.616082 0.856600 0.748744
Si Si2 0.389219 0.991843 0.000000
Si Si3 0.605428 0.420614 0.000000
Si Si4 0.057522 0.182470 0.134226
Si Si5 0.791187 0.012921 0.730814
O O1 0.634282 0.906954 0.882759
O O2 0.509246 0.810178 0.712056
O O3 0.681214 0.003999 0.694544
O O4 0.678563 0.692061 0.713656
O O5 0.500000 0.000000 0.000000
O O6 0.372671 0.785746 0.000000
O O7 0.500000 0.500000 0.000000
O O8 0.650497 0.494558 0.885562
O O9 0.159155 0.128451 0.185563
O O10 0.060519 0.238303 0.000000
O O11 0.000000 0.000000 0.137598
#
# Coordination Sequence:
#
# PCOD9445704 Si02
#       5
#     8   4   4   8   8
#     4  11  24  41  68 104 142 179 229 284 345 416
#     4  12  24  42  70  97 134 177 228 286 345 412
#     4  12  24  44  72  97 130 179 234 288 344 404
#     4   9  20  40  66  95 137 186 229 280 344 409
#     4  11  23  41  67 101 138 180 229 285 347 411
#
# _framework density 25.154320999999999
#
# number of rings (size 3 to 8) (size 9 to 14) (size 15 to 20)
#    0.000    1.250    0.000    7.500    3.500    0.000 
#    0.000    0.625    0.000    3.750    0.000    0.000 
#    0.000    0.000    0.000    0.000    0.000    0.000 
#
# Total GULP energy -178554.604796 kJ/mol
# GULP energy per Si atom -5579.831400 kJ/mol
# Density = 2.509707 g / cm^3
# Si number density = 25.154321 Si / 1000 Ang^3
#
#
#
# Elastic Constant Matrix: (Units=GPa)
#
#
# Indices 1 2 3 4 5 6 
#
# 1 151.3782 -2.7604 8.3935 0.0000 0.0000 0.0000
# 2 -2.7604 134.2148 -5.5682 0.0000 0.0000 0.0000
# 3 8.3935 -5.5682 105.3035 0.0000 0.0000 0.0000
# 4 0.0000 0.0000 0.0000 43.5306 0.0000 0.0000
# 5 0.0000 0.0000 0.0000 0.0000 -0.2912 0.0000
# 6 0.0000 0.0000 0.0000 0.0000 0.0000 37.6337
#
#
#
# Elastic Compliance Matrix: (Units=1/GPa)
#
#
# Indices 1 2 3 4 5 6 
#
# 1 0.006637 0.000115 -0.000523 0.000000 0.000000 0.000000
# 2 0.000115 0.007469 0.000386 0.000000 0.000000 0.000000
# 3 -0.000523 0.000386 0.009558 0.000000 0.000000 0.000000
# 4 0.000000 0.000000 0.000000 0.022972 0.000000 0.000000
# 5 0.000000 0.000000 0.000000 0.000000 -3.434131 0.000000
# 6 0.000000 0.000000 0.000000 0.000000 0.000000 0.026572
#
#
# Mechanical properties :
#
#
# Convention : Reuss Voigt Hill
#
# Bulk Modulus (GPa) = 42.33715 43.44737 42.89226
# Shear Modulus (GPa) = -1.49120 42.23005 20.36943
#
# Velocity S-wave (km/s) = -0.77078 4.10181 2.84875
# Velocity P-wave (km/s) = 4.00941 6.30420 5.28291
#
# Compressibility (1/GPa) = 0.02361992
#
# Stress axis : x y z
#
# Youngs Moduli (GPa) = 150.66906 133.88476 104.61951
#
# Poissons Ratio (x) = -0.01537 0.05471
# Poissons Ratio (y) = -0.01730 -0.04036
# Poissons Ratio (z) = 0.07879 -0.05165
#
# Static dielectric constant tensor:
#      x y z
#    x 1.955870 0.000000 0.000000 
#    y 0.000000 2.131720 0.000000 
#    z 0.000000 0.000000 1.058520 
# 
# From -- ./inp_files/15179.got.cif
#   From: 2010.05.17/outbox.cif.g08.bks.cpg/sg58_8_cif.got.tgz:15179.got - 2010.06.03 14:20:14.
