data_PCOD9445254
_publ_section_title
;
Structure prediction by ZEFSAII (Michael W. Deem and Ramdas Pophale) SiO2 
 PCOD9445254
Probable space group: P N N M
;
_chemical_formula_sum "Si O2"
_cell_formula_units_Z 56
_cell_length_a 8.456899
_cell_length_b 21.408144
_cell_length_c 15.894974
_cell_angle_alpha 90.000000
_cell_angle_beta 90.000000
_cell_angle_gamma 90.000000
_cell_volume 2877.729594
_symmetry_space_group_name_H-M "P N N M"
_symmetry_group_IT_number 58
_symmetry_cell_setting 'orthorhombic'
loop_
_space_group_symop_operation_xyz
x,y,z
-x,-y,z
1/2+x,1/2-y,1/2-z
1/2-x,1/2+y,1/2-z
-x,-y,-z
x,y,-z
1/2-x,1/2+y,1/2+z
1/2+x,1/2-y,1/2+z
loop_
_atom_site_type_symbol
_atom_site_label
_atom_site_fract_x
_atom_site_fract_y
_atom_site_fract_z
Si Si1 0.918783 0.568942 0.598647
Si Si2 0.627971 0.843344 0.788966
Si Si3 0.585957 0.601972 0.000000
Si Si4 0.382613 0.450825 0.714532
Si Si5 0.753186 0.971268 0.500000
Si Si6 0.941390 0.164465 0.680055
Si Si7 0.145033 0.256825 0.236613
Si Si8 0.338949 0.034741 0.682519
O O1 0.890742 0.578926 0.500000
O O2 0.756671 0.568532 0.651678
O O3 0.000000 0.500000 0.607360
O O4 0.028524 0.624065 0.636503
O O5 0.775222 0.799962 0.817598
O O6 0.511447 0.800175 0.730806
O O7 0.676181 0.901693 0.732675
O O8 0.595131 0.642218 0.085668
O O9 0.417740 0.566353 0.000000
O O10 0.712096 0.545570 0.000000
O O11 0.500000 0.500000 0.671695
O O12 0.471657 0.394406 0.759629
O O13 0.300866 0.488526 0.791092
O O14 0.662872 0.953760 0.584019
O O15 0.787458 0.194429 0.725817
O O16 0.084632 0.214569 0.684097
O O17 0.500000 0.000000 0.706119
#
# Coordination Sequence:
#
# PCOD9445254 Si02
#       8
#     8   8   4   8   4   8   8   8
#     4  11  23  41  66  94 121 157 208 270 329 376
#     4  11  20  42  63  88 120 166 211 257 306 380
#     4  11  22  38  62  96 136 154 207 260 321 381
#     4  12  21  37  67  94 125 164 204 260 328 380
#     4  11  23  34  58 106 134 158 192 258 329 395
#     4  11  22  41  63  91 122 171 210 261 302 384
#     4  10  23  39  63  85 117 170 220 246 297 364
#     4  12  21  38  63  94 130 169 201 257 323 386
#
# _framework density 19.459786000000001
#
# number of rings (size 3 to 8) (size 9 to 14) (size 15 to 20)
#    0.000    0.857    5.714    2.786    0.000    0.286 
#    5.143    0.000    1.571    0.000    0.000    0.000 
#    0.000    0.000    0.000    0.000    0.000    0.000 
#
# Total GULP energy -311787.501001 kJ/mol
# GULP energy per Si atom -5567.633946 kJ/mol
# Density = 1.941549 g / cm^3
# Si number density = 19.459786 Si / 1000 Ang^3
#
#
#
# Elastic Constant Matrix: (Units=GPa)
#
#
# Indices 1 2 3 4 5 6 
#
# 1 65.0251 36.0120 22.1508 0.0000 0.0000 0.0000
# 2 36.0120 107.3148 31.5651 0.0000 0.0000 0.0000
# 3 22.1508 31.5651 117.8761 0.0000 0.0000 0.0000
# 4 0.0000 0.0000 0.0000 -606.0878 0.0000 0.0000
# 5 0.0000 0.0000 0.0000 0.0000 -2.4782 0.0000
# 6 0.0000 0.0000 0.0000 0.0000 0.0000 50.8987
#
#
#
# Elastic Compliance Matrix: (Units=1/GPa)
#
#
# Indices 1 2 3 4 5 6 
#
# 1 0.019339 -0.005884 -0.002058 0.000000 0.000000 0.000000
# 2 -0.005884 0.011905 -0.002082 0.000000 0.000000 0.000000
# 3 -0.002058 -0.002082 0.009428 0.000000 0.000000 0.000000
# 4 0.000000 0.000000 0.000000 -0.001650 0.000000 0.000000
# 5 0.000000 0.000000 0.000000 0.000000 -0.403524 0.000000
# 6 0.000000 0.000000 0.000000 0.000000 0.000000 0.019647
#
#
# Mechanical properties :
#
#
# Convention : Reuss Voigt Hill
#
# Bulk Modulus (GPa) = 48.49124 52.18578 50.33851
# Shear Modulus (GPa) = -15.72666 -98.16758 -56.94712
#
# Velocity S-wave (km/s) = -2.84590 -7.11027 -5.41549
# Velocity P-wave (km/s) = 3.76482 6.36651 3.63032
#
# Compressibility (1/GPa) = 0.02062228
#
# Stress axis : x y z
#
# Youngs Moduli (GPa) = 51.71016 83.99544 106.06818
#
# Poissons Ratio (x) = 0.49423 0.21833
# Poissons Ratio (y) = 0.30427 0.22087
# Poissons Ratio (z) = 0.10644 0.17491
#
# Static dielectric constant tensor:
#      x y z
#    x 1.733780 0.000000 0.000000 
#    y 0.000000 1.722790 0.000000 
#    z 0.000000 0.000000 1.629180 
# 
# From -- ./inp_files/20178.got.cif
#   From: 2010.05.17/outbox.cif.g08.bks.cpg/sg58_11_cif.got.tgz:20178.got - 2010.06.03 14:20:14.
