data_PCOD9445596
_publ_section_title
;
Structure prediction by ZEFSAII (Michael W. Deem and Ramdas Pophale) SiO2 
 PCOD9445596
Probable space group: P N N M
;
_chemical_formula_sum "Si O2"
_cell_formula_units_Z 40
_cell_length_a 7.209082
_cell_length_b 15.870578
_cell_length_c 15.540398
_cell_angle_alpha 90.000000
_cell_angle_beta 90.000000
_cell_angle_gamma 90.000000
_cell_volume 1778.012650
_symmetry_space_group_name_H-M "P N N M"
_symmetry_group_IT_number 58
_symmetry_cell_setting 'orthorhombic'
loop_
_space_group_symop_operation_xyz
x,y,z
-x,-y,z
1/2+x,1/2-y,1/2-z
1/2-x,1/2+y,1/2-z
-x,-y,-z
x,y,-z
1/2-x,1/2+y,1/2+z
1/2+x,1/2-y,1/2+z
loop_
_atom_site_type_symbol
_atom_site_label
_atom_site_fract_x
_atom_site_fract_y
_atom_site_fract_z
Si Si1 0.080691 0.720896 0.363729
Si Si2 0.658524 0.553924 0.242946
Si Si3 0.848282 0.233776 0.824604
Si Si4 0.297656 0.040565 0.090940
Si Si5 0.356685 0.858301 0.404548
O O1 0.857771 0.723139 0.362594
O O2 0.152174 0.716370 0.265361
O O3 0.167227 0.639683 0.406916
O O4 0.165074 0.805354 0.402809
O O5 0.500000 0.500000 0.195215
O O6 0.595089 0.640665 0.290431
O O7 0.712165 0.494319 0.322118
O O8 0.822181 0.578897 0.176121
O O9 0.986707 0.287678 0.883474
O O10 0.500000 0.000000 0.090054
O O11 0.205272 0.017048 0.000000
O O12 0.387258 0.894233 0.500000
#
# Coordination Sequence:
#
# PCOD9445596 Si02
#       5
#     8   8   8   8   8
#     4  11  21  40  68  97 127 178 225 271 336 401
#     4  11  24  41  67  97 134 178 221 274 340 401
#     4  11  21  41  69  95 127 179 227 271 336 397
#     4  11  22  38  63  98 136 167 212 280 342 398
#     4  11  25  43  66  99 135 176 229 280 320 393
#
# _framework density 22.497028
#
# number of rings (size 3 to 8) (size 9 to 14) (size 15 to 20)
#    0.000    1.000    6.000    1.800    2.800    3.200 
#    0.000    0.000    0.000    1.800    0.000    0.000 
#    0.000    0.000    0.000    0.000    0.000    0.000 
#
# Total GULP energy -223262.683019 kJ/mol
# GULP energy per Si atom -5581.567075 kJ/mol
# Density = 2.244582 g / cm^3
# Si number density = 22.497028 Si / 1000 Ang^3
#
#
#
# Elastic Constant Matrix: (Units=GPa)
#
#
# Indices 1 2 3 4 5 6 
#
# 1 88.2667 25.0872 31.5049 0.0000 0.0000 0.0000
# 2 25.0872 67.6847 36.7888 0.0000 0.0000 0.0000
# 3 31.5049 36.7888 144.0254 0.0000 0.0000 0.0000
# 4 0.0000 0.0000 0.0000 16.1653 0.0000 0.0000
# 5 0.0000 0.0000 0.0000 0.0000 4.6817 0.0000
# 6 0.0000 0.0000 0.0000 0.0000 0.0000 29.8338
#
#
#
# Elastic Compliance Matrix: (Units=1/GPa)
#
#
# Indices 1 2 3 4 5 6 
#
# 1 0.013090 -0.003827 -0.001886 0.000000 0.000000 0.000000
# 2 -0.003827 0.018275 -0.003831 0.000000 0.000000 0.000000
# 3 -0.001886 -0.003831 0.008334 0.000000 0.000000 0.000000
# 4 0.000000 0.000000 0.000000 0.061861 0.000000 0.000000
# 5 0.000000 0.000000 0.000000 0.000000 0.213600 0.000000
# 6 0.000000 0.000000 0.000000 0.000000 0.000000 0.033519
#
#
# Mechanical properties :
#
#
# Convention : Reuss Voigt Hill
#
# Bulk Modulus (GPa) = 48.51506 54.08206 51.29856
# Shear Modulus (GPa) = 13.34626 23.90921 18.62773
#
# Velocity S-wave (km/s) = 2.43831 3.26355 2.88064
# Velocity P-wave (km/s) = 5.43498 6.18812 5.82374
#
# Compressibility (1/GPa) = 0.02061215
#
# Stress axis : x y z
#
# Youngs Moduli (GPa) = 76.39366 54.71949 119.98602
#
# Poissons Ratio (x) = 0.20940 0.22628
# Poissons Ratio (y) = 0.29234 0.45966
# Poissons Ratio (z) = 0.14407 0.20963
#
# Static dielectric constant tensor:
#      x y z
#    x 1.691620 0.000000 0.000000 
#    y 0.000000 1.652920 0.000000 
#    z 0.000000 0.000000 1.900140 
# 
# From -- ./inp_files/19481.got.cif
#   From: 2010.05.17/outbox.cif.g08.bks.cpg/sg58_10_cif.got.tgz:19481.got - 2010.06.03 14:20:14.
