data_PCOD9445045
_publ_section_title
;
Structure prediction by ZEFSAII (Michael W. Deem and Ramdas Pophale) SiO2 
 PCOD9445045
Probable space group: P N N M
;
_chemical_formula_sum "Si O2"
_cell_formula_units_Z 48
_cell_length_a 19.437029
_cell_length_b 7.876675
_cell_length_c 14.972717
_cell_angle_alpha 90.000000
_cell_angle_beta 90.000000
_cell_angle_gamma 90.000000
_cell_volume 2292.310402
_symmetry_space_group_name_H-M "P N N M"
_symmetry_group_IT_number 58
_symmetry_cell_setting 'orthorhombic'
loop_
_space_group_symop_operation_xyz
x,y,z
-x,-y,z
1/2+x,1/2-y,1/2-z
1/2-x,1/2+y,1/2-z
-x,-y,-z
x,y,-z
1/2-x,1/2+y,1/2+z
1/2+x,1/2-y,1/2+z
loop_
_atom_site_type_symbol
_atom_site_label
_atom_site_fract_x
_atom_site_fract_y
_atom_site_fract_z
Si Si1 0.333539 0.271694 0.000000
Si Si2 0.810396 0.551255 0.000000
Si Si3 0.843444 0.628917 0.193614
Si Si4 0.460831 0.767435 0.818018
Si Si5 0.903549 0.600267 0.500000
Si Si6 0.603652 0.610825 0.814794
Si Si7 0.720601 0.506309 0.311664
Si Si8 0.255096 0.818845 0.000000
O O1 0.361363 0.352874 0.090719
O O2 0.366195 0.082810 0.000000
O O3 0.252110 0.310678 0.000000
O O4 0.850438 0.571451 0.907838
O O5 0.780076 0.362883 0.000000
O O6 0.915844 0.639688 0.243540
O O7 0.789697 0.520179 0.252478
O O8 0.807999 0.815432 0.189242
O O9 0.541118 0.740704 0.800002
O O10 0.428523 0.577685 0.820990
O O11 0.446866 0.857577 0.912343
O O12 0.836388 0.719424 0.500000
O O13 0.660886 0.612601 0.738005
O O14 0.736061 0.578484 0.410021
#
# Coordination Sequence:
#
# PCOD9445045 Si02
#       8
#     4   4   8   8   4   8   8   4
#     4  12  23  35  58  90 123 155 194 246 301 354
#     4  12  24  39  60  87 120 157 200 249 296 348
#     4  11  22  38  62  89 119 155 198 244 294 351
#     4  10  22  40  61  86 120 160 197 237 294 360
#     4  12  23  35  58  90 123 155 194 246 301 354
#     4  10  22  40  61  86 120 160 197 237 294 360
#     4  11  22  38  62  89 119 155 198 244 294 351
#     4  12  24  39  60  87 120 157 200 249 296 348
#
# _framework density 20.939572999999999
#
# number of rings (size 3 to 8) (size 9 to 14) (size 15 to 20)
#    0.000    1.000    3.333    4.500    0.000    4.000 
#    0.000    0.833    0.000    5.000    0.000    0.000 
#    0.000    0.000    0.000    0.000    0.000    0.000 
#
# Total GULP energy -268700.588966 kJ/mol
# GULP energy per Si atom -5597.928937 kJ/mol
# Density = 2.089191 g / cm^3
# Si number density = 20.939573 Si / 1000 Ang^3
#
#
#
# Elastic Constant Matrix: (Units=GPa)
#
#
# Indices 1 2 3 4 5 6 
#
# 1 65.7754 -6.2102 41.4495 0.0000 0.0000 0.0000
# 2 -6.2102 69.0339 19.5618 0.0000 0.0000 0.0000
# 3 41.4495 19.5618 165.9385 0.0000 0.0000 0.0000
# 4 0.0000 0.0000 0.0000 179.9925 0.0000 0.0000
# 5 0.0000 0.0000 0.0000 0.0000 11.6815 0.0000
# 6 0.0000 0.0000 0.0000 0.0000 0.0000 27.1586
#
#
#
# Elastic Compliance Matrix: (Units=1/GPa)
#
#
# Indices 1 2 3 4 5 6 
#
# 1 0.018665 0.003104 -0.005028 0.000000 0.000000 0.000000
# 2 0.003104 0.015502 -0.002603 0.000000 0.000000 0.000000
# 3 -0.005028 -0.002603 0.007589 0.000000 0.000000 0.000000
# 4 0.000000 0.000000 0.000000 0.005556 0.000000 0.000000
# 5 0.000000 0.000000 0.000000 0.000000 0.085606 0.000000
# 6 0.000000 0.000000 0.000000 0.000000 0.000000 0.036821
#
#
# Mechanical properties :
#
#
# Convention : Reuss Voigt Hill
#
# Bulk Modulus (GPa) = 30.57902 45.59447 38.08674
# Shear Modulus (GPa) = 26.35829 60.16296 43.26063
#
# Velocity S-wave (km/s) = 3.55178 5.36601 4.55023
# Velocity P-wave (km/s) = 5.60850 7.75975 6.77012
#
# Compressibility (1/GPa) = 0.03270216
#
# Stress axis : x y z
#
# Youngs Moduli (GPa) = 53.57655 64.50615 131.76714
#
# Poissons Ratio (x) = -0.20022 0.66255
# Poissons Ratio (y) = -0.16629 0.34297
# Poissons Ratio (z) = 0.26939 0.16790
#
# Static dielectric constant tensor:
#      x y z
#    x 1.724790 0.000000 0.000000 
#    y 0.000000 1.809300 0.000000 
#    z 0.000000 0.000000 1.707670 
# 
# From -- ./inp_files/22811.got.cif
#   From: 2010.05.17/outbox.cif.g08.bks.cpg/sg58_12_cif.got.tgz:22811.got - 2010.06.03 14:20:14.
