data_PCOD9445356
_publ_section_title
;
Structure prediction by ZEFSAII (Michael W. Deem and Ramdas Pophale) SiO2 
 PCOD9445356
Probable space group: P N N M
;
_chemical_formula_sum "Si O2"
_cell_formula_units_Z 42
_cell_length_a 9.401172
_cell_length_b 8.250820
_cell_length_c 24.902002
_cell_angle_alpha 90.000000
_cell_angle_beta 90.000000
_cell_angle_gamma 90.000000
_cell_volume 1931.583001
_symmetry_space_group_name_H-M "P N N M"
_symmetry_group_IT_number 58
_symmetry_cell_setting 'orthorhombic'
loop_
_space_group_symop_operation_xyz
x,y,z
-x,-y,z
1/2+x,1/2-y,1/2-z
1/2-x,1/2+y,1/2-z
-x,-y,-z
x,y,-z
1/2-x,1/2+y,1/2+z
1/2+x,1/2-y,1/2+z
loop_
_atom_site_type_symbol
_atom_site_label
_atom_site_fract_x
_atom_site_fract_y
_atom_site_fract_z
Si Si1 0.000000 0.500000 0.000000
Si Si2 0.556747 0.268964 0.000000
Si Si3 0.337118 0.444770 0.193522
Si Si4 0.734076 0.907691 0.582677
Si Si5 0.660239 0.940122 0.203860
Si Si6 0.722379 0.921908 0.000000
Si Si7 0.653707 0.545574 0.393709
O O1 0.874268 0.506988 0.953719
O O2 0.619741 0.364021 0.051059
O O3 0.390866 0.224200 0.000000
O O4 0.634061 0.092220 0.000000
O O5 0.500000 0.500000 0.195839
O O6 0.267531 0.511379 0.139072
O O7 0.333791 0.251388 0.195285
O O8 0.252604 0.512446 0.244623
O O9 0.658875 0.732401 0.589352
O O10 0.726095 0.020320 0.150653
O O11 0.500000 0.000000 0.211456
O O12 0.815219 0.935101 0.053878
O O13 0.500000 0.500000 0.371143
#
# Coordination Sequence:
#
# PCOD9445356 Si02
#       7
#     2   4   8   8   8   4   8
#     4  10  24  44  72 104 154 198 250 296 370 434
#     4   8  18  38  64 102 137 190 230 306 339 435
#     4  12  27  49  75 108 143 189 244 298 365 437
#     4  10  23  44  71 102 150 191 244 296 362 430
#     4  12  28  48  77 107 143 189 239 303 366 435
#     4   9  19  35  69  98 144 185 247 286 373 409
#     4  11  24  42  68 105 145 191 244 300 357 429
#
# _framework density 21.743822999999999
#
# number of rings (size 3 to 8) (size 9 to 14) (size 15 to 20)
#    0.000    1.333    0.000    4.857   12.000    0.000 
#    0.000    1.905    0.000    0.000    0.000    0.000 
#    0.000    0.000    0.000    0.000    0.000    0.000 
#
# Total GULP energy -234675.763526 kJ/mol
# GULP energy per Si atom -5587.518179 kJ/mol
# Density = 2.169433 g / cm^3
# Si number density = 21.743823 Si / 1000 Ang^3
#
#
#
# Elastic Constant Matrix: (Units=GPa)
#
#
# Indices 1 2 3 4 5 6 
#
# 1 121.1483 10.4454 42.7142 0.0000 0.0000 0.0000
# 2 10.4454 61.1484 9.4062 0.0000 0.0000 0.0000
# 3 42.7142 9.4062 147.3818 0.0000 0.0000 0.0000
# 4 0.0000 0.0000 0.0000 346.4167 0.0000 0.0000
# 5 0.0000 0.0000 0.0000 0.0000 45.6964 0.0000
# 6 0.0000 0.0000 0.0000 0.0000 0.0000 30.7548
#
#
#
# Elastic Compliance Matrix: (Units=1/GPa)
#
#
# Indices 1 2 3 4 5 6 
#
# 1 0.009278 -0.001183 -0.002613 0.000000 0.000000 0.000000
# 2 -0.001183 0.016667 -0.000721 0.000000 0.000000 0.000000
# 3 -0.002613 -0.000721 0.007589 0.000000 0.000000 0.000000
# 4 0.000000 0.000000 0.000000 0.002887 0.000000 0.000000
# 5 0.000000 0.000000 0.000000 0.000000 0.021884 0.000000
# 6 0.000000 0.000000 0.000000 0.000000 0.000000 0.032515
#
#
# Mechanical properties :
#
#
# Convention : Reuss Voigt Hill
#
# Bulk Modulus (GPa) = 40.81855 50.53447 45.67651
# Shear Modulus (GPa) = 46.28824 102.38110 74.33467
#
# Velocity S-wave (km/s) = 4.61890 6.86931 5.85327
# Velocity P-wave (km/s) = 6.87451 9.28481 8.16905
#
# Compressibility (1/GPa) = 0.02449866
#
# Stress axis : x y z
#
# Youngs Moduli (GPa) = 107.78472 60.00020 131.77807
#
# Poissons Ratio (x) = 0.07097 0.34439
# Poissons Ratio (y) = 0.12749 0.09500
# Poissons Ratio (z) = 0.28168 0.04325
#
# Static dielectric constant tensor:
#      x y z
#    x 1.744420 0.000000 0.000000 
#    y 0.000000 1.777880 0.000000 
#    z 0.000000 0.000000 1.765400 
# 
# From -- ./inp_files/33210.got.cif
#   From: 2010.05.17/outbox.cif.g08.bks.cpg/sg58_17_cif.got.tgz:33210.got - 2010.06.03 14:20:14.
