data_PCOD9445928
_publ_section_title
;
Structure prediction by ZEFSAII (Michael W. Deem and Ramdas Pophale) SiO2 
 PCOD9445928
Probable space group: P N N M
;
_chemical_formula_sum "Si O2"
_cell_formula_units_Z 64
_cell_length_a 24.000000
_cell_length_b 18.000000
_cell_length_c 9.000000
_cell_angle_alpha 90.000000
_cell_angle_beta 90.000000
_cell_angle_gamma 90.000000
_cell_volume 3888.000000
_symmetry_space_group_name_H-M "P N N M"
_symmetry_group_IT_number 58
_symmetry_cell_setting 'orthorhombic'
loop_
_space_group_symop_operation_xyz
x,y,z
-x,-y,z
1/2+x,1/2-y,1/2-z
1/2-x,1/2+y,1/2-z
-x,-y,-z
x,y,-z
1/2-x,1/2+y,1/2+z
1/2+x,1/2-y,1/2+z
loop_
_atom_site_type_symbol
_atom_site_label
_atom_site_fract_x
_atom_site_fract_y
_atom_site_fract_z
Si Si1 0.205858 0.414437 0.323883
Si Si2 0.567058 0.617236 0.320657
Si Si3 0.770013 0.971002 0.671086
Si Si4 0.447119 0.674450 0.321422
Si Si5 0.815602 0.178893 0.821680
Si Si6 0.732950 0.295265 0.828262
Si Si7 0.136719 0.295583 0.175889
Si Si8 0.896330 0.971720 0.678638
O O1 0.202491 0.412613 0.500000
O O2 0.219776 0.495213 0.263898
O O3 0.262859 0.371287 0.274830
O O4 0.153686 0.371771 0.255139
O O5 0.568963 0.607690 0.500000
O O6 0.512025 0.664058 0.286111
O O7 0.624002 0.656087 0.265568
O O8 0.565703 0.536618 0.245323
O O9 0.765571 0.996372 0.500000
O O10 0.767322 0.882687 0.675064
O O11 0.832556 0.989237 0.726280
O O12 0.440211 0.665730 0.500000
O O13 0.419844 0.753215 0.280344
O O14 0.414651 0.607613 0.241457
O O15 0.792930 0.260968 0.788907
O O16 0.819394 0.171273 0.000000
O O17 0.685747 0.261084 0.724334
O O18 0.720375 0.271696 0.000000
O O19 0.137174 0.306584 0.000000
O O20 0.897911 0.970569 0.500000
#
# Coordination Sequence:
#
# PCOD9445928 Si02
#       8
#     8   8   8   8   8   8   8   8
#     4  10  19  31  49  69  90 120 155 190 234 285
#     4  10  19  33  48  65  91 126 165 199 226 271
#     4  10  19  30  46  69  97 124 150 189 235 279
#     4  10  21  33  47  65  91 128 165 195 230 272
#     4   8  15  28  47  66  85 114 152 190 228 268
#     4   9  17  31  48  68  92 121 153 190 236 282
#     4  10  19  31  46  67  92 121 155 195 237 275
#     4  11  21  31  44  66  97 128 160 196 230 268
#
# _framework density 16.460905
#
# number of rings (size 3 to 8) (size 9 to 14) (size 15 to 20)
#    0.000    2.250    2.500    2.250    0.000    3.500 
#    0.000    0.000    0.000    0.000    0.000    0.875 
#    0.000    7.000    0.000    0.000    0.000    0.000 
#
# Total GULP energy -356440.352550 kJ/mol
# GULP energy per Si atom -5569.380509 kJ/mol
# Density = 1.642344 g / cm^3
# Si number density = 16.460905 Si / 1000 Ang^3
#
#
#
# Elastic Constant Matrix: (Units=GPa)
#
#
# Indices 1 2 3 4 5 6 
#
# 1 34.2622 4.3805 1.6682 0.0000 0.0000 0.0000
# 2 4.3805 9.5053 0.9649 0.0000 0.0000 0.0000
# 3 1.6682 0.9649 13.0578 0.0000 0.0000 0.0000
# 4 0.0000 0.0000 0.0000 17.7213 0.0000 0.0000
# 5 0.0000 0.0000 0.0000 0.0000 15.3219 0.0000
# 6 0.0000 0.0000 0.0000 0.0000 0.0000 29.0424
#
#
#
# Elastic Compliance Matrix: (Units=1/GPa)
#
#
# Indices 1 2 3 4 5 6 
#
# 1 0.031126 -0.014046 -0.002939 0.000000 0.000000 0.000000
# 2 -0.014046 0.112338 -0.006506 0.000000 0.000000 0.000000
# 3 -0.002939 -0.006506 0.077439 0.000000 0.000000 0.000000
# 4 0.000000 0.000000 0.000000 0.056429 0.000000 0.000000
# 5 0.000000 0.000000 0.000000 0.000000 0.065266 0.000000
# 6 0.000000 0.000000 0.000000 0.000000 0.000000 0.034432
#
#
# Mechanical properties :
#
#
# Convention : Reuss Voigt Hill
#
# Bulk Modulus (GPa) = 5.74974 7.87249 6.81112
# Shear Modulus (GPa) = 10.37376 15.73791 13.05584
#
# Velocity S-wave (km/s) = 2.51311 3.09541 2.81933
# Velocity P-wave (km/s) = 3.45276 4.19146 3.83991
#
# Compressibility (1/GPa) = 0.17392076
#
# Stress axis : x y z
#
# Youngs Moduli (GPa) = 32.12797 8.90169 12.91343
#
# Poissons Ratio (x) = 0.12503 0.03795
# Poissons Ratio (y) = 0.45126 0.08402
# Poissons Ratio (z) = 0.09441 0.05792
#
# Static dielectric constant tensor:
#      x y z
#    x 1.569450 0.000000 0.000000 
#    y 0.000000 1.600460 0.000000 
#    z 0.000000 0.000000 1.563810 
# 
# From -- ./inp_files/8459.got.cif
#   From: 2010.05.17/outbox.ucp.g08.bks.cvg/sg58_5_cif.got.tgz:8459.got - 2010.06.11 16:41:41.
