data_PCOD9445858
_publ_section_title
;
Structure prediction by ZEFSAII (Michael W. Deem and Ramdas Pophale) SiO2 
 PCOD9445858
Probable space group: P N N M
;
_chemical_formula_sum "Si O2"
_cell_formula_units_Z 56
_cell_length_a 32.987496
_cell_length_b 11.280767
_cell_length_c 7.346878
_cell_angle_alpha 90.000000
_cell_angle_beta 90.000000
_cell_angle_gamma 90.000000
_cell_volume 2733.951512
_symmetry_space_group_name_H-M "P N N M"
_symmetry_group_IT_number 58
_symmetry_cell_setting 'orthorhombic'
loop_
_space_group_symop_operation_xyz
x,y,z
-x,-y,z
1/2+x,1/2-y,1/2-z
1/2-x,1/2+y,1/2-z
-x,-y,-z
x,y,-z
1/2-x,1/2+y,1/2+z
1/2+x,1/2-y,1/2+z
loop_
_atom_site_type_symbol
_atom_site_label
_atom_site_fract_x
_atom_site_fract_y
_atom_site_fract_z
Si Si1 0.731241 0.227284 0.217450
Si Si2 0.215157 0.005824 0.717473
Si Si3 0.017163 0.676942 0.721459
Si Si4 0.936754 0.558126 0.721860
Si Si5 0.624422 0.448713 0.779007
Si Si6 0.358667 0.819169 0.220764
Si Si7 0.958895 0.065698 0.722460
O O1 0.762797 0.119981 0.249131
O O2 0.734849 0.366503 0.281504
O O3 0.687547 0.179491 0.284894
O O4 0.729085 0.237191 0.000000
O O5 0.213762 0.016317 0.500000
O O6 0.168329 0.003450 0.782459
O O7 0.016960 0.676379 0.500000
O O8 0.044359 0.566278 0.779544
O O9 0.035909 0.799367 0.780498
O O10 0.970534 0.655157 0.775540
O O11 0.935880 0.557994 0.500000
O O12 0.891599 0.586298 0.784532
O O13 0.623976 0.310053 0.733803
O O14 0.583525 0.510996 0.715251
O O15 0.624459 0.456876 0.000000
O O16 0.356983 0.827283 0.000000
O O17 0.958307 0.061488 0.500000
O O18 0.000000 0.000000 0.778697
#
# Coordination Sequence:
#
# PCOD9445858 Si02
#       7
#     8   8   8   8   8   8   8
#     4   9  18  32  49  69  91 118 157 194 230 280
#     4   9  18  33  49  67  94 124 153 193 237 277
#     4   8  13  18  25  41  67  98 131 166 201 242
#     4   8  12  19  29  42  66 100 133 166 204 244
#     4   8  14  24  37  53  77 109 141 173 214 262
#     4   8  13  23  38  53  72 103 141 175 210 257
#     4   9  14  19  29  47  71 101 138 171 201 250
#
# _framework density 20.483173000000001
#
# number of rings (size 3 to 8) (size 9 to 14) (size 15 to 20)
#    0.000    3.571    0.000    3.429    0.000    4.000 
#    2.571    0.000    0.000    0.000    0.000    0.000 
#    0.000    0.571    0.000    4.571    0.571    9.286 
#
# Total GULP energy -311899.555952 kJ/mol
# GULP energy per Si atom -5569.634928 kJ/mol
# Density = 2.043655 g / cm^3
# Si number density = 20.483173 Si / 1000 Ang^3
#
#
#
# Elastic Constant Matrix: (Units=GPa)
#
#
# Indices 1 2 3 4 5 6 
#
# 1 130.4568 86.1659 4.0366 0.0000 0.0000 0.0000
# 2 86.1659 102.8419 2.2333 0.0000 0.0000 0.0000
# 3 4.0366 2.2333 76.2250 0.0000 0.0000 0.0000
# 4 0.0000 0.0000 0.0000 2.1298 0.0000 0.0000
# 5 0.0000 0.0000 0.0000 0.0000 -7.0617 0.0000
# 6 0.0000 0.0000 0.0000 0.0000 0.0000 39.7266
#
#
#
# Elastic Compliance Matrix: (Units=1/GPa)
#
#
# Indices 1 2 3 4 5 6 
#
# 1 0.017182 -0.014385 -0.000488 0.000000 0.000000 0.000000
# 2 -0.014385 0.021773 0.000124 0.000000 0.000000 0.000000
# 3 -0.000488 0.000124 0.013141 0.000000 0.000000 0.000000
# 4 0.000000 0.000000 0.000000 0.469527 0.000000 0.000000
# 5 0.000000 0.000000 0.000000 0.000000 -0.141609 0.000000
# 6 0.000000 0.000000 0.000000 0.000000 0.000000 0.025172
#
#
# Mechanical properties :
#
#
# Convention : Reuss Voigt Hill
#
# Bulk Modulus (GPa) = 44.25324 54.93280 49.59302
# Shear Modulus (GPa) = 11.30661 21.43145 16.36903
#
# Velocity S-wave (km/s) = 2.35201 3.23816 2.82998
# Velocity P-wave (km/s) = 5.38772 6.39200 5.91122
#
# Compressibility (1/GPa) = 0.02259722
#
# Stress axis : x y z
#
# Youngs Moduli (GPa) = 58.20132 45.92742 76.09598
#
# Poissons Ratio (x) = 0.66067 0.03717
# Poissons Ratio (y) = 0.83723 -0.00942
# Poissons Ratio (z) = 0.02843 -0.00569
#
# Static dielectric constant tensor:
#      x y z
#    x 1.721060 0.000000 0.000000 
#    y 0.000000 1.728660 0.000000 
#    z 0.000000 0.000000 1.899060 
# 
# From -- ./inp_files/17791.got.cif
#   From: 2010.05.17/outbox.cif.g08.bks.cpg/sg58_9_cif.got.tgz:17791.got - 2010.06.03 14:20:14.
