data_PCOD9445589
_publ_section_title
;
Structure prediction by ZEFSAII (Michael W. Deem and Ramdas Pophale) SiO2 
 PCOD9445589
Probable space group: P N N M
;
_chemical_formula_sum "Si O2"
_cell_formula_units_Z 64
_cell_length_a 12.099680
_cell_length_b 17.364304
_cell_length_c 14.690522
_cell_angle_alpha 90.000000
_cell_angle_beta 90.000000
_cell_angle_gamma 90.000000
_cell_volume 3086.515719
_symmetry_space_group_name_H-M "P N N M"
_symmetry_group_IT_number 58
_symmetry_cell_setting 'orthorhombic'
loop_
_space_group_symop_operation_xyz
x,y,z
-x,-y,z
1/2+x,1/2-y,1/2-z
1/2-x,1/2+y,1/2-z
-x,-y,-z
x,y,-z
1/2-x,1/2+y,1/2+z
1/2+x,1/2-y,1/2+z
loop_
_atom_site_type_symbol
_atom_site_label
_atom_site_fract_x
_atom_site_fract_y
_atom_site_fract_z
Si Si1 0.160765 0.950676 0.852236
Si Si2 0.271460 0.371232 0.821993
Si Si3 0.458533 0.912087 0.601058
Si Si4 0.956467 0.237498 0.394272
Si Si5 0.876104 0.363849 0.747174
Si Si6 0.934256 0.878729 0.103429
Si Si7 0.663164 0.278754 0.766869
Si Si8 0.630364 0.985062 0.098431
O O1 0.173882 0.932295 0.746113
O O2 0.065669 0.893830 0.888035
O O3 0.120000 0.037446 0.875160
O O4 0.283168 0.944667 0.895317
O O5 0.171522 0.406668 0.879211
O O6 0.367904 0.330821 0.879552
O O7 0.213654 0.303938 0.760777
O O8 0.481278 0.880497 0.500000
O O9 0.525774 0.870433 0.681064
O O10 0.500000 0.000000 0.603574
O O11 0.968569 0.255388 0.500000
O O12 0.908095 0.307852 0.335687
O O13 0.072341 0.221198 0.345164
O O14 0.767082 0.331272 0.793384
O O15 0.850475 0.441627 0.693100
O O16 0.891019 0.817440 0.176513
O O17 0.906802 0.856637 0.000000
O O18 0.500000 0.000000 0.098339
O O19 0.654227 0.946312 0.000000
#
# Coordination Sequence:
#
# PCOD9445589 Si02
#       8
#     8   8   8   8   8   8   8   8
#     4  11  21  39  65  97 136 168 216 269 330 391
#     4  11  23  43  69  94 132 176 216 274 331 392
#     4  11  24  42  67  96 128 172 224 271 323 390
#     4  11  24  44  65  92 127 170 223 271 329 396
#     4  11  22  41  66  89 126 173 214 271 328 390
#     4  11  23  41  68 100 135 176 219 271 331 401
#     4  11  24  42  66  95 131 179 216 271 333 394
#     4  11  22  35  59  99 135 168 208 264 334 400
#
# _framework density 20.735354999999998
#
# number of rings (size 3 to 8) (size 9 to 14) (size 15 to 20)
#    0.000    1.000    3.750    4.125    0.000    3.000 
#    0.000    1.250    0.000    0.750    0.000    0.000 
#    0.000    0.000    0.000    0.000    0.000    0.000 
#
# Total GULP energy -357503.105948 kJ/mol
# GULP energy per Si atom -5585.986030 kJ/mol
# Density = 2.068816 g / cm^3
# Si number density = 20.735355 Si / 1000 Ang^3
#
#
#
# Elastic Constant Matrix: (Units=GPa)
#
#
# Indices 1 2 3 4 5 6 
#
# 1 115.9295 2.7385 24.9825 0.0000 0.0000 0.0000
# 2 2.7385 25.0553 12.3994 0.0000 0.0000 0.0000
# 3 24.9825 12.3994 124.8113 0.0000 0.0000 0.0000
# 4 0.0000 0.0000 0.0000 27.1814 0.0000 0.0000
# 5 0.0000 0.0000 0.0000 0.0000 -29.5262 0.0000
# 6 0.0000 0.0000 0.0000 0.0000 0.0000 23.7091
#
#
#
# Elastic Compliance Matrix: (Units=1/GPa)
#
#
# Indices 1 2 3 4 5 6 
#
# 1 0.009015 -0.000097 -0.001795 0.000000 0.000000 0.000000
# 2 -0.000097 0.041976 -0.004151 0.000000 0.000000 0.000000
# 3 -0.001795 -0.004151 0.008784 0.000000 0.000000 0.000000
# 4 0.000000 0.000000 0.000000 0.036790 0.000000 0.000000
# 5 0.000000 0.000000 0.000000 0.000000 -0.033868 0.000000
# 6 0.000000 0.000000 0.000000 0.000000 0.000000 0.042178
#
#
# Mechanical properties :
#
#
# Convention : Reuss Voigt Hill
#
# Bulk Modulus (GPa) = 20.96883 38.44855 29.70869
# Shear Modulus (GPa) = 37.63457 19.31791 28.47624
#
# Velocity S-wave (km/s) = 4.26490 3.05559 3.70985
# Velocity P-wave (km/s) = 5.86405 5.57060 5.71921
#
# Compressibility (1/GPa) = 0.04768983
#
# Stress axis : x y z
#
# Youngs Moduli (GPa) = 110.92618 23.82291 113.84717
#
# Poissons Ratio (x) = 0.00231 0.20433
# Poissons Ratio (y) = 0.01077 0.47255
# Poissons Ratio (z) = 0.19909 0.09888
#
# Static dielectric constant tensor:
#      x y z
#    x 1.780540 0.000000 0.000000 
#    y 0.000000 1.794480 0.000000 
#    z 0.000000 0.000000 1.728110 
# 
# From -- ./inp_files/21489.got.cif
#   From: 2010.05.17/outbox.cif.g08.bks.cpg/sg58_11_cif.got.tgz:21489.got - 2010.06.03 14:20:14.
