data_PCOD9445617
_publ_section_title
;
Structure prediction by ZEFSAII (Michael W. Deem and Ramdas Pophale) SiO2 
 PCOD9445617
Probable space group: P N N M
;
_chemical_formula_sum "Si O2"
_cell_formula_units_Z 40
_cell_length_a 4.954718
_cell_length_b 12.126264
_cell_length_c 32.476727
_cell_angle_alpha 90.000000
_cell_angle_beta 90.000000
_cell_angle_gamma 90.000000
_cell_volume 1951.273808
_symmetry_space_group_name_H-M "P N N M"
_symmetry_group_IT_number 58
_symmetry_cell_setting 'orthorhombic'
loop_
_space_group_symop_operation_xyz
x,y,z
-x,-y,z
1/2+x,1/2-y,1/2-z
1/2-x,1/2+y,1/2-z
-x,-y,-z
x,y,-z
1/2-x,1/2+y,1/2+z
1/2+x,1/2-y,1/2+z
loop_
_atom_site_type_symbol
_atom_site_label
_atom_site_fract_x
_atom_site_fract_y
_atom_site_fract_z
Si Si1 0.253091 0.076980 0.148744
Si Si2 0.176781 0.247739 0.222248
Si Si3 0.554973 0.725554 0.907316
Si Si4 0.253482 0.933279 0.664580
Si Si5 0.541578 0.868086 0.547586
O O1 0.167129 0.152705 0.187699
O O2 0.370981 0.155419 0.112219
O O3 0.500000 0.000000 0.162183
O O4 0.000000 0.000000 0.136413
O O5 0.475486 0.264304 0.239933
O O6 0.105198 0.360088 0.199065
O O7 0.623297 0.643745 0.869832
O O8 0.258337 0.693373 0.923165
O O9 0.759777 0.692112 0.943382
O O10 0.500000 0.000000 0.645526
O O11 0.000000 0.000000 0.681819
O O12 0.624322 0.856011 0.500000
O O13 0.500000 0.000000 0.554428
#
# Coordination Sequence:
#
# PCOD9445617 Si02
#       5
#     8   8   8   8   8
#     4  11  24  42  64  86 115 164 213 252 297 350
#     4  11  24  39  57  86 117 148 194 247 299 354
#     4  11  22  39  61  87 121 155 199 246 285 356
#     4  11  22  36  57  83 112 149 186 229 291 350
#     4  11  22  37  62  95 127 157 187 234 307 373
#
# _framework density 20.49943
#
# number of rings (size 3 to 8) (size 9 to 14) (size 15 to 20)
#    0.000    1.000    0.000    7.800    0.000   12.800 
#    0.000    0.000    0.000   12.000    0.000    0.000 
#    0.000    0.000    0.000    0.000    0.000    0.000 
#
# Total GULP energy -223422.725875 kJ/mol
# GULP energy per Si atom -5585.568147 kJ/mol
# Density = 2.045277 g / cm^3
# Si number density = 20.499430 Si / 1000 Ang^3
#
#
#
# Elastic Constant Matrix: (Units=GPa)
#
#
# Indices 1 2 3 4 5 6 
#
# 1 86.5172 23.3056 -9.8247 0.0000 0.0000 0.0000
# 2 23.3056 89.7051 27.1063 0.0000 0.0000 0.0000
# 3 -9.8247 27.1063 66.3257 0.0000 0.0000 0.0000
# 4 0.0000 0.0000 0.0000 6.9649 0.0000 0.0000
# 5 0.0000 0.0000 0.0000 0.0000 39.1052 0.0000
# 6 0.0000 0.0000 0.0000 0.0000 0.0000 27.1547
#
#
#
# Elastic Compliance Matrix: (Units=1/GPa)
#
#
# Indices 1 2 3 4 5 6 
#
# 1 0.013233 -0.004598 0.003839 0.000000 0.000000 0.000000
# 2 -0.004598 0.014316 -0.006532 0.000000 0.000000 0.000000
# 3 0.003839 -0.006532 0.018315 0.000000 0.000000 0.000000
# 4 0.000000 0.000000 0.000000 0.143578 0.000000 0.000000
# 5 0.000000 0.000000 0.000000 0.000000 0.025572 0.000000
# 6 0.000000 0.000000 0.000000 0.000000 0.000000 0.036826
#
#
# Mechanical properties :
#
#
# Convention : Reuss Voigt Hill
#
# Bulk Modulus (GPa) = 31.96617 35.96918 33.96767
# Shear Modulus (GPa) = 18.06038 28.10898 23.08468
#
# Velocity S-wave (km/s) = 2.97142 3.70700 3.35940
# Velocity P-wave (km/s) = 5.23450 5.99224 5.62614
#
# Compressibility (1/GPa) = 0.03128307
#
# Stress axis : x y z
#
# Youngs Moduli (GPa) = 75.56862 69.85200 54.59921
#
# Poissons Ratio (x) = 0.32119 -0.20963
# Poissons Ratio (y) = 0.34747 0.35663
# Poissons Ratio (z) = -0.29013 0.45626
#
# Static dielectric constant tensor:
#      x y z
#    x 1.644300 0.000000 0.000000 
#    y 0.000000 1.790990 0.000000 
#    z 0.000000 0.000000 1.703220 
# 
# From -- ./inp_files/34101.got.cif
#   From: 2010.05.17/outbox.cif.g08.bks.cpg/sg58_18_cif.got.tgz:34101.got - 2010.06.03 14:20:14.
