data_PCOD9445667
_publ_section_title
;
Structure prediction by ZEFSAII (Michael W. Deem and Ramdas Pophale) SiO2 
 PCOD9445667
Probable space group: P N N M
;
_chemical_formula_sum "Si O2"
_cell_formula_units_Z 40
_cell_length_a 18.329809
_cell_length_b 9.142680
_cell_length_c 11.362691
_cell_angle_alpha 90.000000
_cell_angle_beta 90.000000
_cell_angle_gamma 90.000000
_cell_volume 1904.200415
_symmetry_space_group_name_H-M "P N N M"
_symmetry_group_IT_number 58
_symmetry_cell_setting 'orthorhombic'
loop_
_space_group_symop_operation_xyz
x,y,z
-x,-y,z
1/2+x,1/2-y,1/2-z
1/2-x,1/2+y,1/2-z
-x,-y,-z
x,y,-z
1/2-x,1/2+y,1/2+z
1/2+x,1/2-y,1/2+z
loop_
_atom_site_type_symbol
_atom_site_label
_atom_site_fract_x
_atom_site_fract_y
_atom_site_fract_z
Si Si1 0.424110 0.187523 0.000000
Si Si2 0.952039 0.645187 0.867098
Si Si3 0.400552 0.848117 0.000000
Si Si4 0.049090 0.868792 0.719177
Si Si5 0.815904 0.009318 0.141479
Si Si6 0.816844 0.701219 0.267441
O O1 0.512446 0.170192 0.000000
O O2 0.408985 0.279754 0.882561
O O3 0.389343 0.025530 0.000000
O O4 0.872440 0.611635 0.815513
O O5 0.000000 0.500000 0.866502
O O6 0.994060 0.760820 0.786511
O O7 0.945475 0.701538 0.000000
O O8 0.363474 0.777723 0.886509
O O9 0.105965 0.935017 0.812060
O O10 0.000000 0.000000 0.667519
O O11 0.754966 0.117055 0.193816
O O12 0.802694 0.850554 0.198301
O O13 0.812693 0.005903 0.000000
#
# Coordination Sequence:
#
# PCOD9445667 Si02
#       6
#     4   8   4   8   8   8
#     4  11  23  40  78 108 140 182 228 306 348 417
#     4  11  24  44  73 106 140 184 240 295 354 424
#     4  11  22  46  72 104 143 177 234 291 358 411
#     4  12  24  44  73 105 142 186 241 290 354 414
#     4  12  29  49  70 102 145 188 232 291 357 419
#     4  12  26  48  71 101 141 187 233 288 353 422
#
# _framework density 21.006193
#
# number of rings (size 3 to 8) (size 9 to 14) (size 15 to 20)
#    0.000    0.400    5.000    2.700    5.600    1.600 
#    5.400    0.000    0.000    0.000    0.000    0.000 
#    0.000    0.000    0.000    0.000    0.000    0.000 
#
# Total GULP energy -223839.952902 kJ/mol
# GULP energy per Si atom -5595.998823 kJ/mol
# Density = 2.095838 g / cm^3
# Si number density = 21.006193 Si / 1000 Ang^3
#
#
#
# Elastic Constant Matrix: (Units=GPa)
#
#
# Indices 1 2 3 4 5 6 
#
# 1 86.6909 31.2909 27.4924 0.0000 0.0000 0.0000
# 2 31.2909 92.7884 57.6539 0.0000 0.0000 0.0000
# 3 27.4924 57.6539 152.9677 0.0000 0.0000 0.0000
# 4 0.0000 0.0000 0.0000 32.5498 0.0000 0.0000
# 5 0.0000 0.0000 0.0000 0.0000 55.0111 0.0000
# 6 0.0000 0.0000 0.0000 0.0000 0.0000 39.8603
#
#
#
# Elastic Compliance Matrix: (Units=1/GPa)
#
#
# Indices 1 2 3 4 5 6 
#
# 1 0.013230 -0.003897 -0.000909 0.000000 0.000000 0.000000
# 2 -0.003897 0.015221 -0.005036 0.000000 0.000000 0.000000
# 3 -0.000909 -0.005036 0.008599 0.000000 0.000000 0.000000
# 4 0.000000 0.000000 0.000000 0.030722 0.000000 0.000000
# 5 0.000000 0.000000 0.000000 0.000000 0.018178 0.000000
# 6 0.000000 0.000000 0.000000 0.000000 0.000000 0.025088
#
#
# Mechanical properties :
#
#
# Convention : Reuss Voigt Hill
#
# Bulk Modulus (GPa) = 57.58614 62.81350 60.19982
# Shear Modulus (GPa) = 36.62730 39.88489 38.25609
#
# Velocity S-wave (km/s) = 4.18023 4.36216 4.27216
# Velocity P-wave (km/s) = 7.12548 7.43899 7.28392
#
# Compressibility (1/GPa) = 0.01736529
#
# Stress axis : x y z
#
# Youngs Moduli (GPa) = 75.58555 65.70051 116.29354
#
# Poissons Ratio (x) = 0.25601 0.10573
# Poissons Ratio (y) = 0.29453 0.58569
# Poissons Ratio (z) = 0.06872 0.33089
#
# Static dielectric constant tensor:
#      x y z
#    x 1.751950 0.000000 0.000000 
#    y 0.000000 1.750510 0.000000 
#    z 0.000000 0.000000 1.744790 
# 
# From -- ./inp_files/16895.got.cif
#   From: 2010.05.17/outbox.cif.g08.bks.cpg/sg58_9_cif.got.tgz:16895.got - 2010.06.03 14:20:14.
