data_PCOD9445039
_publ_section_title
;
Structure prediction by ZEFSAII (Michael W. Deem and Ramdas Pophale) SiO2 
 PCOD9445039
Probable space group: P N N M
;
_chemical_formula_sum "Si O2"
_cell_formula_units_Z 48
_cell_length_a 8.945703
_cell_length_b 9.639362
_cell_length_c 23.947476
_cell_angle_alpha 90.000000
_cell_angle_beta 90.000000
_cell_angle_gamma 90.000000
_cell_volume 2065.011679
_symmetry_space_group_name_H-M "P N N M"
_symmetry_group_IT_number 58
_symmetry_cell_setting 'orthorhombic'
loop_
_space_group_symop_operation_xyz
x,y,z
-x,-y,z
1/2+x,1/2-y,1/2-z
1/2-x,1/2+y,1/2-z
-x,-y,-z
x,y,-z
1/2-x,1/2+y,1/2+z
1/2+x,1/2-y,1/2+z
loop_
_atom_site_type_symbol
_atom_site_label
_atom_site_fract_x
_atom_site_fract_y
_atom_site_fract_z
Si Si1 0.136170 0.906600 0.227094
Si Si2 0.630765 0.193396 0.436756
Si Si3 0.824754 0.190595 0.892761
Si Si4 0.836435 0.954662 0.432603
Si Si5 0.372303 0.110806 0.220539
Si Si6 0.659396 0.931264 0.087793
O O1 0.207387 0.837942 0.172133
O O2 0.102160 0.770986 0.263713
O O3 0.236667 0.030893 0.251641
O O4 0.000000 0.000000 0.205777
O O5 0.573763 0.171788 0.500000
O O6 0.493568 0.257521 0.402379
O O7 0.775949 0.293031 0.439199
O O8 0.699980 0.052299 0.412834
O O9 0.707271 0.301529 0.915054
O O10 0.786792 0.046343 0.922398
O O11 0.837361 0.965682 0.500000
O O12 0.000000 0.000000 0.412049
O O13 0.347581 0.104281 0.153861
O O14 0.500000 0.000000 0.233153
O O15 0.500000 0.000000 0.072045
#
# Coordination Sequence:
#
# PCOD9445039 Si02
#       6
#     8   8   8   8   8   8
#     4  11  23  41  64  93 127 163 209 263 320 387
#     4  11  23  39  62  92 125 164 211 260 313 376
#     4  11  22  38  61  90 125 162 204 260 318 378
#     4  10  22  40  61  88 124 166 214 264 314 376
#     4  10  22  40  61  88 123 164 209 261 319 381
#     4  10  22  40  59  85 122 160 207 261 313 373
#
# _framework density 23.244419000000001
#
# number of rings (size 3 to 8) (size 9 to 14) (size 15 to 20)
#    0.000    1.500    0.000    5.500    0.000    6.333 
#    0.000    1.667    0.000    0.000    0.000    0.000 
#    0.000    0.000    0.000    0.000    0.000    0.000 
#
# Total GULP energy -267998.490278 kJ/mol
# GULP energy per Si atom -5583.301881 kJ/mol
# Density = 2.319151 g / cm^3
# Si number density = 23.244419 Si / 1000 Ang^3
#
#
#
# Elastic Constant Matrix: (Units=GPa)
#
#
# Indices 1 2 3 4 5 6 
#
# 1 51.4352 3.2461 -1.7745 0.0000 0.0000 0.0000
# 2 3.2461 110.7886 10.3873 0.0000 0.0000 0.0000
# 3 -1.7745 10.3873 23.9132 0.0000 0.0000 0.0000
# 4 0.0000 0.0000 0.0000 -5.1655 0.0000 0.0000
# 5 0.0000 0.0000 0.0000 0.0000 -4.4119 0.0000
# 6 0.0000 0.0000 0.0000 0.0000 0.0000 37.5966
#
#
#
# Elastic Compliance Matrix: (Units=1/GPa)
#
#
# Indices 1 2 3 4 5 6 
#
# 1 0.019550 -0.000739 0.001772 0.000000 0.000000 0.000000
# 2 -0.000739 0.009437 -0.004154 0.000000 0.000000 0.000000
# 3 0.001772 -0.004154 0.043754 0.000000 0.000000 0.000000
# 4 0.000000 0.000000 0.000000 -0.193591 0.000000 0.000000
# 5 0.000000 0.000000 0.000000 0.000000 -0.226661 0.000000
# 6 0.000000 0.000000 0.000000 0.000000 0.000000 0.026598
#
#
# Mechanical properties :
#
#
# Convention : Reuss Voigt Hill
#
# Bulk Modulus (GPa) = 15.03803 23.31719 19.17761
# Shear Modulus (GPa) = -17.09377 17.22237 0.06430
#
# Velocity S-wave (km/s) = -2.71475 2.72495 0.16650
# Velocity P-wave (km/s) = 1.82837 4.46694 2.88189
#
# Compressibility (1/GPa) = 0.06649809
#
# Stress axis : x y z
#
# Youngs Moduli (GPa) = 51.15167 105.96207 22.85509
#
# Poissons Ratio (x) = 0.07830 -0.04049
# Poissons Ratio (y) = 0.03780 0.09494
# Poissons Ratio (z) = -0.09062 0.44019
#
# Static dielectric constant tensor:
#      x y z
#    x 2.039320 0.000000 0.000000 
#    y 0.000000 1.847340 0.000000 
#    z 0.000000 0.000000 1.880660 
# 
# From -- ./inp_files/34546.got.cif
#   From: 2010.05.17/outbox.cif.g08.bks.cpg/sg58_18_cif.got.tgz:34546.got - 2010.06.03 14:20:14.
