data_PCOD9445410
_publ_section_title
;
Structure prediction by ZEFSAII (Michael W. Deem and Ramdas Pophale) SiO2 
 PCOD9445410
Probable space group: P N N M
;
_chemical_formula_sum "Si O2"
_cell_formula_units_Z 32
_cell_length_a 14.691551
_cell_length_b 6.690934
_cell_length_c 11.332650
_cell_angle_alpha 90.000000
_cell_angle_beta 90.000000
_cell_angle_gamma 90.000000
_cell_volume 1114.001740
_symmetry_space_group_name_H-M "P N N M"
_symmetry_group_IT_number 58
_symmetry_cell_setting 'orthorhombic'
loop_
_space_group_symop_operation_xyz
x,y,z
-x,-y,z
1/2+x,1/2-y,1/2-z
1/2-x,1/2+y,1/2-z
-x,-y,-z
x,y,-z
1/2-x,1/2+y,1/2+z
1/2+x,1/2-y,1/2+z
loop_
_atom_site_type_symbol
_atom_site_label
_atom_site_fract_x
_atom_site_fract_y
_atom_site_fract_z
Si Si1 0.770608 0.867381 0.000000
Si Si2 0.838775 0.751339 0.251219
Si Si3 0.000000 0.000000 0.192295
Si Si4 0.000000 0.500000 0.308548
Si Si5 0.088559 0.766009 0.000000
Si Si6 0.770805 0.881189 0.500000
Si Si7 0.413507 0.250723 0.000000
O O1 0.784017 0.762899 0.128660
O O2 0.846124 0.038385 0.000000
O O3 0.664424 0.919069 0.000000
O O4 0.906161 0.942394 0.251841
O O5 0.904617 0.559678 0.250725
O O6 0.783880 0.771213 0.372823
O O7 0.023800 0.806173 0.111162
O O8 0.976406 0.305313 0.389408
O O9 0.160161 0.587595 0.000000
O O10 0.851484 0.050400 0.500000
#
# Coordination Sequence:
#
# PCOD9445410 Si02
#       7
#     4   8   4   4   4   4   4
#     4  10  24  44  65  98 137 175 224 286 357 426
#     4  11  24  42  67  99 137 181 232 291 356 427
#     4   9  20  41  68  98 136 182 230 286 360 432
#     4  11  24  43  68  98 142 188 236 294 352 416
#     4   9  20  42  69  96 136 182 227 289 357 427
#     4  12  25  41  69 103 135 179 239 296 356 420
#     4  11  25  43  67 100 140 187 238 297 356 419
#
# _framework density 28.725269999999998
#
# number of rings (size 3 to 8) (size 9 to 14) (size 15 to 20)
#    0.000    1.500    0.000    5.250    0.000   12.000 
#    0.000    0.000    0.000    0.000    0.000    0.000 
#    0.000    0.000    0.000    0.000    0.000    0.000 
#
# Total GULP energy -178893.689550 kJ/mol
# GULP energy per Si atom -5590.427798 kJ/mol
# Density = 2.865989 g / cm^3
# Si number density = 28.725270 Si / 1000 Ang^3
#
#
#
# Elastic Constant Matrix: (Units=GPa)
#
#
# Indices 1 2 3 4 5 6 
#
# 1 116.4517 0.7489 63.6392 0.0000 0.0000 0.0000
# 2 0.7489 69.7732 21.2111 0.0000 0.0000 0.0000
# 3 63.6392 21.2111 189.3663 0.0000 0.0000 0.0000
# 4 0.0000 0.0000 0.0000 29.9736 0.0000 0.0000
# 5 0.0000 0.0000 0.0000 0.0000 76.0134 0.0000
# 6 0.0000 0.0000 0.0000 0.0000 0.0000 59.9352
#
#
#
# Elastic Compliance Matrix: (Units=1/GPa)
#
#
# Indices 1 2 3 4 5 6 
#
# 1 0.010586 0.001002 -0.003670 0.000000 0.000000 0.000000
# 2 0.001002 0.014932 -0.002009 0.000000 0.000000 0.000000
# 3 -0.003670 -0.002009 0.006739 0.000000 0.000000 0.000000
# 4 0.000000 0.000000 0.000000 0.033363 0.000000 0.000000
# 5 0.000000 0.000000 0.000000 0.000000 0.013156 0.000000
# 6 0.000000 0.000000 0.000000 0.000000 0.000000 0.016685
#
#
# Mechanical properties :
#
#
# Convention : Reuss Voigt Hill
#
# Bulk Modulus (GPa) = 43.66174 60.75438 52.20806
# Shear Modulus (GPa) = 44.46436 52.51725 48.49080
#
# Velocity S-wave (km/s) = 3.93863 4.28045 4.11309
# Velocity P-wave (km/s) = 5.99304 6.75469 6.38523
#
# Compressibility (1/GPa) = 0.02290335
#
# Stress axis : x y z
#
# Youngs Moduli (GPa) = 94.46102 66.96919 148.38616
#
# Poissons Ratio (x) = -0.06711 0.54457
# Poissons Ratio (y) = -0.09465 0.29816
# Poissons Ratio (z) = 0.34667 0.13456
#
# Static dielectric constant tensor:
#      x y z
#    x 2.007920 0.000000 0.000000 
#    y 0.000000 2.389030 0.000000 
#    z 0.000000 0.000000 2.236850 
# 
# From -- ./inp_files/15223.got.cif
#   From: 2010.05.17/outbox.cif.g08.bks.cpg/sg58_8_cif.got.tgz:15223.got - 2010.06.03 14:20:14.
