data_PCOD9445105
_publ_section_title
;
Structure prediction by ZEFSAII (Michael W. Deem and Ramdas Pophale) SiO2 
 PCOD9445105
Probable space group: P N N M
;
_chemical_formula_sum "Si O2"
_cell_formula_units_Z 40
_cell_length_a 24.700758
_cell_length_b 8.138905
_cell_length_c 9.728761
_cell_angle_alpha 90.000000
_cell_angle_beta 90.000000
_cell_angle_gamma 90.000000
_cell_volume 1955.842120
_symmetry_space_group_name_H-M "P N N M"
_symmetry_group_IT_number 58
_symmetry_cell_setting 'orthorhombic'
loop_
_space_group_symop_operation_xyz
x,y,z
-x,-y,z
1/2+x,1/2-y,1/2-z
1/2-x,1/2+y,1/2-z
-x,-y,-z
x,y,-z
1/2-x,1/2+y,1/2+z
1/2+x,1/2-y,1/2+z
loop_
_atom_site_type_symbol
_atom_site_label
_atom_site_fract_x
_atom_site_fract_y
_atom_site_fract_z
Si Si1 0.387743 0.755846 0.500000
Si Si2 0.435554 0.501085 0.000000
Si Si3 0.266762 0.110296 0.500000
Si Si4 0.667755 0.567639 0.500000
Si Si5 0.407697 0.291570 0.734316
Si Si6 0.492513 0.199080 0.500000
Si Si7 0.341346 0.747974 0.000000
Si Si8 0.843015 0.530279 0.235900
O O1 0.337296 0.628658 0.500000
O O2 0.450405 0.702350 0.500000
O O3 0.380800 0.866661 0.366395
O O4 0.500000 0.500000 0.000000
O O5 0.420157 0.403952 0.137465
O O6 0.401628 0.671312 0.000000
O O7 0.282447 0.305516 0.500000
O O8 0.202389 0.100582 0.500000
O O9 0.294134 0.030319 0.364149
O O10 0.633717 0.616794 0.633639
O O11 0.458208 0.245788 0.635878
O O12 0.377113 0.127283 0.781623
O O13 0.500000 0.000000 0.500000
O O14 0.330311 0.856604 0.135019
#
# Coordination Sequence:
#
# PCOD9445105 Si02
#       8
#     4   4   4   4   8   4   4   8
#     4  11  20  36  64 100 128 165 226 271 312 380
#     4  12  29  41  56  95 140 172 214 271 334 388
#     4   9  23  46  67  98 126 165 218 274 331 392
#     4   9  20  38  66  91 125 155 215 280 321 370
#     4  10  22  41  59  89 132 172 212 269 324 379
#     4  11  20  36  68  92 121 180 237 261 305 382
#     4  12  26  44  69  97 130 176 220 264 338 406
#     4  10  22  42  67  95 127 170 215 268 326 400
#
# _framework density 20.451549
#
# number of rings (size 3 to 8) (size 9 to 14) (size 15 to 20)
#    0.000    1.600    2.000    3.000    5.600    5.600 
#    0.000    4.500    0.000    0.000    0.000    0.000 
#    0.000    0.000    0.000    0.000    0.000    0.000 
#
# Total GULP energy -223267.144083 kJ/mol
# GULP energy per Si atom -5581.678602 kJ/mol
# Density = 2.040500 g / cm^3
# Si number density = 20.451549 Si / 1000 Ang^3
#
#
#
# Elastic Constant Matrix: (Units=GPa)
#
#
# Indices 1 2 3 4 5 6 
#
# 1 86.0272 8.6170 33.2873 0.0000 0.0000 0.0000
# 2 8.6170 68.8161 28.6372 0.0000 0.0000 0.0000
# 3 33.2873 28.6372 133.7378 0.0000 0.0000 0.0000
# 4 0.0000 0.0000 0.0000 -62.9130 0.0000 0.0000
# 5 0.0000 0.0000 0.0000 0.0000 48.7669 0.0000
# 6 0.0000 0.0000 0.0000 0.0000 0.0000 23.8673
#
#
#
# Elastic Compliance Matrix: (Units=1/GPa)
#
#
# Indices 1 2 3 4 5 6 
#
# 1 0.012869 -0.000306 -0.003138 0.000000 0.000000 0.000000
# 2 -0.000306 0.015960 -0.003341 0.000000 0.000000 0.000000
# 3 -0.003138 -0.003341 0.008974 0.000000 0.000000 0.000000
# 4 0.000000 0.000000 0.000000 -0.015895 0.000000 0.000000
# 5 0.000000 0.000000 0.000000 0.000000 0.020506 0.000000
# 6 0.000000 0.000000 0.000000 0.000000 0.000000 0.041898
#
#
# Mechanical properties :
#
#
# Convention : Reuss Voigt Hill
#
# Bulk Modulus (GPa) = 41.26545 47.74047 44.50296
# Shear Modulus (GPa) = 47.18789 16.48022 31.83405
#
# Velocity S-wave (km/s) = 4.80865 2.84177 3.94961
# Velocity P-wave (km/s) = 7.14505 5.84478 6.52737
#
# Compressibility (1/GPa) = 0.02423335
#
# Stress axis : x y z
#
# Youngs Moduli (GPa) = 77.70663 62.65554 111.43580
#
# Poissons Ratio (x) = 0.01916 0.34964
# Poissons Ratio (y) = 0.02376 0.37236
# Poissons Ratio (z) = 0.24381 0.20936
#
# Static dielectric constant tensor:
#      x y z
#    x 1.771960 0.000000 0.000000 
#    y 0.000000 1.770440 0.000000 
#    z 0.000000 0.000000 1.664700 
# 
# From -- ./inp_files/10317.got.cif
#   From: 2010.05.17/outbox.cif.g08.bks.cpg/sg58_6_cif.got.tgz:10317.got - 2010.06.03 14:20:14.
