data_PCOD9445135
_publ_section_title
;
Structure prediction by ZEFSAII (Michael W. Deem and Ramdas Pophale) SiO2 
 PCOD9445135
Probable space group: P N N M
;
_chemical_formula_sum "Si O2"
_cell_formula_units_Z 56
_cell_length_a 15.684013
_cell_length_b 9.010096
_cell_length_c 19.602397
_cell_angle_alpha 90.000000
_cell_angle_beta 90.000000
_cell_angle_gamma 90.000000
_cell_volume 2770.102202
_symmetry_space_group_name_H-M "P N N M"
_symmetry_group_IT_number 58
_symmetry_cell_setting 'orthorhombic'
loop_
_space_group_symop_operation_xyz
x,y,z
-x,-y,z
1/2+x,1/2-y,1/2-z
1/2-x,1/2+y,1/2-z
-x,-y,-z
x,y,-z
1/2-x,1/2+y,1/2+z
1/2+x,1/2-y,1/2+z
loop_
_atom_site_type_symbol
_atom_site_label
_atom_site_fract_x
_atom_site_fract_y
_atom_site_fract_z
Si Si1 0.089800 0.915917 0.675131
Si Si2 0.476043 0.172322 0.420337
Si Si3 0.589519 0.084458 0.923167
Si Si4 0.355610 0.329368 0.318105
Si Si5 0.133755 0.178152 0.848693
Si Si6 0.189778 0.715361 0.578467
Si Si7 0.837583 0.777120 0.304443
O O1 0.095613 0.824480 0.745555
O O2 0.115612 0.811796 0.613067
O O3 0.159729 0.046972 0.681484
O O4 0.000000 0.000000 0.669319
O O5 0.458112 0.199232 0.500000
O O6 0.397977 0.221357 0.372942
O O7 0.556403 0.268322 0.395005
O O8 0.500000 0.000000 0.411661
O O9 0.607213 0.198089 0.862761
O O10 0.500000 0.000000 0.915482
O O11 0.660818 0.956005 0.919464
O O12 0.591591 0.150296 0.000000
O O13 0.364538 0.499420 0.343063
O O14 0.257578 0.286577 0.306781
O O15 0.223250 0.231085 0.879812
O O16 0.125800 0.240264 0.771777
O O17 0.201988 0.758216 0.500000
#
# Coordination Sequence:
#
# PCOD9445135 Si02
#       7
#     8   8   8   8   8   8   8
#     4  11  24  42  63  96 131 168 219 268 326 390
#     4  11  27  45  67  99 134 174 220 275 335 397
#     4  10  22  41  64  95 129 166 213 262 320 388
#     4  11  23  43  67  96 131 171 221 268 329 397
#     4  11  23  43  66  95 130 171 223 268 330 395
#     4  11  23  39  64  92 128 171 211 263 323 391
#     4  11  23  40  68  96 128 172 216 273 324 383
#
# _framework density 20.215862000000001
#
# number of rings (size 3 to 8) (size 9 to 14) (size 15 to 20)
#    0.000    1.143    2.857    3.429    2.000    4.857 
#    0.000    0.000    0.000    0.000    0.000    0.000 
#    0.000    0.000    0.000    0.000    0.000    0.000 
#
# Total GULP energy -313185.915673 kJ/mol
# GULP energy per Si atom -5592.605637 kJ/mol
# Density = 2.016985 g / cm^3
# Si number density = 20.215862 Si / 1000 Ang^3
#
#
#
# Elastic Constant Matrix: (Units=GPa)
#
#
# Indices 1 2 3 4 5 6 
#
# 1 40.0595 -5.9689 15.3230 0.0000 0.0000 0.0000
# 2 -5.9689 50.6593 51.1109 0.0000 0.0000 0.0000
# 3 15.3230 51.1109 166.2723 0.0000 0.0000 0.0000
# 4 0.0000 0.0000 0.0000 31.4879 0.0000 0.0000
# 5 0.0000 0.0000 0.0000 0.0000 26.6804 0.0000
# 6 0.0000 0.0000 0.0000 0.0000 0.0000 34.3217
#
#
#
# Elastic Compliance Matrix: (Units=1/GPa)
#
#
# Indices 1 2 3 4 5 6 
#
# 1 0.028261 0.008636 -0.005259 0.000000 0.000000 0.000000
# 2 0.008636 0.031253 -0.010403 0.000000 0.000000 0.000000
# 3 -0.005259 -0.010403 0.009697 0.000000 0.000000 0.000000
# 4 0.000000 0.000000 0.000000 0.031758 0.000000 0.000000
# 5 0.000000 0.000000 0.000000 0.000000 0.037481 0.000000
# 6 0.000000 0.000000 0.000000 0.000000 0.000000 0.029136
#
#
# Mechanical properties :
#
#
# Convention : Reuss Voigt Hill
#
# Bulk Modulus (GPa) = 18.12954 41.99123 30.06038
# Shear Modulus (GPa) = 24.99707 31.59974 28.29841
#
# Velocity S-wave (km/s) = 3.52022 3.95792 3.74547
# Velocity P-wave (km/s) = 5.05074 6.45781 5.79713
#
# Compressibility (1/GPa) = 0.05515860
#
# Stress axis : x y z
#
# Youngs Moduli (GPa) = 35.38419 31.99732 103.12906
#
# Poissons Ratio (x) = -0.27632 0.54236
# Poissons Ratio (y) = -0.30557 1.07282
# Poissons Ratio (z) = 0.18609 0.33286
#
# Static dielectric constant tensor:
#      x y z
#    x 1.714790 0.000000 0.000000 
#    y 0.000000 1.698860 0.000000 
#    z 0.000000 0.000000 1.703910 
# 
# From -- ./inp_files/30040.got.cif
#   From: 2010.05.17/outbox.cif.g08.bks.cpg/sg58_16_cif.got.tgz:30040.got - 2010.06.03 14:20:14.
