data_PCOD9445997
_publ_section_title
;
Structure prediction by ZEFSAII (Michael W. Deem and Ramdas Pophale) SiO2 
 PCOD9445997
Probable space group: P N N M
;
_chemical_formula_sum "Si O2"
_cell_formula_units_Z 48
_cell_length_a 24.000000
_cell_length_b 12.000000
_cell_length_c 9.000000
_cell_angle_alpha 90.000000
_cell_angle_beta 90.000000
_cell_angle_gamma 90.000000
_cell_volume 2592.000000
_symmetry_space_group_name_H-M "P N N M"
_symmetry_group_IT_number 58
_symmetry_cell_setting 'orthorhombic'
loop_
_space_group_symop_operation_xyz
x,y,z
-x,-y,z
1/2+x,1/2-y,1/2-z
1/2-x,1/2+y,1/2-z
-x,-y,-z
x,y,-z
1/2-x,1/2+y,1/2+z
1/2+x,1/2-y,1/2+z
loop_
_atom_site_type_symbol
_atom_site_label
_atom_site_fract_x
_atom_site_fract_y
_atom_site_fract_z
Si Si1 0.674021 0.385794 0.320379
Si Si2 0.092624 0.539224 0.322601
Si Si3 0.865674 0.114272 0.678652
Si Si4 0.085342 0.301246 0.824394
Si Si5 0.297353 0.171193 0.179153
Si Si6 0.037927 0.749281 0.175691
O O1 0.673783 0.399590 0.500000
O O2 0.649568 0.496036 0.246531
O O3 0.636286 0.278813 0.285906
O O4 0.736781 0.362764 0.266606
O O5 0.084569 0.548776 0.500000
O O6 0.084633 0.414415 0.268052
O O7 0.155007 0.581582 0.284916
O O8 0.053108 0.627319 0.239824
O O9 0.866935 0.110195 0.500000
O O10 0.820157 0.207954 0.726294
O O11 0.923877 0.162316 0.739423
O O12 0.027680 0.235305 0.802143
O O13 0.088562 0.329829 0.000000
O O14 0.294010 0.175710 0.000000
O O15 0.050131 0.752899 0.000000
#
# Coordination Sequence:
#
# PCOD9445997 Si02
#       6
#     8   8   8   8   8   8
#     4  10  21  38  57  79 110 149 186 226 274 327
#     4  10  20  35  57  85 115 146 182 232 285 330
#     4  10  21  38  58  83 111 143 184 230 279 332
#     4  10  22  36  55  83 113 147 191 232 272 330
#     4   8  18  36  56  78 109 143 179 224 275 331
#     4  10  20  37  58  81 110 148 190 230 274 332
#
# _framework density 18.518519000000001
#
# number of rings (size 3 to 8) (size 9 to 14) (size 15 to 20)
#    0.000    2.333    0.000    3.000    2.333    4.667 
#    0.000    7.500    0.000    0.000    0.000    0.000 
#    0.000    0.000    0.000    0.000    0.000    0.000 
#
# Total GULP energy -267900.633205 kJ/mol
# GULP energy per Si atom -5581.263192 kJ/mol
# Density = 1.847637 g / cm^3
# Si number density = 18.518519 Si / 1000 Ang^3
#
#
#
# Elastic Constant Matrix: (Units=GPa)
#
#
# Indices 1 2 3 4 5 6 
#
# 1 78.7809 2.2418 19.7944 0.0000 0.0000 0.0000
# 2 2.2418 -36.5383 -11.1647 0.0000 0.0000 0.0000
# 3 19.7944 -11.1647 28.1368 0.0000 0.0000 0.0000
# 4 0.0000 0.0000 0.0000 30.6256 0.0000 0.0000
# 5 0.0000 0.0000 0.0000 0.0000 21.3244 0.0000
# 6 0.0000 0.0000 0.0000 0.0000 0.0000 -10.2419
#
#
#
# Elastic Compliance Matrix: (Units=1/GPa)
#
#
# Indices 1 2 3 4 5 6 
#
# 1 0.014849 0.003659 -0.008995 0.000000 0.000000 0.000000
# 2 0.003659 -0.023507 -0.011902 0.000000 0.000000 0.000000
# 3 -0.008995 -0.011902 0.037146 0.000000 0.000000 0.000000
# 4 0.000000 0.000000 0.000000 0.032652 0.000000 0.000000
# 5 0.000000 0.000000 0.000000 0.000000 0.046895 0.000000
# 6 0.000000 0.000000 0.000000 0.000000 0.000000 -0.097639
#
#
# Mechanical properties :
#
#
# Convention : Reuss Voigt Hill
#
# Bulk Modulus (GPa) = -167.03887 10.23581 -78.40153
# Shear Modulus (GPa) = 116.61780 12.30881 64.46330
#
# Velocity S-wave (km/s) = 7.94420 2.58093 5.90642
# Velocity P-wave (km/s) = 2.49994 3.79749 2.02129
#
# Compressibility (1/GPa) = -0.00598663
#
# Stress axis : x y z
#
# Youngs Moduli (GPa) = 67.34341 -42.54019 26.92104
#
# Poissons Ratio (x) = 0.15567 0.24214
# Poissons Ratio (y) = -0.24644 0.32042
# Poissons Ratio (z) = 0.60572 -0.50632
#
# Static dielectric constant tensor:
#      x y z
#    x 1.660150 0.000000 0.000000 
#    y 0.000000 1.594750 0.000000 
#    z 0.000000 0.000000 1.616690 
# 
# From -- ./inp_files/4212.got.cif
#   From: 2010.05.17/outbox.ucp.g08.bks.cvg/sg58_3_cif.got.tgz:4212.got - 2010.06.11 16:41:41.
