data_PCOD9445962
_publ_section_title
;
Structure prediction by ZEFSAII (Michael W. Deem and Ramdas Pophale) SiO2 
 PCOD9445962
Probable space group: P N N M
;
_chemical_formula_sum "Si O2"
_cell_formula_units_Z 64
_cell_length_a 21.000000
_cell_length_b 18.000000
_cell_length_c 9.000000
_cell_angle_alpha 90.000000
_cell_angle_beta 90.000000
_cell_angle_gamma 90.000000
_cell_volume 3402.000000
_symmetry_space_group_name_H-M "P N N M"
_symmetry_group_IT_number 58
_symmetry_cell_setting 'orthorhombic'
loop_
_space_group_symop_operation_xyz
x,y,z
-x,-y,z
1/2+x,1/2-y,1/2-z
1/2-x,1/2+y,1/2-z
-x,-y,-z
x,y,-z
1/2-x,1/2+y,1/2+z
1/2+x,1/2-y,1/2+z
loop_
_atom_site_type_symbol
_atom_site_label
_atom_site_fract_x
_atom_site_fract_y
_atom_site_fract_z
Si Si1 0.492727 0.814605 0.335091
Si Si2 0.006221 0.169752 0.326749
Si Si3 0.935397 0.959098 0.178165
Si Si4 0.681953 0.958621 0.831613
Si Si5 0.430811 0.967054 0.329573
Si Si6 0.639354 0.824387 0.332985
Si Si7 0.863885 0.174557 0.673949
Si Si8 0.187972 0.953622 0.828686
O O1 0.490075 0.778595 0.500000
O O2 0.484053 0.755834 0.206366
O O3 0.442022 0.879344 0.329077
O O4 0.564607 0.846566 0.323503
O O5 0.008373 0.152523 0.500000
O O6 0.057784 0.122878 0.240104
O O7 0.934630 0.154262 0.265412
O O8 0.871291 0.998337 0.229814
O O9 0.935419 0.958356 0.000000
O O10 0.000000 0.000000 0.229544
O O11 0.681958 0.891977 0.715989
O O12 0.622767 0.008738 0.783295
O O13 0.747035 0.002737 0.822643
O O14 0.672961 0.931207 0.000000
O O15 0.415159 0.990327 0.500000
O O16 0.500000 0.000000 0.292936
O O17 0.651410 0.799333 0.500000
O O18 0.648581 0.757626 0.221468
O O19 0.867837 0.167490 0.500000
O O20 0.811112 0.121333 0.738062
O O21 0.173881 0.935259 0.000000
#
# Coordination Sequence:
#
# PCOD9445962 Si02
#       8
#     8   8   8   8   8   8   8   8
#     4   9  18  33  55  80 108 143 183 226 268 326
#     4  10  20  32  51  83 117 140 172 230 285 328
#     4  10  19  34  58  80 103 143 188 224 265 326
#     4  11  23  37  55  83 117 148 184 232 281 328
#     4  10  19  36  58  82 109 142 187 228 270 330
#     4  10  19  35  58  81 109 146 186 226 273 332
#     4  10  20  34  55  84 113 142 181 229 279 329
#     4  10  22  39  56  80 113 149 188 227 272 333
#
# _framework density 18.812463000000001
#
# number of rings (size 3 to 8) (size 9 to 14) (size 15 to 20)
#    0.000    2.000    2.500    1.500    0.000    4.000 
#    0.000    1.250    0.000    1.500    0.000    0.000 
#    0.000    0.000    0.000    0.000    0.000    0.000 
#
# Total GULP energy -356547.703592 kJ/mol
# GULP energy per Si atom -5571.057869 kJ/mol
# Density = 1.876965 g / cm^3
# Si number density = 18.812463 Si / 1000 Ang^3
#
#
#
# Elastic Constant Matrix: (Units=GPa)
#
#
# Indices 1 2 3 4 5 6 
#
# 1 34.7782 14.5698 33.0033 0.0000 0.0000 0.0000
# 2 14.5698 47.1686 12.4290 0.0000 0.0000 0.0000
# 3 33.0033 12.4290 -19.6817 0.0000 0.0000 0.0000
# 4 0.0000 0.0000 0.0000 101.4013 0.0000 0.0000
# 5 0.0000 0.0000 0.0000 0.0000 19.6338 0.0000
# 6 0.0000 0.0000 0.0000 0.0000 0.0000 5.0550
#
#
#
# Elastic Compliance Matrix: (Units=1/GPa)
#
#
# Indices 1 2 3 4 5 6 
#
# 1 0.014853 -0.009560 0.018869 0.000000 0.000000 0.000000
# 2 -0.009560 0.024329 -0.000667 0.000000 0.000000 0.000000
# 3 0.018869 -0.000667 -0.019589 0.000000 0.000000 0.000000
# 4 0.000000 0.000000 0.000000 0.009862 0.000000 0.000000
# 5 0.000000 0.000000 0.000000 0.000000 0.050933 0.000000
# 6 0.000000 0.000000 0.000000 0.000000 0.000000 0.197825
#
#
# Mechanical properties :
#
#
# Convention : Reuss Voigt Hill
#
# Bulk Modulus (GPa) = 27.11685 20.25216 23.68450
# Shear Modulus (GPa) = 18.30028 25.36887 21.83458
#
# Velocity S-wave (km/s) = 3.12232 3.67620 3.41052
# Velocity P-wave (km/s) = 5.23871 5.36730 5.30339
#
# Compressibility (1/GPa) = 0.03687745
#
# Stress axis : x y z
#
# Youngs Moduli (GPa) = 67.32759 41.10302 -51.04811
#
# Poissons Ratio (x) = 0.39294 0.96322
# Poissons Ratio (y) = 0.64364 -0.03402
# Poissons Ratio (z) = -1.27039 0.02740
#
# Static dielectric constant tensor:
#      x y z
#    x 1.658030 0.000000 0.000000 
#    y 0.000000 1.723440 0.000000 
#    z 0.000000 0.000000 1.648990 
# 
# From -- ./inp_files/8345.got.cif
#   From: 2010.05.17/outbox.ucp.g08.bks.cvg/sg58_5_cif.got.tgz:8345.got - 2010.06.11 16:41:41.
