data_PCOD9445929
_publ_section_title
;
Structure prediction by ZEFSAII (Michael W. Deem and Ramdas Pophale) SiO2 
 PCOD9445929
Probable space group: P N N M
;
_chemical_formula_sum "Si O2"
_cell_formula_units_Z 64
_cell_length_a 15.000000
_cell_length_b 24.000000
_cell_length_c 9.000000
_cell_angle_alpha 90.000000
_cell_angle_beta 90.000000
_cell_angle_gamma 90.000000
_cell_volume 3240.000000
_symmetry_space_group_name_H-M "P N N M"
_symmetry_group_IT_number 58
_symmetry_cell_setting 'orthorhombic'
loop_
_space_group_symop_operation_xyz
x,y,z
-x,-y,z
1/2+x,1/2-y,1/2-z
1/2-x,1/2+y,1/2-z
-x,-y,-z
x,y,-z
1/2-x,1/2+y,1/2+z
1/2+x,1/2-y,1/2+z
loop_
_atom_site_type_symbol
_atom_site_label
_atom_site_fract_x
_atom_site_fract_y
_atom_site_fract_z
Si Si1 0.228523 0.947039 0.179590
Si Si2 0.737320 0.341773 0.318830
Si Si3 0.884443 0.612375 0.178475
Si Si4 0.561854 0.721136 0.825355
Si Si5 0.943473 0.347651 0.320932
Si Si6 0.447055 0.388933 0.677872
Si Si7 0.724203 0.220494 0.322558
Si Si8 0.618183 0.445534 0.319443
O O1 0.321897 0.936088 0.257371
O O2 0.154098 0.901293 0.223820
O O3 0.177938 0.002911 0.227176
O O4 0.239649 0.946531 0.000000
O O5 0.738800 0.338677 0.500000
O O6 0.703405 0.282003 0.262439
O O7 0.671981 0.390644 0.276640
O O8 0.839879 0.354466 0.276600
O O9 0.983950 0.614034 0.242388
O O10 0.833289 0.668837 0.234014
O O11 0.885475 0.611030 0.000000
O O12 0.533750 0.783261 0.782769
O O13 0.521852 0.670986 0.732728
O O14 0.669036 0.717346 0.803160
O O15 0.544868 0.713461 0.000000
O O16 0.948709 0.353589 0.500000
O O17 0.447219 0.389918 0.500000
O O18 0.516693 0.435832 0.729929
O O19 0.708836 0.220570 0.500000
O O20 0.614469 0.449769 0.500000
#
# Coordination Sequence:
#
# PCOD9445929 Si02
#       8
#     8   8   8   8   8   8   8   8
#     4  10  20  35  52  76 110 141 174 221 266 309
#     4   8  15  31  53  75  99 132 175 220 259 303
#     4  11  21  33  54  79 105 140 178 215 260 317
#     4   9  17  32  50  72 107 141 167 201 255 319
#     4   9  19  34  53  76 105 136 170 218 267 309
#     4  10  19  30  50  80 110 137 171 216 263 309
#     4   8  15  28  47  72 101 132 166 206 251 305
#     4   9  18  32  53  77 102 137 181 222 264 311
#
# _framework density 19.753086
#
# number of rings (size 3 to 8) (size 9 to 14) (size 15 to 20)
#    0.000    2.750    1.250    2.250    1.750    2.000 
#    0.000    1.250    0.000    6.750    0.000    0.000 
#    0.000    0.000    0.000    0.000    0.000    0.000 
#
# Total GULP energy -356540.785721 kJ/mol
# GULP energy per Si atom -5570.949777 kJ/mol
# Density = 1.970813 g / cm^3
# Si number density = 19.753086 Si / 1000 Ang^3
#
#
#
# Elastic Constant Matrix: (Units=GPa)
#
#
# Indices 1 2 3 4 5 6 
#
# 1 25.7812 -19.6503 3.1876 0.0000 0.0000 0.0000
# 2 -19.6503 20.9918 9.6386 0.0000 0.0000 0.0000
# 3 3.1876 9.6386 -1.1903 0.0000 0.0000 0.0000
# 4 0.0000 0.0000 0.0000 17.0495 0.0000 0.0000
# 5 0.0000 0.0000 0.0000 0.0000 -0.6858 0.0000
# 6 0.0000 0.0000 0.0000 0.0000 0.0000 21.9771
#
#
#
# Elastic Compliance Matrix: (Units=1/GPa)
#
#
# Indices 1 2 3 4 5 6 
#
# 1 0.029468 -0.001834 0.064071 0.000000 0.000000 0.000000
# 2 -0.001834 0.010211 0.077774 0.000000 0.000000 0.000000
# 3 0.064071 0.077774 -0.038760 0.000000 0.000000 0.000000
# 4 0.000000 0.000000 0.000000 0.058653 0.000000 0.000000
# 5 0.000000 0.000000 0.000000 0.000000 -1.458221 0.000000
# 6 0.000000 0.000000 0.000000 0.000000 0.000000 0.045502
#
#
# Mechanical properties :
#
#
# Convention : Reuss Voigt Hill
#
# Bulk Modulus (GPa) = 3.55946 3.54829 3.55388
# Shear Modulus (GPa) = -3.24776 11.16197 3.95710
#
# Velocity S-wave (km/s) = -1.28365 2.37971 1.41691
# Velocity P-wave (km/s) = 0.62539 3.05793 2.11658
#
# Compressibility (1/GPa) = 0.28094116
#
# Stress axis : x y z
#
# Youngs Moduli (GPa) = 33.93459 97.93732 -25.79979
#
# Poissons Ratio (x) = 0.17958 1.65302
# Poissons Ratio (y) = 0.06222 2.00654
# Poissons Ratio (z) = -2.17422 -7.61694
#
# Static dielectric constant tensor:
#      x y z
#    x 1.699040 0.000000 0.000000 
#    y 0.000000 1.765620 0.000000 
#    z 0.000000 0.000000 1.646910 
# 
# From -- ./inp_files/6754.got.cif
#   From: 2010.05.17/outbox.ucp.g08.bks.cvg/sg58_4_cif.got.tgz:6754.got - 2010.06.11 16:41:41.
