data_PCOD9445638
_publ_section_title
;
Structure prediction by ZEFSAII (Michael W. Deem and Ramdas Pophale) SiO2 
 PCOD9445638
Probable space group: P N N M
;
_chemical_formula_sum "Si O2"
_cell_formula_units_Z 64
_cell_length_a 15.697539
_cell_length_b 24.325202
_cell_length_c 8.658536
_cell_angle_alpha 90.000000
_cell_angle_beta 90.000000
_cell_angle_gamma 90.000000
_cell_volume 3306.225667
_symmetry_space_group_name_H-M "P N N M"
_symmetry_group_IT_number 58
_symmetry_cell_setting 'orthorhombic'
loop_
_space_group_symop_operation_xyz
x,y,z
-x,-y,z
1/2+x,1/2-y,1/2-z
1/2-x,1/2+y,1/2-z
-x,-y,-z
x,y,-z
1/2-x,1/2+y,1/2+z
1/2+x,1/2-y,1/2+z
loop_
_atom_site_type_symbol
_atom_site_label
_atom_site_fract_x
_atom_site_fract_y
_atom_site_fract_z
Si Si1 0.098968 0.870846 0.184078
Si Si2 0.583174 0.860816 0.314558
Si Si3 0.351237 0.251927 0.183528
Si Si4 0.750000 0.055234 0.685886
Si Si5 0.098968 0.370846 0.684078
Si Si6 0.583174 0.360816 0.814558
Si Si7 0.250000 0.071718 0.687729
Si Si8 0.351237 0.751927 0.316472
O O1 0.122907 0.810129 0.245140
O O2 0.167278 0.913161 0.252227
O O3 0.003904 0.882767 0.242525
O O4 0.102823 0.871410 0.000000
O O5 0.577444 0.862309 0.500000
O O6 0.598961 0.798404 0.260180
O O7 0.496096 0.882767 0.242525
O O8 0.665104 0.896150 0.263195
O O9 0.250000 0.243666 0.208310
O O10 0.367404 0.252779 0.000000
O O11 0.750000 0.057631 0.500000
O O12 0.667278 0.086839 0.747773
O O13 0.750000 0.991669 0.735664
O O14 0.102823 0.371410 0.500000
O O15 0.122907 0.310129 0.745140
O O16 0.665104 0.396150 0.763195
O O17 0.598961 0.298404 0.760180
O O18 0.577444 0.362309 0.000000
O O19 0.250000 0.072600 0.500000
O O20 0.367405 0.752779 0.500000
#
# Coordination Sequence:
#
# PCOD9445638 Si02
#       8
#     8   8   8   8   8   8   8   8
#     4  12  25  41  62  93 128 165 205 252 310 370
#     4  11  22  41  66  94 126 163 206 254 307 368
#     4  11  22  38  63  94 127 164 203 250 309 370
#     4  11  23  44  67  90 119 160 212 261 306 361
#     4  12  25  41  62  93 128 165 205 252 310 370
#     4  11  22  41  66  94 126 163 206 254 307 368
#     4   9  22  42  67  92 119 160 210 257 306 363
#     4  11  22  38  63  94 127 164 203 250 309 370
#
# _framework density 19.357420000000001
#
# number of rings (size 3 to 8) (size 9 to 14) (size 15 to 20)
#    0.000    1.000    2.500    4.875    0.000    2.000 
#    0.000   10.000    0.000    0.000    0.000    0.000 
#    0.000    0.000    0.000    0.000    0.000    0.000 
#
# Total GULP energy -358147.634254 kJ/mol
# GULP energy per Si atom -5596.056785 kJ/mol
# Density = 1.931336 g / cm^3
# Si number density = 19.357420 Si / 1000 Ang^3
#
#
#
# Elastic Constant Matrix: (Units=GPa)
#
#
# Indices 1 2 3 4 5 6 
#
# 1 97.2831 29.9410 22.8672 0.0000 0.0000 0.0000
# 2 29.9410 111.3467 7.7823 0.0000 0.0000 0.0000
# 3 22.8672 7.7823 76.3493 0.0000 0.0000 0.0000
# 4 0.0000 0.0000 0.0000 27.1863 0.0000 0.0000
# 5 0.0000 0.0000 0.0000 0.0000 31.6078 0.0000
# 6 0.0000 0.0000 0.0000 0.0000 0.0000 -4.3928
#
#
#
# Elastic Compliance Matrix: (Units=1/GPa)
#
#
# Indices 1 2 3 4 5 6 
#
# 1 0.011971 -0.002990 -0.003281 0.000000 0.000000 0.000000
# 2 -0.002990 0.009792 -0.000103 0.000000 0.000000 0.000000
# 3 -0.003281 -0.000103 0.014091 0.000000 0.000000 0.000000
# 4 0.000000 0.000000 0.000000 0.036783 0.000000 0.000000
# 5 0.000000 0.000000 0.000000 0.000000 0.031638 0.000000
# 6 0.000000 0.000000 0.000000 0.000000 0.000000 -0.227645
#
#
# Mechanical properties :
#
#
# Convention : Reuss Voigt Hill
#
# Bulk Modulus (GPa) = 43.27575 45.12890 44.20233
# Shear Modulus (GPa) = -48.58024 25.83948 -11.37038
#
# Velocity S-wave (km/s) = -5.01507 3.65754 -2.42625
# Velocity P-wave (km/s) = 3.33615 6.41879 3.87756
#
# Compressibility (1/GPa) = 0.02310763
#
# Stress axis : x y z
#
# Youngs Moduli (GPa) = 83.53868 102.12387 70.96875
#
# Poissons Ratio (x) = 0.30531 0.23281
# Poissons Ratio (y) = 0.24974 0.00729
# Poissons Ratio (z) = 0.27405 0.01049
#
# Static dielectric constant tensor:
#      x y z
#    x 1.674540 0.000000 0.000000 
#    y 0.000000 1.638430 0.000000 
#    z 0.000000 0.000000 1.646990 
# 
# From -- ./inp_files/6938.got.cif
#   From: 2010.05.17/outbox.cif.g08.bks.cpg/sg58_4_cif.got.tgz:6938.got - 2010.06.03 14:20:14.
