data_PCOD9445986
_publ_section_title
;
Structure prediction by ZEFSAII (Michael W. Deem and Ramdas Pophale) SiO2 
 PCOD9445986
Probable space group: P N N M
;
_chemical_formula_sum "Si O2"
_cell_formula_units_Z 64
_cell_length_a 9.000000
_cell_length_b 24.000000
_cell_length_c 15.000000
_cell_angle_alpha 90.000000
_cell_angle_beta 90.000000
_cell_angle_gamma 90.000000
_cell_volume 3240.000000
_symmetry_space_group_name_H-M "P N N M"
_symmetry_group_IT_number 58
_symmetry_cell_setting 'orthorhombic'
loop_
_space_group_symop_operation_xyz
x,y,z
-x,-y,z
1/2+x,1/2-y,1/2-z
1/2-x,1/2+y,1/2-z
-x,-y,-z
x,y,-z
1/2-x,1/2+y,1/2+z
1/2+x,1/2-y,1/2+z
loop_
_atom_site_type_symbol
_atom_site_label
_atom_site_fract_x
_atom_site_fract_y
_atom_site_fract_z
Si Si1 0.780879 0.179834 0.265932
Si Si2 0.880454 0.084559 0.599660
Si Si3 0.513910 0.654075 0.395531
Si Si4 0.462946 0.865700 0.145931
Si Si5 0.208626 0.717339 0.400234
Si Si6 0.717720 0.458910 0.098788
Si Si7 0.195928 0.948766 0.100353
Si Si8 0.354144 0.037240 0.779658
O O1 0.842141 0.128833 0.325423
O O2 0.618323 0.160947 0.232027
O O3 0.784231 0.234975 0.325607
O O4 0.883180 0.184962 0.177302
O O5 0.849496 0.106663 0.500000
O O6 0.052684 0.066473 0.602290
O O7 0.794083 0.026007 0.609103
O O8 0.554735 0.664365 0.500000
O O9 0.345527 0.674491 0.384693
O O10 0.549798 0.588312 0.380174
O O11 0.551679 0.815193 0.101396
O O12 0.329002 0.902190 0.102816
O O13 0.589293 0.911644 0.162172
O O14 0.229643 0.740932 0.500000
O O15 0.802432 0.439140 0.185338
O O16 0.779570 0.446943 0.000000
O O17 0.237181 0.996705 0.170559
O O18 0.188044 0.971636 0.000000
O O19 0.500000 0.000000 0.763925
#
# Coordination Sequence:
#
# PCOD9445986 Si02
#       8
#     8   8   8   8   8   8   8   8
#     4  11  21  39  62  82 111 156 198 239 288 348
#     4   9  18  33  57  83 109 146 191 236 286 342
#     4   9  20  37  58  84 116 152 190 238 294 347
#     4  10  22  36  55  85 117 149 190 237 298 347
#     4  11  23  39  59  86 115 149 197 248 295 345
#     4   9  18  33  52  81 115 147 184 233 292 341
#     4   9  18  36  60  83 115 156 191 231 291 359
#     4  10  20  34  54  85 118 151 196 235 291 361
#
# _framework density 19.753086
#
# number of rings (size 3 to 8) (size 9 to 14) (size 15 to 20)
#    0.000    2.250    0.000    4.500    1.750    3.500 
#    0.000    1.250    0.000    3.000    0.000    0.000 
#    0.000    0.000    0.000    0.000    0.000    0.000 
#
# Total GULP energy -356941.619162 kJ/mol
# GULP energy per Si atom -5577.212799 kJ/mol
# Density = 1.970813 g / cm^3
# Si number density = 19.753086 Si / 1000 Ang^3
#
#
#
# Elastic Constant Matrix: (Units=GPa)
#
#
# Indices 1 2 3 4 5 6 
#
# 1 42.4201 37.5162 34.9693 0.0000 0.0000 0.0000
# 2 37.5162 53.6458 28.9173 0.0000 0.0000 0.0000
# 3 34.9693 28.9173 100.7237 0.0000 0.0000 0.0000
# 4 0.0000 0.0000 0.0000 8.6271 0.0000 0.0000
# 5 0.0000 0.0000 0.0000 0.0000 42.6643 0.0000
# 6 0.0000 0.0000 0.0000 0.0000 0.0000 25.5982
#
#
#
# Elastic Compliance Matrix: (Units=1/GPa)
#
#
# Indices 1 2 3 4 5 6 
#
# 1 0.073370 -0.044460 -0.012709 0.000000 0.000000 0.000000
# 2 -0.044460 0.048995 0.001369 0.000000 0.000000 0.000000
# 3 -0.012709 0.001369 0.013947 0.000000 0.000000 0.000000
# 4 0.000000 0.000000 0.000000 0.115913 0.000000 0.000000
# 5 0.000000 0.000000 0.000000 0.000000 0.023439 0.000000
# 6 0.000000 0.000000 0.000000 0.000000 0.000000 0.039065
#
#
# Mechanical properties :
#
#
# Convention : Reuss Voigt Hill
#
# Bulk Modulus (GPa) = 40.46226 44.39947 42.43086
# Shear Modulus (GPa) = 11.50574 21.73704 16.62139
#
# Velocity S-wave (km/s) = 2.41608 3.32088 2.90394
# Velocity P-wave (km/s) = 5.32088 6.10167 5.72460
#
# Compressibility (1/GPa) = 0.02471439
#
# Stress axis : x y z
#
# Youngs Moduli (GPa) = 13.62949 20.41033 71.69916
#
# Poissons Ratio (x) = 0.90744 0.91119
# Poissons Ratio (y) = 0.60596 -0.09818
# Poissons Ratio (z) = 0.17321 -0.02795
#
# Static dielectric constant tensor:
#      x y z
#    x 1.712090 0.000000 0.000000 
#    y 0.000000 1.673060 0.000000 
#    z 0.000000 0.000000 1.721380 
# 
# From -- ./inp_files/20316.got.cif
#   From: 2010.05.17/outbox.ucp.g08.bks.cvg/sg58_11_cif.got.tgz:20316.got - 2010.06.11 16:41:41.
