data_PCOD9445659
_publ_section_title
;
Structure prediction by ZEFSAII (Michael W. Deem and Ramdas Pophale) SiO2 
 PCOD9445659
Probable space group: P N N M
;
_chemical_formula_sum "Si O2"
_cell_formula_units_Z 34
_cell_length_a 20.006346
_cell_length_b 7.912222
_cell_length_c 9.659360
_cell_angle_alpha 90.000000
_cell_angle_beta 90.000000
_cell_angle_gamma 90.000000
_cell_volume 1529.025020
_symmetry_space_group_name_H-M "P N N M"
_symmetry_group_IT_number 58
_symmetry_cell_setting 'orthorhombic'
loop_
_space_group_symop_operation_xyz
x,y,z
-x,-y,z
1/2+x,1/2-y,1/2-z
1/2-x,1/2+y,1/2-z
-x,-y,-z
x,y,-z
1/2-x,1/2+y,1/2+z
1/2+x,1/2-y,1/2+z
loop_
_atom_site_type_symbol
_atom_site_label
_atom_site_fract_x
_atom_site_fract_y
_atom_site_fract_z
Si Si1 0.590441 0.623930 0.160019
Si Si2 0.048022 0.248959 0.722174
Si Si3 0.500000 0.000000 0.000000
Si Si4 0.822290 0.659588 0.850198
Si Si5 0.208401 0.737079 0.840544
O O1 0.529859 0.706599 0.247300
O O2 0.575442 0.425166 0.155916
O O3 0.658605 0.664124 0.237787
O O4 0.586182 0.691378 0.000000
O O5 0.100066 0.293518 0.840332
O O6 0.045139 0.405038 0.618997
O O7 0.812406 0.458835 0.839257
O O8 0.781500 0.742499 0.725244
O O9 0.794999 0.714993 0.000000
O O10 0.205570 0.796804 0.000000
#
# Coordination Sequence:
#
# PCOD9445659 Si02
#       5
#     8   8   2   8   8
#     4  11  22  43  65 101 137 176 223 284 329 409
#     4  11  23  39  70  97 136 175 227 269 341 397
#     4  12  20  38  62 104 124 178 210 268 324 402
#     4  11  26  46  65  99 135 179 226 289 339 412
#     4  11  26  44  69  96 136 178 232 279 347 404
#
# _framework density 22.236393
#
# number of rings (size 3 to 8) (size 9 to 14) (size 15 to 20)
#    0.000    0.941    2.353    4.235    1.647    7.529 
#    0.000    5.294    0.000    0.000    0.000    0.000 
#    0.000    0.000    0.000    0.000    0.000    0.000 
#
# Total GULP energy -189473.995611 kJ/mol
# GULP energy per Si atom -5572.764577 kJ/mol
# Density = 2.218578 g / cm^3
# Si number density = 22.236393 Si / 1000 Ang^3
#
#
#
# Elastic Constant Matrix: (Units=GPa)
#
#
# Indices 1 2 3 4 5 6 
#
# 1 105.4417 19.4448 51.3767 0.0000 0.0000 0.0000
# 2 19.4448 61.2528 20.1817 0.0000 0.0000 0.0000
# 3 51.3767 20.1817 98.8898 0.0000 0.0000 0.0000
# 4 0.0000 0.0000 0.0000 6.0982 0.0000 0.0000
# 5 0.0000 0.0000 0.0000 0.0000 10.4262 0.0000
# 6 0.0000 0.0000 0.0000 0.0000 0.0000 42.8609
#
#
#
# Elastic Compliance Matrix: (Units=1/GPa)
#
#
# Indices 1 2 3 4 5 6 
#
# 1 0.012929 -0.002028 -0.006303 0.000000 0.000000 0.000000
# 2 -0.002028 0.017821 -0.002584 0.000000 0.000000 0.000000
# 3 -0.006303 -0.002584 0.013914 0.000000 0.000000 0.000000
# 4 0.000000 0.000000 0.000000 0.163983 0.000000 0.000000
# 5 0.000000 0.000000 0.000000 0.000000 0.095912 0.000000
# 6 0.000000 0.000000 0.000000 0.000000 0.000000 0.023331
#
#
# Mechanical properties :
#
#
# Convention : Reuss Voigt Hill
#
# Bulk Modulus (GPa) = 43.79185 49.73234 46.76210
# Shear Modulus (GPa) = 13.99263 23.51580 18.75422
#
# Velocity S-wave (km/s) = 2.51124 3.25551 2.90729
# Velocity P-wave (km/s) = 5.30518 6.04524 5.68726
#
# Compressibility (1/GPa) = 0.02283530
#
# Stress axis : x y z
#
# Youngs Moduli (GPa) = 77.34463 56.11471 71.86835
#
# Poissons Ratio (x) = 0.11377 0.45301
# Poissons Ratio (y) = 0.15682 0.18567
# Poissons Ratio (z) = 0.48753 0.14497
#
# Static dielectric constant tensor:
#      x y z
#    x 1.811090 0.000000 0.000000 
#    y 0.000000 1.921580 0.000000 
#    z 0.000000 0.000000 1.697930 
# 
# From -- ./inp_files/8653.got.cif
#   From: 2010.05.17/outbox.cif.g08.bks.cpg/sg58_5_cif.got.tgz:8653.got - 2010.06.03 14:20:14.
