data_PCOD9445933
_publ_section_title
;
Structure prediction by ZEFSAII (Michael W. Deem and Ramdas Pophale) SiO2 
 PCOD9445933
Probable space group: P N N M
;
_chemical_formula_sum "Si O2"
_cell_formula_units_Z 64
_cell_length_a 18.000000
_cell_length_b 21.000000
_cell_length_c 9.000000
_cell_angle_alpha 90.000000
_cell_angle_beta 90.000000
_cell_angle_gamma 90.000000
_cell_volume 3402.000000
_symmetry_space_group_name_H-M "P N N M"
_symmetry_group_IT_number 58
_symmetry_cell_setting 'orthorhombic'
loop_
_space_group_symop_operation_xyz
x,y,z
-x,-y,z
1/2+x,1/2-y,1/2-z
1/2-x,1/2+y,1/2-z
-x,-y,-z
x,y,-z
1/2-x,1/2+y,1/2+z
1/2+x,1/2-y,1/2+z
loop_
_atom_site_type_symbol
_atom_site_label
_atom_site_fract_x
_atom_site_fract_y
_atom_site_fract_z
Si Si1 0.223792 0.247452 0.178677
Si Si2 0.844659 0.150795 0.319835
Si Si3 0.984527 0.850205 0.670222
Si Si4 0.078823 0.292251 0.667302
Si Si5 0.621305 0.001654 0.671417
Si Si6 0.771047 0.026733 0.823473
Si Si7 0.511474 0.895615 0.329590
Si Si8 0.163121 0.110093 0.178798
O O1 0.297267 0.286433 0.227339
O O2 0.152203 0.287921 0.231805
O O3 0.208257 0.174131 0.230007
O O4 0.224774 0.245780 0.000000
O O5 0.842991 0.150000 0.500000
O O6 0.807193 0.086968 0.257607
O O7 0.931026 0.149800 0.273553
O O8 0.983962 0.874472 0.500000
O O9 0.957007 0.777476 0.666957
O O10 0.921439 0.885324 0.764416
O O11 0.101127 0.309457 0.500000
O O12 0.016670 0.339694 0.726936
O O13 0.648062 0.997552 0.500000
O O14 0.684964 0.023984 0.779928
O O15 0.554750 0.052521 0.671834
O O16 0.585349 0.933856 0.714461
O O17 0.803117 0.957708 0.774697
O O18 0.781468 0.032906 0.000000
O O19 0.520135 0.873801 0.500000
O O20 0.163767 0.111978 0.000000
#
# Coordination Sequence:
#
# PCOD9445933 Si02
#       8
#     8   8   8   8   8   8   8   8
#     4   9  18  35  57  76 100 139 180 212 252 314
#     4  10  21  37  57  79 104 138 178 217 258 310
#     4   9  20  37  55  77 103 134 176 222 264 308
#     4  10  19  31  51  79 107 132 165 214 266 310
#     4   9  19  35  52  72 102 140 179 213 249 307
#     4  11  23  36  53  80 110 138 173 221 273 318
#     4   9  18  33  52  74 103 140 177 210 251 310
#     4   9  20  38  57  77 105 142 177 213 263 318
#
# _framework density 18.812463000000001
#
# number of rings (size 3 to 8) (size 9 to 14) (size 15 to 20)
#    0.000    2.500    0.000    2.250    0.000    8.000 
#    0.000    6.250    0.000    0.000    0.000    0.000 
#    0.000    0.000    0.000    0.000    0.000    0.000 
#
# Total GULP energy -356812.125607 kJ/mol
# GULP energy per Si atom -5575.189463 kJ/mol
# Density = 1.876965 g / cm^3
# Si number density = 18.812463 Si / 1000 Ang^3
#
#
#
# Elastic Constant Matrix: (Units=GPa)
#
#
# Indices 1 2 3 4 5 6 
#
# 1 72.2781 34.8367 18.8590 0.0000 0.0000 0.0000
# 2 34.8367 44.4006 8.6517 0.0000 0.0000 0.0000
# 3 18.8590 8.6517 2.7820 0.0000 0.0000 0.0000
# 4 0.0000 0.0000 0.0000 80.4736 0.0000 0.0000
# 5 0.0000 0.0000 0.0000 0.0000 22.9866 0.0000
# 6 0.0000 0.0000 0.0000 0.0000 0.0000 21.4771
#
#
#
# Elastic Compliance Matrix: (Units=1/GPa)
#
#
# Indices 1 2 3 4 5 6 
#
# 1 -0.011367 -0.015471 0.125168 0.000000 0.000000 0.000000
# 2 -0.015471 0.036102 -0.007393 0.000000 0.000000 0.000000
# 3 0.125168 -0.007393 -0.466056 0.000000 0.000000 0.000000
# 4 0.000000 0.000000 0.000000 0.012426 0.000000 0.000000
# 5 0.000000 0.000000 0.000000 0.000000 0.043504 0.000000
# 6 0.000000 0.000000 0.000000 0.000000 0.000000 0.046561
#
#
# Mechanical properties :
#
#
# Convention : Reuss Voigt Hill
#
# Bulk Modulus (GPa) = -4.22451 27.12839 11.45194
# Shear Modulus (GPa) = -8.03416 28.79503 10.38043
#
# Velocity S-wave (km/s) = -2.06880 3.91658 2.35156
# Velocity P-wave (km/s) = 2.82082 5.90800 3.67066
#
# Compressibility (1/GPa) = -0.23671412
#
# Stress axis : x y z
#
# Youngs Moduli (GPa) = -87.97377 27.69967 -2.14566
#
# Poissons Ratio (x) = 0.42855 0.26857
# Poissons Ratio (y) = -1.36106 -0.01586
# Poissons Ratio (z) = 11.01152 0.20479
#
# Static dielectric constant tensor:
#      x y z
#    x 1.648690 0.000000 0.000000 
#    y 0.000000 1.674710 0.000000 
#    z 0.000000 0.000000 1.653020 
# 
# From -- ./inp_files/8343.got.cif
#   From: 2010.05.17/outbox.ucp.g08.bks.cvg/sg58_5_cif.got.tgz:8343.got - 2010.06.11 16:41:41.
