data_PCOD9445331
_publ_section_title
;
Structure prediction by ZEFSAII (Michael W. Deem and Ramdas Pophale) SiO2 
 PCOD9445331
Probable space group: P N N M
;
_chemical_formula_sum "Si O2"
_cell_formula_units_Z 34
_cell_length_a 9.481872
_cell_length_b 20.707654
_cell_length_c 7.625447
_cell_angle_alpha 90.000000
_cell_angle_beta 90.000000
_cell_angle_gamma 90.000000
_cell_volume 1497.236118
_symmetry_space_group_name_H-M "P N N M"
_symmetry_group_IT_number 58
_symmetry_cell_setting 'orthorhombic'
loop_
_space_group_symop_operation_xyz
x,y,z
-x,-y,z
1/2+x,1/2-y,1/2-z
1/2-x,1/2+y,1/2-z
-x,-y,-z
x,y,-z
1/2-x,1/2+y,1/2+z
1/2+x,1/2-y,1/2+z
loop_
_atom_site_type_symbol
_atom_site_label
_atom_site_fract_x
_atom_site_fract_y
_atom_site_fract_z
Si Si1 0.000000 0.500000 0.500000
Si Si2 0.154385 0.562426 0.209019
Si Si3 0.987858 0.685552 0.204933
Si Si4 0.665131 0.693647 0.296004
Si Si5 0.478448 0.572475 0.208058
O O1 0.878724 0.495007 0.342058
O O2 0.313410 0.587875 0.230035
O O3 0.049458 0.618751 0.277144
O O4 0.136003 0.547188 0.000000
O O5 0.820493 0.690482 0.217130
O O6 0.068444 0.748235 0.277701
O O7 0.024555 0.681683 0.000000
O O8 0.689710 0.706496 0.500000
O O9 0.579151 0.627389 0.280944
O O10 0.500000 0.500000 0.277068
O O11 0.508855 0.570527 0.000000
#
# Coordination Sequence:
#
# PCOD9445331 Si02
#       5
#     2   8   8   8   8
#     4  12  26  40  70 102 128 180 218 276 324 390
#     4  10  24  44  66  95 137 174 220 271 328 396
#     4  10  23  43  64  93 131 171 211 268 336 387
#     4  11  24  40  67  98 126 165 222 275 322 394
#     4  10  23  43  65  91 131 177 213 265 336 394
#
# _framework density 22.708508999999999
#
# number of rings (size 3 to 8) (size 9 to 14) (size 15 to 20)
#    0.000    1.647    0.000    2.471    6.588    4.235 
#    0.000    0.000    0.000    0.000    0.000    0.000 
#    0.000    0.000    0.000    0.000    0.000    0.000 
#
# Total GULP energy -189474.040866 kJ/mol
# GULP energy per Si atom -5572.765908 kJ/mol
# Density = 2.265682 g / cm^3
# Si number density = 22.708509 Si / 1000 Ang^3
#
#
#
# Elastic Constant Matrix: (Units=GPa)
#
#
# Indices 1 2 3 4 5 6 
#
# 1 119.6631 49.0237 3.2701 0.0000 0.0000 0.0000
# 2 49.0237 107.9358 -0.0429 0.0000 0.0000 0.0000
# 3 3.2701 -0.0429 85.4755 0.0000 0.0000 0.0000
# 4 0.0000 0.0000 0.0000 20.3036 0.0000 0.0000
# 5 0.0000 0.0000 0.0000 0.0000 21.5389 0.0000
# 6 0.0000 0.0000 0.0000 0.0000 0.0000 42.7536
#
#
#
# Elastic Compliance Matrix: (Units=1/GPa)
#
#
# Indices 1 2 3 4 5 6 
#
# 1 0.010281 -0.004670 -0.000396 0.000000 0.000000 0.000000
# 2 -0.004670 0.011386 0.000184 0.000000 0.000000 0.000000
# 3 -0.000396 0.000184 0.011714 0.000000 0.000000 0.000000
# 4 0.000000 0.000000 0.000000 0.049252 0.000000 0.000000
# 5 0.000000 0.000000 0.000000 0.000000 0.046428 0.000000
# 6 0.000000 0.000000 0.000000 0.000000 0.000000 0.023390
#
#
# Mechanical properties :
#
#
# Convention : Reuss Voigt Hill
#
# Bulk Modulus (GPa) = 42.33854 46.39735 44.36794
# Shear Modulus (GPa) = 29.39697 34.30744 31.85221
#
# Velocity S-wave (km/s) = 3.60187 3.89109 3.74927
# Velocity P-wave (km/s) = 5.99856 6.37679 6.19057
#
# Compressibility (1/GPa) = 0.02361914
#
# Stress axis : x y z
#
# Youngs Moduli (GPa) = 97.27031 87.82934 85.36442
#
# Poissons Ratio (x) = 0.41012 0.03378
# Poissons Ratio (y) = 0.45421 -0.01574
# Poissons Ratio (z) = 0.03849 -0.01619
#
# Static dielectric constant tensor:
#      x y z
#    x 1.817060 0.000000 0.000000 
#    y 0.000000 1.975690 0.000000 
#    z 0.000000 0.000000 1.846720 
# 
# From -- ./inp_files/2261.got.cif
#   From: 2010.05.17/outbox.cif.g08.bks.cpg/sg58_2_cif.got.tgz:2261.got - 2010.06.03 14:20:14.
