data_PCOD9445612
_publ_section_title
;
Structure prediction by ZEFSAII (Michael W. Deem and Ramdas Pophale) SiO2 
 PCOD9445612
Probable space group: P N N M
;
_chemical_formula_sum "Si O2"
_cell_formula_units_Z 48
_cell_length_a 13.219971
_cell_length_b 7.136655
_cell_length_c 28.199769
_cell_angle_alpha 90.000000
_cell_angle_beta 90.000000
_cell_angle_gamma 90.000000
_cell_volume 2660.545900
_symmetry_space_group_name_H-M "P N N M"
_symmetry_group_IT_number 58
_symmetry_cell_setting 'orthorhombic'
loop_
_space_group_symop_operation_xyz
x,y,z
-x,-y,z
1/2+x,1/2-y,1/2-z
1/2-x,1/2+y,1/2-z
-x,-y,-z
x,y,-z
1/2-x,1/2+y,1/2+z
1/2+x,1/2-y,1/2+z
loop_
_atom_site_type_symbol
_atom_site_label
_atom_site_fract_x
_atom_site_fract_y
_atom_site_fract_z
Si Si1 0.256328 0.850434 0.798862
Si Si2 0.427428 0.724835 0.945974
Si Si3 0.158798 0.637846 0.554175
Si Si4 0.228003 0.236676 0.146785
Si Si5 0.111500 0.044288 0.651035
Si Si6 0.382225 0.998659 0.290120
O O1 0.339724 0.728742 0.826827
O O2 0.310804 0.905287 0.749912
O O3 0.161783 0.708739 0.795033
O O4 0.226637 0.039733 0.826100
O O5 0.454774 0.220262 0.937501
O O6 0.392014 0.586000 0.905200
O O7 0.362395 0.915003 0.942304
O O8 0.417944 0.655026 0.000000
O O9 0.186547 0.683009 0.500000
O O10 0.242987 0.698258 0.592027
O O11 0.322483 0.364240 0.162975
O O12 0.135676 0.370650 0.162733
O O13 0.000000 0.000000 0.668226
O O14 0.500000 0.000000 0.277270
#
# Coordination Sequence:
#
# PCOD9445612 Si02
#       6
#     8   8   8   8   8   8
#     4  11  24  42  60  89 119 152 204 242 294 371
#     4   9  17  30  49  84 125 164 205 240 296 365
#     4   9  17  31  55  82 119 165 205 251 300 355
#     4  11  22  39  57  84 124 157 203 243 295 358
#     4  11  22  31  54  88 121 168 198 238 293 351
#     4  11  26  43  65  89 118 156 199 249 300 353
#
# _framework density 18.041411
#
# number of rings (size 3 to 8) (size 9 to 14) (size 15 to 20)
#    0.000    1.667    5.000    1.000    2.333    1.667 
#    0.000    0.000    0.000    0.500    0.000    1.167 
#    0.000    0.000    0.000    0.000    0.000    0.000 
#
# Total GULP energy -267727.118111 kJ/mol
# GULP energy per Si atom -5577.648294 kJ/mol
# Density = 1.800035 g / cm^3
# Si number density = 18.041411 Si / 1000 Ang^3
#
#
#
# Elastic Constant Matrix: (Units=GPa)
#
#
# Indices 1 2 3 4 5 6 
#
# 1 62.5781 32.3635 27.2376 0.0000 0.0000 0.0000
# 2 32.3635 126.7872 37.0405 0.0000 0.0000 0.0000
# 3 27.2376 37.0405 95.7994 0.0000 0.0000 0.0000
# 4 0.0000 0.0000 0.0000 14.8809 0.0000 0.0000
# 5 0.0000 0.0000 0.0000 0.0000 15.5610 0.0000
# 6 0.0000 0.0000 0.0000 0.0000 0.0000 16.2027
#
#
#
# Elastic Compliance Matrix: (Units=1/GPa)
#
#
# Indices 1 2 3 4 5 6 
#
# 1 0.019764 -0.003837 -0.004136 0.000000 0.000000 0.000000
# 2 -0.003837 0.009636 -0.002635 0.000000 0.000000 0.000000
# 3 -0.004136 -0.002635 0.012633 0.000000 0.000000 0.000000
# 4 0.000000 0.000000 0.000000 0.067200 0.000000 0.000000
# 5 0.000000 0.000000 0.000000 0.000000 0.064263 0.000000
# 6 0.000000 0.000000 0.000000 0.000000 0.000000 0.061718
#
#
# Mechanical properties :
#
#
# Convention : Reuss Voigt Hill
#
# Bulk Modulus (GPa) = 48.03381 53.16088 50.59735
# Shear Modulus (GPa) = 18.98462 21.89711 20.44086
#
# Velocity S-wave (km/s) = 3.24741 3.48762 3.36965
# Velocity P-wave (km/s) = 6.38301 6.76373 6.57613
#
# Compressibility (1/GPa) = 0.02081867
#
# Stress axis : x y z
#
# Youngs Moduli (GPa) = 50.59583 103.77314 79.15626
#
# Poissons Ratio (x) = 0.39815 0.32739
# Poissons Ratio (y) = 0.19412 0.20858
# Poissons Ratio (z) = 0.20926 0.27345
#
# Static dielectric constant tensor:
#      x y z
#    x 1.598420 0.000000 0.000000 
#    y 0.000000 1.657210 0.000000 
#    z 0.000000 0.000000 1.664480 
# 
# From -- ./inp_files/35003.got.cif
#   From: 2010.05.17/outbox.cif.g08.bks.cpg/sg58_18_cif.got.tgz:35003.got - 2010.06.03 14:20:14.
