data_PCOD9445102
_publ_section_title
;
Structure prediction by ZEFSAII (Michael W. Deem and Ramdas Pophale) SiO2 
 PCOD9445102
Probable space group: P N N M
;
_chemical_formula_sum "Si O2"
_cell_formula_units_Z 32
_cell_length_a 9.937965
_cell_length_b 6.297223
_cell_length_c 28.078572
_cell_angle_alpha 90.000000
_cell_angle_beta 90.000000
_cell_angle_gamma 90.000000
_cell_volume 1757.201450
_symmetry_space_group_name_H-M "P N N M"
_symmetry_group_IT_number 58
_symmetry_cell_setting 'orthorhombic'
loop_
_space_group_symop_operation_xyz
x,y,z
-x,-y,z
1/2+x,1/2-y,1/2-z
1/2-x,1/2+y,1/2-z
-x,-y,-z
x,y,-z
1/2-x,1/2+y,1/2+z
1/2+x,1/2-y,1/2+z
loop_
_atom_site_type_symbol
_atom_site_label
_atom_site_fract_x
_atom_site_fract_y
_atom_site_fract_z
Si Si1 0.626620 0.836920 0.395084
Si Si2 0.066158 0.751507 0.000000
Si Si3 0.347515 0.574042 0.823488
Si Si4 0.500000 0.500000 0.325448
Si Si5 0.628643 0.151780 0.739291
O O1 0.640172 0.759273 0.449268
O O2 0.762191 0.928735 0.371954
O O3 0.586592 0.646853 0.360104
O O4 0.500000 0.000000 0.392578
O O5 0.000000 0.500000 0.000000
O O6 0.000000 0.000000 0.000000
O O7 0.500000 0.500000 0.829454
O O8 0.351929 0.796070 0.794703
O O9 0.261028 0.434596 0.786273
O O10 0.411929 0.643038 0.290837
O O11 0.500000 0.000000 0.733638
#
# Coordination Sequence:
#
# PCOD9445102 Si02
#       5
#     8   4   8   4   8
#     4  11  22  41  64  90 120 160 209 263 310 368
#     4  10  22  40  69  98 117 158 223 276 315 368
#     4  12  23  37  58  88 126 165 203 250 315 376
#     4  12  18  39  68  82 118 163 204 256 298 360
#     4  12  23  41  56  87 125 168 212 246 293 374
#
# _framework density 18.210775000000002
#
# number of rings (size 3 to 8) (size 9 to 14) (size 15 to 20)
#    0.000    0.500    7.500    3.000    0.000    0.000 
#    0.000    0.625    0.000    0.000    0.000    6.125 
#    0.000    0.000    0.000    0.000    0.000    0.000 
#
# Total GULP energy -178278.857730 kJ/mol
# GULP energy per Si atom -5571.214304 kJ/mol
# Density = 1.816933 g / cm^3
# Si number density = 18.210775 Si / 1000 Ang^3
#
#
#
# Elastic Constant Matrix: (Units=GPa)
#
#
# Indices 1 2 3 4 5 6 
#
# 1 156.5076 44.9981 69.1507 0.0000 0.0000 0.0000
# 2 44.9981 75.7551 34.0567 0.0000 0.0000 0.0000
# 3 69.1507 34.0567 161.4957 0.0000 0.0000 0.0000
# 4 0.0000 0.0000 0.0000 12.1036 0.0000 0.0000
# 5 0.0000 0.0000 0.0000 0.0000 66.2954 0.0000
# 6 0.0000 0.0000 0.0000 0.0000 0.0000 18.2118
#
#
#
# Elastic Compliance Matrix: (Units=1/GPa)
#
#
# Indices 1 2 3 4 5 6 
#
# 1 0.008818 -0.003911 -0.002951 0.000000 0.000000 0.000000
# 2 -0.003911 0.016318 -0.001766 0.000000 0.000000 0.000000
# 3 -0.002951 -0.001766 0.007828 0.000000 0.000000 0.000000
# 4 0.000000 0.000000 0.000000 0.082620 0.000000 0.000000
# 5 0.000000 0.000000 0.000000 0.000000 0.015084 0.000000
# 6 0.000000 0.000000 0.000000 0.000000 0.000000 0.054910
#
#
# Mechanical properties :
#
#
# Convention : Reuss Voigt Hill
#
# Bulk Modulus (GPa) = 63.66663 76.68547 70.17605
# Shear Modulus (GPa) = 24.03041 35.69235 29.86138
#
# Velocity S-wave (km/s) = 3.63653 4.43194 4.05379
# Velocity P-wave (km/s) = 7.25736 8.26988 7.78011
#
# Compressibility (1/GPa) = 0.01570681
#
# Stress axis : x y z
#
# Youngs Moduli (GPa) = 113.40730 61.28302 127.74386
#
# Poissons Ratio (x) = 0.23968 0.37696
# Poissons Ratio (y) = 0.44355 0.22565
# Poissons Ratio (z) = 0.33465 0.10825
#
# Static dielectric constant tensor:
#      x y z
#    x 1.637910 0.000000 0.000000 
#    y 0.000000 1.757210 0.000000 
#    z 0.000000 0.000000 1.612160 
# 
# From -- ./inp_files/34013.got.cif
#   From: 2010.05.17/outbox.cif.g08.bks.cpg/sg58_18_cif.got.tgz:34013.got - 2010.06.03 14:20:14.
