data_PCOD9445204
_publ_section_title
;
Structure prediction by ZEFSAII (Michael W. Deem and Ramdas Pophale) SiO2 
 PCOD9445204
Probable space group: P N N M
;
_chemical_formula_sum "Si O2"
_cell_formula_units_Z 34
_cell_length_a 12.052591
_cell_length_b 4.909448
_cell_length_c 23.219803
_cell_angle_alpha 90.000000
_cell_angle_beta 90.000000
_cell_angle_gamma 90.000000
_cell_volume 1373.952170
_symmetry_space_group_name_H-M "P N N M"
_symmetry_group_IT_number 58
_symmetry_cell_setting 'orthorhombic'
loop_
_space_group_symop_operation_xyz
x,y,z
-x,-y,z
1/2+x,1/2-y,1/2-z
1/2-x,1/2+y,1/2-z
-x,-y,-z
x,y,-z
1/2-x,1/2+y,1/2+z
1/2+x,1/2-y,1/2+z
loop_
_atom_site_type_symbol
_atom_site_label
_atom_site_fract_x
_atom_site_fract_y
_atom_site_fract_z
Si Si1 0.922373 0.739039 0.773014
Si Si2 0.808208 0.470686 0.405981
Si Si3 0.500000 0.000000 0.000000
Si Si4 0.921969 0.738842 0.903686
Si Si5 0.865566 0.982956 0.337421
O O1 0.890988 0.650257 0.837561
O O2 0.838746 0.848309 0.724438
O O3 0.000000 0.500000 0.748609
O O4 0.000000 0.000000 0.782272
O O5 0.692729 0.350982 0.429612
O O6 0.812930 0.785013 0.385982
O O7 0.907418 0.429251 0.450192
O O8 0.831260 0.290245 0.349427
O O9 0.000000 0.500000 0.928341
O O10 0.000000 0.000000 0.902419
O O11 0.000000 0.000000 0.342797
#
# Coordination Sequence:
#
# PCOD9445204 Si02
#       5
#     8   8   2   8   8
#     4   9  18  33  60  91 136 171 213 265 326 414
#     4  12  25  41  69  90 136 175 225 290 339 406
#     4  12  28  50  64 106 128 178 240 296 360 388
#     4  10  22  43  64  97 133 177 221 272 339 417
#     4  11  20  38  60  99 130 175 218 276 344 415
#
# _framework density 24.746130999999998
#
# number of rings (size 3 to 8) (size 9 to 14) (size 15 to 20)
#    0.000    1.412    2.353    4.235    0.000    3.765 
#    0.000    1.176    0.000    0.000    0.000    0.000 
#    0.000    0.000    0.000    0.000    0.000    0.000 
#
# Total GULP energy -189294.310913 kJ/mol
# GULP energy per Si atom -5567.479733 kJ/mol
# Density = 2.468981 g / cm^3
# Si number density = 24.746131 Si / 1000 Ang^3
#
#
#
# Elastic Constant Matrix: (Units=GPa)
#
#
# Indices 1 2 3 4 5 6 
#
# 1 175.8844 25.2881 37.6293 0.0000 0.0000 0.0000
# 2 25.2881 127.4709 14.5324 0.0000 0.0000 0.0000
# 3 37.6293 14.5324 90.3133 0.0000 0.0000 0.0000
# 4 0.0000 0.0000 0.0000 -14.9273 0.0000 0.0000
# 5 0.0000 0.0000 0.0000 0.0000 1.5959 0.0000
# 6 0.0000 0.0000 0.0000 0.0000 0.0000 46.8415
#
#
#
# Elastic Compliance Matrix: (Units=1/GPa)
#
#
# Indices 1 2 3 4 5 6 
#
# 1 0.006359 -0.000977 -0.002492 0.000000 0.000000 0.000000
# 2 -0.000977 0.008142 -0.000903 0.000000 0.000000 0.000000
# 3 -0.002492 -0.000903 0.012256 0.000000 0.000000 0.000000
# 4 0.000000 0.000000 0.000000 -0.066991 0.000000 0.000000
# 5 0.000000 0.000000 0.000000 0.000000 0.626608 0.000000
# 6 0.000000 0.000000 0.000000 0.000000 0.000000 0.021349
#
#
# Mechanical properties :
#
#
# Convention : Reuss Voigt Hill
#
# Bulk Modulus (GPa) = 55.51825 60.95203 58.23514
# Shear Modulus (GPa) = 8.03249 27.78327 17.90788
#
# Velocity S-wave (km/s) = 1.80361 3.35435 2.69302
# Velocity P-wave (km/s) = 5.17892 6.29973 5.76662
#
# Compressibility (1/GPa) = 0.01801210
#
# Stress axis : x y z
#
# Youngs Moduli (GPa) = 157.24990 122.82350 81.59081
#
# Poissons Ratio (x) = 0.12005 0.20335
# Poissons Ratio (y) = 0.15370 0.07366
# Poissons Ratio (z) = 0.39192 0.11089
#
# Static dielectric constant tensor:
#      x y z
#    x 2.018540 0.000000 0.000000 
#    y 0.000000 1.918210 0.000000 
#    z 0.000000 0.000000 1.976190 
# 
# From -- ./inp_files/31792.got.cif
#   From: 2010.05.17/outbox.cif.g08.bks.cpg/sg58_16_cif.got.tgz:31792.got - 2010.06.03 14:20:14.
