data_PCOD9445686
_publ_section_title
;
Structure prediction by ZEFSAII (Michael W. Deem and Ramdas Pophale) SiO2 
 PCOD9445686
Probable space group: P N N M
;
_chemical_formula_sum "Si O2"
_cell_formula_units_Z 20
_cell_length_a 5.106881
_cell_length_b 8.375105
_cell_length_c 23.126398
_cell_angle_alpha 90.000000
_cell_angle_beta 90.000000
_cell_angle_gamma 90.000000
_cell_volume 989.131412
_symmetry_space_group_name_H-M "P N N M"
_symmetry_group_IT_number 58
_symmetry_cell_setting 'orthorhombic'
loop_
_space_group_symop_operation_xyz
x,y,z
-x,-y,z
1/2+x,1/2-y,1/2-z
1/2-x,1/2+y,1/2-z
-x,-y,-z
x,y,-z
1/2-x,1/2+y,1/2+z
1/2+x,1/2-y,1/2+z
loop_
_atom_site_type_symbol
_atom_site_label
_atom_site_fract_x
_atom_site_fract_y
_atom_site_fract_z
Si Si1 0.255975 0.890552 0.093138
Si Si2 0.751215 0.385813 0.000000
Si Si3 0.869974 0.666985 0.727719
O O1 0.243358 0.732487 0.054867
O O2 0.297051 0.846457 0.160326
O O3 0.500000 0.000000 0.074849
O O4 0.000000 0.000000 0.087001
O O5 0.500000 0.500000 0.000000
O O6 0.000000 0.500000 0.000000
O O7 0.103657 0.792397 0.738720
O O8 0.000000 0.500000 0.746350
#
# Coordination Sequence:
#
# PCOD9445686 Si02
#       3
#     8   4   8
#     4  11  23  44  66  88 123 171 208 242 304 383
#     4  12  26  42  64  98 124 154 206 268 314 348
#     4  11  23  40  63  93 125 163 205 250 304 364
#
# _framework density 20.219760999999998
#
# number of rings (size 3 to 8) (size 9 to 14) (size 15 to 20)
#    0.000    0.800    0.000    9.600    0.000    4.800 
#    0.000    0.000    0.000    0.000    0.000    0.000 
#    0.000    0.000    0.000    0.000    0.000    0.000 
#
# Total GULP energy -111939.471378 kJ/mol
# GULP energy per Si atom -5596.973569 kJ/mol
# Density = 2.017374 g / cm^3
# Si number density = 20.219761 Si / 1000 Ang^3
#
#
#
# Elastic Constant Matrix: (Units=GPa)
#
#
# Indices 1 2 3 4 5 6 
#
# 1 225.7761 103.8685 66.7696 0.0000 0.0000 0.0000
# 2 103.8685 159.4895 73.3476 0.0000 0.0000 0.0000
# 3 66.7696 73.3476 59.5259 0.0000 0.0000 0.0000
# 4 0.0000 0.0000 0.0000 55.1731 0.0000 0.0000
# 5 0.0000 0.0000 0.0000 0.0000 -258.3245 0.0000
# 6 0.0000 0.0000 0.0000 0.0000 0.0000 67.6425
#
#
#
# Elastic Compliance Matrix: (Units=1/GPa)
#
#
# Indices 1 2 3 4 5 6 
#
# 1 0.006938 -0.002168 -0.005111 0.000000 0.000000 0.000000
# 2 -0.002168 0.015147 -0.016232 0.000000 0.000000 0.000000
# 3 -0.005111 -0.016232 0.042534 0.000000 0.000000 0.000000
# 4 0.000000 0.000000 0.000000 0.018125 0.000000 0.000000
# 5 0.000000 0.000000 0.000000 0.000000 -0.003871 0.000000
# 6 0.000000 0.000000 0.000000 0.000000 0.000000 0.014784
#
#
# Mechanical properties :
#
#
# Convention : Reuss Voigt Hill
#
# Bulk Modulus (GPa) = 56.83020 103.64034 80.23527
# Shear Modulus (GPa) = 34.11953 -13.71474 10.20239
#
# Velocity S-wave (km/s) = 4.11230 -2.60721 2.24871
# Velocity P-wave (km/s) = 7.12146 6.50422 6.81983
#
# Compressibility (1/GPa) = 0.01759628
#
# Stress axis : x y z
#
# Youngs Moduli (GPa) = 144.13342 66.01995 23.51080
#
# Poissons Ratio (x) = 0.14313 0.12016
# Poissons Ratio (y) = 0.31247 0.38163
# Poissons Ratio (z) = 0.73666 1.07165
#
# Static dielectric constant tensor:
#      x y z
#    x 0.152450 0.000000 0.000000 
#    y 0.000000 1.290040 0.000000 
#    z 0.000000 0.000000 1.699820 
# 
# From -- ./inp_files/30671.got.cif
#   From: 2010.05.17/outbox.cif.g08.bks.cpg/sg58_16_cif.got.tgz:30671.got - 2010.06.03 14:20:14.
