data_PCOD9445980
_publ_section_title
;
Structure prediction by ZEFSAII (Michael W. Deem and Ramdas Pophale) SiO2 
 PCOD9445980
Probable space group: P N N M
;
_chemical_formula_sum "Si O2"
_cell_formula_units_Z 48
_cell_length_a 9.000000
_cell_length_b 30.000000
_cell_length_c 9.000000
_cell_angle_alpha 90.000000
_cell_angle_beta 90.000000
_cell_angle_gamma 90.000000
_cell_volume 2430.000000
_symmetry_space_group_name_H-M "P N N M"
_symmetry_group_IT_number 58
_symmetry_cell_setting 'orthorhombic'
loop_
_space_group_symop_operation_xyz
x,y,z
-x,-y,z
1/2+x,1/2-y,1/2-z
1/2-x,1/2+y,1/2-z
-x,-y,-z
x,y,-z
1/2-x,1/2+y,1/2+z
1/2+x,1/2-y,1/2+z
loop_
_atom_site_type_symbol
_atom_site_label
_atom_site_fract_x
_atom_site_fract_y
_atom_site_fract_z
Si Si1 0.031346 0.151034 0.175887
Si Si2 0.216110 0.020773 0.677610
Si Si3 0.844808 0.227679 0.321775
Si Si4 0.911136 0.057361 0.823811
Si Si5 0.168975 0.612523 0.821620
Si Si6 0.516918 0.194103 0.321483
O O1 0.188647 0.134096 0.239693
O O2 0.967189 0.193070 0.261874
O O3 0.913812 0.110374 0.195914
O O4 0.045884 0.160246 0.000000
O O5 0.209923 0.015025 0.500000
O O6 0.334388 0.059687 0.713900
O O7 0.061143 0.041574 0.738925
O O8 0.220149 0.972621 0.755718
O O9 0.847938 0.229882 0.500000
O O10 0.680985 0.210407 0.275311
O O11 0.892352 0.274785 0.253056
O O12 0.924816 0.048601 0.000000
O O13 0.026416 0.642936 0.786935
O O14 0.195048 0.615244 0.000000
O O15 0.508710 0.199470 0.500000
#
# Coordination Sequence:
#
# PCOD9445980 Si02
#       6
#     8   8   8   8   8   8
#     4  10  20  33  51  76 105 136 171 210 252 299
#     4   9  15  24  43  71 100 131 167 205 246 290
#     4  11  23  37  55  77 100 130 167 206 251 302
#     4   9  16  26  42  67 100 134 166 204 248 290
#     4   9  18  33  53  77 106 137 169 209 253 297
#     4  10  22  39  56  76 103 132 165 206 251 302
#
# _framework density 19.753086
#
# number of rings (size 3 to 8) (size 9 to 14) (size 15 to 20)
#    0.000    2.333    0.000    4.000    0.000    7.333 
#    0.000    0.000    0.000    1.000    0.000    7.000 
#    0.000    0.000    0.000    0.000    0.000    0.000 
#
# Total GULP energy -267704.253388 kJ/mol
# GULP energy per Si atom -5577.171946 kJ/mol
# Density = 1.970813 g / cm^3
# Si number density = 19.753086 Si / 1000 Ang^3
#
#
#
# Elastic Constant Matrix: (Units=GPa)
#
#
# Indices 1 2 3 4 5 6 
#
# 1 19.2939 -33.7363 -9.0964 0.0000 0.0000 0.0000
# 2 -33.7363 23.4676 -4.3494 0.0000 0.0000 0.0000
# 3 -9.0964 -4.3494 33.2406 0.0000 0.0000 0.0000
# 4 0.0000 0.0000 0.0000 30.8149 0.0000 0.0000
# 5 0.0000 0.0000 0.0000 0.0000 1.7979 0.0000
# 6 0.0000 0.0000 0.0000 0.0000 0.0000 16.4382
#
#
#
# Elastic Compliance Matrix: (Units=1/GPa)
#
#
# Indices 1 2 3 4 5 6 
#
# 1 -0.027421 -0.041825 -0.012977 0.000000 0.000000 0.000000
# 2 -0.041825 -0.020124 -0.014079 0.000000 0.000000 0.000000
# 3 -0.012977 -0.014079 0.024690 0.000000 0.000000 0.000000
# 4 0.000000 0.000000 0.000000 0.032452 0.000000 0.000000
# 5 0.000000 0.000000 0.000000 0.000000 0.556201 0.000000
# 6 0.000000 0.000000 0.000000 0.000000 0.000000 0.060834
#
#
# Mechanical properties :
#
#
# Convention : Reuss Voigt Hill
#
# Bulk Modulus (GPa) = -6.22609 -2.04026 -4.13317
# Shear Modulus (GPa) = 7.03379 18.02250 12.52814
#
# Velocity S-wave (km/s) = 1.88907 3.02385 2.52114
# Velocity P-wave (km/s) = 1.26464 3.34013 2.52545
#
# Compressibility (1/GPa) = -0.16061447
#
# Stress axis : x y z
#
# Youngs Moduli (GPa) = -36.46826 -49.69277 40.50151
#
# Poissons Ratio (x) = -2.07840 0.52557
# Poissons Ratio (y) = -1.52528 0.57021
# Poissons Ratio (z) = -0.47323 -0.69961
#
# Static dielectric constant tensor:
#      x y z
#    x 1.685880 0.000000 0.000000 
#    y 0.000000 1.765940 0.000000 
#    z 0.000000 0.000000 1.656530 
# 
# From -- ./inp_files/2883.got.cif
#   From: 2010.05.17/outbox.ucp.g08.bks.cvg/sg58_2_cif.got.tgz:2883.got - 2010.06.11 16:41:41.
