data_PCOD9445655
_publ_section_title
;
Structure prediction by ZEFSAII (Michael W. Deem and Ramdas Pophale) SiO2 
 PCOD9445655
Probable space group: P N N M
;
_chemical_formula_sum "Si O2"
_cell_formula_units_Z 34
_cell_length_a 11.650137
_cell_length_b 5.031690
_cell_length_c 23.142500
_cell_angle_alpha 90.000000
_cell_angle_beta 90.000000
_cell_angle_gamma 90.000000
_cell_volume 1356.610523
_symmetry_space_group_name_H-M "P N N M"
_symmetry_group_IT_number 58
_symmetry_cell_setting 'orthorhombic'
loop_
_space_group_symop_operation_xyz
x,y,z
-x,-y,z
1/2+x,1/2-y,1/2-z
1/2-x,1/2+y,1/2-z
-x,-y,-z
x,y,-z
1/2-x,1/2+y,1/2+z
1/2+x,1/2-y,1/2+z
loop_
_atom_site_type_symbol
_atom_site_label
_atom_site_fract_x
_atom_site_fract_y
_atom_site_fract_z
Si Si1 0.880313 0.358517 0.579542
Si Si2 0.602221 0.703191 0.206771
Si Si3 0.500000 0.500000 0.000000
Si Si4 0.344925 0.997901 0.680389
Si Si5 0.872026 0.005090 0.100489
O O1 0.888692 0.372374 0.648329
O O2 0.903682 0.073183 0.550849
O O3 0.748657 0.444413 0.567394
O O4 0.000000 0.500000 0.557628
O O5 0.500000 0.500000 0.202196
O O6 0.596348 0.870559 0.264508
O O7 0.717090 0.532111 0.204115
O O8 0.354258 0.207354 0.628711
O O9 0.379330 0.715258 0.652535
O O10 0.000000 0.000000 0.072511
#
# Coordination Sequence:
#
# PCOD9445655 Si02
#       5
#     8   8   2   8   8
#     4  11  25  45  74  99 137 184 243 303 366 417
#     4  11  22  41  65  99 140 190 240 282 347 433
#     4  12  26  52  70 108 132 184 252 324 364 404
#     4  11  24  40  64 103 149 189 230 281 348 436
#     4  11  25  44  70 105 147 190 228 287 363 441
#
# _framework density 25.062465
#
# number of rings (size 3 to 8) (size 9 to 14) (size 15 to 20)
#    0.000    0.941    1.176    6.000    3.294    5.647 
#    0.000    0.588    0.000    1.412    0.000    0.000 
#    0.000    0.000    0.000    0.000    0.000    0.000 
#
# Total GULP energy -189441.692336 kJ/mol
# GULP energy per Si atom -5571.814480 kJ/mol
# Density = 2.500542 g / cm^3
# Si number density = 25.062465 Si / 1000 Ang^3
#
#
#
# Elastic Constant Matrix: (Units=GPa)
#
#
# Indices 1 2 3 4 5 6 
#
# 1 264.4423 39.4601 7.8962 0.0000 0.0000 0.0000
# 2 39.4601 62.9861 -11.4956 0.0000 0.0000 0.0000
# 3 7.8962 -11.4956 84.6903 0.0000 0.0000 0.0000
# 4 0.0000 0.0000 0.0000 -5.9006 0.0000 0.0000
# 5 0.0000 0.0000 0.0000 0.0000 -243.3365 0.0000
# 6 0.0000 0.0000 0.0000 0.0000 0.0000 8.4079
#
#
#
# Elastic Compliance Matrix: (Units=1/GPa)
#
#
# Indices 1 2 3 4 5 6 
#
# 1 0.004220 -0.002785 -0.000771 0.000000 0.000000 0.000000
# 2 -0.002785 0.018117 0.002719 0.000000 0.000000 0.000000
# 3 -0.000771 0.002719 0.012249 0.000000 0.000000 0.000000
# 4 0.000000 0.000000 0.000000 -0.169473 0.000000 0.000000
# 5 0.000000 0.000000 0.000000 0.000000 -0.004110 0.000000
# 6 0.000000 0.000000 0.000000 0.000000 0.000000 0.118936
#
#
# Mechanical properties :
#
#
# Convention : Reuss Voigt Hill
#
# Bulk Modulus (GPa) = 30.38448 53.75999 42.07223
# Shear Modulus (GPa) = -674.23497 -23.08199 -348.65848
#
# Velocity S-wave (km/s) = -16.41968 -3.03805 -11.80753
# Velocity P-wave (km/s) = 18.63665 3.03160 13.00258
#
# Compressibility (1/GPa) = 0.03291154
#
# Stress axis : x y z
#
# Youngs Moduli (GPa) = 236.96106 55.19589 81.64133
#
# Poissons Ratio (x) = 0.15370 0.06298
# Poissons Ratio (y) = 0.65985 -0.22197
# Poissons Ratio (z) = 0.18280 -0.15007
#
# Static dielectric constant tensor:
#      x y z
#    x 2.129630 0.000000 0.000000 
#    y 0.000000 2.184170 0.000000 
#    z 0.000000 0.000000 1.921740 
# 
# From -- ./inp_files/31787.got.cif
#   From: 2010.05.17/outbox.cif.g08.bks.cpg/sg58_16_cif.got.tgz:31787.got - 2010.06.03 14:20:14.
