data_PCOD9445873
_publ_section_title
;
Structure prediction by ZEFSAII (Michael W. Deem and Ramdas Pophale) SiO2 
 PCOD9445873
Probable space group: P N N M
;
_chemical_formula_sum "Si O2"
_cell_formula_units_Z 48
_cell_length_a 16.672070
_cell_length_b 18.978869
_cell_length_c 7.510744
_cell_angle_alpha 90.000000
_cell_angle_beta 90.000000
_cell_angle_gamma 90.000000
_cell_volume 2376.527328
_symmetry_space_group_name_H-M "P N N M"
_symmetry_group_IT_number 58
_symmetry_cell_setting 'orthorhombic'
loop_
_space_group_symop_operation_xyz
x,y,z
-x,-y,z
1/2+x,1/2-y,1/2-z
1/2-x,1/2+y,1/2-z
-x,-y,-z
x,y,-z
1/2-x,1/2+y,1/2+z
1/2+x,1/2-y,1/2+z
loop_
_atom_site_type_symbol
_atom_site_label
_atom_site_fract_x
_atom_site_fract_y
_atom_site_fract_z
Si Si1 0.074373 0.289587 0.290399
Si Si2 0.750128 0.531414 0.202325
Si Si3 0.578625 0.705952 0.214545
Si Si4 0.922311 0.043191 0.281682
Si Si5 0.753161 0.694134 0.289189
Si Si6 0.423910 0.955204 0.716139
O O1 0.074574 0.272838 0.500000
O O2 0.164097 0.270816 0.224011
O O3 0.067237 0.373658 0.268162
O O4 0.996299 0.250803 0.215659
O O5 0.663498 0.512462 0.281043
O O6 0.747482 0.617174 0.199590
O O7 0.837512 0.516211 0.282283
O O8 0.751106 0.504322 0.000000
O O9 0.571402 0.624691 0.274112
O O10 0.668088 0.731651 0.262938
O O11 0.576342 0.705965 0.000000
O O12 0.919919 0.042512 0.500000
O O13 0.000000 0.000000 0.225918
O O14 0.762198 0.680854 0.500000
O O15 0.421124 0.957255 0.500000
O O16 0.500000 0.000000 0.776097
#
# Coordination Sequence:
#
# PCOD9445873 Si02
#       6
#     8   8   8   8   8   8
#     4   9  18  31  46  65  89 118 151 184 221 267
#     4   8  14  26  43  61  83 113 144 173 213 264
#     4   9  17  30  46  64  88 117 148 182 221 266
#     4   8  13  23  42  64  81 103 139 177 211 251
#     4   9  16  27  44  65  86 112 149 185 217 259
#     4   9  17  29  45  66  89 112 143 183 223 262
#
# _framework density 20.197538000000002
#
# number of rings (size 3 to 8) (size 9 to 14) (size 15 to 20)
#    0.000    3.333    0.000    1.500    0.000    1.667 
#    0.000    1.667    0.000   14.000    0.000    0.000 
#    0.000    0.000    0.000    0.000    0.000    0.000 
#
# Total GULP energy -267214.203728 kJ/mol
# GULP energy per Si atom -5566.962578 kJ/mol
# Density = 2.015157 g / cm^3
# Si number density = 20.197538 Si / 1000 Ang^3
#
#
#
# Elastic Constant Matrix: (Units=GPa)
#
#
# Indices 1 2 3 4 5 6 
#
# 1 278.2287 67.3044 2.8993 0.0000 0.0000 0.0000
# 2 67.3044 29.2222 -5.2477 0.0000 0.0000 0.0000
# 3 2.8993 -5.2477 59.1253 0.0000 0.0000 0.0000
# 4 0.0000 0.0000 0.0000 9.0712 0.0000 0.0000
# 5 0.0000 0.0000 0.0000 0.0000 12.1686 0.0000
# 6 0.0000 0.0000 0.0000 0.0000 0.0000 37.7365
#
#
#
# Elastic Compliance Matrix: (Units=1/GPa)
#
#
# Indices 1 2 3 4 5 6 
#
# 1 0.008378 -0.019685 -0.002158 0.000000 0.000000 0.000000
# 2 -0.019685 0.081023 0.008156 0.000000 0.000000 0.000000
# 3 -0.002158 0.008156 0.017743 0.000000 0.000000 0.000000
# 4 0.000000 0.000000 0.000000 0.110239 0.000000 0.000000
# 5 0.000000 0.000000 0.000000 0.000000 0.082178 0.000000
# 6 0.000000 0.000000 0.000000 0.000000 0.000000 0.026500
#
#
# Mechanical properties :
#
#
# Convention : Reuss Voigt Hill
#
# Bulk Modulus (GPa) = 12.53571 55.16537 33.85054
# Shear Modulus (GPa) = 13.15704 31.90328 22.53016
#
# Velocity S-wave (km/s) = 2.55506 3.97868 3.34352
# Velocity P-wave (km/s) = 3.86322 6.96267 5.63042
#
# Compressibility (1/GPa) = 0.07977214
#
# Stress axis : x y z
#
# Youngs Moduli (GPa) = 119.35363 12.34214 56.36036
#
# Poissons Ratio (x) = 0.24295 0.12162
# Poissons Ratio (y) = 2.34945 -0.45970
# Poissons Ratio (z) = 0.25756 -0.10067
#
# Static dielectric constant tensor:
#      x y z
#    x 1.803460 0.000000 0.000000 
#    y 0.000000 1.657130 0.000000 
#    z 0.000000 0.000000 1.764150 
# 
# From -- ./inp_files/6032.got.cif
#   From: 2010.05.17/outbox.cif.g08.bks.cpg/sg58_4_cif.got.tgz:6032.got - 2010.06.03 14:20:14.
