data_PCOD9445150
_publ_section_title
;
Structure prediction by ZEFSAII (Michael W. Deem and Ramdas Pophale) SiO2 
 PCOD9445150
Probable space group: P N N M
;
_chemical_formula_sum "Si O2"
_cell_formula_units_Z 32
_cell_length_a 10.281559
_cell_length_b 20.601478
_cell_length_c 7.627069
_cell_angle_alpha 90.000000
_cell_angle_beta 90.000000
_cell_angle_gamma 90.000000
_cell_volume 1615.529996
_symmetry_space_group_name_H-M "P N N M"
_symmetry_group_IT_number 58
_symmetry_cell_setting 'orthorhombic'
loop_
_space_group_symop_operation_xyz
x,y,z
-x,-y,z
1/2+x,1/2-y,1/2-z
1/2-x,1/2+y,1/2-z
-x,-y,-z
x,y,-z
1/2-x,1/2+y,1/2+z
1/2+x,1/2-y,1/2+z
loop_
_atom_site_type_symbol
_atom_site_label
_atom_site_fract_x
_atom_site_fract_y
_atom_site_fract_z
Si Si1 0.695695 0.548962 0.500000
Si Si2 0.685761 0.308505 0.199444
Si Si3 0.089948 0.097382 0.000000
Si Si4 0.522560 0.796315 0.709178
Si Si5 0.589617 0.062448 0.707855
O O1 0.648765 0.474527 0.500000
O O2 0.566206 0.592264 0.500000
O O3 0.784329 0.561156 0.670098
O O4 0.638221 0.363918 0.330070
O O5 0.581186 0.250982 0.204121
O O6 0.827982 0.283843 0.258051
O O7 0.700292 0.332914 0.000000
O O8 0.510091 0.785682 0.500000
O O9 0.488438 0.871265 0.744946
O O10 0.621072 0.061167 0.500000
O O11 0.500000 0.000000 0.746657
#
# Coordination Sequence:
#
# PCOD9445150 Si02
#       5
#     4   8   4   8   8
#     4  11  25  42  70  92 133 180 216 273 331 389
#     4  11  25  42  66  93 132 173 215 269 334 386
#     4  11  26  46  62  98 135 167 224 278 319 398
#     4  10  23  41  64  97 131 168 217 272 322 391
#     4  10  22  41  67  98 132 171 225 272 321 395
#
# _framework density 19.807741
#
# number of rings (size 3 to 8) (size 9 to 14) (size 15 to 20)
#    0.000    1.500    1.250    1.875    7.000    4.000 
#    0.000    2.500    0.000    0.000    0.000    0.000 
#    0.000    0.000    0.000    0.000    0.000    0.000 
#
# Total GULP energy -178968.868960 kJ/mol
# GULP energy per Si atom -5592.777155 kJ/mol
# Density = 1.976266 g / cm^3
# Si number density = 19.807741 Si / 1000 Ang^3
#
#
#
# Elastic Constant Matrix: (Units=GPa)
#
#
# Indices 1 2 3 4 5 6 
#
# 1 179.9645 39.7238 56.7235 0.0000 0.0000 0.0000
# 2 39.7238 56.7462 23.0471 0.0000 0.0000 0.0000
# 3 56.7235 23.0471 78.4292 0.0000 0.0000 0.0000
# 4 0.0000 0.0000 0.0000 -602.2605 0.0000 0.0000
# 5 0.0000 0.0000 0.0000 0.0000 9.6694 0.0000
# 6 0.0000 0.0000 0.0000 0.0000 0.0000 32.3560
#
#
#
# Elastic Compliance Matrix: (Units=1/GPa)
#
#
# Indices 1 2 3 4 5 6 
#
# 1 0.007794 -0.003596 -0.004580 0.000000 0.000000 0.000000
# 2 -0.003596 0.021669 -0.003767 0.000000 0.000000 0.000000
# 3 -0.004580 -0.003767 0.017170 0.000000 0.000000 0.000000
# 4 0.000000 0.000000 0.000000 -0.001660 0.000000 0.000000
# 5 0.000000 0.000000 0.000000 0.000000 0.103419 0.000000
# 6 0.000000 0.000000 0.000000 0.000000 0.000000 0.030906
#
#
# Mechanical properties :
#
#
# Convention : Reuss Voigt Hill
#
# Bulk Modulus (GPa) = 43.96171 61.56986 52.76578
# Shear Modulus (GPa) = 23.72282 -99.00400 -37.64059
#
# Velocity S-wave (km/s) = 3.46447 -7.07750 -4.36397
# Velocity P-wave (km/s) = 6.18432 5.96965 1.14215
#
# Compressibility (1/GPa) = 0.02274707
#
# Stress axis : x y z
#
# Youngs Moduli (GPa) = 128.30314 46.14789 58.24082
#
# Poissons Ratio (x) = 0.16594 0.26676
# Poissons Ratio (y) = 0.46135 0.21940
# Poissons Ratio (z) = 0.58767 0.17385
#
# Static dielectric constant tensor:
#      x y z
#    x 1.671900 0.000000 0.000000 
#    y 0.000000 1.669470 0.000000 
#    z 0.000000 0.000000 1.699310 
# 
# From -- ./inp_files/2182.got.cif
#   From: 2010.05.17/outbox.cif.g08.bks.cpg/sg58_2_cif.got.tgz:2182.got - 2010.06.03 14:20:14.
