data_PCOD9445773
_publ_section_title
;
Structure prediction by ZEFSAII (Michael W. Deem and Ramdas Pophale) SiO2 
 PCOD9445773
Probable space group: P N N M
;
_chemical_formula_sum "Si O2"
_cell_formula_units_Z 28
_cell_length_a 16.941885
_cell_length_b 7.734223
_cell_length_c 9.966261
_cell_angle_alpha 90.000000
_cell_angle_beta 90.000000
_cell_angle_gamma 90.000000
_cell_volume 1305.902267
_symmetry_space_group_name_H-M "P N N M"
_symmetry_group_IT_number 58
_symmetry_cell_setting 'orthorhombic'
loop_
_space_group_symop_operation_xyz
x,y,z
-x,-y,z
1/2+x,1/2-y,1/2-z
1/2-x,1/2+y,1/2-z
-x,-y,-z
x,y,-z
1/2-x,1/2+y,1/2+z
1/2+x,1/2-y,1/2+z
loop_
_atom_site_type_symbol
_atom_site_label
_atom_site_fract_x
_atom_site_fract_y
_atom_site_fract_z
Si Si1 0.666100 0.391271 0.147878
Si Si2 0.066510 0.647260 0.150370
Si Si3 0.000000 0.000000 0.751372
Si Si4 0.301564 0.016290 0.154726
O O1 0.576007 0.446199 0.166017
O O2 0.672760 0.183904 0.156178
O O3 0.719589 0.466728 0.266246
O O4 0.694782 0.445615 0.000000
O O5 0.133492 0.622765 0.261954
O O6 0.000000 0.500000 0.168692
O O7 0.025841 0.833015 0.164384
O O8 0.100086 0.628099 0.000000
O O9 0.295367 0.072483 0.000000
#
# Coordination Sequence:
#
# PCOD9445773 Si02
#       4
#     8   8   4   8
#     4  11  25  44  68 100 138 181 230 284 344 409
#     4  11  24  44  70 101 137 177 224 279 338 402
#     4  12  24  44  72 106 136 184 226 284 340 412
#     4  11  25  45  69  99 138 182 231 284 342 410
#
# _framework density 21.441115
#
# number of rings (size 3 to 8) (size 9 to 14) (size 15 to 20)
#    0.000    0.857    2.857    3.429    0.000   12.000 
#    0.000    0.000    0.000    0.000    0.000    0.000 
#    0.000    0.000    0.000    0.000    0.000    0.000 
#
# Total GULP energy -156747.917656 kJ/mol
# GULP energy per Si atom -5598.139916 kJ/mol
# Density = 2.139231 g / cm^3
# Si number density = 21.441115 Si / 1000 Ang^3
#
#
#
# Elastic Constant Matrix: (Units=GPa)
#
#
# Indices 1 2 3 4 5 6 
#
# 1 141.4347 43.4406 93.2161 0.0000 0.0000 0.0000
# 2 43.4406 109.0421 40.8745 0.0000 0.0000 0.0000
# 3 93.2161 40.8745 199.6495 0.0000 0.0000 0.0000
# 4 0.0000 0.0000 0.0000 -1.1143 0.0000 0.0000
# 5 0.0000 0.0000 0.0000 0.0000 -40.1383 0.0000
# 6 0.0000 0.0000 0.0000 0.0000 0.0000 41.4049
#
#
#
# Elastic Compliance Matrix: (Units=1/GPa)
#
#
# Indices 1 2 3 4 5 6 
#
# 1 0.010867 -0.002629 -0.004536 0.000000 0.000000 0.000000
# 2 -0.002629 0.010569 -0.000936 0.000000 0.000000 0.000000
# 3 -0.004536 -0.000936 0.007318 0.000000 0.000000 0.000000
# 4 0.000000 0.000000 0.000000 -0.897420 0.000000 0.000000
# 5 0.000000 0.000000 0.000000 0.000000 -0.024914 0.000000
# 6 0.000000 0.000000 0.000000 0.000000 0.000000 0.024152
#
#
# Mechanical properties :
#
#
# Convention : Reuss Voigt Hill
#
# Bulk Modulus (GPa) = 79.66607 89.46541 84.56574
# Shear Modulus (GPa) = -5.88899 18.20348 6.15724
#
# Velocity S-wave (km/s) = -1.65908 2.91692 1.69645
# Velocity P-wave (km/s) = 5.79365 7.29118 6.58512
#
# Compressibility (1/GPa) = 0.01255240
#
# Stress axis : x y z
#
# Youngs Moduli (GPa) = 92.01966 94.61500 136.64661
#
# Poissons Ratio (x) = 0.24876 0.61978
# Poissons Ratio (y) = 0.24193 0.12794
# Poissons Ratio (z) = 0.41737 0.08859
#
# Static dielectric constant tensor:
#      x y z
#    x 1.747850 0.000000 0.000000 
#    y 0.000000 1.772600 0.000000 
#    z 0.000000 0.000000 1.757000 
# 
# From -- ./inp_files/7321.got.cif
#   From: 2010.05.17/outbox.cif.g08.bks.cpg/sg58_4_cif.got.tgz:7321.got - 2010.06.03 14:20:14.
