data_PCOD9445832
_publ_section_title
;
Structure prediction by ZEFSAII (Michael W. Deem and Ramdas Pophale) SiO2 
 PCOD9445832
Probable space group: P N N M
;
_chemical_formula_sum "Si O2"
_cell_formula_units_Z 32
_cell_length_a 11.532084
_cell_length_b 23.548990
_cell_length_c 5.298374
_cell_angle_alpha 90.000000
_cell_angle_beta 90.000000
_cell_angle_gamma 90.000000
_cell_volume 1438.873762
_symmetry_space_group_name_H-M "P N N M"
_symmetry_group_IT_number 58
_symmetry_cell_setting 'orthorhombic'
loop_
_space_group_symop_operation_xyz
x,y,z
-x,-y,z
1/2+x,1/2-y,1/2-z
1/2-x,1/2+y,1/2-z
-x,-y,-z
x,y,-z
1/2-x,1/2+y,1/2+z
1/2+x,1/2-y,1/2+z
loop_
_atom_site_type_symbol
_atom_site_label
_atom_site_fract_x
_atom_site_fract_y
_atom_site_fract_z
Si Si1 0.589114 0.551984 0.500000
Si Si2 0.118331 0.214308 0.500000
Si Si3 0.852553 0.615646 0.000000
Si Si4 0.866945 0.486862 0.000000
Si Si5 0.520978 0.158494 0.000000
Si Si6 0.237323 0.547383 0.500000
Si Si7 0.096040 0.872128 0.500000
Si Si8 0.240317 0.169838 0.000000
O O1 0.500000 0.500000 0.500000
O O2 0.705524 0.514570 0.500000
O O3 0.580219 0.589956 0.749018
O O4 0.076074 0.278802 0.500000
O O5 0.193179 0.199958 0.748965
O O6 0.002233 0.175750 0.500000
O O7 0.812913 0.549800 0.000000
O O8 0.927847 0.628318 0.750709
O O9 0.729932 0.649262 0.000000
O O10 0.834002 0.451948 0.755400
O O11 0.000000 0.500000 0.000000
O O12 0.380755 0.163938 0.000000
O O13 0.310607 0.605065 0.500000
#
# Coordination Sequence:
#
# PCOD9445832 Si02
#       8
#     4   4   4   4   4   4   4   4
#     4  12  23  41  68 104 146 186 225 279 344 424
#     4  12  28  47  75 100 137 192 235 302 356 408
#     4  12  24  47  71 109 142 181 240 288 357 422
#     4  12  23  40  67 102 141 183 226 275 342 419
#     4  12  28  47  75  99 137 191 234 305 355 405
#     4  12  22  42  67 102 141 184 218 274 353 406
#     4  12  25  45  69 109 143 182 240 288 352 423
#     4  12  27  51  70 109 143 181 246 289 351 437
#
# _framework density 22.239614
#
# number of rings (size 3 to 8) (size 9 to 14) (size 15 to 20)
#    0.000    0.000    2.500    8.250    3.500    0.000 
#    0.000    0.000    0.000    0.000    0.000    0.000 
#    0.000    0.000    0.000    0.000    0.000    0.000 
#
# Total GULP energy -179125.972538 kJ/mol
# GULP energy per Si atom -5597.686642 kJ/mol
# Density = 2.218900 g / cm^3
# Si number density = 22.239614 Si / 1000 Ang^3
#
#
#
# Elastic Constant Matrix: (Units=GPa)
#
#
# Indices 1 2 3 4 5 6 
#
# 1 121.4023 3.1991 56.7239 0.0000 0.0000 0.0000
# 2 3.1991 109.3432 52.2652 0.0000 0.0000 0.0000
# 3 56.7239 52.2652 221.9325 0.0000 0.0000 0.0000
# 4 0.0000 0.0000 0.0000 31.5391 0.0000 0.0000
# 5 0.0000 0.0000 0.0000 0.0000 27.7269 0.0000
# 6 0.0000 0.0000 0.0000 0.0000 0.0000 43.1062
#
#
#
# Elastic Compliance Matrix: (Units=1/GPa)
#
#
# Indices 1 2 3 4 5 6 
#
# 1 0.009448 0.000989 -0.002648 0.000000 0.000000 0.000000
# 2 0.000989 0.010409 -0.002704 0.000000 0.000000 0.000000
# 3 -0.002648 -0.002704 0.005819 0.000000 0.000000 0.000000
# 4 0.000000 0.000000 0.000000 0.031707 0.000000 0.000000
# 5 0.000000 0.000000 0.000000 0.000000 0.036066 0.000000
# 6 0.000000 0.000000 0.000000 0.000000 0.000000 0.023199
#
#
# Mechanical properties :
#
#
# Convention : Reuss Voigt Hill
#
# Bulk Modulus (GPa) = 58.99289 75.22824 67.11056
# Shear Modulus (GPa) = 38.16093 43.17376 40.66735
#
# Velocity S-wave (km/s) = 4.14683 4.41080 4.28085
# Velocity P-wave (km/s) = 7.03647 7.73562 7.39432
#
# Compressibility (1/GPa) = 0.01695120
#
# Stress axis : x y z
#
# Youngs Moduli (GPa) = 105.84050 96.06923 171.83684
#
# Poissons Ratio (x) = -0.09503 0.45499
# Poissons Ratio (y) = -0.10470 0.46468
# Poissons Ratio (z) = 0.28025 0.25979
#
# Static dielectric constant tensor:
#      x y z
#    x 1.925060 0.000000 0.000000 
#    y 0.000000 1.903300 0.000000 
#    z 0.000000 0.000000 1.352650 
# 
# From -- ./inp_files/532.got.cif
#   From: 2010.05.17/outbox.cif.g08.bks.cpg/sg58_1_cif.got.tgz:532.got - 2010.06.03 14:20:14.
