data_PCOD9445959
_publ_section_title
;
Structure prediction by ZEFSAII (Michael W. Deem and Ramdas Pophale) SiO2 
 PCOD9445959
Probable space group: P N N M
;
_chemical_formula_sum "Si O2"
_cell_formula_units_Z 64
_cell_length_a 15.000000
_cell_length_b 24.000000
_cell_length_c 9.000000
_cell_angle_alpha 90.000000
_cell_angle_beta 90.000000
_cell_angle_gamma 90.000000
_cell_volume 3240.000000
_symmetry_space_group_name_H-M "P N N M"
_symmetry_group_IT_number 58
_symmetry_cell_setting 'orthorhombic'
loop_
_space_group_symop_operation_xyz
x,y,z
-x,-y,z
1/2+x,1/2-y,1/2-z
1/2-x,1/2+y,1/2-z
-x,-y,-z
x,y,-z
1/2-x,1/2+y,1/2+z
1/2+x,1/2-y,1/2+z
loop_
_atom_site_type_symbol
_atom_site_label
_atom_site_fract_x
_atom_site_fract_y
_atom_site_fract_z
Si Si1 0.049766 0.559205 0.169995
Si Si2 0.094412 0.975427 0.179037
Si Si3 0.198169 0.872118 0.180799
Si Si4 0.191097 0.173443 0.679363
Si Si5 0.746148 0.450827 0.178536
Si Si6 0.041466 0.253126 0.672943
Si Si7 0.146590 0.748470 0.179176
Si Si8 0.393688 0.876056 0.828154
O O1 0.150382 0.551369 0.229160
O O2 0.000000 0.500000 0.170154
O O3 0.981219 0.599865 0.250998
O O4 0.060242 0.579121 0.000000
O O5 0.115987 0.911768 0.221103
O O6 0.180864 0.006816 0.240981
O O7 0.094105 0.979603 0.000000
O O8 0.000000 0.000000 0.233170
O O9 0.178008 0.809605 0.227897
O O10 0.296151 0.891927 0.234650
O O11 0.204710 0.871927 0.000000
O O12 0.188878 0.180717 0.500000
O O13 0.202255 0.109002 0.708984
O O14 0.279918 0.204623 0.732123
O O15 0.101802 0.203079 0.734967
O O16 0.746735 0.461050 0.000000
O O17 0.019298 0.242584 0.500000
O O18 0.951111 0.262632 0.760308
O O19 0.100456 0.309108 0.676867
O O20 0.144277 0.747169 0.000000
O O21 0.397436 0.893921 0.000000
#
# Coordination Sequence:
#
# PCOD9445959 Si02
#       8
#     8   8   8   8   8   8   8   8
#     4  10  21  36  55  82 114 142 176 228 279 320
#     4  10  22  38  56  80 111 143 180 233 281 313
#     4   9  18  35  57  79 106 143 184 220 265 328
#     4   9  18  35  56  77 107 144 179 215 264 326
#     4  10  21  37  56  78 107 146 185 219 267 334
#     4  10  20  34  52  78 108 136 173 227 274 309
#     4  10  19  35  59  81 105 145 186 218 265 332
#     4  10  19  34  57  81 107 142 183 222 264 328
#
# _framework density 19.753086
#
# number of rings (size 3 to 8) (size 9 to 14) (size 15 to 20)
#    0.000    2.250    1.250    1.500    1.750    2.500 
#    0.000    2.500    0.000    0.000    0.000    0.000 
#    0.000    0.000    0.000    0.000    0.000    0.000 
#
# Total GULP energy -356901.443324 kJ/mol
# GULP energy per Si atom -5576.585052 kJ/mol
# Density = 1.970813 g / cm^3
# Si number density = 19.753086 Si / 1000 Ang^3
#
#
#
# Elastic Constant Matrix: (Units=GPa)
#
#
# Indices 1 2 3 4 5 6 
#
# 1 29.8979 7.8385 -0.9541 0.0000 0.0000 0.0000
# 2 7.8385 32.5015 6.2329 0.0000 0.0000 0.0000
# 3 -0.9541 6.2329 4.4933 0.0000 0.0000 0.0000
# 4 0.0000 0.0000 0.0000 9.5209 0.0000 0.0000
# 5 0.0000 0.0000 0.0000 0.0000 11.7056 0.0000
# 6 0.0000 0.0000 0.0000 0.0000 0.0000 34.6962
#
#
#
# Elastic Compliance Matrix: (Units=1/GPa)
#
#
# Indices 1 2 3 4 5 6 
#
# 1 0.038202 -0.014672 0.028464 0.000000 0.000000 0.000000
# 2 -0.014672 0.047554 -0.069080 0.000000 0.000000 0.000000
# 3 0.028464 -0.069080 0.324423 0.000000 0.000000 0.000000
# 4 0.000000 0.000000 0.000000 0.105032 0.000000 0.000000
# 5 0.000000 0.000000 0.000000 0.000000 0.085429 0.000000
# 6 0.000000 0.000000 0.000000 0.000000 0.000000 0.028822
#
#
# Mechanical properties :
#
#
# Convention : Reuss Voigt Hill
#
# Bulk Modulus (GPa) = 3.33774 10.34748 6.84261
# Shear Modulus (GPa) = 5.95306 14.76959 10.36133
#
# Velocity S-wave (km/s) = 1.73789 2.73740 2.29277
# Velocity P-wave (km/s) = 2.39174 3.90396 3.23739
#
# Compressibility (1/GPa) = 0.29960351
#
# Stress axis : x y z
#
# Youngs Moduli (GPa) = 26.17657 21.02881 3.08239
#
# Poissons Ratio (x) = 0.30853 -0.08774
# Poissons Ratio (y) = 0.38406 0.21293
# Poissons Ratio (z) = -0.74509 1.45267
#
# Static dielectric constant tensor:
#      x y z
#    x 1.682570 0.000000 0.000000 
#    y 0.000000 1.740120 0.000000 
#    z 0.000000 0.000000 1.680530 
# 
# From -- ./inp_files/6805.got.cif
#   From: 2010.05.17/outbox.ucp.g08.bks.cvg/sg58_4_cif.got.tgz:6805.got - 2010.06.11 16:41:41.
