data_PCOD9445523
_publ_section_title
;
Structure prediction by ZEFSAII (Michael W. Deem and Ramdas Pophale) SiO2 
 PCOD9445523
Probable space group: P N N M
;
_chemical_formula_sum "Si O2"
_cell_formula_units_Z 64
_cell_length_a 9.511037
_cell_length_b 21.712239
_cell_length_c 16.330129
_cell_angle_alpha 90.000000
_cell_angle_beta 90.000000
_cell_angle_gamma 90.000000
_cell_volume 3372.268125
_symmetry_space_group_name_H-M "P N N M"
_symmetry_group_IT_number 58
_symmetry_cell_setting 'orthorhombic'
loop_
_space_group_symop_operation_xyz
x,y,z
-x,-y,z
1/2+x,1/2-y,1/2-z
1/2-x,1/2+y,1/2-z
-x,-y,-z
x,y,-z
1/2-x,1/2+y,1/2+z
1/2+x,1/2-y,1/2+z
loop_
_atom_site_type_symbol
_atom_site_label
_atom_site_fract_x
_atom_site_fract_y
_atom_site_fract_z
Si Si1 0.885440 0.054142 0.096269
Si Si2 0.060942 0.783784 0.404606
Si Si3 0.100518 0.442765 0.689057
Si Si4 0.704561 0.275057 0.804951
Si Si5 0.412951 0.654387 0.349322
Si Si6 0.980736 0.284276 0.906694
Si Si7 0.881274 0.356742 0.404638
Si Si8 0.785894 0.654189 0.807041
O O1 0.729680 0.039535 0.129162
O O2 0.952119 0.110763 0.147196
O O3 0.877544 0.070752 0.000000
O O4 0.000000 0.000000 0.104660
O O5 0.084946 0.794851 0.500000
O O6 0.122364 0.716062 0.382789
O O7 0.135748 0.834617 0.348847
O O8 0.898780 0.777378 0.382051
O O9 0.173864 0.409747 0.765967
O O10 0.000000 0.500000 0.708924
O O11 0.996893 0.392948 0.646709
O O12 0.642347 0.322686 0.738657
O O13 0.858362 0.288822 0.839104
O O14 0.701220 0.208308 0.761519
O O15 0.455459 0.715662 0.398751
O O16 0.278314 0.621423 0.390178
O O17 0.102915 0.329779 0.878041
O O18 0.935229 0.294820 0.000000
O O19 0.917711 0.361582 0.500000
#
# Coordination Sequence:
#
# PCOD9445523 Si02
#       8
#     8   8   8   8   8   8   8   8
#     4  11  24  41  59  83 118 162 208 247 289 350
#     4  11  21  35  56  84 118 155 194 245 304 357
#     4  12  25  41  61  86 122 166 208 249 294 355
#     4  11  20  34  54  83 119 149 190 245 298 359
#     4  11  22  35  58  82 117 159 197 247 300 358
#     4  11  21  34  56  85 118 153 192 244 309 364
#     4  11  21  35  56  86 120 158 199 239 294 358
#     4  11  21  38  57  84 118 155 199 244 297 359
#
# _framework density 18.978323
#
# number of rings (size 3 to 8) (size 9 to 14) (size 15 to 20)
#    0.000    0.875    3.750    6.750    0.000    2.000 
#    0.000    0.000    0.000    1.500    0.000    0.000 
#    0.000    8.000    0.000    0.000    0.000    0.000 
#
# Total GULP energy -357586.599522 kJ/mol
# GULP energy per Si atom -5587.290618 kJ/mol
# Density = 1.893513 g / cm^3
# Si number density = 18.978323 Si / 1000 Ang^3
#
#
#
# Elastic Constant Matrix: (Units=GPa)
#
#
# Indices 1 2 3 4 5 6 
#
# 1 78.3503 5.2622 11.7971 0.0000 0.0000 0.0000
# 2 5.2622 42.8042 24.3734 0.0000 0.0000 0.0000
# 3 11.7971 24.3734 79.6792 0.0000 0.0000 0.0000
# 4 0.0000 0.0000 0.0000 11.1604 0.0000 0.0000
# 5 0.0000 0.0000 0.0000 0.0000 34.1131 0.0000
# 6 0.0000 0.0000 0.0000 0.0000 0.0000 24.2603
#
#
#
# Elastic Compliance Matrix: (Units=1/GPa)
#
#
# Indices 1 2 3 4 5 6 
#
# 1 0.013067 -0.000611 -0.001748 0.000000 0.000000 0.000000
# 2 -0.000611 0.028318 -0.008572 0.000000 0.000000 0.000000
# 3 -0.001748 -0.008572 0.015431 0.000000 0.000000 0.000000
# 4 0.000000 0.000000 0.000000 0.089603 0.000000 0.000000
# 5 0.000000 0.000000 0.000000 0.000000 0.029314 0.000000
# 6 0.000000 0.000000 0.000000 0.000000 0.000000 0.041220
#
#
# Mechanical properties :
#
#
# Convention : Reuss Voigt Hill
#
# Bulk Modulus (GPa) = 28.60816 31.52213 30.06515
# Shear Modulus (GPa) = 19.96271 24.53348 22.24810
#
# Velocity S-wave (km/s) = 3.24677 3.59933 3.42759
# Velocity P-wave (km/s) = 5.40021 5.82402 5.61611
#
# Compressibility (1/GPa) = 0.03495506
#
# Stress axis : x y z
#
# Youngs Moduli (GPa) = 76.52629 35.31285 64.80377
#
# Poissons Ratio (x) = 0.02159 0.11326
# Poissons Ratio (y) = 0.04678 0.55549
# Poissons Ratio (z) = 0.13375 0.30270
#
# Static dielectric constant tensor:
#      x y z
#    x 1.697800 0.000000 0.000000 
#    y 0.000000 1.659810 0.000000 
#    z 0.000000 0.000000 1.657540 
# 
# From -- ./inp_files/20309.got.cif
#   From: 2010.05.17/outbox.cif.g08.bks.cpg/sg58_11_cif.got.tgz:20309.got - 2010.06.03 14:20:14.
