data_PCOD9445775
_publ_section_title
;
Structure prediction by ZEFSAII (Michael W. Deem and Ramdas Pophale) SiO2 
 PCOD9445775
Probable space group: P N N M
;
_chemical_formula_sum "Si O2"
_cell_formula_units_Z 32
_cell_length_a 4.669755
_cell_length_b 12.434252
_cell_length_c 26.075103
_cell_angle_alpha 90.000000
_cell_angle_beta 90.000000
_cell_angle_gamma 90.000000
_cell_volume 1514.048521
_symmetry_space_group_name_H-M "P N N M"
_symmetry_group_IT_number 58
_symmetry_cell_setting 'orthorhombic'
loop_
_space_group_symop_operation_xyz
x,y,z
-x,-y,z
1/2+x,1/2-y,1/2-z
1/2-x,1/2+y,1/2-z
-x,-y,-z
x,y,-z
1/2-x,1/2+y,1/2+z
1/2+x,1/2-y,1/2+z
loop_
_atom_site_type_symbol
_atom_site_label
_atom_site_fract_x
_atom_site_fract_y
_atom_site_fract_z
Si Si1 0.396317 0.877636 0.057656
Si Si2 0.256424 0.574073 0.855847
Si Si3 0.899883 0.231526 0.284468
Si Si4 0.408301 0.721698 0.612921
O O1 0.145811 0.864592 0.098577
O O2 0.651601 0.796780 0.073108
O O3 0.500000 0.000000 0.058390
O O4 0.291849 0.853652 0.000000
O O5 0.500000 0.500000 0.882605
O O6 0.567951 0.366384 0.811126
O O7 0.086227 0.666145 0.887383
O O8 0.000000 0.500000 0.836038
O O9 0.649418 0.203396 0.244435
O O10 0.736472 0.288551 0.331408
#
# Coordination Sequence:
#
# PCOD9445775 Si02
#       4
#     8   8   8   8
#     4  11  24  44  72 103 135 177 227 279 354 422
#     4  12  22  41  69  95 126 185 227 262 331 412
#     4  12  22  41  67  94 138 174 226 283 329 395
#     4  12  22  43  70  96 137 178 222 281 332 408
#
# _framework density 21.135383000000001
#
# number of rings (size 3 to 8) (size 9 to 14) (size 15 to 20)
#    0.000    0.250    7.500    1.500    0.000    2.000 
#    0.000    6.250    0.000   15.000    0.000    0.000 
#    0.000    0.000    0.000    0.000    0.000    0.000 
#
# Total GULP energy -178531.208335 kJ/mol
# GULP energy per Si atom -5579.100260 kJ/mol
# Density = 2.108728 g / cm^3
# Si number density = 21.135383 Si / 1000 Ang^3
#
#
#
# Elastic Constant Matrix: (Units=GPa)
#
#
# Indices 1 2 3 4 5 6 
#
# 1 165.7025 47.7643 53.8400 0.0000 0.0000 0.0000
# 2 47.7643 68.9448 47.9344 0.0000 0.0000 0.0000
# 3 53.8400 47.9344 84.3044 0.0000 0.0000 0.0000
# 4 0.0000 0.0000 0.0000 20.9316 0.0000 0.0000
# 5 0.0000 0.0000 0.0000 0.0000 81.1713 0.0000
# 6 0.0000 0.0000 0.0000 0.0000 0.0000 54.7893
#
#
#
# Elastic Compliance Matrix: (Units=1/GPa)
#
#
# Indices 1 2 3 4 5 6 
#
# 1 0.008048 -0.003311 -0.003257 0.000000 0.000000 0.000000
# 2 -0.003311 0.025349 -0.012299 0.000000 0.000000 0.000000
# 3 -0.003257 -0.012299 0.020935 0.000000 0.000000 0.000000
# 4 0.000000 0.000000 0.000000 0.047775 0.000000 0.000000
# 5 0.000000 0.000000 0.000000 0.000000 0.012320 0.000000
# 6 0.000000 0.000000 0.000000 0.000000 0.000000 0.018252
#
#
# Mechanical properties :
#
#
# Convention : Reuss Voigt Hill
#
# Bulk Modulus (GPa) = 60.24757 68.66990 64.45873
# Shear Modulus (GPa) = 28.41839 42.67263 35.54551
#
# Velocity S-wave (km/s) = 3.67084 4.49822 4.10543
# Velocity P-wave (km/s) = 6.82160 7.71619 7.28265
#
# Compressibility (1/GPa) = 0.01659818
#
# Stress axis : x y z
#
# Youngs Moduli (GPa) = 124.26189 39.44965 47.76780
#
# Poissons Ratio (x) = 0.13061 0.15558
# Poissons Ratio (y) = 0.41141 0.58748
# Poissons Ratio (z) = 0.40472 0.48517
#
# Static dielectric constant tensor:
#      x y z
#    x 1.800990 0.000000 0.000000 
#    y 0.000000 1.812640 0.000000 
#    z 0.000000 0.000000 1.758040 
# 
# From -- ./inp_files/30761.got.cif
#   From: 2010.05.17/outbox.cif.g08.bks.cpg/sg58_16_cif.got.tgz:30761.got - 2010.06.03 14:20:14.
