data_PCOD9445953
_publ_section_title
;
Structure prediction by ZEFSAII (Michael W. Deem and Ramdas Pophale) SiO2 
 PCOD9445953
Probable space group: P N N M
;
_chemical_formula_sum "Si O2"
_cell_formula_units_Z 48
_cell_length_a 12.000000
_cell_length_b 24.000000
_cell_length_c 9.000000
_cell_angle_alpha 90.000000
_cell_angle_beta 90.000000
_cell_angle_gamma 90.000000
_cell_volume 2592.000000
_symmetry_space_group_name_H-M "P N N M"
_symmetry_group_IT_number 58
_symmetry_cell_setting 'orthorhombic'
loop_
_space_group_symop_operation_xyz
x,y,z
-x,-y,z
1/2+x,1/2-y,1/2-z
1/2-x,1/2+y,1/2-z
-x,-y,-z
x,y,-z
1/2-x,1/2+y,1/2+z
1/2+x,1/2-y,1/2+z
loop_
_atom_site_type_symbol
_atom_site_label
_atom_site_fract_x
_atom_site_fract_y
_atom_site_fract_z
Si Si1 0.877106 0.863536 0.178550
Si Si2 0.870064 0.324922 0.677782
Si Si3 0.259570 0.397013 0.322437
Si Si4 0.090719 0.803267 0.679767
Si Si5 0.868693 0.989381 0.168581
Si Si6 0.004605 0.434455 0.323209
O O1 0.762243 0.830749 0.200042
O O2 0.856591 0.927340 0.232447
O O3 0.979366 0.833356 0.258895
O O4 0.901029 0.866878 0.000000
O O5 0.892015 0.325249 0.500000
O O6 0.905536 0.262345 0.728458
O O7 0.926170 0.383218 0.734851
O O8 0.284135 0.391678 0.500000
O O9 0.308765 0.342194 0.242960
O O10 0.317198 0.454365 0.264770
O O11 0.128770 0.409542 0.305748
O O12 0.093496 0.804452 0.500000
O O13 0.820846 0.986174 0.000000
O O14 0.000000 0.000000 0.159965
O O15 0.979446 0.439311 0.500000
O O16 0.000000 0.500000 0.268059
#
# Coordination Sequence:
#
# PCOD9445953 Si02
#       6
#     8   8   8   8   8   8
#     4  10  19  36  59  77 102 140 182 220 267 322
#     4   9  20  35  52  77 109 142 175 222 274 321
#     4  10  19  33  57  83 109 143 182 223 273 329
#     4  11  23  36  50  78 117 147 177 219 268 319
#     4   9  15  27  50  81 105 125 171 229 262 295
#     4   9  17  32  57  87 110 133 178 238 287 320
#
# _framework density 18.518519000000001
#
# number of rings (size 3 to 8) (size 9 to 14) (size 15 to 20)
#    0.000    2.333    1.667    1.500    2.333    4.000 
#    0.000    2.500    0.000    1.500    0.000    0.000 
#    0.000    0.000    0.000    0.000    0.000    0.000 
#
# Total GULP energy -267307.544735 kJ/mol
# GULP energy per Si atom -5568.907182 kJ/mol
# Density = 1.847637 g / cm^3
# Si number density = 18.518519 Si / 1000 Ang^3
#
#
#
# Elastic Constant Matrix: (Units=GPa)
#
#
# Indices 1 2 3 4 5 6 
#
# 1 67.7418 47.7846 16.7537 0.0000 0.0000 0.0000
# 2 47.7846 187.2678 22.2268 0.0000 0.0000 0.0000
# 3 16.7537 22.2268 26.4668 0.0000 0.0000 0.0000
# 4 0.0000 0.0000 0.0000 26.3398 0.0000 0.0000
# 5 0.0000 0.0000 0.0000 0.0000 13.9457 0.0000
# 6 0.0000 0.0000 0.0000 0.0000 0.0000 30.5949
#
#
#
# Elastic Compliance Matrix: (Units=1/GPa)
#
#
# Indices 1 2 3 4 5 6 
#
# 1 0.019843 -0.003968 -0.009229 0.000000 0.000000 0.000000
# 2 -0.003968 0.006725 -0.003136 0.000000 0.000000 0.000000
# 3 -0.009229 -0.003136 0.046258 0.000000 0.000000 0.000000
# 4 0.000000 0.000000 0.000000 0.037965 0.000000 0.000000
# 5 0.000000 0.000000 0.000000 0.000000 0.071706 0.000000
# 6 0.000000 0.000000 0.000000 0.000000 0.000000 0.032685
#
#
# Mechanical properties :
#
#
# Convention : Reuss Voigt Hill
#
# Bulk Modulus (GPa) = 24.89929 50.55628 37.72778
# Shear Modulus (GPa) = 19.13986 27.15683 23.14834
#
# Velocity S-wave (km/s) = 3.21838 3.83360 3.53938
# Velocity P-wave (km/s) = 5.22354 6.85237 6.09264
#
# Compressibility (1/GPa) = 0.04016180
#
# Stress axis : x y z
#
# Youngs Moduli (GPa) = 50.39472 148.70738 21.61776
#
# Poissons Ratio (x) = 0.59007 0.19950
# Poissons Ratio (y) = 0.19997 0.06778
# Poissons Ratio (z) = 0.46507 0.46628
#
# Static dielectric constant tensor:
#      x y z
#    x 1.658650 0.000000 0.000000 
#    y 0.000000 1.670520 0.000000 
#    z 0.000000 0.000000 1.641200 
# 
# From -- ./inp_files/4209.got.cif
#   From: 2010.05.17/outbox.ucp.g08.bks.cvg/sg58_3_cif.got.tgz:4209.got - 2010.06.11 16:41:41.
