data_PCOD9445715
_publ_section_title
;
Structure prediction by ZEFSAII (Michael W. Deem and Ramdas Pophale) SiO2 
 PCOD9445715
Probable space group: P N N M
;
_chemical_formula_sum "Si O2"
_cell_formula_units_Z 36
_cell_length_a 5.204764
_cell_length_b 11.621356
_cell_length_c 23.847757
_cell_angle_alpha 90.000000
_cell_angle_beta 90.000000
_cell_angle_gamma 90.000000
_cell_volume 1442.465335
_symmetry_space_group_name_H-M "P N N M"
_symmetry_group_IT_number 58
_symmetry_cell_setting 'orthorhombic'
loop_
_space_group_symop_operation_xyz
x,y,z
-x,-y,z
1/2+x,1/2-y,1/2-z
1/2-x,1/2+y,1/2-z
-x,-y,-z
x,y,-z
1/2-x,1/2+y,1/2+z
1/2+x,1/2-y,1/2+z
loop_
_atom_site_type_symbol
_atom_site_label
_atom_site_fract_x
_atom_site_fract_y
_atom_site_fract_z
Si Si1 0.753840 0.423919 0.384535
Si Si2 0.200805 0.403252 0.195657
Si Si3 0.070689 0.263452 0.694952
Si Si4 0.248287 0.080170 0.500000
Si Si5 0.038131 0.720292 0.098360
O O1 0.500000 0.500000 0.372655
O O2 0.859078 0.350851 0.331346
O O3 0.645937 0.321533 0.424260
O O4 0.000000 0.500000 0.403439
O O5 0.504990 0.374223 0.195491
O O6 0.000000 0.500000 0.211727
O O7 0.142004 0.308272 0.244206
O O8 0.132049 0.373067 0.131308
O O9 0.294310 0.272135 0.649081
O O10 0.277996 0.162075 0.446217
O O11 0.500000 0.000000 0.500000
O O12 0.000000 0.000000 0.500000
#
# Coordination Sequence:
#
# PCOD9445715 Si02
#       5
#     8   8   8   4   8
#     4  11  23  43  75 106 146 198 240 313 394 461
#     4  11  24  39  68 106 154 203 253 318 396 467
#     4  11  23  42  67 113 151 197 256 319 387 475
#     4  12  32  54  82 109 152 215 262 328 392 449
#     4  11  26  48  73 110 155 194 273 319 379 477
#
# _framework density 24.957270999999999
#
# number of rings (size 3 to 8) (size 9 to 14) (size 15 to 20)
#    0.000    0.889    4.444    1.333    9.333    0.000 
#    0.000    1.111    0.000    0.000    0.000    0.000 
#    0.000    0.000    0.000    0.000    0.000    0.000 
#
# Total GULP energy -200662.619257 kJ/mol
# GULP energy per Si atom -5573.961646 kJ/mol
# Density = 2.490047 g / cm^3
# Si number density = 24.957271 Si / 1000 Ang^3
#
#
#
# Elastic Constant Matrix: (Units=GPa)
#
#
# Indices 1 2 3 4 5 6 
#
# 1 148.1629 33.9879 16.8616 0.0000 0.0000 0.0000
# 2 33.9879 79.8614 8.3487 0.0000 0.0000 0.0000
# 3 16.8616 8.3487 97.6152 0.0000 0.0000 0.0000
# 4 0.0000 0.0000 0.0000 10.6454 0.0000 0.0000
# 5 0.0000 0.0000 0.0000 0.0000 7.3569 0.0000
# 6 0.0000 0.0000 0.0000 0.0000 0.0000 33.4503
#
#
#
# Elastic Compliance Matrix: (Units=1/GPa)
#
#
# Indices 1 2 3 4 5 6 
#
# 1 0.007583 -0.003118 -0.001043 0.000000 0.000000 0.000000
# 2 -0.003118 0.013917 -0.000652 0.000000 0.000000 0.000000
# 3 -0.001043 -0.000652 0.010480 0.000000 0.000000 0.000000
# 4 0.000000 0.000000 0.000000 0.093937 0.000000 0.000000
# 5 0.000000 0.000000 0.000000 0.000000 0.135926 0.000000
# 6 0.000000 0.000000 0.000000 0.000000 0.000000 0.029895
#
#
# Mechanical properties :
#
#
# Convention : Reuss Voigt Hill
#
# Bulk Modulus (GPa) = 44.73428 49.33732 47.03580
# Shear Modulus (GPa) = 16.19081 28.05327 22.12204
#
# Velocity S-wave (km/s) = 2.54980 3.35633 2.98047
# Velocity P-wave (km/s) = 5.16061 5.90182 5.54362
#
# Compressibility (1/GPa) = 0.02235422
#
# Stress axis : x y z
#
# Youngs Moduli (GPa) = 131.86727 71.85489 95.41767
#
# Poissons Ratio (x) = 0.22407 0.09954
# Poissons Ratio (y) = 0.41120 0.06218
# Poissons Ratio (z) = 0.13757 0.04682
#
# Static dielectric constant tensor:
#      x y z
#    x 2.208410 0.000000 0.000000 
#    y 0.000000 3.658090 0.000000 
#    z 0.000000 0.000000 1.886580 
# 
# From -- ./inp_files/30816.got.cif
#   From: 2010.05.17/outbox.cif.g08.bks.cpg/sg58_16_cif.got.tgz:30816.got - 2010.06.03 14:20:14.
