data_PCOD9445580
_publ_section_title
;
Structure prediction by ZEFSAII (Michael W. Deem and Ramdas Pophale) SiO2 
 PCOD9445580
Probable space group: P N N M
;
_chemical_formula_sum "Si O2"
_cell_formula_units_Z 40
_cell_length_a 23.504566
_cell_length_b 10.525134
_cell_length_c 8.383591
_cell_angle_alpha 90.000000
_cell_angle_beta 90.000000
_cell_angle_gamma 90.000000
_cell_volume 2074.005736
_symmetry_space_group_name_H-M "P N N M"
_symmetry_group_IT_number 58
_symmetry_cell_setting 'orthorhombic'
loop_
_space_group_symop_operation_xyz
x,y,z
-x,-y,z
1/2+x,1/2-y,1/2-z
1/2-x,1/2+y,1/2-z
-x,-y,-z
x,y,-z
1/2-x,1/2+y,1/2+z
1/2+x,1/2-y,1/2+z
loop_
_atom_site_type_symbol
_atom_site_label
_atom_site_fract_x
_atom_site_fract_y
_atom_site_fract_z
Si Si1 0.177557 0.498938 0.305621
Si Si2 0.308800 0.489282 0.690212
Si Si3 0.996535 0.852286 0.810189
Si Si4 0.116382 0.756540 0.309767
Si Si5 0.376588 0.732687 0.810103
O O1 0.177549 0.501603 0.500000
O O2 0.243406 0.498693 0.255305
O O3 0.144526 0.625033 0.252771
O O4 0.146786 0.369227 0.255769
O O5 0.309682 0.468909 0.500000
O O6 0.341388 0.372317 0.770475
O O7 0.341849 0.618653 0.729500
O O8 0.942756 0.786156 0.729065
O O9 0.055821 0.785825 0.768943
O O10 0.987415 0.851953 0.000000
O O11 0.000000 0.000000 0.757638
O O12 0.108245 0.749742 0.500000
O O13 0.368164 0.723280 0.000000
#
# Coordination Sequence:
#
# PCOD9445580 Si02
#       5
#     8   8   8   8   8
#     4   9  22  40  59  88 124 156 191 241 294 345
#     4  11  21  38  61  88 123 158 194 239 290 343
#     4  11  23  40  61  86 119 153 192 244 299 348
#     4  11  22  39  63  89 117 155 200 241 288 346
#     4  11  22  39  63  89 117 155 200 241 288 346
#
# _framework density 19.286348
#
# number of rings (size 3 to 8) (size 9 to 14) (size 15 to 20)
#    0.000    1.400    2.000    3.600    0.000    1.600 
#    0.000   14.000    0.000    0.000    0.000    0.000 
#    0.000    0.000    0.000    0.000    0.000    0.000 
#
# Total GULP energy -223655.525124 kJ/mol
# GULP energy per Si atom -5591.388128 kJ/mol
# Density = 1.924245 g / cm^3
# Si number density = 19.286348 Si / 1000 Ang^3
#
#
#
# Elastic Constant Matrix: (Units=GPa)
#
#
# Indices 1 2 3 4 5 6 
#
# 1 131.6423 53.7903 -18.2224 0.0000 0.0000 0.0000
# 2 53.7903 133.6695 -15.2593 0.0000 0.0000 0.0000
# 3 -18.2224 -15.2593 12.8782 0.0000 0.0000 0.0000
# 4 0.0000 0.0000 0.0000 -7.3026 0.0000 0.0000
# 5 0.0000 0.0000 0.0000 0.0000 8.4715 0.0000
# 6 0.0000 0.0000 0.0000 0.0000 0.0000 -20.5575
#
#
#
# Elastic Compliance Matrix: (Units=1/GPa)
#
#
# Indices 1 2 3 4 5 6 
#
# 1 0.010321 -0.002875 0.011198 0.000000 0.000000 0.000000
# 2 -0.002875 0.009452 0.007132 0.000000 0.000000 0.000000
# 3 0.011198 0.007132 0.101945 0.000000 0.000000 0.000000
# 4 0.000000 0.000000 0.000000 -0.136937 0.000000 0.000000
# 5 0.000000 0.000000 0.000000 0.000000 0.118042 0.000000
# 6 0.000000 0.000000 0.000000 0.000000 0.000000 -0.048644
#
#
# Mechanical properties :
#
#
# Convention : Reuss Voigt Hill
#
# Bulk Modulus (GPa) = 6.55192 35.42302 20.98747
# Shear Modulus (GPa) = 67.43377 13.31438 40.37407
#
# Velocity S-wave (km/s) = 5.91949 2.63031 4.58033
# Velocity P-wave (km/s) = 7.07991 5.25656 6.23524
#
# Compressibility (1/GPa) = 0.15262694
#
# Stress axis : x y z
#
# Youngs Moduli (GPa) = 96.88854 105.79500 9.80919
#
# Poissons Ratio (x) = 0.30417 -0.10984
# Poissons Ratio (y) = 0.27856 -0.06996
# Poissons Ratio (z) = -1.08491 -0.75450
#
# Static dielectric constant tensor:
#      x y z
#    x 1.643600 0.000000 0.000000 
#    y 0.000000 1.645230 0.000000 
#    z 0.000000 0.000000 1.661230 
# 
# From -- ./inp_files/2455.got.cif
#   From: 2010.05.17/outbox.cif.g08.bks.cpg/sg58_2_cif.got.tgz:2455.got - 2010.06.03 14:20:14.
