data_PCOD9445216
_publ_section_title
;
Structure prediction by ZEFSAII (Michael W. Deem and Ramdas Pophale) SiO2 
 PCOD9445216
Probable space group: P N N M
;
_chemical_formula_sum "Si O2"
_cell_formula_units_Z 52
_cell_length_a 17.028871
_cell_length_b 7.478593
_cell_length_c 19.114604
_cell_angle_alpha 90.000000
_cell_angle_beta 90.000000
_cell_angle_gamma 90.000000
_cell_volume 2434.282962
_symmetry_space_group_name_H-M "P N N M"
_symmetry_group_IT_number 58
_symmetry_cell_setting 'orthorhombic'
loop_
_space_group_symop_operation_xyz
x,y,z
-x,-y,z
1/2+x,1/2-y,1/2-z
1/2-x,1/2+y,1/2-z
-x,-y,-z
x,y,-z
1/2-x,1/2+y,1/2+z
1/2+x,1/2-y,1/2+z
loop_
_atom_site_type_symbol
_atom_site_label
_atom_site_fract_x
_atom_site_fract_y
_atom_site_fract_z
Si Si1 0.017325 0.715086 0.276685
Si Si2 0.210625 0.378808 0.345145
Si Si3 0.360410 0.534300 0.579746
Si Si4 0.908100 0.548187 0.923547
Si Si5 0.830810 0.385405 0.213350
Si Si6 0.046893 0.312626 0.578223
Si Si7 0.500000 0.500000 0.671749
O O1 0.107466 0.743747 0.253626
O O2 0.971705 0.837961 0.221353
O O3 0.000000 0.500000 0.270742
O O4 0.996518 0.775176 0.355078
O O5 0.277350 0.495726 0.384018
O O6 0.185625 0.473940 0.273856
O O7 0.252987 0.201822 0.317563
O O8 0.135648 0.347108 0.394720
O O9 0.357268 0.472317 0.500000
O O10 0.387413 0.741185 0.579283
O O11 0.429469 0.437527 0.622178
O O12 0.872047 0.464458 0.854655
O O13 0.000000 0.500000 0.922264
O O14 0.877763 0.484234 0.000000
O O15 0.046128 0.231431 0.500000
O O16 0.000000 0.500000 0.572644
#
# Coordination Sequence:
#
# PCOD9445216 Si02
#       7
#     8   8   8   8   8   8   4
#     4  11  22  43  68  97 130 175 228 277 334 406
#     4  12  25  39  66  98 132 175 226 283 344 402
#     4  11  24  41  62  97 137 173 222 277 336 407
#     4  10  23  42  66  93 133 180 217 265 335 411
#     4  12  23  41  63  96 134 169 221 279 335 406
#     4  10  22  43  69  93 127 179 234 284 343 408
#     4  12  23  40  69 100 134 178 222 272 339 416
#
# _framework density 21.361526999999999
#
# number of rings (size 3 to 8) (size 9 to 14) (size 15 to 20)
#    0.000    0.923    4.615    3.923    2.154    1.231 
#    0.000    0.385    0.000    0.462    0.000    0.000 
#    0.000    0.000    0.000    0.000    0.000    0.000 
#
# Total GULP energy -290396.618968 kJ/mol
# GULP energy per Si atom -5584.550365 kJ/mol
# Density = 2.131291 g / cm^3
# Si number density = 21.361527 Si / 1000 Ang^3
#
#
#
# Elastic Constant Matrix: (Units=GPa)
#
#
# Indices 1 2 3 4 5 6 
#
# 1 88.9403 5.3857 69.2675 0.0000 0.0000 0.0000
# 2 5.3857 44.1591 31.2186 0.0000 0.0000 0.0000
# 3 69.2675 31.2186 237.3349 0.0000 0.0000 0.0000
# 4 0.0000 0.0000 0.0000 17.4340 0.0000 0.0000
# 5 0.0000 0.0000 0.0000 0.0000 60.2124 0.0000
# 6 0.0000 0.0000 0.0000 0.0000 0.0000 24.8458
#
#
#
# Elastic Compliance Matrix: (Units=1/GPa)
#
#
# Indices 1 2 3 4 5 6 
#
# 1 0.014625 0.001360 -0.004447 0.000000 0.000000 0.000000
# 2 0.001360 0.025094 -0.003698 0.000000 0.000000 0.000000
# 3 -0.004447 -0.003698 0.005998 0.000000 0.000000 0.000000
# 4 0.000000 0.000000 0.000000 0.057359 0.000000 0.000000
# 5 0.000000 0.000000 0.000000 0.000000 0.016608 0.000000
# 6 0.000000 0.000000 0.000000 0.000000 0.000000 0.040248
#
#
# Mechanical properties :
#
#
# Convention : Reuss Voigt Hill
#
# Bulk Modulus (GPa) = 31.10727 64.68642 47.89685
# Shear Modulus (GPa) = 27.14200 38.13594 32.63897
#
# Velocity S-wave (km/s) = 3.56842 4.22982 3.91312
# Velocity P-wave (km/s) = 5.61890 7.36225 6.54884
#
# Compressibility (1/GPa) = 0.03214682
#
# Stress axis : x y z
#
# Youngs Moduli (GPa) = 68.37759 39.85067 166.72753
#
# Poissons Ratio (x) = -0.05421 0.74148
# Poissons Ratio (y) = -0.09302 0.61653
# Poissons Ratio (z) = 0.30409 0.14736
#
# Static dielectric constant tensor:
#      x y z
#    x 1.819820 0.000000 0.000000 
#    y 0.000000 1.310160 0.000000 
#    z 0.000000 0.000000 1.779120 
# 
# From -- ./inp_files/27257.got.cif
#   From: 2010.05.17/outbox.cif.g08.bks.cpg/sg58_14_cif.got.tgz:27257.got - 2010.06.03 14:20:14.
