data_PCOD9445359
_publ_section_title
;
Structure prediction by ZEFSAII (Michael W. Deem and Ramdas Pophale) SiO2 
 PCOD9445359
Probable space group: P N N M
;
_chemical_formula_sum "Si O2"
_cell_formula_units_Z 34
_cell_length_a 6.621919
_cell_length_b 18.387982
_cell_length_c 12.141837
_cell_angle_alpha 90.000000
_cell_angle_beta 90.000000
_cell_angle_gamma 90.000000
_cell_volume 1478.435330
_symmetry_space_group_name_H-M "P N N M"
_symmetry_group_IT_number 58
_symmetry_cell_setting 'orthorhombic'
loop_
_space_group_symop_operation_xyz
x,y,z
-x,-y,z
1/2+x,1/2-y,1/2-z
1/2-x,1/2+y,1/2-z
-x,-y,-z
x,y,-z
1/2-x,1/2+y,1/2+z
1/2+x,1/2-y,1/2+z
loop_
_atom_site_type_symbol
_atom_site_label
_atom_site_fract_x
_atom_site_fract_y
_atom_site_fract_z
Si Si1 0.770577 0.097428 0.165396
Si Si2 0.979673 0.734363 0.382480
Si Si3 0.828669 0.851491 0.220155
Si Si4 0.514877 0.086175 0.376693
Si Si5 0.000000 0.500000 0.500000
O O1 0.700553 0.175906 0.119995
O O2 0.698032 0.099172 0.292662
O O3 0.012326 0.093940 0.165524
O O4 0.644437 0.038463 0.096611
O O5 0.982941 0.772849 0.500000
O O6 0.952508 0.788428 0.281756
O O7 0.179699 0.685943 0.366620
O O8 0.682933 0.885679 0.312562
O O9 0.535220 0.117739 0.500000
O O10 0.500000 0.000000 0.386829
#
# Coordination Sequence:
#
# PCOD9445359 Si02
#       5
#     8   8   8   8   2
#     4  11  24  45  69 103 141 191 240 294 362 434
#     4  11  23  42  67 104 143 180 238 298 363 434
#     4  11  24  44  69 104 139 187 237 298 367 435
#     4  10  23  45  69 101 140 181 238 296 359 436
#     4  12  24  48  76 100 154 200 242 298 354 458
#
# _framework density 22.997285999999999
#
# number of rings (size 3 to 8) (size 9 to 14) (size 15 to 20)
#    0.000    1.176    4.706    0.706    1.647    2.824 
#    0.000    7.059    0.000    0.000    0.000    0.000 
#    0.000    0.000    0.000    0.000    0.000    0.000 
#
# Total GULP energy -189580.725947 kJ/mol
# GULP energy per Si atom -5575.903704 kJ/mol
# Density = 2.294494 g / cm^3
# Si number density = 22.997286 Si / 1000 Ang^3
#
#
#
# Elastic Constant Matrix: (Units=GPa)
#
#
# Indices 1 2 3 4 5 6 
#
# 1 91.4043 9.9229 15.2409 0.0000 0.0000 0.0000
# 2 9.9229 38.4455 -0.9127 0.0000 0.0000 0.0000
# 3 15.2409 -0.9127 123.7911 0.0000 0.0000 0.0000
# 4 0.0000 0.0000 0.0000 10.6643 0.0000 0.0000
# 5 0.0000 0.0000 0.0000 0.0000 5.5082 0.0000
# 6 0.0000 0.0000 0.0000 0.0000 0.0000 32.3984
#
#
#
# Elastic Compliance Matrix: (Units=1/GPa)
#
#
# Indices 1 2 3 4 5 6 
#
# 1 0.011506 -0.003004 -0.001439 0.000000 0.000000 0.000000
# 2 -0.003004 0.026800 0.000567 0.000000 0.000000 0.000000
# 3 -0.001439 0.000567 0.008259 0.000000 0.000000 0.000000
# 4 0.000000 0.000000 0.000000 0.093770 0.000000 0.000000
# 5 0.000000 0.000000 0.000000 0.000000 0.181549 0.000000
# 6 0.000000 0.000000 0.000000 0.000000 0.000000 0.030866
#
#
# Mechanical properties :
#
#
# Convention : Reuss Voigt Hill
#
# Bulk Modulus (GPa) = 25.76333 33.57142 29.66738
# Shear Modulus (GPa) = 13.38905 25.00683 19.19794
#
# Velocity S-wave (km/s) = 2.41550 3.30112 2.89241
# Velocity P-wave (km/s) = 4.35966 5.39996 4.90745
#
# Compressibility (1/GPa) = 0.03881486
#
# Stress axis : x y z
#
# Youngs Moduli (GPa) = 86.90791 37.31389 121.07341
#
# Poissons Ratio (x) = 0.11209 0.17420
# Poissons Ratio (y) = 0.26107 -0.06870
# Poissons Ratio (z) = 0.12504 -0.02117
#
# Static dielectric constant tensor:
#      x y z
#    x 1.883170 0.000000 0.000000 
#    y 0.000000 1.878080 0.000000 
#    z 0.000000 0.000000 1.878550 
# 
# From -- ./inp_files/11666.got.cif
#   From: 2010.05.17/outbox.cif.g08.bks.cpg/sg58_6_cif.got.tgz:11666.got - 2010.06.03 14:20:14.
