data_PCOD9445063
_publ_section_title
;
Structure prediction by ZEFSAII (Michael W. Deem and Ramdas Pophale) SiO2 
 PCOD9445063
Probable space group: P N N M
;
_chemical_formula_sum "Si O2"
_cell_formula_units_Z 64
_cell_length_a 11.406269
_cell_length_b 20.736341
_cell_length_c 14.058466
_cell_angle_alpha 90.000000
_cell_angle_beta 90.000000
_cell_angle_gamma 90.000000
_cell_volume 3325.168598
_symmetry_space_group_name_H-M "P N N M"
_symmetry_group_IT_number 58
_symmetry_cell_setting 'orthorhombic'
loop_
_space_group_symop_operation_xyz
x,y,z
-x,-y,z
1/2+x,1/2-y,1/2-z
1/2-x,1/2+y,1/2-z
-x,-y,-z
x,y,-z
1/2-x,1/2+y,1/2+z
1/2+x,1/2-y,1/2+z
loop_
_atom_site_type_symbol
_atom_site_label
_atom_site_fract_x
_atom_site_fract_y
_atom_site_fract_z
Si Si1 0.078541 0.817664 0.610732
Si Si2 0.116096 0.148222 0.233187
Si Si3 0.789824 0.581609 0.111196
Si Si4 0.371968 0.193619 0.774540
Si Si5 0.865987 0.997639 0.733985
Si Si6 0.463685 0.925070 0.219277
Si Si7 0.563673 0.715143 0.390997
Si Si8 0.773357 0.095753 0.889339
O O1 0.047367 0.823350 0.500000
O O2 0.195453 0.860711 0.626943
O O3 0.104215 0.744435 0.641273
O O4 0.974808 0.842028 0.679660
O O5 0.234146 0.188302 0.243983
O O6 0.046862 0.171994 0.140388
O O7 0.152988 0.074040 0.229226
O O8 0.721456 0.518628 0.150444
O O9 0.902056 0.587951 0.178596
O O10 0.816954 0.578029 0.000000
O O11 0.430467 0.124664 0.793674
O O12 0.428988 0.225977 0.681323
O O13 0.844550 0.048389 0.819158
O O14 0.000000 0.000000 0.700558
O O15 0.360781 0.910055 0.143654
O O16 0.500000 0.000000 0.213247
O O17 0.557112 0.734937 0.500000
O O18 0.675124 0.667670 0.376821
O O19 0.787999 0.078697 0.000000
#
# Coordination Sequence:
#
# PCOD9445063 Si02
#       8
#     8   8   8   8   8   8   8   8
#     4  10  23  40  61  91 121 157 202 251 310 363
#     4  11  22  39  62  92 123 155 198 254 301 355
#     4  10  22  40  63  89 124 165 202 247 307 367
#     4  11  24  39  63  88 120 161 205 253 301 357
#     4  11  18  36  62  92 125 155 194 248 305 357
#     4  11  24  44  63  88 123 167 209 249 303 368
#     4  10  23  40  61  91 121 157 202 251 310 363
#     4  10  22  40  63  89 124 165 202 247 307 367
#
# _framework density 19.247143000000001
#
# number of rings (size 3 to 8) (size 9 to 14) (size 15 to 20)
#    0.000    1.500    2.500    3.750    7.000    4.000 
#    0.000    2.500    0.000    0.000    0.000    0.000 
#    0.000    0.000    0.000    0.000    0.000    0.000 
#
# Total GULP energy -357447.510297 kJ/mol
# GULP energy per Si atom -5585.117348 kJ/mol
# Density = 1.920334 g / cm^3
# Si number density = 19.247143 Si / 1000 Ang^3
#
#
#
# Elastic Constant Matrix: (Units=GPa)
#
#
# Indices 1 2 3 4 5 6 
#
# 1 52.2282 14.8726 -18.7675 0.0000 0.0000 0.0000
# 2 14.8726 86.6083 2.8969 0.0000 0.0000 0.0000
# 3 -18.7675 2.8969 40.9645 0.0000 0.0000 0.0000
# 4 0.0000 0.0000 0.0000 3.2742 0.0000 0.0000
# 5 0.0000 0.0000 0.0000 0.0000 13.1170 0.0000
# 6 0.0000 0.0000 0.0000 0.0000 0.0000 12.3335
#
#
#
# Elastic Compliance Matrix: (Units=1/GPa)
#
#
# Indices 1 2 3 4 5 6 
#
# 1 0.024635 -0.004619 0.011613 0.000000 0.000000 0.000000
# 2 -0.004619 0.012440 -0.002996 0.000000 0.000000 0.000000
# 3 0.011613 -0.002996 0.029944 0.000000 0.000000 0.000000
# 4 0.000000 0.000000 0.000000 0.305416 0.000000 0.000000
# 5 0.000000 0.000000 0.000000 0.000000 0.076237 0.000000
# 6 0.000000 0.000000 0.000000 0.000000 0.000000 0.081080
#
#
# Mechanical properties :
#
#
# Convention : Reuss Voigt Hill
#
# Bulk Modulus (GPa) = 13.33071 19.75612 16.54342
# Shear Modulus (GPa) = 9.14480 17.79823 13.47151
#
# Velocity S-wave (km/s) = 2.18210 3.04422 2.64848
# Velocity P-wave (km/s) = 3.64553 4.75848 4.23869
#
# Compressibility (1/GPa) = 0.07501474
#
# Stress axis : x y z
#
# Youngs Moduli (GPa) = 40.59278 80.38849 33.39615
#
# Poissons Ratio (x) = 0.37130 -0.38783
# Poissons Ratio (y) = 0.18749 0.10005
# Poissons Ratio (z) = -0.47140 0.24082
#
# Static dielectric constant tensor:
#      x y z
#    x 1.672690 0.000000 0.000000 
#    y 0.000000 1.677700 0.000000 
#    z 0.000000 0.000000 1.645880 
# 
# From -- ./inp_files/21506.got.cif
#   From: 2010.05.17/outbox.cif.g08.bks.cpg/sg58_11_cif.got.tgz:21506.got - 2010.06.03 14:20:14.
