data_PCOD9445897
_publ_section_title
;
Structure prediction by ZEFSAII (Michael W. Deem and Ramdas Pophale) SiO2 
 PCOD9445897
Probable space group: P N N M
;
_chemical_formula_sum "Si O2"
_cell_formula_units_Z 48
_cell_length_a 7.052245
_cell_length_b 16.967841
_cell_length_c 17.553124
_cell_angle_alpha 90.000000
_cell_angle_beta 90.000000
_cell_angle_gamma 90.000000
_cell_volume 2100.430898
_symmetry_space_group_name_H-M "P N N M"
_symmetry_group_IT_number 58
_symmetry_cell_setting 'orthorhombic'
loop_
_space_group_symop_operation_xyz
x,y,z
-x,-y,z
1/2+x,1/2-y,1/2-z
1/2-x,1/2+y,1/2-z
-x,-y,-z
x,y,-z
1/2-x,1/2+y,1/2+z
1/2+x,1/2-y,1/2+z
loop_
_atom_site_type_symbol
_atom_site_label
_atom_site_fract_x
_atom_site_fract_y
_atom_site_fract_z
Si Si1 0.673837 0.613340 0.500000
Si Si2 0.622968 0.670513 0.818679
Si Si3 0.614011 0.700557 0.350366
Si Si4 0.224486 0.565046 0.500000
Si Si5 0.677543 0.847713 0.150027
Si Si6 0.275045 0.476161 0.912569
Si Si7 0.681486 0.875686 0.680740
O O1 0.712692 0.663400 0.423775
O O2 0.446797 0.593075 0.500000
O O3 0.773131 0.528924 0.500000
O O4 0.700794 0.682281 0.732814
O O5 0.611687 0.757108 0.855229
O O6 0.735796 0.604862 0.865359
O O7 0.407595 0.640815 0.814313
O O8 0.405724 0.662703 0.347996
O O9 0.598924 0.794976 0.354006
O O10 0.135421 0.600601 0.423469
O O11 0.617268 0.883728 0.231382
O O12 0.500000 0.500000 0.913325
O O13 0.168100 0.547785 0.871274
O O14 0.217475 0.465581 0.000000
#
# Coordination Sequence:
#
# PCOD9445897 Si02
#       7
#     4   8   8   4   8   8   8
#     4   9  18  30  49  74  97 122 156 197 235 277
#     4   9  18  32  51  71  94 125 159 195 234 277
#     4   9  18  32  50  72  96 123 156 194 238 282
#     4   9  18  30  49  74  97 122 156 197 235 277
#     4   9  18  32  50  72  96 123 156 194 238 282
#     4   9  18  30  47  72  96 122 159 197 231 273
#     4   9  18  32  51  71  94 125 159 195 234 277
#
# _framework density 22.852452
#
# number of rings (size 3 to 8) (size 9 to 14) (size 15 to 20)
#    0.000    3.000    0.000    0.000    4.667    0.000 
#    0.000    0.833    0.000    3.000    0.000    0.000 
#    0.000    0.000    0.000    0.000    0.000    0.000 
#
# Total GULP energy -268350.487505 kJ/mol
# GULP energy per Si atom -5590.635156 kJ/mol
# Density = 2.280044 g / cm^3
# Si number density = 22.852452 Si / 1000 Ang^3
#
#
#
# Elastic Constant Matrix: (Units=GPa)
#
#
# Indices 1 2 3 4 5 6 
#
# 1 56.4571 3.1251 13.6451 0.0000 0.0000 0.0000
# 2 3.1251 150.3208 143.7804 0.0000 0.0000 0.0000
# 3 13.6451 143.7804 185.0951 0.0000 0.0000 0.0000
# 4 0.0000 0.0000 0.0000 30.4229 0.0000 0.0000
# 5 0.0000 0.0000 0.0000 0.0000 0.2677 0.0000
# 6 0.0000 0.0000 0.0000 0.0000 0.0000 32.0182
#
#
#
# Elastic Compliance Matrix: (Units=1/GPa)
#
#
# Indices 1 2 3 4 5 6 
#
# 1 0.018517 0.003582 -0.004148 0.000000 0.000000 0.000000
# 2 0.003582 0.026578 -0.020909 0.000000 0.000000 0.000000
# 3 -0.004148 -0.020909 0.021951 0.000000 0.000000 0.000000
# 4 0.000000 0.000000 0.000000 0.032870 0.000000 0.000000
# 5 0.000000 0.000000 0.000000 0.000000 3.735095 0.000000
# 6 0.000000 0.000000 0.000000 0.000000 0.000000 0.031232
#
#
# Mechanical properties :
#
#
# Convention : Reuss Voigt Hill
#
# Bulk Modulus (GPa) = 41.50164 79.21934 60.36049
# Shear Modulus (GPa) = 1.27641 27.96326 14.61984
#
# Velocity S-wave (km/s) = 0.74817 3.50186 2.53207
# Velocity P-wave (km/s) = 4.35275 7.14783 5.91768
#
# Compressibility (1/GPa) = 0.02409543
#
# Stress axis : x y z
#
# Youngs Moduli (GPa) = 54.00510 37.62576 45.55682
#
# Poissons Ratio (x) = -0.13479 0.18896
# Poissons Ratio (y) = -0.19347 0.95256
# Poissons Ratio (z) = 0.22400 0.78673
#
# Static dielectric constant tensor:
#      x y z
#    x 1.954530 0.000000 0.000000 
#    y 0.000000 1.777030 0.000000 
#    z 0.000000 0.000000 1.813240 
# 
# From -- ./inp_files/19876.got.cif
#   From: 2010.05.17/outbox.cif.g08.bks.cpg/sg58_10_cif.got.tgz:19876.got - 2010.06.03 14:20:14.
