data_PCOD9445189
_publ_section_title
;
Structure prediction by ZEFSAII (Michael W. Deem and Ramdas Pophale) SiO2 
 PCOD9445189
Probable space group: P N N M
;
_chemical_formula_sum "Si O2"
_cell_formula_units_Z 60
_cell_length_a 14.195084
_cell_length_b 10.333223
_cell_length_c 17.143678
_cell_angle_alpha 90.000000
_cell_angle_beta 90.000000
_cell_angle_gamma 90.000000
_cell_volume 2514.651292
_symmetry_space_group_name_H-M "P N N M"
_symmetry_group_IT_number 58
_symmetry_cell_setting 'orthorhombic'
loop_
_space_group_symop_operation_xyz
x,y,z
-x,-y,z
1/2+x,1/2-y,1/2-z
1/2-x,1/2+y,1/2-z
-x,-y,-z
x,y,-z
1/2-x,1/2+y,1/2+z
1/2+x,1/2-y,1/2+z
loop_
_atom_site_type_symbol
_atom_site_label
_atom_site_fract_x
_atom_site_fract_y
_atom_site_fract_z
Si Si1 0.000000 0.500000 0.332716
Si Si2 0.059281 0.754303 0.408208
Si Si3 0.288775 0.194080 0.199250
Si Si4 0.348569 0.694779 0.907629
Si Si5 0.596946 0.176356 0.701895
Si Si6 0.958590 0.196364 0.912814
Si Si7 0.835918 0.421821 0.859355
Si Si8 0.728860 0.541545 0.409332
O O1 0.948234 0.400470 0.390839
O O2 0.948406 0.598375 0.273332
O O3 0.074592 0.778275 0.500000
O O4 0.146074 0.788258 0.352358
O O5 0.957737 0.811522 0.383046
O O6 0.195045 0.263368 0.228409
O O7 0.345870 0.138794 0.272463
O O8 0.253914 0.074327 0.147371
O O9 0.274529 0.591339 0.875854
O O10 0.298779 0.835782 0.897307
O O11 0.352345 0.676245 0.000000
O O12 0.532781 0.279379 0.656168
O O13 0.623707 0.064640 0.639909
O O14 0.896073 0.327775 0.913394
O O15 0.878724 0.088971 0.896524
O O16 0.998779 0.175012 0.000000
O O17 0.737553 0.502976 0.500000
#
# Coordination Sequence:
#
# PCOD9445189 Si02
#       8
#     4   8   8   8   8   8   8   8
#     4  12  21  44  63  96 126 162 214 262 319 380
#     4  11  22  39  66  96 126 165 216 272 311 366
#     4  12  25  38  61  94 139 167 213 263 321 394
#     4   9  20  39  68  96 123 167 217 260 318 378
#     4  12  25  41  65  98 127 173 209 265 325 387
#     4  10  22  42  69  95 125 167 221 270 320 383
#     4  11  22  40  64  93 130 170 209 263 322 380
#     4   9  20  40  64  94 129 167 212 269 325 373
#
# _framework density 23.860166
#
# number of rings (size 3 to 8) (size 9 to 14) (size 15 to 20)
#    0.000    1.333    2.667    3.400    3.733    4.267 
#    0.000    2.000    2.933    1.600    0.000    0.000 
#    0.000    0.000    0.000    0.000    0.000    0.000 
#
# Total GULP energy -335572.214150 kJ/mol
# GULP energy per Si atom -5592.870236 kJ/mol
# Density = 2.380586 g / cm^3
# Si number density = 23.860166 Si / 1000 Ang^3
#
#
#
# Elastic Constant Matrix: (Units=GPa)
#
#
# Indices 1 2 3 4 5 6 
#
# 1 111.3116 -2.1620 37.0402 0.0000 0.0000 0.0000
# 2 -2.1620 28.8273 0.3204 0.0000 0.0000 0.0000
# 3 37.0402 0.3204 91.8547 0.0000 0.0000 0.0000
# 4 0.0000 0.0000 0.0000 20.0865 0.0000 0.0000
# 5 0.0000 0.0000 0.0000 0.0000 31.0649 0.0000
# 6 0.0000 0.0000 0.0000 0.0000 0.0000 117.0122
#
#
#
# Elastic Compliance Matrix: (Units=1/GPa)
#
#
# Indices 1 2 3 4 5 6 
#
# 1 0.010396 0.000826 -0.004195 0.000000 0.000000 0.000000
# 2 0.000826 0.034756 -0.000454 0.000000 0.000000 0.000000
# 3 -0.004195 -0.000454 0.012580 0.000000 0.000000 0.000000
# 4 0.000000 0.000000 0.000000 0.049785 0.000000 0.000000
# 5 0.000000 0.000000 0.000000 0.000000 0.032191 0.000000
# 6 0.000000 0.000000 0.000000 0.000000 0.000000 0.008546
#
#
# Mechanical properties :
#
#
# Convention : Reuss Voigt Hill
#
# Bulk Modulus (GPa) = 19.96568 33.59896 26.78232
# Shear Modulus (GPa) = 28.96953 46.75238 37.86095
#
# Velocity S-wave (km/s) = 3.48823 4.43135 3.98777
# Velocity P-wave (km/s) = 4.96081 6.34781 5.69668
#
# Compressibility (1/GPa) = 0.05008594
#
# Stress axis : x y z
#
# Youngs Moduli (GPa) = 96.19315 28.77168 79.49160
#
# Poissons Ratio (x) = -0.02377 0.33346
# Poissons Ratio (y) = -0.07948 0.03612
# Poissons Ratio (z) = 0.40352 0.01307
#
# Static dielectric constant tensor:
#      x y z
#    x 2.002010 0.000000 0.000000 
#    y 0.000000 1.882390 0.000000 
#    z 0.000000 0.000000 1.891150 
# 
# From -- ./inp_files/26979.got.cif
#   From: 2010.05.17/outbox.cif.g08.bks.cpg/sg58_14_cif.got.tgz:26979.got - 2010.06.03 14:20:14.
