data_PCOD9445034
_publ_section_title
;
Structure prediction by ZEFSAII (Michael W. Deem and Ramdas Pophale) SiO2 
 PCOD9445034
Probable space group: P N N M
;
_chemical_formula_sum "Si O2"
_cell_formula_units_Z 56
_cell_length_a 23.270134
_cell_length_b 14.535659
_cell_length_c 8.891205
_cell_angle_alpha 90.000000
_cell_angle_beta 90.000000
_cell_angle_gamma 90.000000
_cell_volume 3007.421041
_symmetry_space_group_name_H-M "P N N M"
_symmetry_group_IT_number 58
_symmetry_cell_setting 'orthorhombic'
loop_
_space_group_symop_operation_xyz
x,y,z
-x,-y,z
1/2+x,1/2-y,1/2-z
1/2-x,1/2+y,1/2-z
-x,-y,-z
x,y,-z
1/2-x,1/2+y,1/2+z
1/2+x,1/2-y,1/2+z
loop_
_atom_site_type_symbol
_atom_site_label
_atom_site_fract_x
_atom_site_fract_y
_atom_site_fract_z
Si Si1 0.273120 0.646465 0.168719
Si Si2 0.852461 0.394762 0.182751
Si Si3 0.767264 0.141103 0.830150
Si Si4 0.494763 0.391525 0.680860
Si Si5 0.617134 0.700165 0.179323
Si Si6 0.613389 0.295621 0.680770
Si Si7 0.849901 0.593689 0.819180
O O1 0.214844 0.602140 0.230040
O O2 0.253597 0.752958 0.159221
O O3 0.331726 0.647176 0.260898
O O4 0.283839 0.611304 0.000000
O O5 0.879586 0.304652 0.256661
O O6 0.877430 0.495188 0.222201
O O7 0.853579 0.383240 0.000000
O O8 0.827895 0.145416 0.745982
O O9 0.715130 0.095752 0.741162
O O10 0.773603 0.105008 0.000000
O O11 0.500000 0.500000 0.711124
O O12 0.487694 0.379900 0.500000
O O13 0.440508 0.347745 0.763183
O O14 0.553500 0.340550 0.727443
O O15 0.620587 0.702106 0.000000
O O16 0.615326 0.295976 0.500000
O O17 0.620189 0.188837 0.731560
O O18 0.847945 0.596108 0.000000
#
# Coordination Sequence:
#
# PCOD9445034 Si02
#       7
#     8   8   8   8   8   8   8
#     4   8  15  28  47  71 100 134 166 200 248 301
#     4   9  18  33  53  79 112 145 173 208 261 320
#     4   9  17  31  51  75 106 142 174 209 259 313
#     4  10  22  40  58  75  99 135 178 223 273 327
#     4  11  22  36  55  78 105 139 181 228 270 312
#     4   9  18  33  53  76 102 134 173 217 262 310
#     4   9  17  31  53  82 112 140 174 216 261 316
#
# _framework density 18.620604
#
# number of rings (size 3 to 8) (size 9 to 14) (size 15 to 20)
#    0.000    2.714    0.000    2.571    0.000    6.000 
#    0.000    3.571    0.000    4.286    0.000    0.000 
#    0.000    0.000    0.000    0.000    0.000    0.000 
#
# Total GULP energy -312061.501261 kJ/mol
# GULP energy per Si atom -5572.526808 kJ/mol
# Density = 1.857822 g / cm^3
# Si number density = 18.620604 Si / 1000 Ang^3
#
#
#
# Elastic Constant Matrix: (Units=GPa)
#
#
# Indices 1 2 3 4 5 6 
#
# 1 123.3795 46.0753 41.8673 0.0000 0.0000 0.0000
# 2 46.0753 101.4994 27.8205 0.0000 0.0000 0.0000
# 3 41.8673 27.8205 28.1275 0.0000 0.0000 0.0000
# 4 0.0000 0.0000 0.0000 11.8603 0.0000 0.0000
# 5 0.0000 0.0000 0.0000 0.0000 28.7134 0.0000
# 6 0.0000 0.0000 0.0000 0.0000 0.0000 18.7473
#
#
#
# Elastic Compliance Matrix: (Units=1/GPa)
#
#
# Indices 1 2 3 4 5 6 
#
# 1 0.016456 -0.001038 -0.023469 0.000000 0.000000 0.000000
# 2 -0.001038 0.013582 -0.011889 0.000000 0.000000 0.000000
# 3 -0.023469 -0.011889 0.082244 0.000000 0.000000 0.000000
# 4 0.000000 0.000000 0.000000 0.084315 0.000000 0.000000
# 5 0.000000 0.000000 0.000000 0.000000 0.034827 0.000000
# 6 0.000000 0.000000 0.000000 0.000000 0.000000 0.053341
#
#
# Mechanical properties :
#
#
# Convention : Reuss Voigt Hill
#
# Bulk Modulus (GPa) = 25.32177 53.83695 39.57936
# Shear Modulus (GPa) = 13.48723 21.01375 17.25049
#
# Velocity S-wave (km/s) = 2.69423 3.36299 3.04702
# Velocity P-wave (km/s) = 4.82772 6.63739 5.80352
#
# Compressibility (1/GPa) = 0.03949172
#
# Stress axis : x y z
#
# Youngs Moduli (GPa) = 60.76670 73.62629 12.15889
#
# Poissons Ratio (x) = 0.07640 0.28535
# Poissons Ratio (y) = 0.06306 0.14456
# Poissons Ratio (z) = 1.42611 0.87536
#
# Static dielectric constant tensor:
#      x y z
#    x 1.614380 0.000000 0.000000 
#    y 0.000000 1.693920 0.000000 
#    z 0.000000 0.000000 1.642680 
# 
# From -- ./inp_files/9084.got.cif
#   From: 2010.05.17/outbox.cif.g08.bks.cpg/sg58_5_cif.got.tgz:9084.got - 2010.06.03 14:20:14.
