data_PCOD9445244
_publ_section_title
;
Structure prediction by ZEFSAII (Michael W. Deem and Ramdas Pophale) SiO2 
 PCOD9445244
Probable space group: P N N M
;
_chemical_formula_sum "Si O2"
_cell_formula_units_Z 32
_cell_length_a 5.088044
_cell_length_b 10.837317
_cell_length_c 25.424922
_cell_angle_alpha 90.000000
_cell_angle_beta 90.000000
_cell_angle_gamma 90.000000
_cell_volume 1401.949159
_symmetry_space_group_name_H-M "P N N M"
_symmetry_group_IT_number 58
_symmetry_cell_setting 'orthorhombic'
loop_
_space_group_symop_operation_xyz
x,y,z
-x,-y,z
1/2+x,1/2-y,1/2-z
1/2-x,1/2+y,1/2-z
-x,-y,-z
x,y,-z
1/2-x,1/2+y,1/2+z
1/2+x,1/2-y,1/2+z
loop_
_atom_site_type_symbol
_atom_site_label
_atom_site_fract_x
_atom_site_fract_y
_atom_site_fract_z
Si Si1 0.256484 0.416112 0.768810
Si Si2 0.875383 0.864952 0.587586
Si Si3 0.559522 0.724544 0.666174
Si Si4 0.110016 0.226272 0.056732
O O1 0.500000 0.500000 0.785018
O O2 0.334469 0.358085 0.712820
O O3 0.168984 0.309648 0.809281
O O4 0.000000 0.500000 0.762265
O O5 0.786901 0.814759 0.644542
O O6 0.597356 0.841395 0.558394
O O7 0.096284 0.776598 0.563142
O O8 0.000000 0.000000 0.587186
O O9 0.461531 0.660418 0.612043
O O10 0.079602 0.163779 0.000000
#
# Coordination Sequence:
#
# PCOD9445244 Si02
#       4
#     8   8   8   8
#     4  12  28  44  72 100 134 186 230 279 353 405
#     4  10  23  38  61  94 133 176 215 270 336 405
#     4  10  28  44  66  98 142 167 228 285 327 408
#     4  10  23  40  65  94 135 179 219 273 340 403
#
# _framework density 22.825365000000001
#
# number of rings (size 3 to 8) (size 9 to 14) (size 15 to 20)
#    1.500    0.000    0.000    3.000   14.000    3.000 
#    0.000    0.000    0.000    1.500    0.000    0.000 
#    0.000    0.000    0.000    0.000    0.000    0.000 
#
# Total GULP energy -178509.419733 kJ/mol
# GULP energy per Si atom -5578.419367 kJ/mol
# Density = 2.277341 g / cm^3
# Si number density = 22.825365 Si / 1000 Ang^3
#
#
#
# Elastic Constant Matrix: (Units=GPa)
#
#
# Indices 1 2 3 4 5 6 
#
# 1 141.8571 13.0291 43.8350 0.0000 0.0000 0.0000
# 2 13.0291 26.4745 30.9439 0.0000 0.0000 0.0000
# 3 43.8350 30.9439 186.0013 0.0000 0.0000 0.0000
# 4 0.0000 0.0000 0.0000 -4.2435 0.0000 0.0000
# 5 0.0000 0.0000 0.0000 0.0000 -178.5822 0.0000
# 6 0.0000 0.0000 0.0000 0.0000 0.0000 15.6118
#
#
#
# Elastic Compliance Matrix: (Units=1/GPa)
#
#
# Indices 1 2 3 4 5 6 
#
# 1 0.007693 -0.002069 -0.001469 0.000000 0.000000 0.000000
# 2 -0.002069 0.047447 -0.007406 0.000000 0.000000 0.000000
# 3 -0.001469 -0.007406 0.006955 0.000000 0.000000 0.000000
# 4 0.000000 0.000000 0.000000 -0.235655 0.000000 0.000000
# 5 0.000000 0.000000 0.000000 0.000000 -0.005600 0.000000
# 6 0.000000 0.000000 0.000000 0.000000 0.000000 0.064054
#
#
# Mechanical properties :
#
#
# Convention : Reuss Voigt Hill
#
# Bulk Modulus (GPa) = 24.87156 58.88321 41.87739
# Shear Modulus (GPa) = -62.64436 -15.67447 -39.15941
#
# Velocity S-wave (km/s) = -5.24449 -2.62336 -4.14649
# Velocity P-wave (km/s) = 5.07472 4.08378 2.13020
#
# Compressibility (1/GPa) = 0.04020657
#
# Stress axis : x y z
#
# Youngs Moduli (GPa) = 129.98345 21.07633 143.79174
#
# Poissons Ratio (x) = 0.04362 0.21120
# Poissons Ratio (y) = 0.26899 1.06488
# Poissons Ratio (z) = 0.19092 0.15609
#
# Static dielectric constant tensor:
#      x y z
#    x 2.013270 0.000000 0.000000 
#    y 0.000000 1.863820 0.000000 
#    z 0.000000 0.000000 1.920720 
# 
# From -- ./inp_files/30760.got.cif
#   From: 2010.05.17/outbox.cif.g08.bks.cpg/sg58_16_cif.got.tgz:30760.got - 2010.06.03 14:20:14.
