data_PCOD9445379
_publ_section_title
;
Structure prediction by ZEFSAII (Michael W. Deem and Ramdas Pophale) SiO2 
 PCOD9445379
Probable space group: P N N M
;
_chemical_formula_sum "Si O2"
_cell_formula_units_Z 64
_cell_length_a 16.195865
_cell_length_b 9.936499
_cell_length_c 22.517162
_cell_angle_alpha 90.000000
_cell_angle_beta 90.000000
_cell_angle_gamma 90.000000
_cell_volume 3623.691303
_symmetry_space_group_name_H-M "P N N M"
_symmetry_group_IT_number 58
_symmetry_cell_setting 'orthorhombic'
loop_
_space_group_symop_operation_xyz
x,y,z
-x,-y,z
1/2+x,1/2-y,1/2-z
1/2-x,1/2+y,1/2-z
-x,-y,-z
x,y,-z
1/2-x,1/2+y,1/2+z
1/2+x,1/2-y,1/2+z
loop_
_atom_site_type_symbol
_atom_site_label
_atom_site_fract_x
_atom_site_fract_y
_atom_site_fract_z
Si Si1 0.413542 0.706287 0.764988
Si Si2 0.218969 0.671197 0.930611
Si Si3 0.895115 0.198254 0.734846
Si Si4 0.792235 0.995582 0.666741
Si Si5 0.703173 0.579568 0.350587
Si Si6 0.154993 0.499263 0.734974
Si Si7 0.571055 0.389329 0.365088
Si Si8 0.478930 0.146701 0.430021
O O1 0.508787 0.664481 0.772915
O O2 0.350324 0.622028 0.805357
O O3 0.395910 0.667538 0.697001
O O4 0.399282 0.865370 0.771514
O O5 0.265405 0.547222 0.898921
O O6 0.238088 0.802982 0.891794
O O7 0.119454 0.661825 0.924648
O O8 0.238828 0.681842 0.000000
O O9 0.853921 0.143239 0.796744
O O10 0.889777 0.358686 0.734948
O O11 0.842443 0.130551 0.682108
O O12 0.708264 0.005503 0.704623
O O13 0.777220 0.506152 0.317165
O O14 0.647459 0.477188 0.388905
O O15 0.500000 0.500000 0.355895
O O16 0.530037 0.266759 0.400247
O O17 0.499734 0.147254 0.500000
O O18 0.500000 0.000000 0.404351
#
# Coordination Sequence:
#
# PCOD9445379 Si02
#       8
#     8   8   8   8   8   8   8   8
#     4  12  21  35  56  85 119 150 181 238 298 358
#     4  11  22  39  60  82 117 161 202 240 284 349
#     4  11  21  35  56  86 119 148 186 240 300 355
#     4  11  21  37  56  83 116 151 190 242 290 340
#     4  11  21  37  53  87 118 150 196 236 288 348
#     4  11  22  34  56  85 120 146 187 235 301 348
#     4  12  21  34  57  82 117 156 194 233 286 344
#     4  10  24  40  54  80 117 156 201 242 279 337
#
# _framework density 17.661548
#
# number of rings (size 3 to 8) (size 9 to 14) (size 15 to 20)
#    0.000    0.875    7.500    1.500    1.750    0.750 
#    0.000    0.000    0.000    2.250    0.000    0.875 
#    0.000    0.000    0.000    0.000    0.000    0.000 
#
# Total GULP energy -357158.829333 kJ/mol
# GULP energy per Si atom -5580.606708 kJ/mol
# Density = 1.762135 g / cm^3
# Si number density = 17.661548 Si / 1000 Ang^3
#
#
#
# Elastic Constant Matrix: (Units=GPa)
#
#
# Indices 1 2 3 4 5 6 
#
# 1 49.1961 8.5677 15.5788 0.0000 0.0000 0.0000
# 2 8.5677 95.5256 6.5669 0.0000 0.0000 0.0000
# 3 15.5788 6.5669 63.4957 0.0000 0.0000 0.0000
# 4 0.0000 0.0000 0.0000 20.6405 0.0000 0.0000
# 5 0.0000 0.0000 0.0000 0.0000 14.8858 0.0000
# 6 0.0000 0.0000 0.0000 0.0000 0.0000 31.1834
#
#
#
# Elastic Compliance Matrix: (Units=1/GPa)
#
#
# Indices 1 2 3 4 5 6 
#
# 1 0.022290 -0.001635 -0.005300 0.000000 0.000000 0.000000
# 2 -0.001635 0.010663 -0.000702 0.000000 0.000000 0.000000
# 3 -0.005300 -0.000702 0.017122 0.000000 0.000000 0.000000
# 4 0.000000 0.000000 0.000000 0.048448 0.000000 0.000000
# 5 0.000000 0.000000 0.000000 0.000000 0.067178 0.000000
# 6 0.000000 0.000000 0.000000 0.000000 0.000000 0.032068
#
#
# Mechanical properties :
#
#
# Convention : Reuss Voigt Hill
#
# Bulk Modulus (GPa) = 28.73366 29.96047 29.34706
# Shear Modulus (GPa) = 22.25752 25.17555 23.71654
#
# Velocity S-wave (km/s) = 3.55382 3.77960 3.66845
# Velocity P-wave (km/s) = 5.75707 6.00397 5.88182
#
# Compressibility (1/GPa) = 0.03480239
#
# Stress axis : x y z
#
# Youngs Moduli (GPa) = 44.86360 93.77989 58.40446
#
# Poissons Ratio (x) = 0.15331 0.30953
# Poissons Ratio (y) = 0.07334 0.04098
# Poissons Ratio (z) = 0.23777 0.06581
#
# Static dielectric constant tensor:
#      x y z
#    x 1.613020 0.000000 0.000000 
#    y 0.000000 1.652800 0.000000 
#    z 0.000000 0.000000 1.681300 
# 
# From -- ./inp_files/30261.got.cif
#   From: 2010.05.17/outbox.cif.g08.bks.cpg/sg58_16_cif.got.tgz:30261.got - 2010.06.03 14:20:14.
