data_PCOD9445852
_publ_section_title
;
Structure prediction by ZEFSAII (Michael W. Deem and Ramdas Pophale) SiO2 
 PCOD9445852
Probable space group: P N N M
;
_chemical_formula_sum "Si O2"
_cell_formula_units_Z 32
_cell_length_a 7.366212
_cell_length_b 10.033751
_cell_length_c 16.734655
_cell_angle_alpha 90.000000
_cell_angle_beta 90.000000
_cell_angle_gamma 90.000000
_cell_volume 1236.870685
_symmetry_space_group_name_H-M "P N N M"
_symmetry_group_IT_number 58
_symmetry_cell_setting 'orthorhombic'
loop_
_space_group_symop_operation_xyz
x,y,z
-x,-y,z
1/2+x,1/2-y,1/2-z
1/2-x,1/2+y,1/2-z
-x,-y,-z
x,y,-z
1/2-x,1/2+y,1/2+z
1/2+x,1/2-y,1/2+z
loop_
_atom_site_type_symbol
_atom_site_label
_atom_site_fract_x
_atom_site_fract_y
_atom_site_fract_z
Si Si1 0.761510 0.945095 0.724557
Si Si2 0.349021 0.343924 0.091945
Si Si3 0.490209 0.286449 0.651549
Si Si4 0.128911 0.387577 0.372789
O O1 0.623527 0.832015 0.693837
O O2 0.326679 0.946930 0.784862
O O3 0.821335 0.028361 0.647659
O O4 0.913992 0.873441 0.779006
O O5 0.508805 0.245436 0.121633
O O6 0.158183 0.266238 0.100794
O O7 0.380916 0.376401 0.000000
O O8 0.334621 0.360493 0.599979
O O9 0.000000 0.500000 0.410858
#
# Coordination Sequence:
#
# PCOD9445852 Si02
#       4
#     8   8   8   8
#     4  12  27  50  85 123 163 223 290 350 415 517
#     4  12  31  54  83 128 174 219 277 361 440 492
#     4  12  28  47  84 121 166 216 289 350 422 510
#     4  12  27  48  84 118 163 226 290 344 415 515
#
# _framework density 25.871745000000001
#
# number of rings (size 3 to 8) (size 9 to 14) (size 15 to 20)
#    0.000    0.000    2.500    6.000   10.500    3.500 
#    0.000    2.500    0.000    1.500    0.000    0.000 
#    0.000    0.000    0.000    0.000    0.000    0.000 
#
# Total GULP energy -179373.555596 kJ/mol
# GULP energy per Si atom -5605.423612 kJ/mol
# Density = 2.581286 g / cm^3
# Si number density = 25.871745 Si / 1000 Ang^3
#
#
#
# Elastic Constant Matrix: (Units=GPa)
#
#
# Indices 1 2 3 4 5 6 
#
# 1 247.7788 80.6277 60.1165 0.0000 0.0000 0.0000
# 2 80.6277 182.3792 91.0934 0.0000 0.0000 0.0000
# 3 60.1165 91.0934 188.5777 0.0000 0.0000 0.0000
# 4 0.0000 0.0000 0.0000 -4.0435 0.0000 0.0000
# 5 0.0000 0.0000 0.0000 0.0000 -3.7146 0.0000
# 6 0.0000 0.0000 0.0000 0.0000 0.0000 75.6014
#
#
#
# Elastic Compliance Matrix: (Units=1/GPa)
#
#
# Indices 1 2 3 4 5 6 
#
# 1 0.004776 -0.001781 -0.000662 0.000000 0.000000 0.000000
# 2 -0.001781 0.007890 -0.003244 0.000000 0.000000 0.000000
# 3 -0.000662 -0.003244 0.007081 0.000000 0.000000 0.000000
# 4 0.000000 0.000000 0.000000 -0.247308 0.000000 0.000000
# 5 0.000000 0.000000 0.000000 0.000000 -0.269207 0.000000
# 6 0.000000 0.000000 0.000000 0.000000 0.000000 0.013227
#
#
# Mechanical properties :
#
#
# Convention : Reuss Voigt Hill
#
# Bulk Modulus (GPa) = 119.42151 120.26787 119.84469
# Shear Modulus (GPa) = -10.65248 39.36186 14.35469
#
# Velocity S-wave (km/s) = -2.03134 3.90477 2.35806
# Velocity P-wave (km/s) = 6.38416 8.18027 7.33738
#
# Compressibility (1/GPa) = 0.00837370
#
# Stress axis : x y z
#
# Youngs Moduli (GPa) = 209.38173 126.73495 141.22251
#
# Poissons Ratio (x) = 0.22566 0.09355
# Poissons Ratio (y) = 0.37281 0.45812
# Poissons Ratio (z) = 0.13870 0.41112
#
# Static dielectric constant tensor:
#      x y z
#    x 2.133860 0.000000 0.000000 
#    y 0.000000 2.095210 0.000000 
#    z 0.000000 0.000000 1.970790 
# 
# From -- ./inp_files/18281.got.cif
#   From: 2010.05.17/outbox.cif.g08.bks.cpg/sg58_10_cif.got.tgz:18281.got - 2010.06.03 14:20:14.
