data_PCOD9445599
_publ_section_title
;
Structure prediction by ZEFSAII (Michael W. Deem and Ramdas Pophale) SiO2 
 PCOD9445599
Probable space group: P N N M
;
_chemical_formula_sum "Si O2"
_cell_formula_units_Z 52
_cell_length_a 10.034428
_cell_length_b 17.287612
_cell_length_c 15.867978
_cell_angle_alpha 90.000000
_cell_angle_beta 90.000000
_cell_angle_gamma 90.000000
_cell_volume 2752.638739
_symmetry_space_group_name_H-M "P N N M"
_symmetry_group_IT_number 58
_symmetry_cell_setting 'orthorhombic'
loop_
_space_group_symop_operation_xyz
x,y,z
-x,-y,z
1/2+x,1/2-y,1/2-z
1/2-x,1/2+y,1/2-z
-x,-y,-z
x,y,-z
1/2-x,1/2+y,1/2+z
1/2+x,1/2-y,1/2+z
loop_
_atom_site_type_symbol
_atom_site_label
_atom_site_fract_x
_atom_site_fract_y
_atom_site_fract_z
Si Si1 0.169614 0.693263 0.096595
Si Si2 0.500000 0.500000 0.186564
Si Si3 0.906540 0.425866 0.590251
Si Si4 0.080119 0.285874 0.357690
Si Si5 0.714799 0.387924 0.261176
Si Si6 0.385002 0.352048 0.099802
Si Si7 0.882213 0.722315 0.830507
O O1 0.275612 0.763310 0.106602
O O2 0.216264 0.635684 0.171917
O O3 0.018921 0.718568 0.117449
O O4 0.179363 0.663954 0.000000
O O5 0.598390 0.447694 0.241383
O O6 0.416774 0.438166 0.131571
O O7 0.832431 0.425424 0.500000
O O8 0.815326 0.423904 0.671925
O O9 0.000000 0.500000 0.592775
O O10 0.999267 0.350216 0.593350
O O11 0.092873 0.313962 0.261671
O O12 0.991308 0.207658 0.359654
O O13 0.663158 0.309207 0.306076
O O14 0.239005 0.321798 0.124964
O O15 0.402652 0.347801 0.000000
#
# Coordination Sequence:
#
# PCOD9445599 Si02
#       7
#     8   4   8   8   8   8   8
#     4  11  22  38  66 103 131 166 219 276 332 397
#     4  12  27  42  67 100 140 182 220 278 356 400
#     4  11  24  42  66  95 128 175 232 284 333 394
#     4  11  21  41  68  92 129 173 225 275 324 400
#     4  11  25  42  66  96 136 179 218 283 332 413
#     4  12  24  42  69  99 133 181 232 277 335 413
#     4  11  22  41  65  95 132 175 222 275 332 397
#
# _framework density 18.890964
#
# number of rings (size 3 to 8) (size 9 to 14) (size 15 to 20)
#    0.000    0.769    6.154    3.000    2.154    1.231 
#    0.000    0.385    0.000    2.308    0.000    0.000 
#    0.000    0.000    0.000    0.000    0.000    0.000 
#
# Total GULP energy -290388.339020 kJ/mol
# GULP energy per Si atom -5584.391135 kJ/mol
# Density = 1.884797 g / cm^3
# Si number density = 18.890964 Si / 1000 Ang^3
#
#
#
# Elastic Constant Matrix: (Units=GPa)
#
#
# Indices 1 2 3 4 5 6 
#
# 1 125.0859 27.4547 38.2349 0.0000 0.0000 0.0000
# 2 27.4547 82.6540 11.9545 0.0000 0.0000 0.0000
# 3 38.2349 11.9545 120.1657 0.0000 0.0000 0.0000
# 4 0.0000 0.0000 0.0000 15.4111 0.0000 0.0000
# 5 0.0000 0.0000 0.0000 0.0000 -4.2556 0.0000
# 6 0.0000 0.0000 0.0000 0.0000 0.0000 23.7394
#
#
#
# Elastic Compliance Matrix: (Units=1/GPa)
#
#
# Indices 1 2 3 4 5 6 
#
# 1 0.009429 -0.002737 -0.002728 0.000000 0.000000 0.000000
# 2 -0.002737 0.013070 -0.000429 0.000000 0.000000 0.000000
# 3 -0.002728 -0.000429 0.009233 0.000000 0.000000 0.000000
# 4 0.000000 0.000000 0.000000 0.064888 0.000000 0.000000
# 5 0.000000 0.000000 0.000000 0.000000 -0.234985 0.000000
# 6 0.000000 0.000000 0.000000 0.000000 0.000000 0.042124
#
#
# Mechanical properties :
#
#
# Convention : Reuss Voigt Hill
#
# Bulk Modulus (GPa) = 50.14415 53.68818 51.91616
# Shear Modulus (GPa) = -64.26411 23.66308 -20.30051
#
# Velocity S-wave (km/s) = -5.83886 3.54307 -3.28169
# Velocity P-wave (km/s) = 4.34221 6.72455 3.63075
#
# Compressibility (1/GPa) = 0.01994251
#
# Stress axis : x y z
#
# Youngs Moduli (GPa) = 106.05371 76.51104 108.31286
#
# Poissons Ratio (x) = 0.20945 0.29547
# Poissons Ratio (y) = 0.29032 0.04649
# Poissons Ratio (z) = 0.28930 0.03284
#
# Static dielectric constant tensor:
#      x y z
#    x 1.668830 0.000000 0.000000 
#    y 0.000000 1.640030 0.000000 
#    z 0.000000 0.000000 1.683650 
# 
# From -- ./inp_files/25476.got.cif
#   From: 2010.05.17/outbox.cif.g08.bks.cpg/sg58_13_cif.got.tgz:25476.got - 2010.06.03 14:20:14.
