data_PCOD9445750
_publ_section_title
;
Structure prediction by ZEFSAII (Michael W. Deem and Ramdas Pophale) SiO2 
 PCOD9445750
Probable space group: P N N M
;
_chemical_formula_sum "Si O2"
_cell_formula_units_Z 28
_cell_length_a 5.588676
_cell_length_b 7.129874
_cell_length_c 28.866334
_cell_angle_alpha 90.000000
_cell_angle_beta 90.000000
_cell_angle_gamma 90.000000
_cell_volume 1150.223986
_symmetry_space_group_name_H-M "P N N M"
_symmetry_group_IT_number 58
_symmetry_cell_setting 'orthorhombic'
loop_
_space_group_symop_operation_xyz
x,y,z
-x,-y,z
1/2+x,1/2-y,1/2-z
1/2-x,1/2+y,1/2-z
-x,-y,-z
x,y,-z
1/2-x,1/2+y,1/2+z
1/2+x,1/2-y,1/2+z
loop_
_atom_site_type_symbol
_atom_site_label
_atom_site_fract_x
_atom_site_fract_y
_atom_site_fract_z
Si Si1 0.094463 0.792169 0.300102
Si Si2 0.018330 0.227627 0.600587
Si Si3 0.483616 0.772728 0.553908
Si Si4 0.000000 0.500000 0.220594
O O1 0.963701 0.719818 0.345174
O O2 0.103003 0.650975 0.257690
O O3 0.360021 0.858830 0.312838
O O4 0.000000 0.000000 0.286085
O O5 0.763912 0.287538 0.578726
O O6 0.260902 0.287997 0.575117
O O7 0.000000 0.000000 0.600140
O O8 0.469372 0.720672 0.500000
O O9 0.500000 0.000000 0.556071
#
# Coordination Sequence:
#
# PCOD9445750 Si02
#       4
#     8   8   8   4
#     4  11  24  39  62  89 126 162 213 259 320 369
#     4   9  19  30  51  80 116 157 196 255 305 370
#     4   9  16  29  49  79 115 153 197 248 308 370
#     4  12  24  42  62  92 120 174 210 270 312 386
#
# _framework density 24.343083
#
# number of rings (size 3 to 8) (size 9 to 14) (size 15 to 20)
#    0.000    2.000    2.857    0.857   10.000    3.429 
#    0.000    0.000    0.000    0.000    0.000    6.000 
#    0.000    0.000    0.000    0.000    0.000    0.000 
#
# Total GULP energy -156082.869380 kJ/mol
# GULP energy per Si atom -5574.388192 kJ/mol
# Density = 2.428768 g / cm^3
# Si number density = 24.343083 Si / 1000 Ang^3
#
#
#
# Elastic Constant Matrix: (Units=GPa)
#
#
# Indices 1 2 3 4 5 6 
#
# 1 148.5171 10.7081 63.5268 0.0000 0.0000 0.0000
# 2 10.7081 112.9041 9.9459 0.0000 0.0000 0.0000
# 3 63.5268 9.9459 99.4695 0.0000 0.0000 0.0000
# 4 0.0000 0.0000 0.0000 57.6837 0.0000 0.0000
# 5 0.0000 0.0000 0.0000 0.0000 37.2737 0.0000
# 6 0.0000 0.0000 0.0000 0.0000 0.0000 -5.8387
#
#
#
# Elastic Compliance Matrix: (Units=1/GPa)
#
#
# Indices 1 2 3 4 5 6 
#
# 1 0.009279 -0.000361 -0.005890 0.000000 0.000000 0.000000
# 2 -0.000361 0.008950 -0.000664 0.000000 0.000000 0.000000
# 3 -0.005890 -0.000664 0.013881 0.000000 0.000000 0.000000
# 4 0.000000 0.000000 0.000000 0.017336 0.000000 0.000000
# 5 0.000000 0.000000 0.000000 0.000000 0.026829 0.000000
# 6 0.000000 0.000000 0.000000 0.000000 0.000000 -0.171272
#
#
# Mechanical properties :
#
#
# Convention : Reuss Voigt Hill
#
# Bulk Modulus (GPa) = 54.70625 58.80581 56.75603
# Shear Modulus (GPa) = -66.60033 36.27108 -15.16463
#
# Velocity S-wave (km/s) = -5.23626 3.86423 -2.49861
# Velocity P-wave (km/s) = 3.74648 6.64223 3.87835
#
# Compressibility (1/GPa) = 0.01827945
#
# Stress axis : x y z
#
# Youngs Moduli (GPa) = 107.77579 111.73387 72.03978
#
# Poissons Ratio (x) = 0.04035 0.42429
# Poissons Ratio (y) = 0.03892 0.04785
# Poissons Ratio (z) = 0.63476 0.07422
#
# Static dielectric constant tensor:
#      x y z
#    x 5.577340 0.000000 0.000000 
#    y 0.000000 1.917390 0.000000 
#    z 0.000000 0.000000 1.862950 
# 
# From -- ./inp_files/32572.got.cif
#   From: 2010.05.17/outbox.cif.g08.bks.cpg/sg58_17_cif.got.tgz:32572.got - 2010.06.03 14:20:14.
