data_PCOD9445840
_publ_section_title
;
Structure prediction by ZEFSAII (Michael W. Deem and Ramdas Pophale) SiO2 
 PCOD9445840
Probable space group: P N N M
;
_chemical_formula_sum "Si O2"
_cell_formula_units_Z 44
_cell_length_a 9.699574
_cell_length_b 7.086058
_cell_length_c 29.931532
_cell_angle_alpha 90.000000
_cell_angle_beta 90.000000
_cell_angle_gamma 90.000000
_cell_volume 2057.246393
_symmetry_space_group_name_H-M "P N N M"
_symmetry_group_IT_number 58
_symmetry_cell_setting 'orthorhombic'
loop_
_space_group_symop_operation_xyz
x,y,z
-x,-y,z
1/2+x,1/2-y,1/2-z
1/2-x,1/2+y,1/2-z
-x,-y,-z
x,y,-z
1/2-x,1/2+y,1/2+z
1/2+x,1/2-y,1/2+z
loop_
_atom_site_type_symbol
_atom_site_label
_atom_site_fract_x
_atom_site_fract_y
_atom_site_fract_z
Si Si1 0.804166 0.744315 0.385435
Si Si2 0.968049 0.227002 0.550655
Si Si3 0.537275 0.696686 0.340640
Si Si4 0.000000 0.500000 0.773374
Si Si5 0.239012 0.808233 0.371954
Si Si6 0.494413 0.275760 0.195439
O O1 0.888807 0.693807 0.429512
O O2 0.658203 0.652631 0.375433
O O3 0.906395 0.710132 0.344304
O O4 0.777631 0.968967 0.381686
O O5 0.938107 0.281254 0.500000
O O6 0.846434 0.272236 0.585840
O O7 0.000000 0.000000 0.551214
O O8 0.500000 0.500000 0.316758
O O9 0.398813 0.765077 0.365059
O O10 0.584572 0.864291 0.307136
O O11 0.045565 0.340118 0.738267
O O12 0.158524 0.749415 0.326181
O O13 0.500000 0.500000 0.202832
#
# Coordination Sequence:
#
# PCOD9445840 Si02
#       6
#     8   8   8   4   8   8
#     4   9  18  39  60  83 124 155 188 242 301 345
#     4   8  15  32  68 101 115 145 195 238 286 361
#     4  12  25  39  55  83 118 167 197 240 296 344
#     4  12  24  40  58  82 116 156 210 250 286 344
#     4   9  18  39  60  83 124 155 188 242 301 345
#     4   9  21  39  59  83 111 155 200 251 293 338
#
# _framework density 21.387812
#
# number of rings (size 3 to 8) (size 9 to 14) (size 15 to 20)
#    0.000    2.364    1.818    2.727    2.545    1.455 
#    0.000    0.909    0.000    7.636    0.000    0.000 
#    0.000    0.000    0.000    0.000    0.000    0.000 
#
# Total GULP energy -245135.059434 kJ/mol
# GULP energy per Si atom -5571.251351 kJ/mol
# Density = 2.133913 g / cm^3
# Si number density = 21.387812 Si / 1000 Ang^3
#
#
#
# Elastic Constant Matrix: (Units=GPa)
#
#
# Indices 1 2 3 4 5 6 
#
# 1 117.0289 -13.1014 37.4238 0.0000 0.0000 0.0000
# 2 -13.1014 84.1401 16.3959 0.0000 0.0000 0.0000
# 3 37.4238 16.3959 119.5136 0.0000 0.0000 0.0000
# 4 0.0000 0.0000 0.0000 -6.6569 0.0000 0.0000
# 5 0.0000 0.0000 0.0000 0.0000 2.0283 0.0000
# 6 0.0000 0.0000 0.0000 0.0000 0.0000 8.3300
#
#
#
# Elastic Compliance Matrix: (Units=1/GPa)
#
#
# Indices 1 2 3 4 5 6 
#
# 1 0.009877 0.002199 -0.003394 0.000000 0.000000 0.000000
# 2 0.002199 0.012701 -0.002431 0.000000 0.000000 0.000000
# 3 -0.003394 -0.002431 0.009764 0.000000 0.000000 0.000000
# 4 0.000000 0.000000 0.000000 -0.150219 0.000000 0.000000
# 5 0.000000 0.000000 0.000000 0.000000 0.493035 0.000000
# 6 0.000000 0.000000 0.000000 0.000000 0.000000 0.120048
#
#
# Mechanical properties :
#
#
# Convention : Reuss Voigt Hill
#
# Bulk Modulus (GPa) = 39.85818 44.67991 42.26904
# Shear Modulus (GPa) = 9.78818 19.40456 14.59637
#
# Velocity S-wave (km/s) = 2.14160 3.01536 2.61523
# Velocity P-wave (km/s) = 4.97912 5.74969 5.37822
#
# Compressibility (1/GPa) = 0.02508895
#
# Stress axis : x y z
#
# Youngs Moduli (GPa) = 101.24954 78.73314 102.42039
#
# Poissons Ratio (x) = -0.17316 0.34766
# Poissons Ratio (y) = -0.22268 0.24900
# Poissons Ratio (z) = 0.34368 0.19141
#
# Static dielectric constant tensor:
#      x y z
#    x 1.789890 0.000000 0.000000 
#    y 0.000000 1.918740 0.000000 
#    z 0.000000 0.000000 1.762360 
# 
# From -- ./inp_files/34467.got.cif
#   From: 2010.05.17/outbox.cif.g08.bks.cpg/sg58_18_cif.got.tgz:34467.got - 2010.06.03 14:20:14.
