data_PCOD9445798
_publ_section_title
;
Structure prediction by ZEFSAII (Michael W. Deem and Ramdas Pophale) SiO2 
 PCOD9445798
Probable space group: P N N M
;
_chemical_formula_sum "Si O2"
_cell_formula_units_Z 24
_cell_length_a 6.716400
_cell_length_b 8.632362
_cell_length_c 17.722707
_cell_angle_alpha 90.000000
_cell_angle_beta 90.000000
_cell_angle_gamma 90.000000
_cell_volume 1027.534127
_symmetry_space_group_name_H-M "P N N M"
_symmetry_group_IT_number 58
_symmetry_cell_setting 'orthorhombic'
loop_
_space_group_symop_operation_xyz
x,y,z
-x,-y,z
1/2+x,1/2-y,1/2-z
1/2-x,1/2+y,1/2-z
-x,-y,-z
x,y,-z
1/2-x,1/2+y,1/2+z
1/2+x,1/2-y,1/2+z
loop_
_atom_site_type_symbol
_atom_site_label
_atom_site_fract_x
_atom_site_fract_y
_atom_site_fract_z
Si Si1 0.836706 0.615264 0.826772
Si Si2 0.130813 0.871912 0.819461
Si Si3 0.503631 0.187910 0.089269
O O1 0.729881 0.546548 0.752872
O O2 0.673667 0.705231 0.877468
O O3 0.000000 0.500000 0.862962
O O4 0.975118 0.747294 0.790598
O O5 0.286977 0.780359 0.870655
O O6 0.000000 0.000000 0.863466
O O7 0.500000 0.000000 0.102651
O O8 0.509250 0.212067 0.000000
#
# Coordination Sequence:
#
# PCOD9445798 Si02
#       3
#     8   8   8
#     4  12  25  41  70 105 138 181 238 298 354 415
#     4  12  23  43  72 100 136 187 238 282 351 430
#     4  11  25  45  68 101 140 183 236 292 354 434
#
# _framework density 23.35689
#
# number of rings (size 3 to 8) (size 9 to 14) (size 15 to 20)
#    0.000    0.333    6.667    3.000    0.000    2.667 
#    0.000    1.667    0.000    0.000    0.000    0.000 
#    0.000    0.000    0.000    0.000    0.000    0.000 
#
# Total GULP energy -133878.048320 kJ/mol
# GULP energy per Si atom -5578.252013 kJ/mol
# Density = 2.330373 g / cm^3
# Si number density = 23.356890 Si / 1000 Ang^3
#
#
#
# Elastic Constant Matrix: (Units=GPa)
#
#
# Indices 1 2 3 4 5 6 
#
# 1 173.6807 75.7430 72.7423 0.0000 0.0000 0.0000
# 2 75.7430 92.9137 32.9601 0.0000 0.0000 0.0000
# 3 72.7423 32.9601 121.6409 0.0000 0.0000 0.0000
# 4 0.0000 0.0000 0.0000 25.9344 0.0000 0.0000
# 5 0.0000 0.0000 0.0000 0.0000 18.1239 0.0000
# 6 0.0000 0.0000 0.0000 0.0000 0.0000 76.9632
#
#
#
# Elastic Compliance Matrix: (Units=1/GPa)
#
#
# Indices 1 2 3 4 5 6 
#
# 1 0.010776 -0.007190 -0.004496 0.000000 0.000000 0.000000
# 2 -0.007190 0.016704 -0.000227 0.000000 0.000000 0.000000
# 3 -0.004496 -0.000227 0.010971 0.000000 0.000000 0.000000
# 4 0.000000 0.000000 0.000000 0.038559 0.000000 0.000000
# 5 0.000000 0.000000 0.000000 0.000000 0.055176 0.000000
# 6 0.000000 0.000000 0.000000 0.000000 0.000000 0.012993
#
#
# Mechanical properties :
#
#
# Convention : Reuss Voigt Hill
#
# Bulk Modulus (GPa) = 68.36979 83.45847 75.91413
# Shear Modulus (GPa) = 28.75543 37.99030 33.37286
#
# Velocity S-wave (km/s) = 3.51256 4.03738 3.78408
# Velocity P-wave (km/s) = 6.76654 7.58573 7.18782
#
# Compressibility (1/GPa) = 0.01462634
#
# Stress axis : x y z
#
# Youngs Moduli (GPa) = 92.79571 59.86505 91.14883
#
# Poissons Ratio (x) = 0.43042 0.40982
# Poissons Ratio (y) = 0.66719 0.02065
# Poissons Ratio (z) = 0.41723 0.01357
#
# Static dielectric constant tensor:
#      x y z
#    x 2.034760 0.000000 0.000000 
#    y 0.000000 2.035980 0.000000 
#    z 0.000000 0.000000 1.776360 
# 
# From -- ./inp_files/23954.got.cif
#   From: 2010.05.17/outbox.cif.g08.bks.cpg/sg58_12_cif.got.tgz:23954.got - 2010.06.03 14:20:14.
