data_PCOD9445067
_publ_section_title
;
Structure prediction by ZEFSAII (Michael W. Deem and Ramdas Pophale) SiO2 
 PCOD9445067
Probable space group: P N N M
;
_chemical_formula_sum "Si O2"
_cell_formula_units_Z 64
_cell_length_a 31.295217
_cell_length_b 12.037569
_cell_length_c 8.955813
_cell_angle_alpha 90.000000
_cell_angle_beta 90.000000
_cell_angle_gamma 90.000000
_cell_volume 3373.818953
_symmetry_space_group_name_H-M "P N N M"
_symmetry_group_IT_number 58
_symmetry_cell_setting 'orthorhombic'
loop_
_space_group_symop_operation_xyz
x,y,z
-x,-y,z
1/2+x,1/2-y,1/2-z
1/2-x,1/2+y,1/2-z
-x,-y,-z
x,y,-z
1/2-x,1/2+y,1/2+z
1/2+x,1/2-y,1/2+z
loop_
_atom_site_type_symbol
_atom_site_label
_atom_site_fract_x
_atom_site_fract_y
_atom_site_fract_z
Si Si1 0.795329 0.735789 0.823661
Si Si2 0.373084 0.369495 0.821851
Si Si3 0.069533 0.506595 0.323870
Si Si4 0.452062 0.238104 0.322607
Si Si5 0.840028 0.501724 0.174265
Si Si6 0.460086 0.758293 0.178705
Si Si7 0.873077 0.868307 0.678841
Si Si8 0.703431 0.763545 0.323388
O O1 0.810677 0.608862 0.802251
O O2 0.832927 0.812973 0.759888
O O3 0.750795 0.755008 0.741247
O O4 0.790089 0.755335 0.000000
O O5 0.412642 0.305396 0.747525
O O6 0.375564 0.500706 0.790827
O O7 0.329294 0.318921 0.758243
O O8 0.374692 0.352935 0.000000
O O9 0.064332 0.529194 0.500000
O O10 0.052389 0.610898 0.232161
O O11 0.119169 0.493781 0.280894
O O12 0.047498 0.388966 0.290326
O O13 0.449937 0.243645 0.500000
O O14 0.497458 0.280711 0.261770
O O15 0.814640 0.387941 0.198410
O O16 0.854573 0.503082 0.000000
O O17 0.417217 0.692491 0.222312
O O18 0.465772 0.745901 0.000000
O O19 0.867956 0.852891 0.500000
O O20 0.703460 0.740387 0.500000
#
# Coordination Sequence:
#
# PCOD9445067 Si02
#       8
#     8   8   8   8   8   8   8   8
#     4  11  24  41  64  95 128 164 207 252 306 368
#     4  11  24  43  66  90 122 162 208 258 309 365
#     4  11  21  37  65  94 124 160 205 256 305 367
#     4  12  25  40  61  91 128 164 203 252 311 369
#     4  10  22  40  63  91 127 164 201 255 311 361
#     4  10  22  41  64  92 123 160 207 253 308 369
#     4  10  23  44  66  90 123 163 206 258 312 363
#     4  11  24  42  64  92 127 165 206 253 308 364
#
# _framework density 18.969598999999999
#
# number of rings (size 3 to 8) (size 9 to 14) (size 15 to 20)
#    0.000    1.250    2.500    3.000    1.750    5.500 
#    0.000    2.500    0.000    0.000    0.000    0.000 
#    0.000    0.000    0.000    0.000    0.000    0.000 
#
# Total GULP energy -357945.482675 kJ/mol
# GULP energy per Si atom -5592.898167 kJ/mol
# Density = 1.892642 g / cm^3
# Si number density = 18.969599 Si / 1000 Ang^3
#
#
#
# Elastic Constant Matrix: (Units=GPa)
#
#
# Indices 1 2 3 4 5 6 
#
# 1 131.0892 30.7550 57.8447 0.0000 0.0000 0.0000
# 2 30.7550 80.7567 51.1655 0.0000 0.0000 0.0000
# 3 57.8447 51.1655 75.4270 0.0000 0.0000 0.0000
# 4 0.0000 0.0000 0.0000 26.0222 0.0000 0.0000
# 5 0.0000 0.0000 0.0000 0.0000 37.2803 0.0000
# 6 0.0000 0.0000 0.0000 0.0000 0.0000 76.4208
#
#
#
# Elastic Compliance Matrix: (Units=1/GPa)
#
#
# Indices 1 2 3 4 5 6 
#
# 1 0.011742 0.002163 -0.010472 0.000000 0.000000 0.000000
# 2 0.002163 0.022115 -0.016660 0.000000 0.000000 0.000000
# 3 -0.010472 -0.016660 0.032590 0.000000 0.000000 0.000000
# 4 0.000000 0.000000 0.000000 0.038429 0.000000 0.000000
# 5 0.000000 0.000000 0.000000 0.000000 0.026824 0.000000
# 6 0.000000 0.000000 0.000000 0.000000 0.000000 0.013085
#
#
# Mechanical properties :
#
#
# Convention : Reuss Voigt Hill
#
# Bulk Modulus (GPa) = 60.57563 62.97814 61.77688
# Shear Modulus (GPa) = 24.97176 37.77849 31.37513
#
# Velocity S-wave (km/s) = 3.63217 4.46750 4.07131
# Velocity P-wave (km/s) = 7.04220 7.73841 7.39850
#
# Compressibility (1/GPa) = 0.01650829
#
# Stress axis : x y z
#
# Youngs Moduli (GPa) = 85.16539 45.21895 30.68392
#
# Poissons Ratio (x) = -0.09782 0.32133
# Poissons Ratio (y) = -0.18423 0.51120
# Poissons Ratio (z) = 0.89187 0.75336
#
# Static dielectric constant tensor:
#      x y z
#    x 1.630970 0.000000 0.000000 
#    y 0.000000 1.640360 0.000000 
#    z 0.000000 0.000000 1.636360 
# 
# From -- ./inp_files/10993.got.cif
#   From: 2010.05.17/outbox.cif.g08.bks.cpg/sg58_6_cif.got.tgz:10993.got - 2010.06.03 14:20:14.
