data_PCOD9445350
_publ_section_title
;
Structure prediction by ZEFSAII (Michael W. Deem and Ramdas Pophale) SiO2 
 PCOD9445350
Probable space group: P N N M
;
_chemical_formula_sum "Si O2"
_cell_formula_units_Z 58
_cell_length_a 23.191076
_cell_length_b 14.559308
_cell_length_c 7.481549
_cell_angle_alpha 90.000000
_cell_angle_beta 90.000000
_cell_angle_gamma 90.000000
_cell_volume 2526.115231
_symmetry_space_group_name_H-M "P N N M"
_symmetry_group_IT_number 58
_symmetry_cell_setting 'orthorhombic'
loop_
_space_group_symop_operation_xyz
x,y,z
-x,-y,z
1/2+x,1/2-y,1/2-z
1/2-x,1/2+y,1/2-z
-x,-y,-z
x,y,-z
1/2-x,1/2+y,1/2+z
1/2+x,1/2-y,1/2+z
loop_
_atom_site_type_symbol
_atom_site_label
_atom_site_fract_x
_atom_site_fract_y
_atom_site_fract_z
Si Si1 0.707937 0.625688 0.798292
Si Si2 0.500000 0.000000 0.500000
Si Si3 0.283821 0.710994 0.201381
Si Si4 0.600180 0.191826 0.782774
Si Si5 0.972944 0.858544 0.282368
Si Si6 0.284802 0.036982 0.798858
Si Si7 0.910985 0.041984 0.718044
Si Si8 0.412316 0.021873 0.214250
O O1 0.734694 0.711686 0.698760
O O2 0.755855 0.546115 0.804568
O O3 0.650240 0.580071 0.721175
O O4 0.695240 0.657409 0.000000
O O5 0.463084 0.054146 0.341010
O O6 0.340429 0.760341 0.277634
O O7 0.257934 0.622608 0.295552
O O8 0.298428 0.680539 0.000000
O O9 0.549051 0.259325 0.724717
O O10 0.594209 0.086196 0.730637
O O11 0.601901 0.190032 0.000000
O O12 0.973248 0.858165 0.500000
O O13 0.036121 0.892370 0.227548
O O14 0.928099 0.938718 0.227189
O O15 0.349448 0.063808 0.743697
O O16 0.291758 0.000500 0.000000
O O17 0.909330 0.040122 0.500000
O O18 0.423803 0.030362 0.000000
#
# Coordination Sequence:
#
# PCOD9445350 Si02
#       8
#     8   2   8   8   8   8   8   8
#     4  11  21  35  58  89 124 159 202 255 322 390
#     4  12  26  44  72  94 120 174 218 266 332 386
#     4  11  22  37  60  91 123 159 210 263 327 392
#     4   9  17  34  59  87 117 160 209 267 318 382
#     4   8  13  26  50  78 112 148 195 243 303 372
#     4  11  23  41  62  89 126 169 211 269 329 391
#     4   8  15  27  46  81 118 150 186 242 304 377
#     4  10  23  44  67  92 128 165 218 274 328 391
#
# _framework density 22.960156999999999
#
# number of rings (size 3 to 8) (size 9 to 14) (size 15 to 20)
#    0.000    2.207    1.379    3.103    1.931    2.207 
#    3.724    0.000    0.000    0.000    0.000    4.828 
#    0.000    0.000    0.000    0.000    0.000    0.000 
#
# Total GULP energy -323507.875010 kJ/mol
# GULP energy per Si atom -5577.721983 kJ/mol
# Density = 2.290790 g / cm^3
# Si number density = 22.960157 Si / 1000 Ang^3
#
#
#
# Elastic Constant Matrix: (Units=GPa)
#
#
# Indices 1 2 3 4 5 6 
#
# 1 67.9799 -4.2152 7.6990 0.0000 0.0000 0.0000
# 2 -4.2152 55.5351 -0.9682 0.0000 0.0000 0.0000
# 3 7.6990 -0.9682 77.3003 0.0000 0.0000 0.0000
# 4 0.0000 0.0000 0.0000 13.9280 0.0000 0.0000
# 5 0.0000 0.0000 0.0000 0.0000 13.3416 0.0000
# 6 0.0000 0.0000 0.0000 0.0000 0.0000 33.4888
#
#
#
# Elastic Compliance Matrix: (Units=1/GPa)
#
#
# Indices 1 2 3 4 5 6 
#
# 1 0.014946 0.001109 -0.001475 0.000000 0.000000 0.000000
# 2 0.001109 0.018093 0.000116 0.000000 0.000000 0.000000
# 3 -0.001475 0.000116 0.013085 0.000000 0.000000 0.000000
# 4 0.000000 0.000000 0.000000 0.071798 0.000000 0.000000
# 5 0.000000 0.000000 0.000000 0.000000 0.074953 0.000000
# 6 0.000000 0.000000 0.000000 0.000000 0.000000 0.029861
#
#
# Mechanical properties :
#
#
# Convention : Reuss Voigt Hill
#
# Bulk Modulus (GPa) = 21.91826 22.87184 22.39505
# Shear Modulus (GPa) = 20.96937 25.37167 23.17052
#
# Velocity S-wave (km/s) = 3.02535 3.32781 3.18018
# Velocity P-wave (km/s) = 4.66590 4.97483 4.82284
#
# Compressibility (1/GPa) = 0.04562406
#
# Stress axis : x y z
#
# Youngs Moduli (GPa) = 66.90759 55.27060 76.42402
#
# Poissons Ratio (x) = -0.06128 0.11270
# Poissons Ratio (y) = -0.07418 -0.00888
# Poissons Ratio (z) = 0.09867 -0.00642
#
# Static dielectric constant tensor:
#      x y z
#    x 1.894290 0.000000 0.000000 
#    y 0.000000 1.812940 0.000000 
#    z 0.000000 0.000000 1.831730 
# 
# From -- ./inp_files/9868.got.cif
#   From: 2010.05.17/outbox.cif.g08.bks.cpg/sg58_5_cif.got.tgz:9868.got - 2010.06.03 14:20:14.
