data_PCOD9445792
_publ_section_title
;
Structure prediction by ZEFSAII (Michael W. Deem and Ramdas Pophale) SiO2 
 PCOD9445792
Probable space group: P N N M
;
_chemical_formula_sum "Si O2"
_cell_formula_units_Z 36
_cell_length_a 4.834821
_cell_length_b 12.281808
_cell_length_c 22.617280
_cell_angle_alpha 90.000000
_cell_angle_beta 90.000000
_cell_angle_gamma 90.000000
_cell_volume 1343.021849
_symmetry_space_group_name_H-M "P N N M"
_symmetry_group_IT_number 58
_symmetry_cell_setting 'orthorhombic'
loop_
_space_group_symop_operation_xyz
x,y,z
-x,-y,z
1/2+x,1/2-y,1/2-z
1/2-x,1/2+y,1/2-z
-x,-y,-z
x,y,-z
1/2-x,1/2+y,1/2+z
1/2+x,1/2-y,1/2+z
loop_
_atom_site_type_symbol
_atom_site_label
_atom_site_fract_x
_atom_site_fract_y
_atom_site_fract_z
Si Si1 0.006021 0.597578 0.681383
Si Si2 0.473232 0.291087 0.237286
Si Si3 0.771682 0.294192 0.433964
Si Si4 0.764193 0.073684 0.626531
Si Si5 0.500000 0.500000 0.606410
O O1 0.788277 0.692822 0.715317
O O2 0.757990 0.505826 0.651129
O O3 0.000000 0.500000 0.734265
O O4 0.024448 0.668293 0.617875
O O5 0.741860 0.319738 0.281535
O O6 0.411960 0.374898 0.185127
O O7 0.885974 0.290945 0.500000
O O8 0.671940 0.176202 0.413210
O O9 0.546529 0.391526 0.430565
O O10 0.500000 0.000000 0.637769
O O11 0.000000 0.000000 0.596957
#
# Coordination Sequence:
#
# PCOD9445792 Si02
#       5
#     8   8   8   8   4
#     4   9  21  36  60  88 125 156 202 265 331 380
#     4  11  25  42  65  94 125 167 223 265 322 381
#     4   9  20  39  65  97 128 167 220 269 329 392
#     4  11  25  46  65  95 137 178 219 266 322 396
#     4   8  19  38  62  90 130 156 208 278 329 380
#
# _framework density 26.805226000000001
#
# number of rings (size 3 to 8) (size 9 to 14) (size 15 to 20)
#    1.333    0.889    0.000    1.667    3.111    7.556 
#    0.000    2.222    0.000    0.000    0.000    0.000 
#    0.000    0.000    0.000    0.000    0.000    0.000 
#
# Total GULP energy -200814.397439 kJ/mol
# GULP energy per Si atom -5578.177707 kJ/mol
# Density = 2.674422 g / cm^3
# Si number density = 26.805226 Si / 1000 Ang^3
#
#
#
# Elastic Constant Matrix: (Units=GPa)
#
#
# Indices 1 2 3 4 5 6 
#
# 1 230.0293 56.2921 41.9480 0.0000 0.0000 0.0000
# 2 56.2921 257.2307 96.6412 0.0000 0.0000 0.0000
# 3 41.9480 96.6412 201.1314 0.0000 0.0000 0.0000
# 4 0.0000 0.0000 0.0000 -2.7753 0.0000 0.0000
# 5 0.0000 0.0000 0.0000 0.0000 24.7354 0.0000
# 6 0.0000 0.0000 0.0000 0.0000 0.0000 50.5439
#
#
#
# Elastic Compliance Matrix: (Units=1/GPa)
#
#
# Indices 1 2 3 4 5 6 
#
# 1 0.004649 -0.000797 -0.000587 0.000000 0.000000 0.000000
# 2 -0.000797 0.004881 -0.002179 0.000000 0.000000 0.000000
# 3 -0.000587 -0.002179 0.006141 0.000000 0.000000 0.000000
# 4 0.000000 0.000000 0.000000 -0.360315 0.000000 0.000000
# 5 0.000000 0.000000 0.000000 0.000000 0.040428 0.000000
# 6 0.000000 0.000000 0.000000 0.000000 0.000000 0.019785
#
#
# Mechanical properties :
#
#
# Convention : Reuss Voigt Hill
#
# Bulk Modulus (GPa) = 117.01508 119.79488 118.40498
# Shear Modulus (GPa) = -18.21773 47.40147 14.59187
#
# Velocity S-wave (km/s) = -2.60981 4.20976 2.33570
# Velocity P-wave (km/s) = 5.88788 8.27147 7.17929
#
# Compressibility (1/GPa) = 0.00854591
#
# Stress axis : x y z
#
# Youngs Moduli (GPa) = 215.08576 204.89444 162.83641
#
# Poissons Ratio (x) = 0.16331 0.09554
# Poissons Ratio (y) = 0.17143 0.35479
# Poissons Ratio (z) = 0.12619 0.44643
#
# Static dielectric constant tensor:
#      x y z
#    x 2.188740 0.000000 0.000000 
#    y 0.000000 2.320340 0.000000 
#    z 0.000000 0.000000 1.909260 
# 
# From -- ./inp_files/30828.got.cif
#   From: 2010.05.17/outbox.cif.g08.bks.cpg/sg58_16_cif.got.tgz:30828.got - 2010.06.03 14:20:14.
