data_PCOD9445774
_publ_section_title
;
Structure prediction by ZEFSAII (Michael W. Deem and Ramdas Pophale) SiO2 
 PCOD9445774
Probable space group: P N N M
;
_chemical_formula_sum "Si O2"
_cell_formula_units_Z 36
_cell_length_a 12.038600
_cell_length_b 5.676083
_cell_length_c 21.290572
_cell_angle_alpha 90.000000
_cell_angle_beta 90.000000
_cell_angle_gamma 90.000000
_cell_volume 1454.829342
_symmetry_space_group_name_H-M "P N N M"
_symmetry_group_IT_number 58
_symmetry_cell_setting 'orthorhombic'
loop_
_space_group_symop_operation_xyz
x,y,z
-x,-y,z
1/2+x,1/2-y,1/2-z
1/2-x,1/2+y,1/2-z
-x,-y,-z
x,y,-z
1/2-x,1/2+y,1/2+z
1/2+x,1/2-y,1/2+z
loop_
_atom_site_type_symbol
_atom_site_label
_atom_site_fract_x
_atom_site_fract_y
_atom_site_fract_z
Si Si1 0.000000 0.500000 0.380155
Si Si2 0.385849 0.592950 0.302008
Si Si3 0.793644 0.757509 0.325860
Si Si4 0.095990 0.200300 0.931641
Si Si5 0.664508 0.646308 0.931700
O O1 0.103024 0.414866 0.338952
O O2 0.051485 0.712219 0.420302
O O3 0.500000 0.500000 0.272972
O O4 0.322910 0.372902 0.333961
O O5 0.306317 0.673788 0.246774
O O6 0.413227 0.775501 0.358217
O O7 0.811140 0.968834 0.374926
O O8 0.230759 0.172381 0.933651
O O9 0.079843 0.324251 0.000000
O O10 0.000000 0.000000 0.933459
O O11 0.662336 0.526197 0.000000
#
# Coordination Sequence:
#
# PCOD9445774 Si02
#       5
#     4   8   8   8   8
#     4  12  25  46  72 104 141 188 236 306 349 428
#     4  11  24  44  71 100 140 183 232 289 348 421
#     4  12  27  45  72 106 142 185 241 295 355 425
#     4   9  19  41  69  98 136 180 226 283 349 416
#     4  11  24  45  73 107 143 186 238 294 360 427
#
# _framework density 24.745168
#
# number of rings (size 3 to 8) (size 9 to 14) (size 15 to 20)
#    0.000    1.111    2.222    3.667    3.111    3.556 
#    0.000    3.333    0.000   12.000    0.000    0.000 
#    0.000    0.000    0.000    0.000    0.000    0.000 
#
# Total GULP energy -200597.853865 kJ/mol
# GULP energy per Si atom -5572.162607 kJ/mol
# Density = 2.468885 g / cm^3
# Si number density = 24.745168 Si / 1000 Ang^3
#
#
#
# Elastic Constant Matrix: (Units=GPa)
#
#
# Indices 1 2 3 4 5 6 
#
# 1 144.4245 38.2639 -8.8387 0.0000 0.0000 0.0000
# 2 38.2639 60.1558 40.4240 0.0000 0.0000 0.0000
# 3 -8.8387 40.4240 190.1735 0.0000 0.0000 0.0000
# 4 0.0000 0.0000 0.0000 -29.0958 0.0000 0.0000
# 5 0.0000 0.0000 0.0000 0.0000 15.3660 0.0000
# 6 0.0000 0.0000 0.0000 0.0000 0.0000 44.6473
#
#
#
# Elastic Compliance Matrix: (Units=1/GPa)
#
#
# Indices 1 2 3 4 5 6 
#
# 1 0.008868 -0.006904 0.001880 0.000000 0.000000 0.000000
# 2 -0.006904 0.024769 -0.005586 0.000000 0.000000 0.000000
# 3 0.001880 -0.005586 0.006533 0.000000 0.000000 0.000000
# 4 0.000000 0.000000 0.000000 -0.034369 0.000000 0.000000
# 5 0.000000 0.000000 0.000000 0.000000 0.065079 0.000000
# 6 0.000000 0.000000 0.000000 0.000000 0.000000 0.022398
#
#
# Mechanical properties :
#
#
# Convention : Reuss Voigt Hill
#
# Bulk Modulus (GPa) = 52.77142 59.38358 56.07750
# Shear Modulus (GPa) = 41.38591 27.84379 34.61485
#
# Velocity S-wave (km/s) = 4.09404 3.35807 3.74418
# Velocity P-wave (km/s) = 6.61214 6.25185 6.43452
#
# Compressibility (1/GPa) = 0.01894965
#
# Stress axis : x y z
#
# Youngs Moduli (GPa) = 112.76191 40.37363 153.06754
#
# Poissons Ratio (x) = 0.27874 -0.28773
# Poissons Ratio (y) = 0.77852 0.85501
# Poissons Ratio (z) = -0.21196 0.22552
#
# Static dielectric constant tensor:
#      x y z
#    x 1.931630 0.000000 0.000000 
#    y 0.000000 2.081170 0.000000 
#    z 0.000000 0.000000 1.980670 
# 
# From -- ./inp_files/31790.got.cif
#   From: 2010.05.17/outbox.cif.g08.bks.cpg/sg58_16_cif.got.tgz:31790.got - 2010.06.03 14:20:14.
