data_PCOD9445511
_publ_section_title
;
Structure prediction by ZEFSAII (Michael W. Deem and Ramdas Pophale) SiO2 
 PCOD9445511
Probable space group: P N N M
;
_chemical_formula_sum "Si O2"
_cell_formula_units_Z 58
_cell_length_a 9.440918
_cell_length_b 15.508393
_cell_length_c 19.919411
_cell_angle_alpha 90.000000
_cell_angle_beta 90.000000
_cell_angle_gamma 90.000000
_cell_volume 2916.470018
_symmetry_space_group_name_H-M "P N N M"
_symmetry_group_IT_number 58
_symmetry_cell_setting 'orthorhombic'
loop_
_space_group_symop_operation_xyz
x,y,z
-x,-y,z
1/2+x,1/2-y,1/2-z
1/2-x,1/2+y,1/2-z
-x,-y,-z
x,y,-z
1/2-x,1/2+y,1/2+z
1/2+x,1/2-y,1/2+z
loop_
_atom_site_type_symbol
_atom_site_label
_atom_site_fract_x
_atom_site_fract_y
_atom_site_fract_z
Si Si1 0.602729 0.068963 0.203979
Si Si2 0.364967 0.160388 0.257484
Si Si3 0.233684 0.987563 0.925745
Si Si4 0.523631 0.357001 0.399058
Si Si5 0.457154 0.839148 0.604544
Si Si6 0.500000 0.000000 0.500000
Si Si7 0.437973 0.594218 0.251063
Si Si8 0.803688 0.159645 0.303734
O O1 0.488013 0.145404 0.201714
O O2 0.659156 0.031917 0.134437
O O3 0.730153 0.095653 0.250805
O O4 0.500000 0.000000 0.239148
O O5 0.442554 0.158902 0.329139
O O6 0.229556 0.097368 0.258770
O O7 0.296671 0.249759 0.234334
O O8 0.112511 0.913382 0.920273
O O9 0.155896 0.080287 0.917084
O O10 0.297017 0.983808 0.000000
O O11 0.524304 0.258657 0.423980
O O12 0.527525 0.352209 0.318183
O O13 0.488421 0.921679 0.558168
O O14 0.294507 0.842437 0.631169
O O15 0.500000 0.500000 0.264870
O O16 0.532476 0.632517 0.190862
#
# Coordination Sequence:
#
# PCOD9445511 Si02
#       8
#     8   8   8   8   8   2   8   8
#     4  11  22  37  60  93 136 169 209 277 355 431
#     4  11  22  39  67 101 131 173 224 298 361 396
#     4  11  23  37  62  95 137 175 218 269 364 443
#     4  11  19  39  64  98 129 174 219 281 349 426
#     4  11  26  44  69  93 139 185 237 288 332 414
#     4  12  32  48  64 100 144 206 256 262 332 436
#     4  12  20  34  64 103 135 156 209 291 368 423
#     4  11  21  40  67 101 127 166 230 294 349 399
#
# _framework density 19.887053999999999
#
# number of rings (size 3 to 8) (size 9 to 14) (size 15 to 20)
#    0.000    0.828    5.517    3.310    7.724    0.276 
#    0.000    0.000    1.517    1.655    0.000    0.000 
#    0.000    0.000    0.000    0.000    0.000    0.000 
#
# Total GULP energy -322957.107923 kJ/mol
# GULP energy per Si atom -5568.225999 kJ/mol
# Density = 1.984179 g / cm^3
# Si number density = 19.887054 Si / 1000 Ang^3
#
#
#
# Elastic Constant Matrix: (Units=GPa)
#
#
# Indices 1 2 3 4 5 6 
#
# 1 105.2753 37.9654 24.9154 0.0000 0.0000 0.0000
# 2 37.9654 169.1643 49.0746 0.0000 0.0000 0.0000
# 3 24.9154 49.0746 81.6365 0.0000 0.0000 0.0000
# 4 0.0000 0.0000 0.0000 20.0636 0.0000 0.0000
# 5 0.0000 0.0000 0.0000 0.0000 -1.8092 0.0000
# 6 0.0000 0.0000 0.0000 0.0000 0.0000 29.8741
#
#
#
# Elastic Compliance Matrix: (Units=1/GPa)
#
#
# Indices 1 2 3 4 5 6 
#
# 1 0.010651 -0.001753 -0.002197 0.000000 0.000000 0.000000
# 2 -0.001753 0.007449 -0.003943 0.000000 0.000000 0.000000
# 3 -0.002197 -0.003943 0.015290 0.000000 0.000000 0.000000
# 4 0.000000 0.000000 0.000000 0.049841 0.000000 0.000000
# 5 0.000000 0.000000 0.000000 0.000000 -0.552745 0.000000
# 6 0.000000 0.000000 0.000000 0.000000 0.000000 0.033474
#
#
# Mechanical properties :
#
#
# Convention : Reuss Voigt Hill
#
# Bulk Modulus (GPa) = 56.80354 64.44300 60.62327
# Shear Modulus (GPa) = -12.06603 25.90043 6.91720
#
# Velocity S-wave (km/s) = -2.46586 3.61276 1.86703
# Velocity P-wave (km/s) = 4.52966 7.06240 5.93276
#
# Compressibility (1/GPa) = 0.01760454
#
# Stress axis : x y z
#
# Youngs Moduli (GPa) = 93.88750 134.25341 65.40260
#
# Poissons Ratio (x) = 0.23536 0.14368
# Poissons Ratio (y) = 0.16459 0.25785
# Poissons Ratio (z) = 0.20626 0.52930
#
# Static dielectric constant tensor:
#      x y z
#    x 1.739630 0.000000 0.000000 
#    y 0.000000 1.881940 0.000000 
#    z 0.000000 0.000000 1.676290 
# 
# From -- ./inp_files/31591.got.cif
#   From: 2010.05.17/outbox.cif.g08.bks.cpg/sg58_16_cif.got.tgz:31591.got - 2010.06.03 14:20:14.
