data_PCOD9445026
_publ_section_title
;
Structure prediction by ZEFSAII (Michael W. Deem and Ramdas Pophale) SiO2 
 PCOD9445026
Probable space group: P N N M
;
_chemical_formula_sum "Si O2"
_cell_formula_units_Z 40
_cell_length_a 7.751077
_cell_length_b 8.544651
_cell_length_c 27.157289
_cell_angle_alpha 90.000000
_cell_angle_beta 90.000000
_cell_angle_gamma 90.000000
_cell_volume 1798.633981
_symmetry_space_group_name_H-M "P N N M"
_symmetry_group_IT_number 58
_symmetry_cell_setting 'orthorhombic'
loop_
_space_group_symop_operation_xyz
x,y,z
-x,-y,z
1/2+x,1/2-y,1/2-z
1/2-x,1/2+y,1/2-z
-x,-y,-z
x,y,-z
1/2-x,1/2+y,1/2+z
1/2+x,1/2-y,1/2+z
loop_
_atom_site_type_symbol
_atom_site_label
_atom_site_fract_x
_atom_site_fract_y
_atom_site_fract_z
Si Si1 0.113447 0.635939 0.406708
Si Si2 0.097788 0.758800 0.219884
Si Si3 0.304063 0.931240 0.555268
Si Si4 0.134792 0.114768 0.354937
Si Si5 0.750452 0.911794 0.803005
O O1 0.249942 0.748023 0.435250
O O2 0.210457 0.560019 0.359891
O O3 0.000000 0.500000 0.432922
O O4 0.973787 0.747337 0.379965
O O5 0.214543 0.664791 0.181335
O O6 0.099589 0.667563 0.271408
O O7 0.906681 0.788306 0.200563
O O8 0.186293 0.928959 0.221813
O O9 0.241210 0.968422 0.500000
O O10 0.500000 0.000000 0.557201
O O11 0.210272 0.019805 0.599136
O O12 0.000000 0.000000 0.328142
#
# Coordination Sequence:
#
# PCOD9445026 Si02
#       5
#     8   8   8   8   8
#     4  11  22  41  64  94 131 167 211 272 327 392
#     4  11  24  40  61  91 126 171 219 265 320 392
#     4  10  23  44  69  95 125 166 217 270 333 403
#     4  10  22  39  65  89 125 164 211 263 321 386
#     4  11  25  39  61  89 128 171 216 265 322 385
#
# _framework density 22.239099
#
# number of rings (size 3 to 8) (size 9 to 14) (size 15 to 20)
#    0.000    1.400    2.000    2.400    8.400    4.000 
#    0.000    0.000    0.000    2.400    0.000    0.000 
#    0.000    0.000    0.000    0.000    0.000    0.000 
#
# Total GULP energy -223481.837323 kJ/mol
# GULP energy per Si atom -5587.045933 kJ/mol
# Density = 2.218848 g / cm^3
# Si number density = 22.239099 Si / 1000 Ang^3
#
#
#
# Elastic Constant Matrix: (Units=GPa)
#
#
# Indices 1 2 3 4 5 6 
#
# 1 98.6119 34.8040 22.6019 0.0000 0.0000 0.0000
# 2 34.8040 91.6111 23.0860 0.0000 0.0000 0.0000
# 3 22.6019 23.0860 96.2139 0.0000 0.0000 0.0000
# 4 0.0000 0.0000 0.0000 22.3191 0.0000 0.0000
# 5 0.0000 0.0000 0.0000 0.0000 -26.3425 0.0000
# 6 0.0000 0.0000 0.0000 0.0000 0.0000 46.3018
#
#
#
# Elastic Compliance Matrix: (Units=1/GPa)
#
#
# Indices 1 2 3 4 5 6 
#
# 1 0.012009 -0.004099 -0.001837 0.000000 0.000000 0.000000
# 2 -0.004099 0.013017 -0.002161 0.000000 0.000000 0.000000
# 3 -0.001837 -0.002161 0.011344 0.000000 0.000000 0.000000
# 4 0.000000 0.000000 0.000000 0.044805 0.000000 0.000000
# 5 0.000000 0.000000 0.000000 0.000000 -0.037961 0.000000
# 6 0.000000 0.000000 0.000000 0.000000 0.000000 0.021597
#
#
# Mechanical properties :
#
#
# Convention : Reuss Voigt Hill
#
# Bulk Modulus (GPa) = 49.56520 49.71341 49.63931
# Shear Modulus (GPa) = 56.99325 22.18535 39.58930
#
# Velocity S-wave (km/s) = 5.06785 3.16188 4.22378
# Velocity P-wave (km/s) = 7.52197 5.97767 6.79384
#
# Compressibility (1/GPa) = 0.02017545
#
# Stress axis : x y z
#
# Youngs Moduli (GPa) = 83.27320 76.81981 88.15587
#
# Poissons Ratio (x) = 0.31490 0.16198
# Poissons Ratio (y) = 0.34135 0.19046
# Poissons Ratio (z) = 0.15301 0.16597
#
# Static dielectric constant tensor:
#      x y z
#    x 1.871500 0.000000 0.000000 
#    y 0.000000 1.873580 0.000000 
#    z 0.000000 0.000000 1.782510 
# 
# From -- ./inp_files/31281.got.cif
#   From: 2010.05.17/outbox.cif.g08.bks.cpg/sg58_16_cif.got.tgz:31281.got - 2010.06.03 14:20:14.
