data_PCOD9445739
_publ_section_title
;
Structure prediction by ZEFSAII (Michael W. Deem and Ramdas Pophale) SiO2 
 PCOD9445739
Probable space group: P N N M
;
_chemical_formula_sum "Si O2"
_cell_formula_units_Z 40
_cell_length_a 31.749209
_cell_length_b 5.096746
_cell_length_c 10.986914
_cell_angle_alpha 90.000000
_cell_angle_beta 90.000000
_cell_angle_gamma 90.000000
_cell_volume 1777.876648
_symmetry_space_group_name_H-M "P N N M"
_symmetry_group_IT_number 58
_symmetry_cell_setting 'orthorhombic'
loop_
_space_group_symop_operation_xyz
x,y,z
-x,-y,z
1/2+x,1/2-y,1/2-z
1/2-x,1/2+y,1/2-z
-x,-y,-z
x,y,-z
1/2-x,1/2+y,1/2+z
1/2+x,1/2-y,1/2+z
loop_
_atom_site_type_symbol
_atom_site_label
_atom_site_fract_x
_atom_site_fract_y
_atom_site_fract_z
Si Si1 0.726980 0.908004 0.000000
Si Si2 0.500000 0.000000 0.816063
Si Si3 0.956736 0.165213 0.132168
Si Si4 0.051060 0.141488 0.500000
Si Si5 0.669703 0.909706 0.760027
Si Si6 0.387252 0.590557 0.774128
Si Si7 0.215959 0.593240 0.000000
O O1 0.700426 0.949477 0.124137
O O2 0.746299 0.617288 0.000000
O O3 0.764789 0.116054 0.000000
O O4 0.463133 0.114469 0.733318
O O5 0.518833 0.230579 0.897268
O O6 0.917826 0.980322 0.162711
O O7 0.951856 0.288239 0.000000
O O8 0.000000 0.000000 0.133873
O O9 0.084088 0.054247 0.606667
O O10 0.650211 0.620347 0.771647
O O11 0.690682 0.942612 0.626833
O O12 0.632533 0.122282 0.771423
#
# Coordination Sequence:
#
# PCOD9445739 Si02
#       7
#     4   4   8   4   8   8   4
#     4  12  24  50  77 112 145 194 237 302 360 458
#     4  11  23  46  68 102 133 195 266 334 372 445
#     4  11  25  44  69 100 144 201 262 313 373 447
#     4  11  24  44  70  97 140 188 254 312 381 432
#     4  12  27  46  75 111 153 189 245 299 380 444
#     4  12  26  46  69 108 147 198 238 316 370 439
#     4  12  26  47  80 110 147 192 243 294 367 456
#
# _framework density 22.498747000000002
#
# number of rings (size 3 to 8) (size 9 to 14) (size 15 to 20)
#    0.000    0.400    2.000    6.300    2.800    4.000 
#    0.000    0.000    0.000    0.000    0.000    0.000 
#    0.000    0.000    0.000    0.000    0.000    0.000 
#
# Total GULP energy -223018.946799 kJ/mol
# GULP energy per Si atom -5575.473670 kJ/mol
# Density = 2.244754 g / cm^3
# Si number density = 22.498747 Si / 1000 Ang^3
#
#
#
# Elastic Constant Matrix: (Units=GPa)
#
#
# Indices 1 2 3 4 5 6 
#
# 1 61.8748 0.2990 44.7727 0.0000 0.0000 0.0000
# 2 0.2990 46.6868 12.9343 0.0000 0.0000 0.0000
# 3 44.7727 12.9343 197.0086 0.0000 0.0000 0.0000
# 4 0.0000 0.0000 0.0000 39.5583 0.0000 0.0000
# 5 0.0000 0.0000 0.0000 0.0000 24.3556 0.0000
# 6 0.0000 0.0000 0.0000 0.0000 0.0000 50.3818
#
#
#
# Elastic Compliance Matrix: (Units=1/GPa)
#
#
# Indices 1 2 3 4 5 6 
#
# 1 0.019400 0.001118 -0.004482 0.000000 0.000000 0.000000
# 2 0.001118 0.021881 -0.001691 0.000000 0.000000 0.000000
# 3 -0.004482 -0.001691 0.006206 0.000000 0.000000 0.000000
# 4 0.000000 0.000000 0.000000 0.025279 0.000000 0.000000
# 5 0.000000 0.000000 0.000000 0.000000 0.041058 0.000000
# 6 0.000000 0.000000 0.000000 0.000000 0.000000 0.019848
#
#
# Mechanical properties :
#
#
# Convention : Reuss Voigt Hill
#
# Bulk Modulus (GPa) = 26.75563 46.84249 36.79906
# Shear Modulus (GPa) = 32.00198 39.36342 35.68270
#
# Velocity S-wave (km/s) = 3.77555 4.18734 3.98676
# Velocity P-wave (km/s) = 5.56096 6.65159 6.13057
#
# Compressibility (1/GPa) = 0.03737531
#
# Stress axis : x y z
#
# Youngs Moduli (GPa) = 51.54750 45.70275 161.14632
#
# Poissons Ratio (x) = -0.05107 0.72229
# Poissons Ratio (y) = -0.05761 0.27242
# Poissons Ratio (z) = 0.23104 0.07726
#
# Static dielectric constant tensor:
#      x y z
#    x 1.830300 0.000000 0.000000 
#    y 0.000000 1.846010 0.000000 
#    z 0.000000 0.000000 1.813900 
# 
# From -- ./inp_files/17661.got.cif
#   From: 2010.05.17/outbox.cif.g08.bks.cpg/sg58_9_cif.got.tgz:17661.got - 2010.06.03 14:20:14.
