data_PCOD9445517
_publ_section_title
;
Structure prediction by ZEFSAII (Michael W. Deem and Ramdas Pophale) SiO2 
 PCOD9445517
Probable space group: P N N M
;
_chemical_formula_sum "Si O2"
_cell_formula_units_Z 64
_cell_length_a 23.766836
_cell_length_b 16.012025
_cell_length_c 8.909563
_cell_angle_alpha 90.000000
_cell_angle_beta 90.000000
_cell_angle_gamma 90.000000
_cell_volume 3390.580282
_symmetry_space_group_name_H-M "P N N M"
_symmetry_group_IT_number 58
_symmetry_cell_setting 'orthorhombic'
loop_
_space_group_symop_operation_xyz
x,y,z
-x,-y,z
1/2+x,1/2-y,1/2-z
1/2-x,1/2+y,1/2-z
-x,-y,-z
x,y,-z
1/2-x,1/2+y,1/2+z
1/2+x,1/2-y,1/2+z
loop_
_atom_site_type_symbol
_atom_site_label
_atom_site_fract_x
_atom_site_fract_y
_atom_site_fract_z
Si Si1 0.304826 0.814555 0.817496
Si Si2 0.080157 0.066340 0.181157
Si Si3 0.192002 0.130770 0.320670
Si Si4 0.952094 0.113794 0.818403
Si Si5 0.100373 0.544787 0.324956
Si Si6 0.568059 0.138236 0.181115
Si Si7 0.269102 0.991484 0.823943
Si Si8 0.454492 0.202483 0.320450
O O1 0.286309 0.722360 0.770518
O O2 0.370402 0.827392 0.775666
O O3 0.270066 0.895700 0.766872
O O4 0.303543 0.818366 0.000000
O O5 0.129449 0.117089 0.258165
O O6 0.017886 0.099610 0.219100
O O7 0.081353 0.968762 0.230209
O O8 0.086096 0.070330 0.000000
O O9 0.190730 0.130534 0.500000
O O10 0.229874 0.055470 0.261883
O O11 0.934343 0.205766 0.767802
O O12 0.949192 0.112428 0.000000
O O13 0.086821 0.559718 0.500000
O O14 0.067949 0.460237 0.278438
O O15 0.166279 0.522486 0.314445
O O16 0.083576 0.626169 0.234192
O O17 0.516824 0.185438 0.257102
O O18 0.563553 0.143717 0.000000
O O19 0.252911 0.991564 0.000000
O O20 0.456638 0.203234 0.500000
#
# Coordination Sequence:
#
# PCOD9445517 Si02
#       8
#     8   8   8   8   8   8   8   8
#     4   8  17  35  57  77 100 135 175 213 258 312
#     4   9  17  35  58  74  98 139 179 209 245 305
#     4  11  21  34  55  85 110 128 165 224 276 306
#     4   8  17  33  52  75 103 137 176 210 242 301
#     4   9  19  35  52  69  96 136 179 213 246 303
#     4   9  17  32  53  73  97 134 177 211 244 303
#     4   9  19  39  59  73  97 141 185 213 249 314
#     4  11  20  29  46  77 109 134 165 208 262 308
#
# _framework density 18.875824999999999
#
# number of rings (size 3 to 8) (size 9 to 14) (size 15 to 20)
#    0.000    2.750    0.000    4.125    0.000    2.500 
#    2.250    6.875    0.000    0.000    0.000    0.000 
#    0.000    0.000    0.000    0.000    0.000    0.000 
#
# Total GULP energy -356908.167518 kJ/mol
# GULP energy per Si atom -5576.690117 kJ/mol
# Density = 1.883286 g / cm^3
# Si number density = 18.875825 Si / 1000 Ang^3
#
#
#
# Elastic Constant Matrix: (Units=GPa)
#
#
# Indices 1 2 3 4 5 6 
#
# 1 13.4069 23.1522 9.3887 0.0000 0.0000 0.0000
# 2 23.1522 162.4101 33.5215 0.0000 0.0000 0.0000
# 3 9.3887 33.5215 26.5466 0.0000 0.0000 0.0000
# 4 0.0000 0.0000 0.0000 18.8708 0.0000 0.0000
# 5 0.0000 0.0000 0.0000 0.0000 13.1334 0.0000
# 6 0.0000 0.0000 0.0000 0.0000 0.0000 21.2663
#
#
#
# Elastic Compliance Matrix: (Units=1/GPa)
#
#
# Indices 1 2 3 4 5 6 
#
# 1 0.110820 -0.010425 -0.026029 0.000000 0.000000 0.000000
# 2 -0.010425 0.009308 -0.008067 0.000000 0.000000 0.000000
# 3 -0.026029 -0.008067 0.057062 0.000000 0.000000 0.000000
# 4 0.000000 0.000000 0.000000 0.052992 0.000000 0.000000
# 5 0.000000 0.000000 0.000000 0.000000 0.076142 0.000000
# 6 0.000000 0.000000 0.000000 0.000000 0.000000 0.047023
#
#
# Mechanical properties :
#
#
# Convention : Reuss Voigt Hill
#
# Bulk Modulus (GPa) = 11.34463 37.16538 24.25500
# Shear Modulus (GPa) = 10.59834 19.74084 15.16959
#
# Velocity S-wave (km/s) = 2.37212 3.23743 2.83795
# Velocity P-wave (km/s) = 3.67774 5.80575 4.85966
#
# Compressibility (1/GPa) = 0.08814746
#
# Stress axis : x y z
#
# Youngs Moduli (GPa) = 9.02365 107.42891 17.52485
#
# Poissons Ratio (x) = 1.11999 0.45615
# Poissons Ratio (y) = 0.09408 0.14137
# Poissons Ratio (z) = 0.23488 0.86664
#
# Static dielectric constant tensor:
#      x y z
#    x 1.638070 0.000000 0.000000 
#    y 0.000000 1.693500 0.000000 
#    z 0.000000 0.000000 1.633050 
# 
# From -- ./inp_files/9930.got.cif
#   From: 2010.05.17/outbox.cif.g08.bks.cpg/sg58_5_cif.got.tgz:9930.got - 2010.06.03 14:20:14.
