data_PCOD9445209
_publ_section_title
;
Structure prediction by ZEFSAII (Michael W. Deem and Ramdas Pophale) SiO2 
 PCOD9445209
Probable space group: P N N M
;
_chemical_formula_sum "Si O2"
_cell_formula_units_Z 48
_cell_length_a 17.477257
_cell_length_b 8.821257
_cell_length_c 15.942408
_cell_angle_alpha 90.000000
_cell_angle_beta 90.000000
_cell_angle_gamma 90.000000
_cell_volume 2457.862973
_symmetry_space_group_name_H-M "P N N M"
_symmetry_group_IT_number 58
_symmetry_cell_setting 'orthorhombic'
loop_
_space_group_symop_operation_xyz
x,y,z
-x,-y,z
1/2+x,1/2-y,1/2-z
1/2-x,1/2+y,1/2-z
-x,-y,-z
x,y,-z
1/2-x,1/2+y,1/2+z
1/2+x,1/2-y,1/2+z
loop_
_atom_site_type_symbol
_atom_site_label
_atom_site_fract_x
_atom_site_fract_y
_atom_site_fract_z
Si Si1 0.238196 0.447314 0.159887
Si Si2 0.946455 0.649015 0.342300
Si Si3 0.690649 0.725441 0.000000
Si Si4 0.940922 0.636384 0.846133
Si Si5 0.782776 0.025759 0.000000
Si Si6 0.556859 0.360466 0.500000
Si Si7 0.489097 0.322711 0.000000
Si Si8 0.232103 0.306411 0.338668
O O1 0.146153 0.426884 0.151446
O O2 0.259507 0.370054 0.248827
O O3 0.262474 0.623755 0.160707
O O4 0.276442 0.359328 0.082265
O O5 0.955731 0.704400 0.246481
O O6 0.854868 0.632754 0.350762
O O7 0.000000 0.500000 0.349206
O O8 0.972795 0.756440 0.416588
O O9 0.716124 0.900059 0.000000
O O10 0.599856 0.717066 0.000000
O O11 0.000000 0.500000 0.858094
O O12 0.952504 0.757688 0.918234
O O13 0.778345 0.127553 0.917030
O O14 0.858513 0.926940 0.000000
O O15 0.500000 0.500000 0.500000
O O16 0.500000 0.500000 0.000000
#
# Coordination Sequence:
#
# PCOD9445209 Si02
#       8
#     8   8   4   8   4   4   4   8
#     4  11  23  42  65  98 131 173 221 275 336 400
#     4  10  22  43  65  94 129 175 219 261 323 403
#     4  12  23  42  66  94 138 170 211 278 332 396
#     4  10  23  44  68  91 131 179 221 272 337 400
#     4  12  24  42  64  99 129 174 219 270 339 394
#     4  12  27  43  64  96 133 172 226 282 329 394
#     4  12  24  39  64 100 130 168 213 267 331 387
#     4  11  24  40  69  95 132 172 222 272 331 399
#
# _framework density 19.529160999999998
#
# number of rings (size 3 to 8) (size 9 to 14) (size 15 to 20)
#    0.000    1.000    1.667    4.500    4.667    3.333 
#    0.000    0.000    0.000    0.000    0.000    0.000 
#    0.000    0.000    0.000    0.000    0.000    0.000 
#
# Total GULP energy -268341.400650 kJ/mol
# GULP energy per Si atom -5590.445847 kJ/mol
# Density = 1.948471 g / cm^3
# Si number density = 19.529161 Si / 1000 Ang^3
#
#
#
# Elastic Constant Matrix: (Units=GPa)
#
#
# Indices 1 2 3 4 5 6 
#
# 1 50.2900 -11.9954 36.8724 0.0000 0.0000 0.0000
# 2 -11.9954 86.0536 72.6668 0.0000 0.0000 0.0000
# 3 36.8724 72.6668 199.7145 0.0000 0.0000 0.0000
# 4 0.0000 0.0000 0.0000 -159.9387 0.0000 0.0000
# 5 0.0000 0.0000 0.0000 0.0000 14.5381 0.0000
# 6 0.0000 0.0000 0.0000 0.0000 0.0000 32.1372
#
#
#
# Elastic Compliance Matrix: (Units=1/GPa)
#
#
# Indices 1 2 3 4 5 6 
#
# 1 0.030628 0.013056 -0.010405 0.000000 0.000000 0.000000
# 2 0.013056 0.022340 -0.010539 0.000000 0.000000 0.000000
# 3 -0.010405 -0.010539 0.010763 0.000000 0.000000 0.000000
# 4 0.000000 0.000000 0.000000 -0.006252 0.000000 0.000000
# 5 0.000000 0.000000 0.000000 0.000000 0.068785 0.000000
# 6 0.000000 0.000000 0.000000 0.000000 0.000000 0.031117
#
#
# Mechanical properties :
#
#
# Convention : Reuss Voigt Hill
#
# Bulk Modulus (GPa) = 20.85324 59.01619 39.93472
# Shear Modulus (GPa) = 26.43532 -6.75173 9.84180
#
# Velocity S-wave (km/s) = 3.68317 -1.86139 2.24733
# Velocity P-wave (km/s) = 5.36552 5.06611 5.21796
#
# Compressibility (1/GPa) = 0.04795418
#
# Stress axis : x y z
#
# Youngs Moduli (GPa) = 32.65011 44.76268 92.91246
#
# Poissons Ratio (x) = -0.58441 0.96676
# Poissons Ratio (y) = -0.42627 0.97920
# Poissons Ratio (z) = 0.33973 0.47175
#
# Static dielectric constant tensor:
#      x y z
#    x 1.649790 0.000000 0.000000 
#    y 0.000000 1.646630 0.000000 
#    z 0.000000 0.000000 1.672710 
# 
# From -- ./inp_files/19927.got.cif
#   From: 2010.05.17/outbox.cif.g08.bks.cpg/sg58_10_cif.got.tgz:19927.got - 2010.06.03 14:20:14.
