data_PCOD9445718
_publ_section_title
;
Structure prediction by ZEFSAII (Michael W. Deem and Ramdas Pophale) SiO2 
 PCOD9445718
Probable space group: P N N M
;
_chemical_formula_sum "Si O2"
_cell_formula_units_Z 48
_cell_length_a 16.192527
_cell_length_b 14.006404
_cell_length_c 10.401476
_cell_angle_alpha 90.000000
_cell_angle_beta 90.000000
_cell_angle_gamma 90.000000
_cell_volume 2359.045135
_symmetry_space_group_name_H-M "P N N M"
_symmetry_group_IT_number 58
_symmetry_cell_setting 'orthorhombic'
loop_
_space_group_symop_operation_xyz
x,y,z
-x,-y,z
1/2+x,1/2-y,1/2-z
1/2-x,1/2+y,1/2-z
-x,-y,-z
x,y,-z
1/2-x,1/2+y,1/2+z
1/2+x,1/2-y,1/2+z
loop_
_atom_site_type_symbol
_atom_site_label
_atom_site_fract_x
_atom_site_fract_y
_atom_site_fract_z
Si Si1 0.838309 0.770402 0.247938
Si Si2 0.925339 0.370638 0.646698
Si Si3 0.888432 0.095752 0.500000
Si Si4 0.914594 0.871802 0.000000
Si Si5 0.117965 0.423442 0.646668
Si Si6 0.415131 0.630261 0.000000
Si Si7 0.387768 0.404010 0.500000
Si Si8 0.838878 0.206253 0.749308
O O1 0.880703 0.817383 0.125132
O O2 0.846930 0.655671 0.259528
O O3 0.879259 0.816674 0.374702
O O4 0.739497 0.776742 0.245548
O O5 0.899540 0.345448 0.500000
O O6 0.876072 0.466163 0.685119
O O7 0.914427 0.280386 0.736971
O O8 0.020743 0.399253 0.640842
O O9 0.845139 0.137903 0.626098
O O10 0.984861 0.129640 0.500000
O O11 0.889318 0.980937 0.500000
O O12 0.014305 0.878282 0.000000
O O13 0.882718 0.981351 0.000000
O O14 0.150273 0.413038 0.500000
O O15 0.346290 0.357242 0.624614
#
# Coordination Sequence:
#
# PCOD9445718 Si02
#       8
#     8   8   4   4   8   4   4   8
#     4  12  24  40  61  96 130 164 207 261 326 374
#     4   9  18  35  62  90 115 154 206 254 300 359
#     4  11  23  42  69  93 119 165 224 269 300 364
#     4  11  25  44  65  91 131 177 212 253 318 390
#     4   9  18  35  62  90 115 154 206 254 300 359
#     4  11  23  42  69  93 119 165 224 269 300 364
#     4  11  25  44  65  91 131 177 212 253 318 390
#     4  12  24  40  61  96 130 164 207 261 326 374
#
# _framework density 20.347214999999998
#
# number of rings (size 3 to 8) (size 9 to 14) (size 15 to 20)
#    0.000    1.333    1.667    6.000    0.000    5.333 
#    0.000    0.833    0.000    3.000    0.000    0.000 
#    0.000    0.000    0.000    0.000    0.000    0.000 
#
# Total GULP energy -268156.832871 kJ/mol
# GULP energy per Si atom -5586.600685 kJ/mol
# Density = 2.030090 g / cm^3
# Si number density = 20.347215 Si / 1000 Ang^3
#
#
#
# Elastic Constant Matrix: (Units=GPa)
#
#
# Indices 1 2 3 4 5 6 
#
# 1 50.6664 8.1472 25.3031 0.0000 0.0000 0.0000
# 2 8.1472 106.2645 49.5336 0.0000 0.0000 0.0000
# 3 25.3031 49.5336 148.5609 0.0000 0.0000 0.0000
# 4 0.0000 0.0000 0.0000 18.2562 0.0000 0.0000
# 5 0.0000 0.0000 0.0000 0.0000 10.8834 0.0000
# 6 0.0000 0.0000 0.0000 0.0000 0.0000 27.1826
#
#
#
# Elastic Compliance Matrix: (Units=1/GPa)
#
#
# Indices 1 2 3 4 5 6 
#
# 1 0.021572 0.000070 -0.003697 0.000000 0.000000 0.000000
# 2 0.000070 0.011142 -0.003727 0.000000 0.000000 0.000000
# 3 -0.003697 -0.003727 0.008604 0.000000 0.000000 0.000000
# 4 0.000000 0.000000 0.000000 0.054776 0.000000 0.000000
# 5 0.000000 0.000000 0.000000 0.000000 0.091883 0.000000
# 6 0.000000 0.000000 0.000000 0.000000 0.000000 0.036788
#
#
# Mechanical properties :
#
#
# Convention : Reuss Voigt Hill
#
# Bulk Modulus (GPa) = 37.58168 52.38437 44.98302
# Shear Modulus (GPa) = 20.13332 26.09831 23.11582
#
# Velocity S-wave (km/s) = 3.14903 3.58529 3.37422
# Velocity P-wave (km/s) = 5.63312 6.55288 6.11033
#
# Compressibility (1/GPa) = 0.02660871
#
# Stress axis : x y z
#
# Youngs Moduli (GPa) = 46.35577 89.74704 116.22963
#
# Poissons Ratio (x) = -0.00624 0.42975
# Poissons Ratio (y) = -0.00323 0.43319
# Poissons Ratio (z) = 0.17140 0.33449
#
# Static dielectric constant tensor:
#      x y z
#    x 1.822370 0.000000 0.000000 
#    y 0.000000 1.742640 0.000000 
#    z 0.000000 0.000000 1.699620 
# 
# From -- ./inp_files/7785.got.cif
#   From: 2010.05.17/outbox.cif.g08.bks.cpg/sg58_4_cif.got.tgz:7785.got - 2010.06.03 14:20:14.
