data_PCOD9445815
_publ_section_title
;
Structure prediction by ZEFSAII (Michael W. Deem and Ramdas Pophale) SiO2 
 PCOD9445815
Probable space group: P N N M
;
_chemical_formula_sum "Si O2"
_cell_formula_units_Z 28
_cell_length_a 5.071633
_cell_length_b 11.357027
_cell_length_c 20.932167
_cell_angle_alpha 90.000000
_cell_angle_beta 90.000000
_cell_angle_gamma 90.000000
_cell_volume 1205.665040
_symmetry_space_group_name_H-M "P N N M"
_symmetry_group_IT_number 58
_symmetry_cell_setting 'orthorhombic'
loop_
_space_group_symop_operation_xyz
x,y,z
-x,-y,z
1/2+x,1/2-y,1/2-z
1/2-x,1/2+y,1/2-z
-x,-y,-z
x,y,-z
1/2-x,1/2+y,1/2+z
1/2+x,1/2-y,1/2+z
loop_
_atom_site_type_symbol
_atom_site_label
_atom_site_fract_x
_atom_site_fract_y
_atom_site_fract_z
Si Si1 0.253341 0.075965 0.884289
Si Si2 0.523608 0.734080 0.789810
Si Si3 0.000000 0.000000 0.377827
Si Si4 0.750629 0.257484 0.500000
Si Si5 0.764881 0.395022 0.000000
O O1 0.367647 0.154556 0.828168
O O2 0.500000 0.000000 0.908802
O O3 0.178066 0.165808 0.939342
O O4 0.000000 0.000000 0.866132
O O5 0.223363 0.764116 0.770435
O O6 0.549105 0.613681 0.831759
O O7 0.789452 0.955935 0.431121
O O8 0.560913 0.147123 0.500000
O O9 0.051191 0.212644 0.500000
#
# Coordination Sequence:
#
# PCOD9445815 Si02
#       5
#     8   8   4   4   4
#     4  12  26  48  73 106 151 196 242 302 371 451
#     4  12  30  49  76 109 148 201 252 304 370 449
#     4  11  28  54  78 108 154 191 258 318 374 445
#     4  12  24  48  72 117 143 188 248 303 383 439
#     4  11  26  47  82 111 145 194 249 325 378 434
#
# _framework density 23.223699
#
# number of rings (size 3 to 8) (size 9 to 14) (size 15 to 20)
#    0.000    0.286    2.857    4.286   10.000    4.571 
#    0.000    0.000    0.000    0.000    0.000    0.000 
#    0.000    0.000    0.000    0.000    0.000    0.000 
#
# Total GULP energy -156551.968839 kJ/mol
# GULP energy per Si atom -5591.141744 kJ/mol
# Density = 2.317084 g / cm^3
# Si number density = 23.223699 Si / 1000 Ang^3
#
#
#
# Elastic Constant Matrix: (Units=GPa)
#
#
# Indices 1 2 3 4 5 6 
#
# 1 56.9486 26.0107 5.0595 0.0000 0.0000 0.0000
# 2 26.0107 108.5621 39.7131 0.0000 0.0000 0.0000
# 3 5.0595 39.7131 84.2231 0.0000 0.0000 0.0000
# 4 0.0000 0.0000 0.0000 40.0794 0.0000 0.0000
# 5 0.0000 0.0000 0.0000 0.0000 651.1080 0.0000
# 6 0.0000 0.0000 0.0000 0.0000 0.0000 45.3681
#
#
#
# Elastic Compliance Matrix: (Units=1/GPa)
#
#
# Indices 1 2 3 4 5 6 
#
# 1 0.019829 -0.005215 0.001268 0.000000 0.000000 0.000000
# 2 -0.005215 0.012503 -0.005582 0.000000 0.000000 0.000000
# 3 0.001268 -0.005582 0.014429 0.000000 0.000000 0.000000
# 4 0.000000 0.000000 0.000000 0.024950 0.000000 0.000000
# 5 0.000000 0.000000 0.000000 0.000000 0.001536 0.000000
# 6 0.000000 0.000000 0.000000 0.000000 0.000000 0.022042
#
#
# Mechanical properties :
#
#
# Convention : Reuss Voigt Hill
#
# Bulk Modulus (GPa) = 36.09768 43.47785 39.78777
# Shear Modulus (GPa) = 40.45932 159.24113 99.85022
#
# Velocity S-wave (km/s) = 4.17844 8.28959 6.56417
# Velocity P-wave (km/s) = 6.23349 10.50642 8.63833
#
# Compressibility (1/GPa) = 0.02770261
#
# Stress axis : x y z
#
# Youngs Moduli (GPa) = 50.43180 79.98305 69.30424
#
# Poissons Ratio (x) = 0.41707 -0.08785
# Poissons Ratio (y) = 0.26298 0.38686
# Poissons Ratio (z) = -0.06393 0.44647
#
# Static dielectric constant tensor:
#      x y z
#    x 1.911460 0.000000 0.000000 
#    y 0.000000 1.904350 0.000000 
#    z 0.000000 0.000000 2.416750 
# 
# From -- ./inp_files/27891.got.cif
#   From: 2010.05.17/outbox.cif.g08.bks.cpg/sg58_14_cif.got.tgz:27891.got - 2010.06.03 14:20:14.
