data_PCOD9445310
_publ_section_title
;
Structure prediction by ZEFSAII (Michael W. Deem and Ramdas Pophale) SiO2 
 PCOD9445310
Probable space group: P N N M
;
_chemical_formula_sum "Si O2"
_cell_formula_units_Z 56
_cell_length_a 21.590442
_cell_length_b 14.871294
_cell_length_c 8.585950
_cell_angle_alpha 90.000000
_cell_angle_beta 90.000000
_cell_angle_gamma 90.000000
_cell_volume 2756.758028
_symmetry_space_group_name_H-M "P N N M"
_symmetry_group_IT_number 58
_symmetry_cell_setting 'orthorhombic'
loop_
_space_group_symop_operation_xyz
x,y,z
-x,-y,z
1/2+x,1/2-y,1/2-z
1/2-x,1/2+y,1/2-z
-x,-y,-z
x,y,-z
1/2-x,1/2+y,1/2+z
1/2+x,1/2-y,1/2+z
loop_
_atom_site_type_symbol
_atom_site_label
_atom_site_fract_x
_atom_site_fract_y
_atom_site_fract_z
Si Si1 0.785832 0.206703 0.314754
Si Si2 0.463459 0.912006 0.811985
Si Si3 0.619633 0.390814 0.315306
Si Si4 0.824808 0.578023 0.187877
Si Si5 0.757779 0.393020 0.185495
Si Si6 0.399576 0.403164 0.684242
Si Si7 0.509225 0.285244 0.184708
O O1 0.783515 0.221199 0.500000
O O2 0.722221 0.157440 0.264893
O O3 0.793051 0.301910 0.230595
O O4 0.842067 0.140685 0.274174
O O5 0.392994 0.912397 0.755099
O O6 0.495536 0.818498 0.764501
O O7 0.500000 0.000000 0.756015
O O8 0.463033 0.913325 0.000000
O O9 0.613485 0.374734 0.500000
O O10 0.691222 0.388225 0.267909
O O11 0.595456 0.491305 0.278622
O O12 0.577943 0.319827 0.224076
O O13 0.794281 0.482740 0.234508
O O14 0.828257 0.579600 0.000000
O O15 0.748553 0.397725 0.000000
O O16 0.387773 0.396132 0.500000
O O17 0.460898 0.349043 0.728650
O O18 0.498016 0.290986 0.000000
#
# Coordination Sequence:
#
# PCOD9445310 Si02
#       7
#     8   8   8   8   8   8   8
#     4  11  23  41  64  93 128 166 210 260 316 380
#     4  10  24  44  64  90 124 164 211 259 310 372
#     4  11  23  41  64  94 128 167 211 257 317 380
#     4  10  23  42  64  92 125 162 205 255 311 370
#     4  11  23  40  63  94 128 163 208 258 314 376
#     4  11  24  41  63  93 128 165 209 262 317 379
#     4  11  24  41  64  92 125 169 212 263 321 374
#
# _framework density 20.313715999999999
#
# number of rings (size 3 to 8) (size 9 to 14) (size 15 to 20)
#    0.000    1.286    1.429    3.429    2.000    9.429 
#    0.000    0.000    0.000    0.000    0.000    0.000 
#    0.000    0.000    0.000    0.000    0.000    0.000 
#
# Total GULP energy -313298.685092 kJ/mol
# GULP energy per Si atom -5594.619377 kJ/mol
# Density = 2.026748 g / cm^3
# Si number density = 20.313716 Si / 1000 Ang^3
#
#
#
# Elastic Constant Matrix: (Units=GPa)
#
#
# Indices 1 2 3 4 5 6 
#
# 1 39.8635 -13.4585 -5.5198 0.0000 0.0000 0.0000
# 2 -13.4585 90.4007 19.2603 0.0000 0.0000 0.0000
# 3 -5.5198 19.2603 12.6604 0.0000 0.0000 0.0000
# 4 0.0000 0.0000 0.0000 25.5738 0.0000 0.0000
# 5 0.0000 0.0000 0.0000 0.0000 38.8100 0.0000
# 6 0.0000 0.0000 0.0000 0.0000 0.0000 18.9207
#
#
#
# Elastic Compliance Matrix: (Units=1/GPa)
#
#
# Indices 1 2 3 4 5 6 
#
# 1 0.027000 0.002237 0.008369 0.000000 0.000000 0.000000
# 2 0.002237 0.016552 -0.024205 0.000000 0.000000 0.000000
# 3 0.008369 -0.024205 0.119459 0.000000 0.000000 0.000000
# 4 0.000000 0.000000 0.000000 0.039102 0.000000 0.000000
# 5 0.000000 0.000000 0.000000 0.000000 0.025767 0.000000
# 6 0.000000 0.000000 0.000000 0.000000 0.000000 0.052852
#
#
# Mechanical properties :
#
#
# Convention : Reuss Voigt Hill
#
# Bulk Modulus (GPa) = 7.36318 15.94320 11.65319
# Shear Modulus (GPa) = 14.15621 26.17041 20.16331
#
# Velocity S-wave (km/s) = 2.64271 3.59320 3.15397
# Velocity P-wave (km/s) = 3.59785 5.00803 4.36032
#
# Compressibility (1/GPa) = 0.13581084
#
# Stress axis : x y z
#
# Youngs Moduli (GPa) = 37.03768 60.41601 8.37106
#
# Poissons Ratio (x) = -0.13512 -0.07006
# Poissons Ratio (y) = -0.08284 0.20263
# Poissons Ratio (z) = -0.30997 1.46239
#
# Static dielectric constant tensor:
#      x y z
#    x 1.682120 0.000000 0.000000 
#    y 0.000000 1.725890 0.000000 
#    z 0.000000 0.000000 1.682880 
# 
# From -- ./inp_files/9039.got.cif
#   From: 2010.05.17/outbox.cif.g08.bks.cpg/sg58_5_cif.got.tgz:9039.got - 2010.06.03 14:20:14.
