data_PCOD9445381
_publ_section_title
;
Structure prediction by ZEFSAII (Michael W. Deem and Ramdas Pophale) SiO2 
 PCOD9445381
Probable space group: P N N M
;
_chemical_formula_sum "Si O2"
_cell_formula_units_Z 48
_cell_length_a 18.130519
_cell_length_b 9.828370
_cell_length_c 14.592284
_cell_angle_alpha 90.000000
_cell_angle_beta 90.000000
_cell_angle_gamma 90.000000
_cell_volume 2600.249415
_symmetry_space_group_name_H-M "P N N M"
_symmetry_group_IT_number 58
_symmetry_cell_setting 'orthorhombic'
loop_
_space_group_symop_operation_xyz
x,y,z
-x,-y,z
1/2+x,1/2-y,1/2-z
1/2-x,1/2+y,1/2-z
-x,-y,-z
x,y,-z
1/2-x,1/2+y,1/2+z
1/2+x,1/2-y,1/2+z
loop_
_atom_site_type_symbol
_atom_site_label
_atom_site_fract_x
_atom_site_fract_y
_atom_site_fract_z
Si Si1 0.671679 0.689283 0.701611
Si Si2 0.783969 0.492879 0.797672
Si Si3 0.867200 0.489560 0.500000
Si Si4 0.596780 0.672892 0.000000
Si Si5 0.264633 0.525645 0.000000
Si Si6 0.071644 0.411291 0.305455
Si Si7 0.725690 0.668202 0.500000
Si Si8 0.478922 0.347239 0.803635
O O1 0.714864 0.568018 0.751874
O O2 0.678279 0.667878 0.592653
O O3 0.589272 0.698622 0.740135
O O4 0.712565 0.831898 0.722838
O O5 0.777974 0.509543 0.906830
O O6 0.858181 0.555846 0.756402
O O7 0.870539 0.326045 0.500000
O O8 0.906764 0.546433 0.409072
O O9 0.784129 0.546138 0.500000
O O10 0.659700 0.558005 0.000000
O O11 0.549467 0.657642 0.908225
O O12 0.272249 0.689902 0.000000
O O13 0.000000 0.500000 0.279650
O O14 0.046909 0.255730 0.297668
O O15 0.500000 0.500000 0.779427
#
# Coordination Sequence:
#
# PCOD9445381 Si02
#       8
#     8   8   4   4   4   8   4   8
#     4  11  23  43  64  93 126 168 212 259 307 380
#     4  11  23  41  66  90 128 167 214 257 309 381
#     4  12  22  37  64  96 126 162 206 265 317 379
#     4  12  22  40  60  97 132 157 204 266 317 383
#     4  10  24  40  62  96 128 161 214 261 311 369
#     4  12  23  42  63  92 127 165 209 257 319 376
#     4  10  24  40  66  94 124 167 212 259 311 367
#     4  12  27  41  63  94 131 167 208 264 324 375
#
# _framework density 18.459768
#
# number of rings (size 3 to 8) (size 9 to 14) (size 15 to 20)
#    0.000    0.667    6.667    1.000    4.667    0.000 
#    0.000    1.667    0.000    0.000    0.000    0.000 
#    0.000    0.000    0.000    0.000    0.000    0.000 
#
# Total GULP energy -268364.658783 kJ/mol
# GULP energy per Si atom -5590.930391 kJ/mol
# Density = 1.841775 g / cm^3
# Si number density = 18.459768 Si / 1000 Ang^3
#
#
#
# Elastic Constant Matrix: (Units=GPa)
#
#
# Indices 1 2 3 4 5 6 
#
# 1 22.9064 -10.6275 12.6814 0.0000 0.0000 0.0000
# 2 -10.6275 73.3063 25.9139 0.0000 0.0000 0.0000
# 3 12.6814 25.9139 86.0390 0.0000 0.0000 0.0000
# 4 0.0000 0.0000 0.0000 16.4438 0.0000 0.0000
# 5 0.0000 0.0000 0.0000 0.0000 77.6651 0.0000
# 6 0.0000 0.0000 0.0000 0.0000 0.0000 41.7983
#
#
#
# Elastic Compliance Matrix: (Units=1/GPa)
#
#
# Indices 1 2 3 4 5 6 
#
# 1 0.056020 0.012356 -0.011978 0.000000 0.000000 0.000000
# 2 0.012356 0.017992 -0.007240 0.000000 0.000000 0.000000
# 3 -0.011978 -0.007240 0.015569 0.000000 0.000000 0.000000
# 4 0.000000 0.000000 0.000000 0.060813 0.000000 0.000000
# 5 0.000000 0.000000 0.000000 0.000000 0.012876 0.000000
# 6 0.000000 0.000000 0.000000 0.000000 0.000000 0.023924
#
#
# Mechanical properties :
#
#
# Convention : Reuss Voigt Hill
#
# Bulk Modulus (GPa) = 13.18295 26.46524 19.82409
# Shear Modulus (GPa) = 22.10391 37.46706 29.78548
#
# Velocity S-wave (km/s) = 3.46411 4.51006 4.02124
# Velocity P-wave (km/s) = 4.81218 6.44117 5.68532
#
# Compressibility (1/GPa) = 0.07585558
#
# Stress axis : x y z
#
# Youngs Moduli (GPa) = 17.85079 55.58008 64.23121
#
# Poissons Ratio (x) = -0.68674 0.76938
# Poissons Ratio (y) = -0.22056 0.46504
# Poissons Ratio (z) = 0.21382 0.40241
#
# Static dielectric constant tensor:
#      x y z
#    x 1.607070 0.000000 0.000000 
#    y 0.000000 1.654170 0.000000 
#    z 0.000000 0.000000 1.618300 
# 
# From -- ./inp_files/19883.got.cif
#   From: 2010.05.17/outbox.cif.g08.bks.cpg/sg58_10_cif.got.tgz:19883.got - 2010.06.03 14:20:14.
