data_PCOD9445541
_publ_section_title
;
Structure prediction by ZEFSAII (Michael W. Deem and Ramdas Pophale) SiO2 
 PCOD9445541
Probable space group: P N N M
;
_chemical_formula_sum "Si O2"
_cell_formula_units_Z 48
_cell_length_a 9.817036
_cell_length_b 15.062662
_cell_length_c 15.111254
_cell_angle_alpha 90.000000
_cell_angle_beta 90.000000
_cell_angle_gamma 90.000000
_cell_volume 2234.511633
_symmetry_space_group_name_H-M "P N N M"
_symmetry_group_IT_number 58
_symmetry_cell_setting 'orthorhombic'
loop_
_space_group_symop_operation_xyz
x,y,z
-x,-y,z
1/2+x,1/2-y,1/2-z
1/2-x,1/2+y,1/2-z
-x,-y,-z
x,y,-z
1/2-x,1/2+y,1/2+z
1/2+x,1/2-y,1/2+z
loop_
_atom_site_type_symbol
_atom_site_label
_atom_site_fract_x
_atom_site_fract_y
_atom_site_fract_z
Si Si1 0.845394 0.973405 0.286347
Si Si2 0.965470 0.247492 0.847941
Si Si3 0.183617 0.194897 0.405216
Si Si4 0.404000 0.235705 0.859324
Si Si5 0.689311 0.112340 0.600617
Si Si6 0.821133 0.906077 0.898198
O O1 0.823473 0.874652 0.324641
O O2 0.830621 0.976874 0.180533
O O3 0.736235 0.035136 0.334406
O O4 0.000000 0.000000 0.310063
O O5 0.824318 0.253413 0.899085
O O6 0.924505 0.247861 0.745095
O O7 0.056088 0.334605 0.868060
O O8 0.058229 0.164756 0.877094
O O9 0.175732 0.146459 0.500000
O O10 0.054455 0.258778 0.398104
O O11 0.312014 0.316014 0.896089
O O12 0.319323 0.148037 0.882388
O O13 0.670866 0.081379 0.500000
O O14 0.830635 0.935491 0.000000
#
# Coordination Sequence:
#
# PCOD9445541 Si02
#       6
#     8   8   8   8   8   8
#     4  12  24  40  62  94 129 171 210 259 314 378
#     4  11  21  41  64  97 128 161 207 262 318 376
#     4  12  22  36  63  97 128 158 204 259 316 378
#     4  11  20  40  66  94 125 162 207 260 312 374
#     4  11  23  40  64  94 131 169 207 256 321 379
#     4  11  23  43  67  91 124 169 216 262 315 374
#
# _framework density 21.481204000000002
#
# number of rings (size 3 to 8) (size 9 to 14) (size 15 to 20)
#    0.000    0.667    5.000    5.500    0.000    1.667 
#    0.000    1.667    0.000    4.000    0.000    0.000 
#    0.000    0.000    0.000    0.000    0.000    0.000 
#
# Total GULP energy -268525.689142 kJ/mol
# GULP energy per Si atom -5594.285190 kJ/mol
# Density = 2.143231 g / cm^3
# Si number density = 21.481204 Si / 1000 Ang^3
#
#
#
# Elastic Constant Matrix: (Units=GPa)
#
#
# Indices 1 2 3 4 5 6 
#
# 1 135.8895 11.0589 2.1815 0.0000 0.0000 0.0000
# 2 11.0589 18.7651 -4.9912 0.0000 0.0000 0.0000
# 3 2.1815 -4.9912 160.2945 0.0000 0.0000 0.0000
# 4 0.0000 0.0000 0.0000 23.7719 0.0000 0.0000
# 5 0.0000 0.0000 0.0000 0.0000 -221.3586 0.0000
# 6 0.0000 0.0000 0.0000 0.0000 0.0000 16.2857
#
#
#
# Elastic Compliance Matrix: (Units=1/GPa)
#
#
# Indices 1 2 3 4 5 6 
#
# 1 0.007740 -0.004628 -0.000249 0.000000 0.000000 0.000000
# 2 -0.004628 0.056502 0.001822 0.000000 0.000000 0.000000
# 3 -0.000249 0.001822 0.006299 0.000000 0.000000 0.000000
# 4 0.000000 0.000000 0.000000 0.042066 0.000000 0.000000
# 5 0.000000 0.000000 0.000000 0.000000 -0.004518 0.000000
# 6 0.000000 0.000000 0.000000 0.000000 0.000000 0.061404
#
#
# Mechanical properties :
#
#
# Convention : Reuss Voigt Hill
#
# Bulk Modulus (GPa) = 15.52039 36.82751 26.17395
# Shear Modulus (GPa) = 25.37048 -15.81354 4.77847
#
# Velocity S-wave (km/s) = 3.44038 -2.71617 1.49309
# Velocity P-wave (km/s) = 4.79816 2.71008 3.89660
#
# Compressibility (1/GPa) = 0.06443137
#
# Stress axis : x y z
#
# Youngs Moduli (GPa) = 129.20696 17.69835 158.76406
#
# Poissons Ratio (x) = 0.08190 0.03960
# Poissons Ratio (y) = 0.59791 -0.28932
# Poissons Ratio (z) = 0.03223 -0.03225
#
# Static dielectric constant tensor:
#      x y z
#    x 1.753760 0.000000 0.000000 
#    y 0.000000 1.779430 0.000000 
#    z 0.000000 0.000000 1.834120 
# 
# From -- ./inp_files/19825.got.cif
#   From: 2010.05.17/outbox.cif.g08.bks.cpg/sg58_10_cif.got.tgz:19825.got - 2010.06.03 14:20:14.
