data_PCOD9445065
_publ_section_title
;
Structure prediction by ZEFSAII (Michael W. Deem and Ramdas Pophale) SiO2 
 PCOD9445065
Probable space group: P N N M
;
_chemical_formula_sum "Si O2"
_cell_formula_units_Z 64
_cell_length_a 23.989365
_cell_length_b 15.583894
_cell_length_c 8.967914
_cell_angle_alpha 90.000000
_cell_angle_beta 90.000000
_cell_angle_gamma 90.000000
_cell_volume 3352.634214
_symmetry_space_group_name_H-M "P N N M"
_symmetry_group_IT_number 58
_symmetry_cell_setting 'orthorhombic'
loop_
_space_group_symop_operation_xyz
x,y,z
-x,-y,z
1/2+x,1/2-y,1/2-z
1/2-x,1/2+y,1/2-z
-x,-y,-z
x,y,-z
1/2-x,1/2+y,1/2+z
1/2+x,1/2-y,1/2+z
loop_
_atom_site_type_symbol
_atom_site_label
_atom_site_fract_x
_atom_site_fract_y
_atom_site_fract_z
Si Si1 0.079733 0.257092 0.177407
Si Si2 0.751866 0.156809 0.322070
Si Si3 0.249874 0.156102 0.322493
Si Si4 0.948830 0.246606 0.821202
Si Si5 0.624772 0.910581 0.677407
Si Si6 0.621953 0.595864 0.177563
Si Si7 0.855366 0.586010 0.676875
Si Si8 0.143773 0.079643 0.177519
O O1 0.109757 0.332219 0.267225
O O2 0.108521 0.165722 0.208009
O O3 0.014247 0.252510 0.211148
O O4 0.086378 0.274468 0.000000
O O5 0.743975 0.159505 0.500000
O O6 0.743360 0.251323 0.254180
O O7 0.814699 0.126827 0.290201
O O8 0.705655 0.095407 0.250814
O O9 0.241702 0.163942 0.500000
O O10 0.312366 0.122844 0.295682
O O11 0.203596 0.093457 0.254687
O O12 0.917340 0.334650 0.779908
O O13 0.919694 0.167259 0.740065
O O14 0.941917 0.235543 0.000000
O O15 0.618920 0.926570 0.500000
O O16 0.617057 0.998531 0.765165
O O17 0.614894 0.504374 0.256107
O O18 0.616191 0.587542 0.000000
O O19 0.850350 0.586094 0.500000
O O20 0.150413 0.071125 0.000000
#
# Coordination Sequence:
#
# PCOD9445065 Si02
#       8
#     8   8   8   8   8   8   8   8
#     4  10  23  43  65  88 119 161 209 257 305 361
#     4  11  22  38  61  89 124 162 198 242 304 370
#     4  11  21  36  62  94 124 155 197 250 307 363
#     4  10  22  43  67  89 117 161 211 254 303 366
#     4  10  22  40  63  90 123 159 198 249 304 366
#     4  11  24  40  62  92 126 161 199 254 309 359
#     4  12  25  39  62  92 124 161 202 252 304 362
#     4  11  23  39  62  90 123 164 204 247 301 365
#
# _framework density 19.089466999999999
#
# number of rings (size 3 to 8) (size 9 to 14) (size 15 to 20)
#    0.000    1.250    2.500    3.375    0.000    8.000 
#    0.000    5.000    0.000    0.000    0.000    0.000 
#    0.000    0.000    0.000    0.000    0.000    0.000 
#
# Total GULP energy -358016.340690 kJ/mol
# GULP energy per Si atom -5594.005323 kJ/mol
# Density = 1.904602 g / cm^3
# Si number density = 19.089467 Si / 1000 Ang^3
#
#
#
# Elastic Constant Matrix: (Units=GPa)
#
#
# Indices 1 2 3 4 5 6 
#
# 1 92.6651 27.3086 49.2116 0.0000 0.0000 0.0000
# 2 27.3086 101.8737 49.5751 0.0000 0.0000 0.0000
# 3 49.2116 49.5751 60.6291 0.0000 0.0000 0.0000
# 4 0.0000 0.0000 0.0000 29.8162 0.0000 0.0000
# 5 0.0000 0.0000 0.0000 0.0000 6.5430 0.0000
# 6 0.0000 0.0000 0.0000 0.0000 0.0000 3.7342
#
#
#
# Elastic Compliance Matrix: (Units=1/GPa)
#
#
# Indices 1 2 3 4 5 6 
#
# 1 0.020002 0.004217 -0.019683 0.000000 0.000000 0.000000
# 2 0.004217 0.017192 -0.017480 0.000000 0.000000 0.000000
# 3 -0.019683 -0.017480 0.046763 0.000000 0.000000 0.000000
# 4 0.000000 0.000000 0.000000 0.033539 0.000000 0.000000
# 5 0.000000 0.000000 0.000000 0.000000 0.152834 0.000000
# 6 0.000000 0.000000 0.000000 0.000000 0.000000 0.267794
#
#
# Mechanical properties :
#
#
# Convention : Reuss Voigt Hill
#
# Bulk Modulus (GPa) = 55.35839 56.37317 55.86578
# Shear Modulus (GPa) = 8.19619 16.62354 12.40987
#
# Velocity S-wave (km/s) = 2.07434 2.95417 2.55245
# Velocity P-wave (km/s) = 5.89912 6.42116 6.16567
#
# Compressibility (1/GPa) = 0.01806411
#
# Stress axis : x y z
#
# Youngs Moduli (GPa) = 49.99491 58.16583 21.38421
#
# Poissons Ratio (x) = -0.24527 0.42091
# Poissons Ratio (y) = -0.21081 0.37380
# Poissons Ratio (z) = 0.98406 1.01676
#
# Static dielectric constant tensor:
#      x y z
#    x 1.643790 0.000000 0.000000 
#    y 0.000000 1.648370 0.000000 
#    z 0.000000 0.000000 1.634350 
# 
# From -- ./inp_files/9969.got.cif
#   From: 2010.05.17/outbox.cif.g08.bks.cpg/sg58_5_cif.got.tgz:9969.got - 2010.06.03 14:20:14.
