data_PCOD9445271
_publ_section_title
;
Structure prediction by ZEFSAII (Michael W. Deem and Ramdas Pophale) SiO2 
 PCOD9445271
Probable space group: P N N M
;
_chemical_formula_sum "Si O2"
_cell_formula_units_Z 40
_cell_length_a 16.727827
_cell_length_b 8.308236
_cell_length_c 13.204246
_cell_angle_alpha 90.000000
_cell_angle_beta 90.000000
_cell_angle_gamma 90.000000
_cell_volume 1835.109399
_symmetry_space_group_name_H-M "P N N M"
_symmetry_group_IT_number 58
_symmetry_cell_setting 'orthorhombic'
loop_
_space_group_symop_operation_xyz
x,y,z
-x,-y,z
1/2+x,1/2-y,1/2-z
1/2-x,1/2+y,1/2-z
-x,-y,-z
x,y,-z
1/2-x,1/2+y,1/2+z
1/2+x,1/2-y,1/2+z
loop_
_atom_site_type_symbol
_atom_site_label
_atom_site_fract_x
_atom_site_fract_y
_atom_site_fract_z
Si Si1 0.699277 0.811486 0.116350
Si Si2 0.563022 0.293031 0.500000
Si Si3 0.429096 0.626879 0.707264
Si Si4 0.784629 0.107594 0.193173
Si Si5 0.378430 0.330090 0.500000
Si Si6 0.010361 0.690577 0.387656
O O1 0.736903 0.709019 0.208120
O O2 0.604877 0.776917 0.121067
O O3 0.716086 0.998468 0.142894
O O4 0.726731 0.781160 0.000000
O O5 0.586573 0.250132 0.614195
O O6 0.467460 0.260371 0.500000
O O7 0.601068 0.476826 0.500000
O O8 0.500000 0.500000 0.676290
O O9 0.352327 0.519529 0.727275
O O10 0.461246 0.717380 0.803823
O O11 0.827737 0.204681 0.101336
O O12 0.983716 0.738934 0.500000
O O13 0.000000 0.500000 0.377391
#
# Coordination Sequence:
#
# PCOD9445271 Si02
#       6
#     8   4   8   8   4   8
#     4  11  24  42  60  89 127 161 203 255 304 363
#     4   9  14  28  57  88 109 134 191 240 281 344
#     4  11  18  35  62  87 112 153 203 243 289 360
#     4  11  22  38  61  88 121 162 200 251 309 362
#     4   9  14  32  56  82 109 149 187 230 297 353
#     4  10  23  41  60  86 122 160 199 250 305 354
#
# _framework density 21.797065
#
# number of rings (size 3 to 8) (size 9 to 14) (size 15 to 20)
#    0.000    1.600    7.000    0.000    2.800    1.200 
#    1.800    0.500    0.000    0.000    0.000    0.000 
#    0.000    0.000    0.000    0.000    0.000    0.000 
#
# Total GULP energy -223102.842607 kJ/mol
# GULP energy per Si atom -5577.571065 kJ/mol
# Density = 2.174745 g / cm^3
# Si number density = 21.797065 Si / 1000 Ang^3
#
#
#
# Elastic Constant Matrix: (Units=GPa)
#
#
# Indices 1 2 3 4 5 6 
#
# 1 41.2567 10.7658 29.2824 0.0000 0.0000 0.0000
# 2 10.7658 17.9029 53.7221 0.0000 0.0000 0.0000
# 3 29.2824 53.7221 199.2130 0.0000 0.0000 0.0000
# 4 0.0000 0.0000 0.0000 8.1862 0.0000 0.0000
# 5 0.0000 0.0000 0.0000 0.0000 27.5856 0.0000
# 6 0.0000 0.0000 0.0000 0.0000 0.0000 24.5489
#
#
#
# Elastic Compliance Matrix: (Units=1/GPa)
#
#
# Indices 1 2 3 4 5 6 
#
# 1 0.028950 -0.024319 0.002303 0.000000 0.000000 0.000000
# 2 -0.024319 0.313203 -0.080887 0.000000 0.000000 0.000000
# 3 0.002303 -0.080887 0.026494 0.000000 0.000000 0.000000
# 4 0.000000 0.000000 0.000000 0.122156 0.000000 0.000000
# 5 0.000000 0.000000 0.000000 0.000000 0.036251 0.000000
# 6 0.000000 0.000000 0.000000 0.000000 0.000000 0.040735
#
#
# Mechanical properties :
#
#
# Convention : Reuss Voigt Hill
#
# Bulk Modulus (GPa) = 6.14098 49.54594 27.84346
# Shear Modulus (GPa) = 6.03955 23.03763 14.53859
#
# Velocity S-wave (km/s) = 1.66638 3.25455 2.58543
# Velocity P-wave (km/s) = 2.55458 6.07476 4.65986
#
# Compressibility (1/GPa) = 0.16284058
#
# Stress axis : x y z
#
# Youngs Moduli (GPa) = 34.54228 3.19282 37.74389
#
# Poissons Ratio (x) = 0.07765 -0.08691
# Poissons Ratio (y) = 0.84002 3.05301
# Poissons Ratio (z) = -0.07954 0.25826
#
# Static dielectric constant tensor:
#      x y z
#    x 1.836040 0.000000 0.000000 
#    y 0.000000 1.812530 0.000000 
#    z 0.000000 0.000000 1.839700 
# 
# From -- ./inp_files/16894.got.cif
#   From: 2010.05.17/outbox.cif.g08.bks.cpg/sg58_9_cif.got.tgz:16894.got - 2010.06.03 14:20:14.
