data_PCOD9445038
_publ_section_title
;
Structure prediction by ZEFSAII (Michael W. Deem and Ramdas Pophale) SiO2 
 PCOD9445038
Probable space group: P N N M
;
_chemical_formula_sum "Si O2"
_cell_formula_units_Z 48
_cell_length_a 27.962786
_cell_length_b 10.306051
_cell_length_c 8.612604
_cell_angle_alpha 90.000000
_cell_angle_beta 90.000000
_cell_angle_gamma 90.000000
_cell_volume 2482.031023
_symmetry_space_group_name_H-M "P N N M"
_symmetry_group_IT_number 58
_symmetry_cell_setting 'orthorhombic'
loop_
_space_group_symop_operation_xyz
x,y,z
-x,-y,z
1/2+x,1/2-y,1/2-z
1/2-x,1/2+y,1/2-z
-x,-y,-z
x,y,-z
1/2-x,1/2+y,1/2+z
1/2+x,1/2-y,1/2+z
loop_
_atom_site_type_symbol
_atom_site_label
_atom_site_fract_x
_atom_site_fract_y
_atom_site_fract_z
Si Si1 0.292567 0.592797 0.687586
Si Si2 0.887511 0.523508 0.312268
Si Si3 0.217126 0.375649 0.312544
Si Si4 0.931084 0.253718 0.685615
Si Si5 0.037227 0.269754 0.813632
Si Si6 0.900086 0.976038 0.812706
O O1 0.292271 0.596412 0.500000
O O2 0.257656 0.477018 0.738121
O O3 0.275766 0.731747 0.748581
O O4 0.347037 0.566115 0.738873
O O5 0.890229 0.531528 0.500000
O O6 0.835218 0.572836 0.263824
O O7 0.897958 0.375092 0.266912
O O8 0.928046 0.615829 0.241909
O O9 0.217746 0.370923 0.500000
O O10 0.930952 0.246593 0.500000
O O11 0.913566 0.117227 0.752159
O O12 0.984737 0.281052 0.743074
O O13 0.061851 0.133739 0.764977
O O14 0.033890 0.271428 0.000000
O O15 0.900174 0.979556 0.000000
#
# Coordination Sequence:
#
# PCOD9445038 Si02
#       6
#     8   8   8   8   8   8
#     4  10  22  41  63  89 121 154 193 243 295 348
#     4  10  22  40  59  85 121 155 194 243 292 347
#     4  10  22  40  63  89 118 154 194 239 293 350
#     4  11  24  38  58  89 120 157 198 244 294 349
#     4  11  22  39  62  87 116 157 200 244 296 350
#     4  10  22  40  59  85 120 155 195 244 292 346
#
# _framework density 19.338999000000001
#
# number of rings (size 3 to 8) (size 9 to 14) (size 15 to 20)
#    0.000    1.667    1.667    2.000    2.333    8.000 
#    0.000    0.000    0.000    0.000    0.000    0.000 
#    0.000    0.000    0.000    0.000    0.000    0.000 
#
# Total GULP energy -268314.543236 kJ/mol
# GULP energy per Si atom -5589.886317 kJ/mol
# Density = 1.929498 g / cm^3
# Si number density = 19.338999 Si / 1000 Ang^3
#
#
#
# Elastic Constant Matrix: (Units=GPa)
#
#
# Indices 1 2 3 4 5 6 
#
# 1 9.9719 -72.3804 -5.9348 0.0000 0.0000 0.0000
# 2 -72.3804 -37.4631 -5.5127 0.0000 0.0000 0.0000
# 3 -5.9348 -5.5127 0.5828 0.0000 0.0000 0.0000
# 4 0.0000 0.0000 0.0000 37.4950 0.0000 0.0000
# 5 0.0000 0.0000 0.0000 0.0000 17.4522 0.0000
# 6 0.0000 0.0000 0.0000 0.0000 0.0000 42.6476
#
#
#
# Elastic Compliance Matrix: (Units=1/GPa)
#
#
# Indices 1 2 3 4 5 6 
#
# 1 0.007471 -0.010714 -0.025274 0.000000 0.000000 0.000000
# 2 -0.010714 0.004207 -0.069312 0.000000 0.000000 0.000000
# 3 -0.025274 -0.069312 0.802868 0.000000 0.000000 0.000000
# 4 0.000000 0.000000 0.000000 0.026670 0.000000 0.000000
# 5 0.000000 0.000000 0.000000 0.000000 0.057299 0.000000
# 6 0.000000 0.000000 0.000000 0.000000 0.000000 0.023448
#
#
# Mechanical properties :
#
#
# Convention : Reuss Voigt Hill
#
# Bulk Modulus (GPa) = 1.65578 -21.61826 -9.98124
# Shear Modulus (GPa) = 3.74846 23.31360 13.53103
#
# Velocity S-wave (km/s) = 1.39374 3.47583 2.64801
# Velocity P-wave (km/s) = 1.85689 2.21488 2.04374
#
# Compressibility (1/GPa) = 0.60394390
#
# Stress axis : x y z
#
# Youngs Moduli (GPa) = 133.85887 237.69440 1.24553
#
# Poissons Ratio (x) = 2.54674 0.03148
# Poissons Ratio (y) = 1.43421 0.08633
# Poissons Ratio (z) = 3.38316 16.47518
#
# Static dielectric constant tensor:
#      x y z
#    x 1.654230 0.000000 0.000000 
#    y 0.000000 1.644890 0.000000 
#    z 0.000000 0.000000 1.662020 
# 
# From -- ./inp_files/2966.got.cif
#   From: 2010.05.17/outbox.cif.g08.bks.cpg/sg58_2_cif.got.tgz:2966.got - 2010.06.03 14:20:14.
