data_PCOD9445958
_publ_section_title
;
Structure prediction by ZEFSAII (Michael W. Deem and Ramdas Pophale) SiO2 
 PCOD9445958
Probable space group: P N N M
;
_chemical_formula_sum "Si O2"
_cell_formula_units_Z 64
_cell_length_a 15.000000
_cell_length_b 12.000000
_cell_length_c 18.000000
_cell_angle_alpha 90.000000
_cell_angle_beta 90.000000
_cell_angle_gamma 90.000000
_cell_volume 3240.000000
_symmetry_space_group_name_H-M "P N N M"
_symmetry_group_IT_number 58
_symmetry_cell_setting 'orthorhombic'
loop_
_space_group_symop_operation_xyz
x,y,z
-x,-y,z
1/2+x,1/2-y,1/2-z
1/2-x,1/2+y,1/2-z
-x,-y,-z
x,y,-z
1/2-x,1/2+y,1/2+z
1/2+x,1/2-y,1/2+z
loop_
_atom_site_type_symbol
_atom_site_label
_atom_site_fract_x
_atom_site_fract_y
_atom_site_fract_z
Si Si1 0.152602 0.960800 0.084956
Si Si2 0.927450 0.249146 0.159202
Si Si3 0.680455 0.008991 0.815733
Si Si4 0.455193 0.875657 0.915631
Si Si5 0.108524 0.506070 0.152253
Si Si6 0.752624 0.650381 0.918234
Si Si7 0.910153 0.801455 0.918638
Si Si8 0.394041 0.242485 0.170281
O O1 0.104686 0.846581 0.104424
O O2 0.221018 0.979912 0.152500
O O3 0.087752 0.066618 0.086833
O O4 0.190433 0.959177 0.000000
O O5 0.876390 0.362568 0.142320
O O6 0.916290 0.225922 0.245753
O O7 0.032546 0.258770 0.143140
O O8 0.628232 0.100741 0.863899
O O9 0.650216 0.029432 0.731449
O O10 0.650746 0.880901 0.828874
O O11 0.519939 0.783826 0.880048
O O12 0.500000 0.000000 0.916282
O O13 0.432966 0.847531 0.000000
O O14 0.168686 0.438001 0.095133
O O15 0.000000 0.500000 0.151574
O O16 0.807561 0.765965 0.914979
O O17 0.672384 0.665318 0.861799
O O18 0.714680 0.635564 0.000000
O O19 0.942952 0.765187 0.000000
#
# Coordination Sequence:
#
# PCOD9445958 Si02
#       8
#     8   8   8   8   8   8   8   8
#     4  11  22  37  59  85 118 152 192 246 296 354
#     4  11  22  37  56  83 113 152 192 240 293 350
#     4  10  19  34  56  83 116 150 187 237 295 346
#     4   9  17  29  52  81 110 145 187 236 283 332
#     4  11  22  38  56  82 116 154 195 235 291 353
#     4  11  22  36  58  82 113 154 192 234 285 354
#     4  10  21  37  58  83 113 151 190 234 293 355
#     4  10  20  36  55  82 115 152 194 236 288 347
#
# _framework density 19.753086
#
# number of rings (size 3 to 8) (size 9 to 14) (size 15 to 20)
#    0.000    1.625    2.500    4.125    0.000    3.250 
#    0.000    0.000    0.000    0.000    0.000    0.000 
#    0.000    8.000    0.000    0.000    0.000    0.000 
#
# Total GULP energy -356390.802824 kJ/mol
# GULP energy per Si atom -5568.606294 kJ/mol
# Density = 1.970813 g / cm^3
# Si number density = 19.753086 Si / 1000 Ang^3
#
#
#
# Elastic Constant Matrix: (Units=GPa)
#
#
# Indices 1 2 3 4 5 6 
#
# 1 53.8965 7.7361 39.8092 0.0000 0.0000 0.0000
# 2 7.7361 51.0284 39.4478 0.0000 0.0000 0.0000
# 3 39.8092 39.4478 83.3175 0.0000 0.0000 0.0000
# 4 0.0000 0.0000 0.0000 84.2749 0.0000 0.0000
# 5 0.0000 0.0000 0.0000 0.0000 32.3663 0.0000
# 6 0.0000 0.0000 0.0000 0.0000 0.0000 21.6409
#
#
#
# Elastic Compliance Matrix: (Units=1/GPa)
#
#
# Indices 1 2 3 4 5 6 
#
# 1 0.032197 0.011059 -0.020620 0.000000 0.000000 0.000000
# 2 0.011059 0.034709 -0.021718 0.000000 0.000000 0.000000
# 3 -0.020620 -0.021718 0.032137 0.000000 0.000000 0.000000
# 4 0.000000 0.000000 0.000000 0.011866 0.000000 0.000000
# 5 0.000000 0.000000 0.000000 0.000000 0.030896 0.000000
# 6 0.000000 0.000000 0.000000 0.000000 0.000000 0.046209
#
#
# Mechanical properties :
#
#
# Convention : Reuss Voigt Hill
#
# Bulk Modulus (GPa) = 27.40740 40.24760 33.82750
# Shear Modulus (GPa) = 19.03074 34.40638 26.71856
#
# Velocity S-wave (km/s) = 3.10729 4.17804 3.68180
# Velocity P-wave (km/s) = 5.17482 6.61017 5.93604
#
# Compressibility (1/GPa) = 0.03648650
#
# Stress axis : x y z
#
# Youngs Moduli (GPa) = 31.05885 28.81079 31.11689
#
# Poissons Ratio (x) = -0.31862 0.64162
# Poissons Ratio (y) = -0.34348 0.67578
# Poissons Ratio (z) = 0.64043 0.62570
#
# Static dielectric constant tensor:
#      x y z
#    x 1.730650 0.000000 0.000000 
#    y 0.000000 1.716400 0.000000 
#    z 0.000000 0.000000 1.698440 
# 
# From -- ./inp_files/27024.got.cif
#   From: 2010.05.17/outbox.ucp.g08.bks.cvg/sg58_14_cif.got.tgz:27024.got - 2010.06.11 16:41:41.
