data_PCOD9445354
_publ_section_title
;
Structure prediction by ZEFSAII (Michael W. Deem and Ramdas Pophale) SiO2 
 PCOD9445354
Probable space group: P N N M
;
_chemical_formula_sum "Si O2"
_cell_formula_units_Z 48
_cell_length_a 14.614122
_cell_length_b 9.806323
_cell_length_c 17.235620
_cell_angle_alpha 90.000000
_cell_angle_beta 90.000000
_cell_angle_gamma 90.000000
_cell_volume 2470.050503
_symmetry_space_group_name_H-M "P N N M"
_symmetry_group_IT_number 58
_symmetry_cell_setting 'orthorhombic'
loop_
_space_group_symop_operation_xyz
x,y,z
-x,-y,z
1/2+x,1/2-y,1/2-z
1/2-x,1/2+y,1/2-z
-x,-y,-z
x,y,-z
1/2-x,1/2+y,1/2+z
1/2+x,1/2-y,1/2+z
loop_
_atom_site_type_symbol
_atom_site_label
_atom_site_fract_x
_atom_site_fract_y
_atom_site_fract_z
Si Si1 0.203402 0.249400 0.310406
Si Si2 0.026914 0.344184 0.221338
Si Si3 0.242531 0.505219 0.590811
Si Si4 0.145331 0.724090 0.320156
Si Si5 0.111104 0.002133 0.406839
Si Si6 0.559305 0.368286 0.408706
O O1 0.123765 0.325731 0.263047
O O2 0.247566 0.361214 0.366738
O O3 0.279084 0.207357 0.247453
O O4 0.342015 0.626563 0.140395
O O5 0.951737 0.279928 0.278187
O O6 0.000000 0.500000 0.208307
O O7 0.031179 0.259198 0.142420
O O8 0.232502 0.482759 0.500000
O O9 0.160070 0.596155 0.623398
O O10 0.335173 0.591257 0.604149
O O11 0.151217 0.863230 0.369387
O O12 0.128622 0.010453 0.500000
O O13 0.000000 0.000000 0.396907
O O14 0.500000 0.500000 0.385684
O O15 0.545018 0.344043 0.500000
#
# Coordination Sequence:
#
# PCOD9445354 Si02
#       6
#     8   8   8   8   8   8
#     4  12  24  42  66  98 131 173 221 275 330 396
#     4  12  25  41  64 100 133 170 225 274 328 397
#     4  11  23  42  65  94 131 172 215 267 332 395
#     4  12  24  42  66  96 131 172 218 272 332 398
#     4  11  25  44  67  98 133 175 227 281 341 398
#     4  10  23  44  69  95 127 175 225 274 332 392
#
# _framework density 19.432801000000001
#
# number of rings (size 3 to 8) (size 9 to 14) (size 15 to 20)
#    0.000    0.667    5.000    3.000    2.333    0.333 
#    0.000    1.667    0.000    0.000    0.000    0.000 
#    0.000    0.000    0.000    0.000    0.000    0.000 
#
# Total GULP energy -268381.878138 kJ/mol
# GULP energy per Si atom -5591.289128 kJ/mol
# Density = 1.938857 g / cm^3
# Si number density = 19.432801 Si / 1000 Ang^3
#
#
#
# Elastic Constant Matrix: (Units=GPa)
#
#
# Indices 1 2 3 4 5 6 
#
# 1 34.7675 -33.4872 1.7665 0.0000 0.0000 0.0000
# 2 -33.4872 82.6342 32.5429 0.0000 0.0000 0.0000
# 3 1.7665 32.5429 64.3148 0.0000 0.0000 0.0000
# 4 0.0000 0.0000 0.0000 42.5489 0.0000 0.0000
# 5 0.0000 0.0000 0.0000 0.0000 29.1961 0.0000
# 6 0.0000 0.0000 0.0000 0.0000 0.0000 29.0522
#
#
#
# Elastic Compliance Matrix: (Units=1/GPa)
#
#
# Indices 1 2 3 4 5 6 
#
# 1 0.059331 0.030829 -0.017229 0.000000 0.000000 0.000000
# 2 0.030829 0.031132 -0.016599 0.000000 0.000000 0.000000
# 3 -0.017229 -0.016599 0.024421 0.000000 0.000000 0.000000
# 4 0.000000 0.000000 0.000000 0.023502 0.000000 0.000000
# 5 0.000000 0.000000 0.000000 0.000000 0.034251 0.000000
# 6 0.000000 0.000000 0.000000 0.000000 0.000000 0.034421
#
#
# Mechanical properties :
#
#
# Convention : Reuss Voigt Hill
#
# Bulk Modulus (GPa) = 9.18397 20.37343 14.77870
# Shear Modulus (GPa) = 20.05200 32.21908 26.13554
#
# Velocity S-wave (km/s) = 3.21575 4.07624 3.67129
# Velocity P-wave (km/s) = 4.30399 5.71499 5.05892
#
# Compressibility (1/GPa) = 0.10888535
#
# Stress axis : x y z
#
# Youngs Moduli (GPa) = 16.85454 32.12147 40.94864
#
# Poissons Ratio (x) = -0.99026 0.70549
# Poissons Ratio (y) = -0.51960 0.67972
# Poissons Ratio (z) = 0.29038 0.53319
#
# Static dielectric constant tensor:
#      x y z
#    x 1.680480 0.000000 0.000000 
#    y 0.000000 1.664840 0.000000 
#    z 0.000000 0.000000 1.655870 
# 
# From -- ./inp_files/26794.got.cif
#   From: 2010.05.17/outbox.cif.g08.bks.cpg/sg58_14_cif.got.tgz:26794.got - 2010.06.03 14:20:14.
