data_PCOD9445103
_publ_section_title
;
Structure prediction by ZEFSAII (Michael W. Deem and Ramdas Pophale) SiO2 
 PCOD9445103
Probable space group: P N N M
;
_chemical_formula_sum "Si O2"
_cell_formula_units_Z 36
_cell_length_a 12.318507
_cell_length_b 5.161932
_cell_length_c 23.934721
_cell_angle_alpha 90.000000
_cell_angle_beta 90.000000
_cell_angle_gamma 90.000000
_cell_volume 1521.944176
_symmetry_space_group_name_H-M "P N N M"
_symmetry_group_IT_number 58
_symmetry_cell_setting 'orthorhombic'
loop_
_space_group_symop_operation_xyz
x,y,z
-x,-y,z
1/2+x,1/2-y,1/2-z
1/2-x,1/2+y,1/2-z
-x,-y,-z
x,y,-z
1/2-x,1/2+y,1/2+z
1/2+x,1/2-y,1/2+z
loop_
_atom_site_type_symbol
_atom_site_label
_atom_site_fract_x
_atom_site_fract_y
_atom_site_fract_z
Si Si1 0.212120 0.818916 0.219131
Si Si2 0.100665 0.307296 0.938306
Si Si3 0.889258 0.578438 0.370344
Si Si4 0.154893 0.927036 0.436371
Si Si5 0.500000 0.500000 0.337366
O O1 0.245041 0.030241 0.266542
O O2 0.286057 0.919392 0.168685
O O3 0.085583 0.841218 0.201170
O O4 0.214537 0.452535 0.931791
O O5 0.000000 0.500000 0.942047
O O6 0.075773 0.151413 0.881945
O O7 0.108076 0.169290 0.000000
O O8 0.872825 0.362371 0.417622
O O9 0.000000 0.500000 0.339311
O O10 0.896983 0.858396 0.397475
O O11 0.124573 0.971548 0.500000
#
# Coordination Sequence:
#
# PCOD9445103 Si02
#       5
#     8   8   8   8   4
#     4  12  30  49  73 104 135 186 246 300 359 415
#     4  10  22  40  71 110 147 185 232 292 367 445
#     4  12  26  47  72 100 146 187 240 295 350 420
#     4  11  24  44  70 109 147 186 233 285 354 441
#     4  12  25  46  80  96 148 182 241 298 374 430
#
# _framework density 23.653956999999998
#
# number of rings (size 3 to 8) (size 9 to 14) (size 15 to 20)
#    0.000    0.667    2.222    4.333    6.222    2.667 
#    0.000    0.000    0.000    0.000    0.000    0.000 
#    0.000    0.000    0.000    0.000    0.000    0.000 
#
# Total GULP energy -201338.144764 kJ/mol
# GULP energy per Si atom -5592.726243 kJ/mol
# Density = 2.360012 g / cm^3
# Si number density = 23.653957 Si / 1000 Ang^3
#
#
#
# Elastic Constant Matrix: (Units=GPa)
#
#
# Indices 1 2 3 4 5 6 
#
# 1 140.3415 17.6389 18.8500 0.0000 0.0000 0.0000
# 2 17.6389 75.7504 9.6908 0.0000 0.0000 0.0000
# 3 18.8500 9.6908 65.6168 0.0000 0.0000 0.0000
# 4 0.0000 0.0000 0.0000 32.6815 0.0000 0.0000
# 5 0.0000 0.0000 0.0000 0.0000 1.7625 0.0000
# 6 0.0000 0.0000 0.0000 0.0000 0.0000 33.5337
#
#
#
# Elastic Compliance Matrix: (Units=1/GPa)
#
#
# Indices 1 2 3 4 5 6 
#
# 1 0.007578 -0.001515 -0.001953 0.000000 0.000000 0.000000
# 2 -0.001515 0.013758 -0.001597 0.000000 0.000000 0.000000
# 3 -0.001953 -0.001597 0.016037 0.000000 0.000000 0.000000
# 4 0.000000 0.000000 0.000000 0.030598 0.000000 0.000000
# 5 0.000000 0.000000 0.000000 0.000000 0.567365 0.000000
# 6 0.000000 0.000000 0.000000 0.000000 0.000000 0.029821
#
#
# Mechanical properties :
#
#
# Convention : Reuss Voigt Hill
#
# Bulk Modulus (GPa) = 36.70566 41.56313 39.13439
# Shear Modulus (GPa) = 7.30601 29.29747 18.30174
#
# Velocity S-wave (km/s) = 1.75938 3.52317 2.78462
# Velocity P-wave (km/s) = 4.43606 5.84464 5.18838
#
# Compressibility (1/GPa) = 0.02724375
#
# Stress axis : x y z
#
# Youngs Moduli (GPa) = 131.95714 72.68368 62.35596
#
# Poissons Ratio (x) = 0.11010 0.12180
# Poissons Ratio (y) = 0.19988 0.09957
# Poissons Ratio (z) = 0.25775 0.11606
#
# Static dielectric constant tensor:
#      x y z
#    x 1.910640 0.000000 0.000000 
#    y 0.000000 1.867900 0.000000 
#    z 0.000000 0.000000 1.928930 
# 
# From -- ./inp_files/31807.got.cif
#   From: 2010.05.17/outbox.cif.g08.bks.cpg/sg58_16_cif.got.tgz:31807.got - 2010.06.03 14:20:14.
