data_PCOD9445879
_publ_section_title
;
Structure prediction by ZEFSAII (Michael W. Deem and Ramdas Pophale) SiO2 
 PCOD9445879
Probable space group: P N N M
;
_chemical_formula_sum "Si O2"
_cell_formula_units_Z 56
_cell_length_a 19.679818
_cell_length_b 18.924517
_cell_length_c 7.533521
_cell_angle_alpha 90.000000
_cell_angle_beta 90.000000
_cell_angle_gamma 90.000000
_cell_volume 2805.717138
_symmetry_space_group_name_H-M "P N N M"
_symmetry_group_IT_number 58
_symmetry_cell_setting 'orthorhombic'
loop_
_space_group_symop_operation_xyz
x,y,z
-x,-y,z
1/2+x,1/2-y,1/2-z
1/2-x,1/2+y,1/2-z
-x,-y,-z
x,y,-z
1/2-x,1/2+y,1/2+z
1/2+x,1/2-y,1/2+z
loop_
_atom_site_type_symbol
_atom_site_label
_atom_site_fract_x
_atom_site_fract_y
_atom_site_fract_z
Si Si1 0.216966 0.495300 0.789283
Si Si2 0.070774 0.467664 0.216899
Si Si3 0.358635 0.540382 0.287575
Si Si4 0.896626 0.689759 0.794535
Si Si5 0.392542 0.381405 0.282373
Si Si6 0.042552 0.164836 0.781904
Si Si7 0.751991 0.163343 0.200681
O O1 0.139475 0.510461 0.734960
O O2 0.278562 0.548221 0.752632
O O3 0.237427 0.421104 0.700305
O O4 0.216154 0.481597 0.000000
O O5 0.082465 0.386906 0.279328
O O6 0.000000 0.500000 0.279123
O O7 0.068510 0.466955 0.000000
O O8 0.365590 0.538740 0.500000
O O9 0.382164 0.462733 0.223200
O O10 0.406277 0.603150 0.222224
O O11 0.931786 0.759021 0.718185
O O12 0.814747 0.695913 0.787999
O O13 0.916956 0.687007 0.000000
O O14 0.389874 0.381622 0.500000
O O15 0.465678 0.352733 0.229435
O O16 0.327956 0.334705 0.222065
O O17 0.044140 0.164882 0.000000
O O18 0.753732 0.190253 0.000000
#
# Coordination Sequence:
#
# PCOD9445879 Si02
#       7
#     8   8   8   8   8   8   8
#     4   9  16  27  45  67  89 112 143 182 222 269
#     4   8  14  26  44  64  83 107 144 187 224 256
#     4   9  16  27  45  66  89 117 147 182 221 263
#     4   9  17  29  46  65  86 116 150 184 225 273
#     4   8  14  25  44  68  86 108 148 189 219 252
#     4   9  16  27  44  66  90 116 149 185 220 264
#     4   9  16  28  47  66  86 113 146 185 224 264
#
# _framework density 19.959247000000001
#
# number of rings (size 3 to 8) (size 9 to 14) (size 15 to 20)
#    0.000    3.286    0.000    3.000    0.000    1.714 
#    0.000    2.143    0.000   26.143    0.000    0.000 
#    0.000    0.000    0.000    0.000    0.000    0.000 
#
# Total GULP energy -311894.447181 kJ/mol
# GULP energy per Si atom -5569.543700 kJ/mol
# Density = 1.991382 g / cm^3
# Si number density = 19.959247 Si / 1000 Ang^3
#
#
#
# Elastic Constant Matrix: (Units=GPa)
#
#
# Indices 1 2 3 4 5 6 
#
# 1 216.1115 82.7441 -4.3796 0.0000 0.0000 0.0000
# 2 82.7441 75.2472 2.5184 0.0000 0.0000 0.0000
# 3 -4.3796 2.5184 47.8525 0.0000 0.0000 0.0000
# 4 0.0000 0.0000 0.0000 3.2632 0.0000 0.0000
# 5 0.0000 0.0000 0.0000 0.0000 18.0959 0.0000
# 6 0.0000 0.0000 0.0000 0.0000 0.0000 20.0415
#
#
#
# Elastic Compliance Matrix: (Units=1/GPa)
#
#
# Indices 1 2 3 4 5 6 
#
# 1 0.008061 -0.008905 0.001206 0.000000 0.000000 0.000000
# 2 -0.008905 0.023149 -0.002033 0.000000 0.000000 0.000000
# 3 0.001206 -0.002033 0.021115 0.000000 0.000000 0.000000
# 4 0.000000 0.000000 0.000000 0.306445 0.000000 0.000000
# 5 0.000000 0.000000 0.000000 0.000000 0.055261 0.000000
# 6 0.000000 0.000000 0.000000 0.000000 0.000000 0.049896
#
#
# Mechanical properties :
#
#
# Convention : Reuss Voigt Hill
#
# Bulk Modulus (GPa) = 30.42987 55.66411 43.04699
# Shear Modulus (GPa) = 10.11440 25.50202 17.80821
#
# Velocity S-wave (km/s) = 2.25356 3.57838 2.99026
# Velocity P-wave (km/s) = 4.69579 6.70988 5.79107
#
# Compressibility (1/GPa) = 0.03286245
#
# Stress axis : x y z
#
# Youngs Moduli (GPa) = 124.05377 43.19793 47.35980
#
# Poissons Ratio (x) = 0.38466 -0.05713
# Poissons Ratio (y) = 1.10464 0.09630
# Poissons Ratio (z) = -0.14966 0.08783
#
# Static dielectric constant tensor:
#      x y z
#    x 1.729720 0.000000 0.000000 
#    y 0.000000 1.673120 0.000000 
#    z 0.000000 0.000000 1.772920 
# 
# From -- ./inp_files/8108.got.cif
#   From: 2010.05.17/outbox.cif.g08.bks.cpg/sg58_5_cif.got.tgz:8108.got - 2010.06.03 14:20:14.
