data_PCOD9445136
_publ_section_title
;
Structure prediction by ZEFSAII (Michael W. Deem and Ramdas Pophale) SiO2 
 PCOD9445136
Probable space group: P N N M
;
_chemical_formula_sum "Si O2"
_cell_formula_units_Z 60
_cell_length_a 12.580723
_cell_length_b 7.310727
_cell_length_c 31.484776
_cell_angle_alpha 90.000000
_cell_angle_beta 90.000000
_cell_angle_gamma 90.000000
_cell_volume 2895.788071
_symmetry_space_group_name_H-M "P N N M"
_symmetry_group_IT_number 58
_symmetry_cell_setting 'orthorhombic'
loop_
_space_group_symop_operation_xyz
x,y,z
-x,-y,z
1/2+x,1/2-y,1/2-z
1/2-x,1/2+y,1/2-z
-x,-y,-z
x,y,-z
1/2-x,1/2+y,1/2+z
1/2+x,1/2-y,1/2+z
loop_
_atom_site_type_symbol
_atom_site_label
_atom_site_fract_x
_atom_site_fract_y
_atom_site_fract_z
Si Si1 0.260005 0.384028 0.045681
Si Si2 0.743357 0.694672 0.360280
Si Si3 0.611310 0.913506 0.814875
Si Si4 0.690598 0.686789 0.546623
Si Si5 0.497457 0.295704 0.333193
Si Si6 0.000000 0.500000 0.767327
Si Si7 0.537188 0.212809 0.425861
Si Si8 0.621006 0.560938 0.869905
O O1 0.227138 0.599482 0.046171
O O2 0.147886 0.279929 0.049955
O O3 0.332422 0.355146 0.086551
O O4 0.310218 0.344177 0.000000
O O5 0.794682 0.544367 0.329936
O O6 0.738659 0.618512 0.408835
O O7 0.624387 0.746101 0.346042
O O8 0.811716 0.879704 0.359539
O O9 0.589680 0.922446 0.764453
O O10 0.626440 0.712457 0.833248
O O11 0.500000 0.000000 0.832694
O O12 0.718603 0.611159 0.500000
O O13 0.562980 0.687108 0.553059
O O14 0.500000 0.500000 0.316584
O O15 0.539805 0.157423 0.298466
O O16 0.556920 0.282351 0.378127
O O17 0.500000 0.000000 0.422825
O O18 0.500000 0.500000 0.876070
#
# Coordination Sequence:
#
# PCOD9445136 Si02
#       8
#     8   8   8   8   8   4   8   8
#     4   9  18  30  55  93 123 165 215 253 305 375
#     4  10  22  41  64  96 124 169 209 249 326 376
#     4  10  23  44  66  88 120 161 213 264 312 376
#     4   8  15  30  57  89 124 162 206 255 300 375
#     4  11  24  40  65  96 132 164 202 263 321 386
#     4  10  24  46  62  96 124 156 216 268 306 394
#     4   9  16  32  57  85 128 170 203 248 316 378
#     4  11  21  39  68  87 120 171 213 265 314 366
#
# _framework density 20.719749
#
# number of rings (size 3 to 8) (size 9 to 14) (size 15 to 20)
#    0.400    1.867    2.000    1.200    1.867    3.467 
#    4.800    0.667    0.000    2.800    0.000    0.000 
#    0.000    0.000    0.000    0.000    0.000    0.000 
#
# Total GULP energy -335028.776287 kJ/mol
# GULP energy per Si atom -5583.812938 kJ/mol
# Density = 2.067259 g / cm^3
# Si number density = 20.719749 Si / 1000 Ang^3
#
#
#
# Elastic Constant Matrix: (Units=GPa)
#
#
# Indices 1 2 3 4 5 6 
#
# 1 52.4751 12.9125 12.8625 0.0000 0.0000 0.0000
# 2 12.9125 74.3795 29.5683 0.0000 0.0000 0.0000
# 3 12.8625 29.5683 127.6282 0.0000 0.0000 0.0000
# 4 0.0000 0.0000 0.0000 -9.9223 0.0000 0.0000
# 5 0.0000 0.0000 0.0000 0.0000 23.1938 0.0000
# 6 0.0000 0.0000 0.0000 0.0000 0.0000 22.5704
#
#
#
# Elastic Compliance Matrix: (Units=1/GPa)
#
#
# Indices 1 2 3 4 5 6 
#
# 1 0.020114 -0.002958 -0.001342 0.000000 0.000000 0.000000
# 2 -0.002958 0.015244 -0.003233 0.000000 0.000000 0.000000
# 3 -0.001342 -0.003233 0.008720 0.000000 0.000000 0.000000
# 4 0.000000 0.000000 0.000000 -0.100783 0.000000 0.000000
# 5 0.000000 0.000000 0.000000 0.000000 0.043115 0.000000
# 6 0.000000 0.000000 0.000000 0.000000 0.000000 0.044306
#
#
# Mechanical properties :
#
#
# Convention : Reuss Voigt Hill
#
# Bulk Modulus (GPa) = 34.47128 40.57439 37.52284
# Shear Modulus (GPa) = 90.16864 20.44433 55.30649
#
# Velocity S-wave (km/s) = 6.60399 3.14460 5.17210
# Velocity P-wave (km/s) = 8.65005 5.72797 7.33597
#
# Compressibility (1/GPa) = 0.02900966
#
# Stress axis : x y z
#
# Youngs Moduli (GPa) = 49.71782 65.60157 114.68450
#
# Poissons Ratio (x) = 0.19408 0.15387
# Poissons Ratio (y) = 0.14709 0.37082
# Poissons Ratio (z) = 0.06671 0.21212
#
# Static dielectric constant tensor:
#      x y z
#    x 1.717550 0.000000 0.000000 
#    y 0.000000 1.780580 0.000000 
#    z 0.000000 0.000000 1.734420 
# 
# From -- ./inp_files/33764.got.cif
#   From: 2010.05.17/outbox.cif.g08.bks.cpg/sg58_17_cif.got.tgz:33764.got - 2010.06.03 14:20:14.
