data_PCOD9445484
_publ_section_title
;
Structure prediction by ZEFSAII (Michael W. Deem and Ramdas Pophale) SiO2 
 PCOD9445484
Probable space group: P N N M
;
_chemical_formula_sum "Si O2"
_cell_formula_units_Z 40
_cell_length_a 12.010494
_cell_length_b 5.898062
_cell_length_c 26.164734
_cell_angle_alpha 90.000000
_cell_angle_beta 90.000000
_cell_angle_gamma 90.000000
_cell_volume 1853.474127
_symmetry_space_group_name_H-M "P N N M"
_symmetry_group_IT_number 58
_symmetry_cell_setting 'orthorhombic'
loop_
_space_group_symop_operation_xyz
x,y,z
-x,-y,z
1/2+x,1/2-y,1/2-z
1/2-x,1/2+y,1/2-z
-x,-y,-z
x,y,-z
1/2-x,1/2+y,1/2+z
1/2+x,1/2-y,1/2+z
loop_
_atom_site_type_symbol
_atom_site_label
_atom_site_fract_x
_atom_site_fract_y
_atom_site_fract_z
Si Si1 0.435330 0.745029 0.000000
Si Si2 0.740562 0.086399 0.680244
Si Si3 0.255055 0.240608 0.414267
Si Si4 0.385681 0.020364 0.845342
Si Si5 0.396038 0.668913 0.247113
Si Si6 0.439756 0.251964 0.500000
O O1 0.500000 0.500000 0.000000
O O2 0.352203 0.723720 0.951296
O O3 0.500000 0.000000 0.000000
O O4 0.851726 0.234837 0.673069
O O5 0.631193 0.215906 0.698874
O O6 0.727950 0.956187 0.627331
O O7 0.778083 0.939713 0.729426
O O8 0.221404 0.449255 0.378074
O O9 0.360937 0.258103 0.450174
O O10 0.409562 0.848700 0.798799
O O11 0.500000 0.000000 0.876574
O O12 0.500000 0.500000 0.251012
O O13 0.500000 0.500000 0.500000
O O14 0.500000 0.000000 0.500000
#
# Coordination Sequence:
#
# PCOD9445484 Si02
#       6
#     4   8   8   8   8   4
#     4  11  26  45  76 114 148 179 226 303 392 464
#     4  11  23  41  66 101 147 189 247 300 363 440
#     4  10  27  44  73 108 138 184 243 302 369 447
#     4  11  22  39  70  98 145 183 233 296 373 434
#     4  11  22  40  63  98 141 202 242 299 358 430
#     4  11  28  57  82 100 144 195 244 305 372 434
#
# _framework density 21.581092999999999
#
# number of rings (size 3 to 8) (size 9 to 14) (size 15 to 20)
#    0.000    1.200    4.000    0.600    8.400    1.600 
#    3.600    0.000    0.000    0.000    0.000    0.000 
#    0.000    0.000    0.000    0.000    0.000    0.000 
#
# Total GULP energy -222747.352490 kJ/mol
# GULP energy per Si atom -5568.683812 kJ/mol
# Density = 2.153197 g / cm^3
# Si number density = 21.581093 Si / 1000 Ang^3
#
#
#
# Elastic Constant Matrix: (Units=GPa)
#
#
# Indices 1 2 3 4 5 6 
#
# 1 113.5597 60.8603 61.4873 0.0000 0.0000 0.0000
# 2 60.8603 98.8317 50.0135 0.0000 0.0000 0.0000
# 3 61.4873 50.0135 129.8596 0.0000 0.0000 0.0000
# 4 0.0000 0.0000 0.0000 -11.1269 0.0000 0.0000
# 5 0.0000 0.0000 0.0000 0.0000 41.2234 0.0000
# 6 0.0000 0.0000 0.0000 0.0000 0.0000 42.4340
#
#
#
# Elastic Compliance Matrix: (Units=1/GPa)
#
#
# Indices 1 2 3 4 5 6 
#
# 1 0.014909 -0.006966 -0.004376 0.000000 0.000000 0.000000
# 2 -0.006966 0.015823 -0.002795 0.000000 0.000000 0.000000
# 3 -0.004376 -0.002795 0.010849 0.000000 0.000000 0.000000
# 4 0.000000 0.000000 0.000000 -0.089873 0.000000 0.000000
# 5 0.000000 0.000000 0.000000 0.000000 0.024258 0.000000
# 6 0.000000 0.000000 0.000000 0.000000 0.000000 0.023566
#
#
# Mechanical properties :
#
#
# Convention : Reuss Voigt Hill
#
# Bulk Modulus (GPa) = 75.15954 76.33034 75.74494
# Shear Modulus (GPa) = 155.07070 25.83211 90.45140
#
# Velocity S-wave (km/s) = 8.48592 3.46349 6.48100
# Velocity P-wave (km/s) = 11.44188 7.17218 9.54874
#
# Compressibility (1/GPa) = 0.01330503
#
# Stress axis : x y z
#
# Youngs Moduli (GPa) = 67.07369 63.20059 92.17133
#
# Poissons Ratio (x) = 0.44027 0.40337
# Poissons Ratio (y) = 0.46726 0.25765
# Poissons Ratio (z) = 0.29353 0.17667
#
# Static dielectric constant tensor:
#      x y z
#    x 1.871840 0.000000 0.000000 
#    y 0.000000 1.859260 0.000000 
#    z 0.000000 0.000000 1.790340 
# 
# From -- ./inp_files/33480.got.cif
#   From: 2010.05.17/outbox.cif.g08.bks.cpg/sg58_17_cif.got.tgz:33480.got - 2010.06.03 14:20:14.
