data_PCOD9445342
_publ_section_title
;
Structure prediction by ZEFSAII (Michael W. Deem and Ramdas Pophale) SiO2 
 PCOD9445342
Probable space group: P N N M
;
_chemical_formula_sum "Si O2"
_cell_formula_units_Z 52
_cell_length_a 19.235180
_cell_length_b 5.265778
_cell_length_c 20.348023
_cell_angle_alpha 90.000000
_cell_angle_beta 90.000000
_cell_angle_gamma 90.000000
_cell_volume 2061.014372
_symmetry_space_group_name_H-M "P N N M"
_symmetry_group_IT_number 58
_symmetry_cell_setting 'orthorhombic'
loop_
_space_group_symop_operation_xyz
x,y,z
-x,-y,z
1/2+x,1/2-y,1/2-z
1/2-x,1/2+y,1/2-z
-x,-y,-z
x,y,-z
1/2-x,1/2+y,1/2+z
1/2+x,1/2-y,1/2+z
loop_
_atom_site_type_symbol
_atom_site_label
_atom_site_fract_x
_atom_site_fract_y
_atom_site_fract_z
Si Si1 0.175714 0.286662 0.573306
Si Si2 0.061805 0.696318 0.431204
Si Si3 0.339053 0.239125 0.400394
Si Si4 0.000000 0.000000 0.190972
Si Si5 0.102166 0.955361 0.687013
Si Si6 0.429215 0.745236 0.426267
Si Si7 0.291848 0.122205 0.743782
O O1 0.163250 0.176907 0.500000
O O2 0.136136 0.555011 0.570885
O O3 0.258982 0.283809 0.579138
O O4 0.141561 0.146366 0.636438
O O5 0.058709 0.841525 0.500000
O O6 0.049386 0.826912 0.362583
O O7 0.000000 0.500000 0.434951
O O8 0.380713 0.496065 0.415980
O O9 0.330232 0.172412 0.324048
O O10 0.380702 0.994410 0.426097
O O11 0.935722 0.980428 0.243767
O O12 0.017953 0.220507 0.136326
O O13 0.157079 0.734288 0.702854
O O14 0.461057 0.735385 0.500000
O O15 0.228826 0.328660 0.748174
#
# Coordination Sequence:
#
# PCOD9445342 Si02
#       7
#     8   8   8   4   8   8   8
#     4  11  24  43  74 112 151 201 257 314 386 467
#     4  10  23  43  68 101 147 199 249 305 366 447
#     4  12  26  49  81 118 153 199 257 323 399 468
#     4  12  29  50  73 110 144 212 258 326 393 476
#     4  12  25  43  70 101 147 191 249 309 373 455
#     4  12  28  54  80 113 152 199 263 330 397 471
#     4  12  25  45  73 110 157 197 241 310 384 456
#
# _framework density 25.230297
#
# number of rings (size 3 to 8) (size 9 to 14) (size 15 to 20)
#    0.000    0.462    3.077    4.846    2.154    1.846 
#    2.769    4.615    0.000    0.000    0.000    0.000 
#    0.000    0.000    0.000    0.000    0.000    0.000 
#
# Total GULP energy -290172.458937 kJ/mol
# GULP energy per Si atom -5580.239595 kJ/mol
# Density = 2.517287 g / cm^3
# Si number density = 25.230297 Si / 1000 Ang^3
#
#
#
# Elastic Constant Matrix: (Units=GPa)
#
#
# Indices 1 2 3 4 5 6 
#
# 1 105.2380 58.5876 48.8159 0.0000 0.0000 0.0000
# 2 58.5876 99.3932 23.5914 0.0000 0.0000 0.0000
# 3 48.8159 23.5914 242.9993 0.0000 0.0000 0.0000
# 4 0.0000 0.0000 0.0000 -14.6833 0.0000 0.0000
# 5 0.0000 0.0000 0.0000 0.0000 38.3650 0.0000
# 6 0.0000 0.0000 0.0000 0.0000 0.0000 63.2474
#
#
#
# Elastic Compliance Matrix: (Units=1/GPa)
#
#
# Indices 1 2 3 4 5 6 
#
# 1 0.015251 -0.008457 -0.002243 0.000000 0.000000 0.000000
# 2 -0.008457 0.014988 0.000244 0.000000 0.000000 0.000000
# 3 -0.002243 0.000244 0.004542 0.000000 0.000000 0.000000
# 4 0.000000 0.000000 0.000000 -0.068104 0.000000 0.000000
# 5 0.000000 0.000000 0.000000 0.000000 0.026065 0.000000
# 6 0.000000 0.000000 0.000000 0.000000 0.000000 0.015811
#
#
# Mechanical properties :
#
#
# Convention : Reuss Voigt Hill
#
# Bulk Modulus (GPa) = 72.10315 78.84671 75.47493
# Shear Modulus (GPa) = 146.67548 38.49483 92.58516
#
# Velocity S-wave (km/s) = 7.63288 3.91031 6.06430
# Velocity P-wave (km/s) = 10.31122 7.19069 8.88896
#
# Compressibility (1/GPa) = 0.01386902
#
# Stress axis : x y z
#
# Youngs Moduli (GPa) = 65.56977 66.71822 220.16300
#
# Poissons Ratio (x) = 0.56426 0.49375
# Poissons Ratio (y) = 0.55455 -0.05369
# Poissons Ratio (z) = 0.14705 -0.01627
#
# Static dielectric constant tensor:
#      x y z
#    x 2.032220 0.000000 0.000000 
#    y 0.000000 2.021370 0.000000 
#    z 0.000000 0.000000 2.009880 
# 
# From -- ./inp_files/30379.got.cif
#   From: 2010.05.17/outbox.cif.g08.bks.cpg/sg58_16_cif.got.tgz:30379.got - 2010.06.03 14:20:14.
