data_PCOD9445221
_publ_section_title
;
Structure prediction by ZEFSAII (Michael W. Deem and Ramdas Pophale) SiO2 
 PCOD9445221
Probable space group: P N N M
;
_chemical_formula_sum "Si O2"
_cell_formula_units_Z 40
_cell_length_a 14.967349
_cell_length_b 6.940028
_cell_length_c 16.113814
_cell_angle_alpha 90.000000
_cell_angle_beta 90.000000
_cell_angle_gamma 90.000000
_cell_volume 1673.803433
_symmetry_space_group_name_H-M "P N N M"
_symmetry_group_IT_number 58
_symmetry_cell_setting 'orthorhombic'
loop_
_space_group_symop_operation_xyz
x,y,z
-x,-y,z
1/2+x,1/2-y,1/2-z
1/2-x,1/2+y,1/2-z
-x,-y,-z
x,y,-z
1/2-x,1/2+y,1/2+z
1/2+x,1/2-y,1/2+z
loop_
_atom_site_type_symbol
_atom_site_label
_atom_site_fract_x
_atom_site_fract_y
_atom_site_fract_z
Si Si1 0.599181 0.400678 0.000000
Si Si2 0.789243 0.265068 0.317928
Si Si3 0.742401 0.734587 0.000000
Si Si4 0.500000 0.500000 0.624301
Si Si5 0.540494 0.809714 0.731906
Si Si6 0.935294 0.681810 0.000000
Si Si7 0.638973 0.328359 0.819474
O O1 0.500000 0.500000 0.000000
O O2 0.623941 0.279782 0.917103
O O3 0.660982 0.589086 0.000000
O O4 0.759648 0.335493 0.409436
O O5 0.876330 0.378869 0.285965
O O6 0.713050 0.256371 0.247302
O O7 0.830263 0.051174 0.326300
O O8 0.834113 0.613229 0.000000
O O9 0.570065 0.634711 0.673078
O O10 0.541596 0.285979 0.781063
O O11 0.450589 0.667016 0.574470
O O12 0.500000 0.000000 0.689628
O O13 0.000000 0.500000 0.000000
#
# Coordination Sequence:
#
# PCOD9445221 Si02
#       7
#     4   8   4   4   8   4   8
#     4  10  22  43  72 104 146 196 245 308 380 443
#     4  11  23  42  69 102 148 189 244 310 371 450
#     4  10  23  43  70 108 147 193 247 308 377 451
#     4  11  24  44  72 105 142 194 242 307 376 455
#     4  12  24  44  71 103 143 193 248 304 368 445
#     4  11  25  46  75 108 149 191 248 311 382 450
#     4  11  22  43  69 107 140 193 248 307 378 447
#
# _framework density 23.897670000000002
#
# number of rings (size 3 to 8) (size 9 to 14) (size 15 to 20)
#    0.000    1.000    2.000    5.400    0.000    4.800 
#    0.000    6.000    0.000    0.000    0.000    0.000 
#    0.000    0.000    0.000    0.000    0.000    0.000 
#
# Total GULP energy -222930.140450 kJ/mol
# GULP energy per Si atom -5573.253511 kJ/mol
# Density = 2.384328 g / cm^3
# Si number density = 23.897670 Si / 1000 Ang^3
#
#
#
# Elastic Constant Matrix: (Units=GPa)
#
#
# Indices 1 2 3 4 5 6 
#
# 1 179.3095 21.1368 67.8041 0.0000 0.0000 0.0000
# 2 21.1368 105.0127 46.7409 0.0000 0.0000 0.0000
# 3 67.8041 46.7409 174.9878 0.0000 0.0000 0.0000
# 4 0.0000 0.0000 0.0000 25.9512 0.0000 0.0000
# 5 0.0000 0.0000 0.0000 0.0000 -67.2729 0.0000
# 6 0.0000 0.0000 0.0000 0.0000 0.0000 36.5339
#
#
#
# Elastic Compliance Matrix: (Units=1/GPa)
#
#
# Indices 1 2 3 4 5 6 
#
# 1 0.006539 -0.000214 -0.002476 0.000000 0.000000 0.000000
# 2 -0.000214 0.010815 -0.002806 0.000000 0.000000 0.000000
# 3 -0.002476 -0.002806 0.007424 0.000000 0.000000 0.000000
# 4 0.000000 0.000000 0.000000 0.038534 0.000000 0.000000
# 5 0.000000 0.000000 0.000000 0.000000 -0.014865 0.000000
# 6 0.000000 0.000000 0.000000 0.000000 0.000000 0.027372
#
#
# Mechanical properties :
#
#
# Convention : Reuss Voigt Hill
#
# Bulk Modulus (GPa) = 72.54425 81.18595 76.86510
# Shear Modulus (GPa) = 54.70168 20.61766 37.65967
#
# Velocity S-wave (km/s) = 4.78954 2.94044 3.97403
# Velocity P-wave (km/s) = 7.81078 6.75088 7.30009
#
# Compressibility (1/GPa) = 0.01378469
#
# Stress axis : x y z
#
# Youngs Moduli (GPa) = 152.93789 92.46796 134.70337
#
# Poissons Ratio (x) = 0.01977 0.33359
# Poissons Ratio (y) = 0.03270 0.37795
# Poissons Ratio (z) = 0.37874 0.25945
#
# Static dielectric constant tensor:
#      x y z
#    x 1.925740 0.000000 0.000000 
#    y 0.000000 1.939570 0.000000 
#    z 0.000000 0.000000 2.150400 
# 
# From -- ./inp_files/19554.got.cif
#   From: 2010.05.17/outbox.cif.g08.bks.cpg/sg58_10_cif.got.tgz:19554.got - 2010.06.03 14:20:14.
