data_PCOD9445896
_publ_section_title
;
Structure prediction by ZEFSAII (Michael W. Deem and Ramdas Pophale) SiO2 
 PCOD9445896
Probable space group: P N N M
;
_chemical_formula_sum "Si O2"
_cell_formula_units_Z 40
_cell_length_a 17.177752
_cell_length_b 7.229670
_cell_length_c 14.242691
_cell_angle_alpha 90.000000
_cell_angle_beta 90.000000
_cell_angle_gamma 90.000000
_cell_volume 1768.792365
_symmetry_space_group_name_H-M "P N N M"
_symmetry_group_IT_number 58
_symmetry_cell_setting 'orthorhombic'
loop_
_space_group_symop_operation_xyz
x,y,z
-x,-y,z
1/2+x,1/2-y,1/2-z
1/2-x,1/2+y,1/2-z
-x,-y,-z
x,y,-z
1/2-x,1/2+y,1/2+z
1/2+x,1/2-y,1/2+z
loop_
_atom_site_type_symbol
_atom_site_label
_atom_site_fract_x
_atom_site_fract_y
_atom_site_fract_z
Si Si1 0.720298 0.062511 0.387071
Si Si2 0.177351 0.627190 0.613077
Si Si3 0.979935 0.277762 0.294131
Si Si4 0.362021 0.711674 0.112398
Si Si5 0.067672 0.651219 0.104536
O O1 0.708746 0.076684 0.500000
O O2 0.794858 0.935008 0.369696
O O3 0.642906 0.958122 0.355888
O O4 0.746079 0.264325 0.352042
O O5 0.178833 0.632917 0.500000
O O6 0.171267 0.413497 0.640248
O O7 0.098529 0.729416 0.645222
O O8 0.055940 0.182804 0.336548
O O9 0.000000 0.500000 0.293406
O O10 0.960482 0.218227 0.188031
O O11 0.376858 0.715249 0.000000
O O12 0.000000 0.500000 0.093620
O O13 0.083713 0.729666 0.000000
#
# Coordination Sequence:
#
# PCOD9445896 Si02
#       5
#     8   8   8   8   8
#     4   9  18  33  55  82 107 141 185 225 270 317
#     4   9  17  31  52  81 113 141 173 219 275 332
#     4   9  17  31  49  77 110 143 179 215 273 327
#     4   9  17  31  55  84 115 141 169 220 279 333
#     4   9  18  35  56  75 105 150 193 227 261 311
#
# _framework density 22.614298999999999
#
# number of rings (size 3 to 8) (size 9 to 14) (size 15 to 20)
#    0.000    3.000    0.000    0.600    0.000    3.200 
#   10.800    3.000    0.000    8.400    0.000   14.000 
#    0.000    0.000    0.000    0.000    0.000    0.000 
#
# Total GULP energy -223301.370730 kJ/mol
# GULP energy per Si atom -5582.534268 kJ/mol
# Density = 2.256283 g / cm^3
# Si number density = 22.614299 Si / 1000 Ang^3
#
#
#
# Elastic Constant Matrix: (Units=GPa)
#
#
# Indices 1 2 3 4 5 6 
#
# 1 106.4561 26.0577 24.1786 0.0000 0.0000 0.0000
# 2 26.0577 45.8173 23.8231 0.0000 0.0000 0.0000
# 3 24.1786 23.8231 71.9367 0.0000 0.0000 0.0000
# 4 0.0000 0.0000 0.0000 15.7799 0.0000 0.0000
# 5 0.0000 0.0000 0.0000 0.0000 30.5853 0.0000
# 6 0.0000 0.0000 0.0000 0.0000 0.0000 22.7448
#
#
#
# Elastic Compliance Matrix: (Units=1/GPa)
#
#
# Indices 1 2 3 4 5 6 
#
# 1 0.011143 -0.005303 -0.001989 0.000000 0.000000 0.000000
# 2 -0.005303 0.028890 -0.007785 0.000000 0.000000 0.000000
# 3 -0.001989 -0.007785 0.017148 0.000000 0.000000 0.000000
# 4 0.000000 0.000000 0.000000 0.063372 0.000000 0.000000
# 5 0.000000 0.000000 0.000000 0.000000 0.032695 0.000000
# 6 0.000000 0.000000 0.000000 0.000000 0.000000 0.043966
#
#
# Mechanical properties :
#
#
# Convention : Reuss Voigt Hill
#
# Bulk Modulus (GPa) = 37.00096 41.36989 39.18543
# Shear Modulus (GPa) = 21.15259 23.83206 22.49232
#
# Velocity S-wave (km/s) = 3.06169 3.24983 3.15716
# Velocity P-wave (km/s) = 5.37549 5.69344 5.53674
#
# Compressibility (1/GPa) = 0.02702633
#
# Stress axis : x y z
#
# Youngs Moduli (GPa) = 89.73889 34.61430 58.31663
#
# Poissons Ratio (x) = 0.18357 0.11600
# Poissons Ratio (y) = 0.47592 0.45399
# Poissons Ratio (z) = 0.17850 0.26947
#
# Static dielectric constant tensor:
#      x y z
#    x 1.805920 0.000000 0.000000 
#    y 0.000000 1.900190 0.000000 
#    z 0.000000 0.000000 1.889390 
# 
# From -- ./inp_files/19663.got.cif
#   From: 2010.05.17/outbox.cif.g08.bks.cpg/sg58_10_cif.got.tgz:19663.got - 2010.06.03 14:20:14.
