data_PCOD9445654
_publ_section_title
;
Structure prediction by ZEFSAII (Michael W. Deem and Ramdas Pophale) SiO2 
 PCOD9445654
Probable space group: P N N M
;
_chemical_formula_sum "Si O2"
_cell_formula_units_Z 48
_cell_length_a 11.379862
_cell_length_b 14.729772
_cell_length_c 13.748894
_cell_angle_alpha 90.000000
_cell_angle_beta 90.000000
_cell_angle_gamma 90.000000
_cell_volume 2304.627733
_symmetry_space_group_name_H-M "P N N M"
_symmetry_group_IT_number 58
_symmetry_cell_setting 'orthorhombic'
loop_
_space_group_symop_operation_xyz
x,y,z
-x,-y,z
1/2+x,1/2-y,1/2-z
1/2-x,1/2+y,1/2-z
-x,-y,-z
x,y,-z
1/2-x,1/2+y,1/2+z
1/2+x,1/2-y,1/2+z
loop_
_atom_site_type_symbol
_atom_site_label
_atom_site_fract_x
_atom_site_fract_y
_atom_site_fract_z
Si Si1 0.905381 0.078107 0.109034
Si Si2 0.927867 0.406777 0.887160
Si Si3 0.570528 0.261760 0.694865
Si Si4 0.284430 0.512874 0.787450
Si Si5 0.555573 0.342571 0.887964
Si Si6 0.226095 0.826457 0.609265
O O1 0.813567 0.027753 0.181140
O O2 0.019788 0.841468 0.161621
O O3 0.863481 0.105682 0.000000
O O4 0.000000 0.000000 0.095802
O O5 0.246327 0.421961 0.842227
O O6 0.009173 0.326928 0.847470
O O7 0.000000 0.500000 0.887481
O O8 0.820040 0.417902 0.812099
O O9 0.591306 0.266250 0.810344
O O10 0.915001 0.171359 0.610828
O O11 0.703263 0.258268 0.653363
O O12 0.109492 0.610475 0.000000
O O13 0.604239 0.435620 0.838034
O O14 0.595966 0.338491 0.000000
O O15 0.268190 0.831130 0.500000
#
# Coordination Sequence:
#
# PCOD9445654 Si02
#       6
#     8   8   8   8   8   8
#     4  11  23  42  67  98 136 181 227 275 339 414
#     4  11  24  43  71 102 134 179 231 287 345 401
#     4  12  24  43  67 102 139 178 232 281 340 406
#     4  12  22  44  68 102 136 174 228 288 336 401
#     4  11  25  42  67 102 137 177 225 280 350 404
#     4  11  22  40  68  97 132 174 223 283 337 397
#
# _framework density 20.827660000000002
#
# number of rings (size 3 to 8) (size 9 to 14) (size 15 to 20)
#    0.000    0.667    5.000    3.500    2.333    1.333 
#    0.000    1.667    0.000    1.000    0.000    0.000 
#    0.000    0.000    0.000    0.000    0.000    0.000 
#
# Total GULP energy -267389.902397 kJ/mol
# GULP energy per Si atom -5570.622967 kJ/mol
# Density = 2.078025 g / cm^3
# Si number density = 20.827660 Si / 1000 Ang^3
#
#
#
# Elastic Constant Matrix: (Units=GPa)
#
#
# Indices 1 2 3 4 5 6 
#
# 1 80.9029 12.4811 48.9787 0.0000 0.0000 0.0000
# 2 12.4811 62.0341 45.3499 0.0000 0.0000 0.0000
# 3 48.9787 45.3499 176.0424 0.0000 0.0000 0.0000
# 4 0.0000 0.0000 0.0000 40.3918 0.0000 0.0000
# 5 0.0000 0.0000 0.0000 0.0000 22.6498 0.0000
# 6 0.0000 0.0000 0.0000 0.0000 0.0000 137.8757
#
#
#
# Elastic Compliance Matrix: (Units=1/GPa)
#
#
# Indices 1 2 3 4 5 6 
#
# 1 0.014864 0.000040 -0.004146 0.000000 0.000000 0.000000
# 2 0.000040 0.019860 -0.005127 0.000000 0.000000 0.000000
# 3 -0.004146 -0.005127 0.008155 0.000000 0.000000 0.000000
# 4 0.000000 0.000000 0.000000 0.024758 0.000000 0.000000
# 5 0.000000 0.000000 0.000000 0.000000 0.044151 0.000000
# 6 0.000000 0.000000 0.000000 0.000000 0.000000 0.007253
#
#
# Mechanical properties :
#
#
# Convention : Reuss Voigt Hill
#
# Bulk Modulus (GPa) = 40.96127 59.17762 50.06944
# Shear Modulus (GPa) = 34.33021 54.32810 44.32915
#
# Velocity S-wave (km/s) = 4.06433 5.11285 4.61844
# Velocity P-wave (km/s) = 6.46022 7.95799 7.24790
#
# Compressibility (1/GPa) = 0.02441331
#
# Stress axis : x y z
#
# Youngs Moduli (GPa) = 67.27562 50.35132 122.62741
#
# Poissons Ratio (x) = -0.00203 0.50840
# Poissons Ratio (y) = -0.00271 0.62876
# Poissons Ratio (z) = 0.27892 0.25817
#
# Static dielectric constant tensor:
#      x y z
#    x 2.404530 0.000000 0.000000 
#    y 0.000000 1.733370 0.000000 
#    z 0.000000 0.000000 1.824550 
# 
# From -- ./inp_files/15590.got.cif
#   From: 2010.05.17/outbox.cif.g08.bks.cpg/sg58_8_cif.got.tgz:15590.got - 2010.06.03 14:20:14.
