data_PCOD9445236
_publ_section_title
;
Structure prediction by ZEFSAII (Michael W. Deem and Ramdas Pophale) SiO2 
 PCOD9445236
Probable space group: P N N M
;
_chemical_formula_sum "Si O2"
_cell_formula_units_Z 32
_cell_length_a 13.645904
_cell_length_b 5.295948
_cell_length_c 19.604795
_cell_angle_alpha 90.000000
_cell_angle_beta 90.000000
_cell_angle_gamma 90.000000
_cell_volume 1416.799286
_symmetry_space_group_name_H-M "P N N M"
_symmetry_group_IT_number 58
_symmetry_cell_setting 'orthorhombic'
loop_
_space_group_symop_operation_xyz
x,y,z
-x,-y,z
1/2+x,1/2-y,1/2-z
1/2-x,1/2+y,1/2-z
-x,-y,-z
x,y,-z
1/2-x,1/2+y,1/2+z
1/2+x,1/2-y,1/2+z
loop_
_atom_site_type_symbol
_atom_site_label
_atom_site_fract_x
_atom_site_fract_y
_atom_site_fract_z
Si Si1 0.378927 0.292154 0.850936
Si Si2 0.673571 0.375235 0.361949
Si Si3 0.068040 0.253138 0.000000
Si Si4 0.329113 0.799139 0.919898
Si Si5 0.500000 0.500000 0.737044
O O1 0.264706 0.270976 0.828661
O O2 0.382813 0.556831 0.890158
O O3 0.450071 0.297465 0.787109
O O4 0.387643 0.054158 0.900822
O O5 0.635792 0.255122 0.432687
O O6 0.723951 0.641723 0.384155
O O7 0.584713 0.395121 0.310790
O O8 0.000000 0.500000 0.000000
O O9 0.000000 0.000000 0.000000
O O10 0.314942 0.774251 0.000000
#
# Coordination Sequence:
#
# PCOD9445236 Si02
#       5
#     8   8   4   8   4
#     4  10  26  45  72 108 144 191 237 295 364 433
#     4  10  25  45  74 102 148 182 236 302 361 428
#     4  12  26  44  70 113 135 179 245 300 374 417
#     4  10  22  47  76 102 137 188 240 305 357 410
#     4  12  26  51  69 112 150 198 244 284 368 462
#
# _framework density 22.586123000000001
#
# number of rings (size 3 to 8) (size 9 to 14) (size 15 to 20)
#    1.500    0.000    2.500    0.750    8.750    1.000 
#    9.000    3.750    0.000    0.000    0.000    0.000 
#    0.000    0.000    0.000    0.000    0.000    0.000 
#
# Total GULP energy -178775.275802 kJ/mol
# GULP energy per Si atom -5586.727369 kJ/mol
# Density = 2.253472 g / cm^3
# Si number density = 22.586123 Si / 1000 Ang^3
#
#
#
# Elastic Constant Matrix: (Units=GPa)
#
#
# Indices 1 2 3 4 5 6 
#
# 1 131.8847 28.8304 62.4780 0.0000 0.0000 0.0000
# 2 28.8304 136.1422 31.3387 0.0000 0.0000 0.0000
# 3 62.4780 31.3387 117.4072 0.0000 0.0000 0.0000
# 4 0.0000 0.0000 0.0000 27.6085 0.0000 0.0000
# 5 0.0000 0.0000 0.0000 0.0000 42.0363 0.0000
# 6 0.0000 0.0000 0.0000 0.0000 0.0000 21.4458
#
#
#
# Elastic Compliance Matrix: (Units=1/GPa)
#
#
# Indices 1 2 3 4 5 6 
#
# 1 0.010258 -0.000976 -0.005199 0.000000 0.000000 0.000000
# 2 -0.000976 0.007919 -0.001595 0.000000 0.000000 0.000000
# 3 -0.005199 -0.001595 0.011709 0.000000 0.000000 0.000000
# 4 0.000000 0.000000 0.000000 0.036221 0.000000 0.000000
# 5 0.000000 0.000000 0.000000 0.000000 0.023789 0.000000
# 6 0.000000 0.000000 0.000000 0.000000 0.000000 0.046629
#
#
# Mechanical properties :
#
#
# Convention : Reuss Voigt Hill
#
# Bulk Modulus (GPa) = 69.69063 70.08092 69.88578
# Shear Modulus (GPa) = 31.87838 35.73725 33.80782
#
# Velocity S-wave (km/s) = 3.76096 3.98209 3.87310
# Velocity P-wave (km/s) = 7.05565 7.22761 7.14215
#
# Compressibility (1/GPa) = 0.01434913
#
# Stress axis : x y z
#
# Youngs Moduli (GPa) = 97.48117 126.27968 85.40172
#
# Poissons Ratio (x) = 0.12321 0.44396
# Poissons Ratio (y) = 0.09512 0.13617
# Poissons Ratio (z) = 0.50676 0.20135
#
# Static dielectric constant tensor:
#      x y z
#    x 1.884900 0.000000 0.000000 
#    y 0.000000 1.860080 0.000000 
#    z 0.000000 0.000000 1.782240 
# 
# From -- ./inp_files/26580.got.cif
#   From: 2010.05.17/outbox.cif.g08.bks.cpg/sg58_14_cif.got.tgz:26580.got - 2010.06.03 14:20:14.
