data_PCOD9445317
_publ_section_title
;
Structure prediction by ZEFSAII (Michael W. Deem and Ramdas Pophale) SiO2 
 PCOD9445317
Probable space group: P N N M
;
_chemical_formula_sum "Si O2"
_cell_formula_units_Z 48
_cell_length_a 18.730602
_cell_length_b 15.553050
_cell_length_c 7.828718
_cell_angle_alpha 90.000000
_cell_angle_beta 90.000000
_cell_angle_gamma 90.000000
_cell_volume 2280.646388
_symmetry_space_group_name_H-M "P N N M"
_symmetry_group_IT_number 58
_symmetry_cell_setting 'orthorhombic'
loop_
_space_group_symop_operation_xyz
x,y,z
-x,-y,z
1/2+x,1/2-y,1/2-z
1/2-x,1/2+y,1/2-z
-x,-y,-z
x,y,-z
1/2-x,1/2+y,1/2+z
1/2+x,1/2-y,1/2+z
loop_
_atom_site_type_symbol
_atom_site_label
_atom_site_fract_x
_atom_site_fract_y
_atom_site_fract_z
Si Si1 0.933678 0.260932 0.184732
Si Si2 0.003927 0.097421 0.699515
Si Si3 0.992642 0.361950 0.500000
Si Si4 0.335555 0.617277 0.293777
Si Si5 0.265057 0.960942 0.299379
Si Si6 0.377417 0.984922 0.000000
Si Si7 0.776062 0.235728 0.294939
O O1 0.977692 0.306065 0.333241
O O2 0.849453 0.268174 0.213894
O O3 0.952985 0.160762 0.199381
O O4 0.953943 0.295415 0.000000
O O5 0.982707 0.099225 0.500000
O O6 0.085475 0.126258 0.720523
O O7 0.000000 0.000000 0.761377
O O8 0.931910 0.435551 0.500000
O O9 0.070918 0.402441 0.500000
O O10 0.339337 0.612804 0.500000
O O11 0.297680 0.530564 0.227196
O O12 0.287268 0.699502 0.247188
O O13 0.286240 0.961657 0.500000
O O14 0.240360 0.863774 0.254844
O O15 0.327621 0.985969 0.167570
O O16 0.785537 0.240709 0.500000
#
# Coordination Sequence:
#
# PCOD9445317 Si02
#       7
#     8   8   4   8   8   4   8
#     4  12  25  42  70  99 136 181 230 276 340 413
#     4  11  24  42  65  96 140 182 220 278 344 406
#     4  11  26  48  67  96 138 178 231 285 339 408
#     4  11  23  41  67  99 133 175 222 274 336 402
#     4  11  24  43  68 101 137 171 229 283 337 405
#     4  11  26  46  72  94 133 186 222 287 350 397
#     4  10  23  42  65  95 135 176 217 278 336 396
#
# _framework density 21.046665000000001
#
# number of rings (size 3 to 8) (size 9 to 14) (size 15 to 20)
#    0.000    1.000    2.500    3.000    3.500    9.333 
#    0.000    1.667    0.000    0.000    0.000    0.000 
#    0.000    0.000    0.000    0.000    0.000    0.000 
#
# Total GULP energy -268675.668370 kJ/mol
# GULP energy per Si atom -5597.409758 kJ/mol
# Density = 2.099876 g / cm^3
# Si number density = 21.046665 Si / 1000 Ang^3
#
#
#
# Elastic Constant Matrix: (Units=GPa)
#
#
# Indices 1 2 3 4 5 6 
#
# 1 54.7585 -13.2561 1.7545 0.0000 0.0000 0.0000
# 2 -13.2561 64.2551 -0.0331 0.0000 0.0000 0.0000
# 3 1.7545 -0.0331 85.4112 0.0000 0.0000 0.0000
# 4 0.0000 0.0000 0.0000 -21.2498 0.0000 0.0000
# 5 0.0000 0.0000 0.0000 0.0000 22.9164 0.0000
# 6 0.0000 0.0000 0.0000 0.0000 0.0000 32.2674
#
#
#
# Elastic Compliance Matrix: (Units=1/GPa)
#
#
# Indices 1 2 3 4 5 6 
#
# 1 0.019235 0.003968 -0.000394 0.000000 0.000000 0.000000
# 2 0.003968 0.016382 -0.000075 0.000000 0.000000 0.000000
# 3 -0.000394 -0.000075 0.011716 0.000000 0.000000 0.000000
# 4 0.000000 0.000000 0.000000 -0.047059 0.000000 0.000000
# 5 0.000000 0.000000 0.000000 0.000000 0.043637 0.000000
# 6 0.000000 0.000000 0.000000 0.000000 0.000000 0.030991
#
#
# Mechanical properties :
#
#
# Convention : Reuss Voigt Hill
#
# Bulk Modulus (GPa) = 18.40549 20.15060 19.27804
# Shear Modulus (GPa) = 58.13060 21.18412 39.65736
#
# Velocity S-wave (km/s) = 5.26116 3.17603 4.34551
# Velocity P-wave (km/s) = 6.75800 4.80048 5.86153
#
# Compressibility (1/GPa) = 0.05433162
#
# Stress axis : x y z
#
# Youngs Moduli (GPa) = 51.98798 61.04422 85.35248
#
# Poissons Ratio (x) = -0.24223 0.03359
# Poissons Ratio (y) = -0.20629 0.00642
# Poissons Ratio (z) = 0.02046 0.00459
#
# Static dielectric constant tensor:
#      x y z
#    x 1.702200 0.000000 0.000000 
#    y 0.000000 1.778230 0.000000 
#    z 0.000000 0.000000 1.766050 
# 
# From -- ./inp_files/7760.got.cif
#   From: 2010.05.17/outbox.cif.g08.bks.cpg/sg58_4_cif.got.tgz:7760.got - 2010.06.03 14:20:14.
