data_PCOD9445820
_publ_section_title
;
Structure prediction by ZEFSAII (Michael W. Deem and Ramdas Pophale) SiO2 
 PCOD9445820
Probable space group: P N N M
;
_chemical_formula_sum "Si O2"
_cell_formula_units_Z 56
_cell_length_a 27.170540
_cell_length_b 9.675278
_cell_length_c 14.696551
_cell_angle_alpha 90.000000
_cell_angle_beta 90.000000
_cell_angle_gamma 90.000000
_cell_volume 3863.466478
_symmetry_space_group_name_H-M "P N N M"
_symmetry_group_IT_number 58
_symmetry_cell_setting 'orthorhombic'
loop_
_space_group_symop_operation_xyz
x,y,z
-x,-y,z
1/2+x,1/2-y,1/2-z
1/2-x,1/2+y,1/2-z
-x,-y,-z
x,y,-z
1/2-x,1/2+y,1/2+z
1/2+x,1/2-y,1/2+z
loop_
_atom_site_type_symbol
_atom_site_label
_atom_site_fract_x
_atom_site_fract_y
_atom_site_fract_z
Si Si1 0.302251 0.593677 0.607241
Si Si2 0.030510 0.707747 0.109070
Si Si3 0.622547 0.636090 0.610525
Si Si4 0.323839 0.866181 0.705793
Si Si5 0.784621 0.631583 0.602416
Si Si6 0.296366 0.135558 0.605813
Si Si7 0.427701 0.898063 0.609141
O O1 0.308229 0.630002 0.500000
O O2 0.350108 0.504473 0.637557
O O3 0.297828 0.728934 0.667721
O O4 0.255523 0.491575 0.612907
O O5 0.067972 0.824977 0.143411
O O6 0.055601 0.557450 0.122979
O O7 0.974102 0.695543 0.139714
O O8 0.027395 0.724690 0.000000
O O9 0.621672 0.632035 0.500000
O O10 0.658931 0.762969 0.633726
O O11 0.322026 0.871615 0.814495
O O12 0.378220 0.868399 0.662960
O O13 0.296352 0.000698 0.666724
O O14 0.805054 0.622701 0.500000
O O15 0.752413 0.771735 0.609383
O O16 0.305022 0.096276 0.500000
O O17 0.420037 0.880247 0.500000
#
# Coordination Sequence:
#
# PCOD9445820 Si02
#       7
#     8   8   8   8   8   8   8
#     4   9  18  29  42  63  90 110 131 170 216 251
#     4   8  13  24  39  59  90 119 136 157 197 253
#     4   8  13  25  41  57  86 122 135 144 193 262
#     4  12  18  26  44  66  83 106 143 182 206 234
#     4   9  20  34  42  54  82 118 144 169 209 255
#     4   9  16  27  44  62  80 107 142 166 196 250
#     4   9  16  23  38  66  91 108 137 174 200 236
#
# _framework density 14.494755
#
# number of rings (size 3 to 8) (size 9 to 14) (size 15 to 20)
#    0.000    2.857    1.429    4.714    0.000    0.000 
#    0.000    0.714    0.000    3.429    0.000    2.000 
#    0.000    1.143    0.000    0.000    0.000    0.000 
#
# Total GULP energy -311760.074385 kJ/mol
# GULP energy per Si atom -5567.144185 kJ/mol
# Density = 1.446176 g / cm^3
# Si number density = 14.494755 Si / 1000 Ang^3
#
#
#
# Elastic Constant Matrix: (Units=GPa)
#
#
# Indices 1 2 3 4 5 6 
#
# 1 43.7046 2.7358 28.8467 0.0000 0.0000 0.0000
# 2 2.7358 59.6467 29.3386 0.0000 0.0000 0.0000
# 3 28.8467 29.3386 74.0565 0.0000 0.0000 0.0000
# 4 0.0000 0.0000 0.0000 9.2749 0.0000 0.0000
# 5 0.0000 0.0000 0.0000 0.0000 9.8448 0.0000
# 6 0.0000 0.0000 0.0000 0.0000 0.0000 7.7501
#
#
#
# Elastic Compliance Matrix: (Units=1/GPa)
#
#
# Indices 1 2 3 4 5 6 
#
# 1 0.032368 0.005858 -0.014929 0.000000 0.000000 0.000000
# 2 0.005858 0.021883 -0.010951 0.000000 0.000000 0.000000
# 3 -0.014929 -0.010951 0.023657 0.000000 0.000000 0.000000
# 4 0.000000 0.000000 0.000000 0.107817 0.000000 0.000000
# 5 0.000000 0.000000 0.000000 0.000000 0.101576 0.000000
# 6 0.000000 0.000000 0.000000 0.000000 0.000000 0.129030
#
#
# Mechanical properties :
#
#
# Convention : Reuss Voigt Hill
#
# Bulk Modulus (GPa) = 26.41004 33.24999 29.83001
# Shear Modulus (GPa) = 10.66104 13.13975 11.90040
#
# Velocity S-wave (km/s) = 2.71497 3.01411 2.86844
# Velocity P-wave (km/s) = 5.29982 5.92472 5.62096
#
# Compressibility (1/GPa) = 0.03786440
#
# Stress axis : x y z
#
# Youngs Moduli (GPa) = 30.89492 45.69675 42.27095
#
# Poissons Ratio (x) = -0.26771 0.63106
# Poissons Ratio (y) = -0.18100 0.46293
# Poissons Ratio (z) = 0.46123 0.50044
#
# Static dielectric constant tensor:
#      x y z
#    x 1.499340 0.000000 0.000000 
#    y 0.000000 1.502430 0.000000 
#    z 0.000000 0.000000 1.454080 
# 
# From -- ./inp_files/20389.got.cif
#   From: 2010.05.17/outbox.cif.g08.bks.cpg/sg58_11_cif.got.tgz:20389.got - 2010.06.03 14:20:14.
