data_PCOD9445778
_publ_section_title
;
Structure prediction by ZEFSAII (Michael W. Deem and Ramdas Pophale) SiO2 
 PCOD9445778
Probable space group: P N N M
;
_chemical_formula_sum "Si O2"
_cell_formula_units_Z 24
_cell_length_a 5.483926
_cell_length_b 13.161860
_cell_length_c 13.396412
_cell_angle_alpha 90.000000
_cell_angle_beta 90.000000
_cell_angle_gamma 90.000000
_cell_volume 966.935151
_symmetry_space_group_name_H-M "P N N M"
_symmetry_group_IT_number 58
_symmetry_cell_setting 'orthorhombic'
loop_
_space_group_symop_operation_xyz
x,y,z
-x,-y,z
1/2+x,1/2-y,1/2-z
1/2-x,1/2+y,1/2-z
-x,-y,-z
x,y,-z
1/2-x,1/2+y,1/2+z
1/2+x,1/2-y,1/2+z
loop_
_atom_site_type_symbol
_atom_site_label
_atom_site_fract_x
_atom_site_fract_y
_atom_site_fract_z
Si Si1 0.411319 0.614652 0.609791
Si Si2 0.586056 0.181132 0.204930
Si Si3 0.617727 0.611241 0.879568
O O1 0.500000 0.500000 0.603232
O O2 0.365913 0.657307 0.500000
O O3 0.653749 0.662248 0.654445
O O4 0.154039 0.624843 0.664951
O O5 0.542442 0.296871 0.166507
O O6 0.635276 0.138297 0.317386
O O7 0.500000 0.500000 0.856239
O O8 0.642092 0.616813 0.000000
#
# Coordination Sequence:
#
# PCOD9445778 Si02
#       3
#     8   8   8
#     4  11  24  44  76 118 160 205 262 330 402 473
#     4  12  25  48  81 114 157 209 269 331 396 473
#     4  11  27  53  84 119 163 215 269 329 402 481
#
# _framework density 24.820689999999999
#
# number of rings (size 3 to 8) (size 9 to 14) (size 15 to 20)
#    0.000    0.667    0.000    7.000    0.000    5.333 
#    0.000   20.000    0.000   46.000    0.000    0.000 
#    0.000    0.000    0.000    0.000    0.000    0.000 
#
# Total GULP energy -133898.835251 kJ/mol
# GULP energy per Si atom -5579.118135 kJ/mol
# Density = 2.476420 g / cm^3
# Si number density = 24.820690 Si / 1000 Ang^3
#
#
#
# Elastic Constant Matrix: (Units=GPa)
#
#
# Indices 1 2 3 4 5 6 
#
# 1 219.5728 66.7817 118.0338 0.0000 0.0000 0.0000
# 2 66.7817 183.3965 62.4593 0.0000 0.0000 0.0000
# 3 118.0338 62.4593 212.9294 0.0000 0.0000 0.0000
# 4 0.0000 0.0000 0.0000 21.9163 0.0000 0.0000
# 5 0.0000 0.0000 0.0000 0.0000 -78.5857 0.0000
# 6 0.0000 0.0000 0.0000 0.0000 0.0000 38.4983
#
#
#
# Elastic Compliance Matrix: (Units=1/GPa)
#
#
# Indices 1 2 3 4 5 6 
#
# 1 0.006762 -0.001317 -0.003362 0.000000 0.000000 0.000000
# 2 -0.001317 0.006314 -0.001122 0.000000 0.000000 0.000000
# 3 -0.003362 -0.001122 0.006889 0.000000 0.000000 0.000000
# 4 0.000000 0.000000 0.000000 0.045628 0.000000 0.000000
# 5 0.000000 0.000000 0.000000 0.000000 -0.012725 0.000000
# 6 0.000000 0.000000 0.000000 0.000000 0.000000 0.025975
#
#
# Mechanical properties :
#
#
# Convention : Reuss Voigt Hill
#
# Bulk Modulus (GPa) = 119.57360 123.38316 121.47838
# Shear Modulus (GPa) = 53.62779 20.94070 37.28424
#
# Velocity S-wave (km/s) = 4.65328 2.90777 3.87995
# Velocity P-wave (km/s) = 8.78352 7.81609 8.31389
#
# Compressibility (1/GPa) = 0.00836305
#
# Stress axis : x y z
#
# Youngs Moduli (GPa) = 147.87799 158.36593 145.15348
#
# Poissons Ratio (x) = 0.20863 0.48803
# Poissons Ratio (y) = 0.19481 0.16286
# Poissons Ratio (z) = 0.49719 0.17768
#
# Static dielectric constant tensor:
#      x y z
#    x 1.936020 0.000000 0.000000 
#    y 0.000000 2.456040 0.000000 
#    z 0.000000 0.000000 2.139390 
# 
# From -- ./inp_files/18168.got.cif
#   From: 2010.05.17/outbox.cif.g08.bks.cpg/sg58_10_cif.got.tgz:18168.got - 2010.06.03 14:20:14.
