data_PCOD9445874
_publ_section_title
;
Structure prediction by ZEFSAII (Michael W. Deem and Ramdas Pophale) SiO2 
 PCOD9445874
Probable space group: P N N M
;
_chemical_formula_sum "Si O2"
_cell_formula_units_Z 56
_cell_length_a 12.314246
_cell_length_b 22.539649
_cell_length_c 7.248066
_cell_angle_alpha 90.000000
_cell_angle_beta 90.000000
_cell_angle_gamma 90.000000
_cell_volume 2011.764375
_symmetry_space_group_name_H-M "P N N M"
_symmetry_group_IT_number 58
_symmetry_cell_setting 'orthorhombic'
loop_
_space_group_symop_operation_xyz
x,y,z
-x,-y,z
1/2+x,1/2-y,1/2-z
1/2-x,1/2+y,1/2-z
-x,-y,-z
x,y,-z
1/2-x,1/2+y,1/2+z
1/2+x,1/2-y,1/2+z
loop_
_atom_site_type_symbol
_atom_site_label
_atom_site_fract_x
_atom_site_fract_y
_atom_site_fract_z
Si Si1 0.414980 0.707568 0.276449
Si Si2 0.108286 0.646032 0.277796
Si Si3 0.637745 0.162374 0.793640
Si Si4 0.666826 0.543856 0.723697
Si Si5 0.876797 0.486726 0.275715
Si Si6 0.064397 0.082410 0.223974
Si Si7 0.835712 0.219473 0.217176
O O1 0.404308 0.713942 0.500000
O O2 0.363116 0.765371 0.191872
O O3 0.378234 0.642716 0.219569
O O4 0.540751 0.710207 0.221288
O O5 0.104119 0.644705 0.500000
O O6 0.149502 0.581078 0.218986
O O7 0.169828 0.708042 0.238308
O O8 0.980957 0.649323 0.212796
O O9 0.757778 0.165959 0.706130
O O10 0.638912 0.136120 0.000000
O O11 0.668212 0.550362 0.500000
O O12 0.792954 0.538586 0.783545
O O13 0.560814 0.579692 0.785480
O O14 0.626457 0.477010 0.770560
O O15 0.873645 0.486681 0.500000
O O16 0.000000 0.500000 0.220414
O O17 0.062129 0.083887 0.000000
O O18 0.836789 0.206855 0.000000
#
# Coordination Sequence:
#
# PCOD9445874 Si02
#       7
#     8   8   8   8   8   8   8
#     4   9  17  28  45  68  88 113 153 189 218 262
#     4   9  18  31  47  68  93 120 151 187 224 266
#     4   9  18  31  44  63  94 125 149 179 226 274
#     4   8  14  24  37  59  90 114 137 176 224 264
#     4   9  17  27  41  64  91 118 147 180 222 270
#     4   8  14  24  39  61  87 111 137 179 227 260
#     4   9  18  31  45  64  91 121 151 183 222 268
#
# _framework density 27.836261
#
# number of rings (size 3 to 8) (size 9 to 14) (size 15 to 20)
#    0.000    3.286    0.000    0.857    2.000    1.714 
#    0.000    5.714    0.000    0.429    0.000    3.000 
#    0.000    0.000    0.000    0.000    0.000    0.000 
#
# Total GULP energy -312501.063677 kJ/mol
# GULP energy per Si atom -5580.376137 kJ/mol
# Density = 2.777290 g / cm^3
# Si number density = 27.836261 Si / 1000 Ang^3
#
#
#
# Elastic Constant Matrix: (Units=GPa)
#
#
# Indices 1 2 3 4 5 6 
#
# 1 102.4546 -23.3353 -8.0011 0.0000 0.0000 0.0000
# 2 -23.3353 92.3671 -10.8018 0.0000 0.0000 0.0000
# 3 -8.0011 -10.8018 123.7157 0.0000 0.0000 0.0000
# 4 0.0000 0.0000 0.0000 9.5218 0.0000 0.0000
# 5 0.0000 0.0000 0.0000 0.0000 7.7110 0.0000
# 6 0.0000 0.0000 0.0000 0.0000 0.0000 54.2591
#
#
#
# Elastic Compliance Matrix: (Units=1/GPa)
#
#
# Indices 1 2 3 4 5 6 
#
# 1 0.010458 0.002749 0.000916 0.000000 0.000000 0.000000
# 2 0.002749 0.011661 0.001196 0.000000 0.000000 0.000000
# 3 0.000916 0.001196 0.008247 0.000000 0.000000 0.000000
# 4 0.000000 0.000000 0.000000 0.105022 0.000000 0.000000
# 5 0.000000 0.000000 0.000000 0.000000 0.129685 0.000000
# 6 0.000000 0.000000 0.000000 0.000000 0.000000 0.018430
#
#
# Mechanical properties :
#
#
# Convention : Reuss Voigt Hill
#
# Bulk Modulus (GPa) = 24.94453 26.02899 25.48676
# Shear Modulus (GPa) = 17.41296 38.34342 27.87819
#
# Velocity S-wave (km/s) = 2.50381 3.71545 3.16809
# Velocity P-wave (km/s) = 4.16406 5.27040 4.74955
#
# Compressibility (1/GPa) = 0.04008895
#
# Stress axis : x y z
#
# Youngs Moduli (GPa) = 95.61898 85.75742 121.26014
#
# Poissons Ratio (x) = -0.23577 -0.11112
# Poissons Ratio (y) = -0.26288 -0.14502
# Poissons Ratio (z) = -0.08763 -0.10256
#
# Static dielectric constant tensor:
#      x y z
#    x 2.354960 0.000000 0.000000 
#    y 0.000000 2.212990 0.000000 
#    z 0.000000 0.000000 2.133730 
# 
# From -- ./inp_files/14605.got.cif
#   From: 2010.05.17/outbox.cif.g08.bks.cpg/sg58_8_cif.got.tgz:14605.got - 2010.06.03 14:20:14.
