data_PCOD9445401
_publ_section_title
;
Structure prediction by ZEFSAII (Michael W. Deem and Ramdas Pophale) SiO2 
 PCOD9445401
Probable space group: P N N M
;
_chemical_formula_sum "Si O2"
_cell_formula_units_Z 64
_cell_length_a 8.094395
_cell_length_b 23.188299
_cell_length_c 14.897808
_cell_angle_alpha 90.000000
_cell_angle_beta 90.000000
_cell_angle_gamma 90.000000
_cell_volume 2796.247819
_symmetry_space_group_name_H-M "P N N M"
_symmetry_group_IT_number 58
_symmetry_cell_setting 'orthorhombic'
loop_
_space_group_symop_operation_xyz
x,y,z
-x,-y,z
1/2+x,1/2-y,1/2-z
1/2-x,1/2+y,1/2-z
-x,-y,-z
x,y,-z
1/2-x,1/2+y,1/2+z
1/2+x,1/2-y,1/2+z
loop_
_atom_site_type_symbol
_atom_site_label
_atom_site_fract_x
_atom_site_fract_y
_atom_site_fract_z
Si Si1 0.807539 0.774837 0.404496
Si Si2 0.956333 0.658122 0.352656
Si Si3 0.174930 0.467187 0.399034
Si Si4 0.190259 0.014970 0.283302
Si Si5 0.669324 0.317623 0.602958
Si Si6 0.059777 0.306039 0.854856
Si Si7 0.554310 0.366798 0.777181
Si Si8 0.756530 0.085672 0.602117
O O1 0.861941 0.800259 0.500000
O O2 0.857885 0.708847 0.401131
O O3 0.614338 0.784226 0.391782
O O4 0.894534 0.808321 0.324827
O O5 0.868097 0.597880 0.370844
O O6 0.955557 0.676492 0.248782
O O7 0.145997 0.657408 0.385346
O O8 0.246359 0.469729 0.500000
O O9 0.276727 0.496359 0.318840
O O10 0.000000 0.500000 0.401070
O O11 0.293559 0.974828 0.351013
O O12 0.194136 0.083904 0.291922
O O13 0.000000 0.000000 0.304894
O O14 0.617245 0.322742 0.500000
O O15 0.676577 0.249571 0.629211
O O16 0.550422 0.351631 0.672035
O O17 0.120270 0.364505 0.901009
O O18 0.390738 0.387889 0.827884
O O19 0.817818 0.075915 0.500000
#
# Coordination Sequence:
#
# PCOD9445401 Si02
#       8
#     8   8   8   8   8   8   8   8
#     4  12  25  41  65  99 133 170 218 274 335 404
#     4  12  23  45  71  97 137 181 222 279 343 412
#     4  11  24  43  70 100 133 178 229 279 341 411
#     4  10  24  42  66  94 130 171 223 278 335 395
#     4  12  25  43  67  97 134 176 220 272 336 403
#     4  12  24  44  66  99 137 176 222 279 337 407
#     4  11  24  42  67  98 129 178 224 278 333 401
#     4  11  24  45  70  95 131 178 227 280 341 404
#
# _framework density 22.887813999999999
#
# number of rings (size 3 to 8) (size 9 to 14) (size 15 to 20)
#    0.000    0.625    3.750    4.125    1.750    4.500 
#    0.000    3.125    0.000    1.875    0.000    0.000 
#    0.000    0.000    0.000    0.000    0.000    0.000 
#
# Total GULP energy -358034.103933 kJ/mol
# GULP energy per Si atom -5594.282874 kJ/mol
# Density = 2.283572 g / cm^3
# Si number density = 22.887814 Si / 1000 Ang^3
#
#
#
# Elastic Constant Matrix: (Units=GPa)
#
#
# Indices 1 2 3 4 5 6 
#
# 1 36.9054 5.5508 11.6822 0.0000 0.0000 0.0000
# 2 5.5508 108.1901 31.6387 0.0000 0.0000 0.0000
# 3 11.6822 31.6387 186.8704 0.0000 0.0000 0.0000
# 4 0.0000 0.0000 0.0000 -29.0484 0.0000 0.0000
# 5 0.0000 0.0000 0.0000 0.0000 109.0670 0.0000
# 6 0.0000 0.0000 0.0000 0.0000 0.0000 21.1987
#
#
#
# Elastic Compliance Matrix: (Units=1/GPa)
#
#
# Indices 1 2 3 4 5 6 
#
# 1 0.027739 -0.000964 -0.001571 0.000000 0.000000 0.000000
# 2 -0.000964 0.009758 -0.001592 0.000000 0.000000 0.000000
# 3 -0.001571 -0.001592 0.005719 0.000000 0.000000 0.000000
# 4 0.000000 0.000000 0.000000 -0.034425 0.000000 0.000000
# 5 0.000000 0.000000 0.000000 0.000000 0.009169 0.000000
# 6 0.000000 0.000000 0.000000 0.000000 0.000000 0.047173
#
#
# Mechanical properties :
#
#
# Convention : Reuss Voigt Hill
#
# Bulk Modulus (GPa) = 28.60210 47.74547 38.17379
# Shear Modulus (GPa) = 58.79675 39.11642 48.95658
#
# Velocity S-wave (km/s) = 5.07394 4.13855 4.62993
# Velocity P-wave (km/s) = 6.84473 6.61383 6.73027
#
# Compressibility (1/GPa) = 0.03496247
#
# Stress axis : x y z
#
# Youngs Moduli (GPa) = 36.05091 102.48050 174.85516
#
# Poissons Ratio (x) = 0.09877 0.27468
# Poissons Ratio (y) = 0.03474 0.27834
# Poissons Ratio (z) = 0.05663 0.16313
#
# Static dielectric constant tensor:
#      x y z
#    x 1.871250 0.000000 0.000000 
#    y 0.000000 1.879990 0.000000 
#    z 0.000000 0.000000 2.454890 
# 
# From -- ./inp_files/20272.got.cif
#   From: 2010.05.17/outbox.cif.g08.bks.cpg/sg58_11_cif.got.tgz:20272.got - 2010.06.03 14:20:14.
