data_PCOD9445592
_publ_section_title
;
Structure prediction by ZEFSAII (Michael W. Deem and Ramdas Pophale) SiO2 
 PCOD9445592
Probable space group: P N N M
;
_chemical_formula_sum "Si O2"
_cell_formula_units_Z 40
_cell_length_a 9.303807
_cell_length_b 8.914547
_cell_length_c 24.674970
_cell_angle_alpha 90.000000
_cell_angle_beta 90.000000
_cell_angle_gamma 90.000000
_cell_volume 2046.522883
_symmetry_space_group_name_H-M "P N N M"
_symmetry_group_IT_number 58
_symmetry_cell_setting 'orthorhombic'
loop_
_space_group_symop_operation_xyz
x,y,z
-x,-y,z
1/2+x,1/2-y,1/2-z
1/2-x,1/2+y,1/2-z
-x,-y,-z
x,y,-z
1/2-x,1/2+y,1/2+z
1/2+x,1/2-y,1/2+z
loop_
_atom_site_type_symbol
_atom_site_label
_atom_site_fract_x
_atom_site_fract_y
_atom_site_fract_z
Si Si1 0.401152 0.130912 0.647354
Si Si2 0.157715 0.922761 0.788369
Si Si3 0.853318 0.408412 0.375870
Si Si4 0.574615 0.338256 0.438243
Si Si5 0.654880 0.570964 0.164123
O O1 0.357583 0.252672 0.691608
O O2 0.493837 0.222155 0.602206
O O3 0.500000 0.000000 0.670547
O O4 0.261361 0.035300 0.629423
O O5 0.207599 0.929816 0.726461
O O6 0.266557 0.001574 0.829552
O O7 0.000000 0.000000 0.792630
O O8 0.739689 0.377010 0.423986
O O9 0.870934 0.240699 0.353688
O O10 0.000000 0.500000 0.388221
O O11 0.500000 0.500000 0.432401
O O12 0.560719 0.285444 0.500000
O O13 0.500000 0.500000 0.163847
#
# Coordination Sequence:
#
# PCOD9445592 Si02
#       5
#     8   8   8   8   8
#     4  12  21  40  67  93 132 165 218 280 317 384
#     4  11  21  40  61  92 132 178 218 252 315 406
#     4  12  23  42  64  91 132 169 214 275 325 400
#     4  11  24  46  73  94 120 171 226 277 337 395
#     4  11  25  37  60  98 134 173 213 263 330 384
#
# _framework density 19.545347
#
# number of rings (size 3 to 8) (size 9 to 14) (size 15 to 20)
#    0.000    0.600    6.000    2.400    0.000    7.200 
#    0.000    0.000    0.000    1.200    0.000    0.000 
#    0.000    0.000    0.000    0.000    0.000    0.000 
#
# Total GULP energy -223202.554346 kJ/mol
# GULP energy per Si atom -5580.063859 kJ/mol
# Density = 1.950086 g / cm^3
# Si number density = 19.545347 Si / 1000 Ang^3
#
#
#
# Elastic Constant Matrix: (Units=GPa)
#
#
# Indices 1 2 3 4 5 6 
#
# 1 114.5942 54.6977 42.2510 0.0000 0.0000 0.0000
# 2 54.6977 156.9256 36.3547 0.0000 0.0000 0.0000
# 3 42.2510 36.3547 59.7184 0.0000 0.0000 0.0000
# 4 0.0000 0.0000 0.0000 89.3220 0.0000 0.0000
# 5 0.0000 0.0000 0.0000 0.0000 41.6551 0.0000
# 6 0.0000 0.0000 0.0000 0.0000 0.0000 49.4306
#
#
#
# Elastic Compliance Matrix: (Units=1/GPa)
#
#
# Indices 1 2 3 4 5 6 
#
# 1 0.012743 -0.002739 -0.007348 0.000000 0.000000 0.000000
# 2 -0.002739 0.008008 -0.002937 0.000000 0.000000 0.000000
# 3 -0.007348 -0.002937 0.023732 0.000000 0.000000 0.000000
# 4 0.000000 0.000000 0.000000 0.011195 0.000000 0.000000
# 5 0.000000 0.000000 0.000000 0.000000 0.024007 0.000000
# 6 0.000000 0.000000 0.000000 0.000000 0.000000 0.020230
#
#
# Mechanical properties :
#
#
# Convention : Reuss Voigt Hill
#
# Bulk Modulus (GPa) = 54.24703 66.42723 60.33713
# Shear Modulus (GPa) = 37.84759 49.27720 43.56239
#
# Velocity S-wave (km/s) = 4.40523 5.02658 4.72612
# Velocity P-wave (km/s) = 7.32731 8.23095 7.79224
#
# Compressibility (1/GPa) = 0.01843419
#
# Stress axis : x y z
#
# Youngs Moduli (GPa) = 78.47229 124.88105 42.13734
#
# Poissons Ratio (x) = 0.34210 0.30964
# Poissons Ratio (y) = 0.21497 0.12374
# Poissons Ratio (z) = 0.57664 0.36673
#
# Static dielectric constant tensor:
#      x y z
#    x 1.662080 0.000000 0.000000 
#    y 0.000000 1.718220 0.000000 
#    z 0.000000 0.000000 1.682100 
# 
# From -- ./inp_files/31257.got.cif
#   From: 2010.05.17/outbox.cif.g08.bks.cpg/sg58_16_cif.got.tgz:31257.got - 2010.06.03 14:20:14.
