data_PCOD9445466
_publ_section_title
;
Structure prediction by ZEFSAII (Michael W. Deem and Ramdas Pophale) SiO2 
 PCOD9445466
Probable space group: P N N M
;
_chemical_formula_sum "Si O2"
_cell_formula_units_Z 32
_cell_length_a 5.025511
_cell_length_b 12.991999
_cell_length_c 18.631971
_cell_angle_alpha 90.000000
_cell_angle_beta 90.000000
_cell_angle_gamma 90.000000
_cell_volume 1216.508103
_symmetry_space_group_name_H-M "P N N M"
_symmetry_group_IT_number 58
_symmetry_cell_setting 'orthorhombic'
loop_
_space_group_symop_operation_xyz
x,y,z
-x,-y,z
1/2+x,1/2-y,1/2-z
1/2-x,1/2+y,1/2-z
-x,-y,-z
x,y,-z
1/2-x,1/2+y,1/2+z
1/2+x,1/2-y,1/2+z
loop_
_atom_site_type_symbol
_atom_site_label
_atom_site_fract_x
_atom_site_fract_y
_atom_site_fract_z
Si Si1 0.113690 0.274409 0.847837
Si Si2 0.130380 0.889901 0.228151
Si Si3 0.758892 0.928035 0.419884
Si Si4 0.536048 0.125444 0.081032
O O1 0.093525 0.195343 0.781570
O O2 0.231263 0.370039 0.803150
O O3 0.848701 0.325579 0.881348
O O4 0.289229 0.205876 0.903778
O O5 0.296077 0.871128 0.155070
O O6 0.000000 0.000000 0.223948
O O7 0.842116 0.896710 0.500000
O O8 0.500000 0.000000 0.424400
O O9 0.000000 0.000000 0.394271
O O10 0.500000 0.000000 0.077585
O O11 0.640691 0.149249 0.000000
#
# Coordination Sequence:
#
# PCOD9445466 Si02
#       4
#     8   8   8   8
#     4  12  26  47  79 114 162 227 277 352 435 517
#     4  12  27  48  78 116 162 217 286 353 428 519
#     4  10  25  48  75 113 161 218 282 348 424 510
#     4  11  25  47  77 120 165 213 283 357 433 521
#
# _framework density 26.304798999999999
#
# number of rings (size 3 to 8) (size 9 to 14) (size 15 to 20)
#    0.000    0.750    5.000    0.750    3.500    6.500 
#    0.000    0.000    0.000    0.750    0.000    0.000 
#    0.000    0.000    0.000    0.000    0.000    0.000 
#
# Total GULP energy -178517.605551 kJ/mol
# GULP energy per Si atom -5578.675173 kJ/mol
# Density = 2.624493 g / cm^3
# Si number density = 26.304799 Si / 1000 Ang^3
#
#
#
# Elastic Constant Matrix: (Units=GPa)
#
#
# Indices 1 2 3 4 5 6 
#
# 1 100.3220 77.9366 43.8122 0.0000 0.0000 0.0000
# 2 77.9366 204.4652 83.6527 0.0000 0.0000 0.0000
# 3 43.8122 83.6527 183.4789 0.0000 0.0000 0.0000
# 4 0.0000 0.0000 0.0000 -17.6361 0.0000 0.0000
# 5 0.0000 0.0000 0.0000 0.0000 -204.2297 0.0000
# 6 0.0000 0.0000 0.0000 0.0000 0.0000 62.8357
#
#
#
# Elastic Compliance Matrix: (Units=1/GPa)
#
#
# Indices 1 2 3 4 5 6 
#
# 1 0.014355 -0.005002 -0.001147 0.000000 0.000000 0.000000
# 2 -0.005002 0.007756 -0.002341 0.000000 0.000000 0.000000
# 3 -0.001147 -0.002341 0.006792 0.000000 0.000000 0.000000
# 4 0.000000 0.000000 0.000000 -0.056702 0.000000 0.000000
# 5 0.000000 0.000000 0.000000 0.000000 -0.004896 0.000000
# 6 0.000000 0.000000 0.000000 0.000000 0.000000 0.015915
#
#
# Mechanical properties :
#
#
# Convention : Reuss Voigt Hill
#
# Bulk Modulus (GPa) = 83.88996 99.89656 91.89326
# Shear Modulus (GPa) = 1197.92322 -12.94839 592.48741
#
# Velocity S-wave (km/s) = 21.36328 -2.22106 15.02426
# Velocity P-wave (km/s) = 25.30771 5.61084 18.32978
#
# Compressibility (1/GPa) = 0.01192038
#
# Stress axis : x y z
#
# Youngs Moduli (GPa) = 69.66176 128.93959 147.23990
#
# Poissons Ratio (x) = 0.64502 0.16889
# Poissons Ratio (y) = 0.34848 0.34475
# Poissons Ratio (z) = 0.07990 0.30190
#
# Static dielectric constant tensor:
#      x y z
#    x 2.365590 0.000000 0.000000 
#    y 0.000000 2.366320 0.000000 
#    z 0.000000 0.000000 1.986470 
# 
# From -- ./inp_files/24082.got.cif
#   From: 2010.05.17/outbox.cif.g08.bks.cpg/sg58_13_cif.got.tgz:24082.got - 2010.06.03 14:20:14.
