data_PCOD9445399
_publ_section_title
;
Structure prediction by ZEFSAII (Michael W. Deem and Ramdas Pophale) SiO2 
 PCOD9445399
Probable space group: P N N M
;
_chemical_formula_sum "Si O2"
_cell_formula_units_Z 40
_cell_length_a 26.421940
_cell_length_b 4.744835
_cell_length_c 12.898492
_cell_angle_alpha 90.000000
_cell_angle_beta 90.000000
_cell_angle_gamma 90.000000
_cell_volume 1617.054865
_symmetry_space_group_name_H-M "P N N M"
_symmetry_group_IT_number 58
_symmetry_cell_setting 'orthorhombic'
loop_
_space_group_symop_operation_xyz
x,y,z
-x,-y,z
1/2+x,1/2-y,1/2-z
1/2-x,1/2+y,1/2-z
-x,-y,-z
x,y,-z
1/2-x,1/2+y,1/2+z
1/2+x,1/2-y,1/2+z
loop_
_atom_site_type_symbol
_atom_site_label
_atom_site_fract_x
_atom_site_fract_y
_atom_site_fract_z
Si Si1 0.804838 0.367418 0.500000
Si Si2 0.235704 0.639496 0.000000
Si Si3 0.446347 0.384782 0.166289
Si Si4 0.622238 0.147412 0.162120
Si Si5 0.453316 0.218104 0.613357
Si Si6 0.649672 0.137176 0.611595
O O1 0.786802 0.046366 0.500000
O O2 0.836643 0.477134 0.402281
O O3 0.752354 0.540831 0.500000
O O4 0.199869 0.551466 0.904187
O O5 0.500000 0.500000 0.125889
O O6 0.401845 0.569061 0.118104
O O7 0.449136 0.431185 0.291190
O O8 0.427471 0.061551 0.163240
O O9 0.647328 0.245358 0.271346
O O10 0.457204 0.351167 0.500000
O O11 0.500000 0.000000 0.626972
O O12 0.400773 0.050736 0.611977
O O13 0.647171 0.302336 0.500000
#
# Coordination Sequence:
#
# PCOD9445399 Si02
#       6
#     4   4   8   8   8   8
#     4  12  26  46  65  90 117 164 218 272 324 352
#     4  10  24  42  65  92 123 158 212 266 314 376
#     4  11  22  39  63  94 127 166 205 250 308 375
#     4  11  24  42  66  90 128 163 208 261 308 377
#     4   9  17  33  61  96 141 169 205 239 309 382
#     4   8  19  40  60  96 124 165 199 252 306 377
#
# _framework density 24.736329999999999
#
# number of rings (size 3 to 8) (size 9 to 14) (size 15 to 20)
#    0.600    1.400    0.000    4.200    0.000    6.000 
#    0.000    3.000    0.000    0.000    0.000    0.000 
#    0.000    0.000    0.000    0.000    0.000    0.000 
#
# Total GULP energy -223080.186158 kJ/mol
# GULP energy per Si atom -5577.004654 kJ/mol
# Density = 2.468003 g / cm^3
# Si number density = 24.736330 Si / 1000 Ang^3
#
#
#
# Elastic Constant Matrix: (Units=GPa)
#
#
# Indices 1 2 3 4 5 6 
#
# 1 129.6021 11.8805 14.9372 0.0000 0.0000 0.0000
# 2 11.8805 71.6765 -0.2952 0.0000 0.0000 0.0000
# 3 14.9372 -0.2952 115.1104 0.0000 0.0000 0.0000
# 4 0.0000 0.0000 0.0000 -7.9743 0.0000 0.0000
# 5 0.0000 0.0000 0.0000 0.0000 99.9200 0.0000
# 6 0.0000 0.0000 0.0000 0.0000 0.0000 52.7603
#
#
#
# Elastic Compliance Matrix: (Units=1/GPa)
#
#
# Indices 1 2 3 4 5 6 
#
# 1 0.007957 -0.001323 -0.001036 0.000000 0.000000 0.000000
# 2 -0.001323 0.014172 0.000208 0.000000 0.000000 0.000000
# 3 -0.001036 0.000208 0.008822 0.000000 0.000000 0.000000
# 4 0.000000 0.000000 0.000000 -0.125404 0.000000 0.000000
# 5 0.000000 0.000000 0.000000 0.000000 0.010008 0.000000
# 6 0.000000 0.000000 0.000000 0.000000 0.000000 0.018954
#
#
# Mechanical properties :
#
#
# Convention : Reuss Voigt Hill
#
# Bulk Modulus (GPa) = 37.52521 41.04821 39.28671
# Shear Modulus (GPa) = -95.59020 48.26564 -23.66228
#
# Velocity S-wave (km/s) = -6.22315 4.42204 -3.09622
# Velocity P-wave (km/s) = 6.03603 6.53474 1.77047
#
# Compressibility (1/GPa) = 0.02664875
#
# Stress axis : x y z
#
# Youngs Moduli (GPa) = 125.68179 70.56303 113.34955
#
# Poissons Ratio (x) = 0.09336 0.11742
# Poissons Ratio (y) = 0.16629 -0.02358
# Poissons Ratio (z) = 0.13019 -0.01468
#
# Static dielectric constant tensor:
#      x y z
#    x 1.955290 0.000000 0.000000 
#    y 0.000000 1.923220 0.000000 
#    z 0.000000 0.000000 2.024530 
# 
# From -- ./inp_files/23612.got.cif
#   From: 2010.05.17/outbox.cif.g08.bks.cpg/sg58_12_cif.got.tgz:23612.got - 2010.06.03 14:20:14.
