data_PCOD9445822
_publ_section_title
;
Structure prediction by ZEFSAII (Michael W. Deem and Ramdas Pophale) SiO2 
 PCOD9445822
Probable space group: P N N M
;
_chemical_formula_sum "Si O2"
_cell_formula_units_Z 48
_cell_length_a 9.718347
_cell_length_b 16.561315
_cell_length_c 14.303857
_cell_angle_alpha 90.000000
_cell_angle_beta 90.000000
_cell_angle_gamma 90.000000
_cell_volume 2302.185844
_symmetry_space_group_name_H-M "P N N M"
_symmetry_group_IT_number 58
_symmetry_cell_setting 'orthorhombic'
loop_
_space_group_symop_operation_xyz
x,y,z
-x,-y,z
1/2+x,1/2-y,1/2-z
1/2-x,1/2+y,1/2-z
-x,-y,-z
x,y,-z
1/2-x,1/2+y,1/2+z
1/2+x,1/2-y,1/2+z
loop_
_atom_site_type_symbol
_atom_site_label
_atom_site_fract_x
_atom_site_fract_y
_atom_site_fract_z
Si Si1 0.833427 0.490811 0.500000
Si Si2 0.218049 0.928245 0.810687
Si Si3 0.106763 0.689774 0.500000
Si Si4 0.619827 0.242950 0.500000
Si Si5 0.422866 0.086775 0.500000
Si Si6 0.298375 0.080895 0.703306
Si Si7 0.527398 0.173892 0.802931
Si Si8 0.449093 0.669285 0.692950
O O1 0.769271 0.530634 0.592633
O O2 0.809330 0.394916 0.500000
O O3 0.000000 0.500000 0.500000
O O4 0.314123 0.850360 0.795055
O O5 0.061110 0.900985 0.815317
O O6 0.248848 0.991173 0.728221
O O7 0.214440 0.763017 0.500000
O O8 0.013862 0.687051 0.590852
O O9 0.534575 0.159665 0.500000
O O10 0.584902 0.294290 0.592057
O O11 0.331940 0.093025 0.594393
O O12 0.500000 0.000000 0.500000
O O13 0.438116 0.101380 0.759433
O O14 0.183045 0.138223 0.749761
O O15 0.491193 0.254648 0.748570
#
# Coordination Sequence:
#
# PCOD9445822 Si02
#       8
#     4   8   4   4   4   8   8   8
#     4  12  19  41  70 109 141 181 240 291 365 447
#     4  12  24  42  73 103 141 185 235 297 360 429
#     4  12  24  40  70 110 137 179 226 305 360 420
#     4  12  25  45  72 103 149 181 238 301 366 424
#     4  12  28  48  76 106 139 204 256 291 344 448
#     4  12  25  47  71 102 142 188 242 296 358 431
#     4  12  23  42  69 101 143 184 240 284 354 433
#     4  12  27  45  69 107 144 188 234 304 370 421
#
# _framework density 20.84975
#
# number of rings (size 3 to 8) (size 9 to 14) (size 15 to 20)
#    0.000    0.000    6.667    3.500    0.000    0.667 
#    0.000    4.167    0.000    0.000    0.000    0.000 
#    0.000    0.000    0.000    0.000    0.000    0.000 
#
# Total GULP energy -268654.966832 kJ/mol
# GULP energy per Si atom -5596.978476 kJ/mol
# Density = 2.080230 g / cm^3
# Si number density = 20.849750 Si / 1000 Ang^3
#
#
#
# Elastic Constant Matrix: (Units=GPa)
#
#
# Indices 1 2 3 4 5 6 
#
# 1 84.8344 36.6695 34.9352 0.0000 0.0000 0.0000
# 2 36.6695 100.2355 40.4459 0.0000 0.0000 0.0000
# 3 34.9352 40.4459 161.7649 0.0000 0.0000 0.0000
# 4 0.0000 0.0000 0.0000 -34.0819 0.0000 0.0000
# 5 0.0000 0.0000 0.0000 0.0000 -10.5081 0.0000
# 6 0.0000 0.0000 0.0000 0.0000 0.0000 41.5328
#
#
#
# Elastic Compliance Matrix: (Units=1/GPa)
#
#
# Indices 1 2 3 4 5 6 
#
# 1 0.014571 -0.004516 -0.002018 0.000000 0.000000 0.000000
# 2 -0.004516 0.012496 -0.002149 0.000000 0.000000 0.000000
# 3 -0.002018 -0.002149 0.007155 0.000000 0.000000 0.000000
# 4 0.000000 0.000000 0.000000 -0.029341 0.000000 0.000000
# 5 0.000000 0.000000 0.000000 0.000000 -0.095165 0.000000
# 6 0.000000 0.000000 0.000000 0.000000 0.000000 0.024077
#
#
# Mechanical properties :
#
#
# Convention : Reuss Voigt Hill
#
# Bulk Modulus (GPa) = 59.32708 63.43734 61.38221
# Shear Modulus (GPa) = -115.67989 15.04083 -50.31953
#
# Velocity S-wave (km/s) = -7.45675 2.68879 -4.91800
# Velocity P-wave (km/s) = 6.75434 6.33494 1.65675
#
# Compressibility (1/GPa) = 0.01685571
#
# Stress axis : x y z
#
# Youngs Moduli (GPa) = 68.63104 80.02643 139.76596
#
# Poissons Ratio (x) = 0.36143 0.28198
# Poissons Ratio (y) = 0.30996 0.30035
# Poissons Ratio (z) = 0.13846 0.17197
#
# Static dielectric constant tensor:
#      x y z
#    x 1.745980 0.000000 0.000000 
#    y 0.000000 1.784500 0.000000 
#    z 0.000000 0.000000 1.915480 
# 
# From -- ./inp_files/19889.got.cif
#   From: 2010.05.17/outbox.cif.g08.bks.cpg/sg58_10_cif.got.tgz:19889.got - 2010.06.03 14:20:14.
