data_PCOD9445855
_publ_section_title
;
Structure prediction by ZEFSAII (Michael W. Deem and Ramdas Pophale) SiO2 
 PCOD9445855
Probable space group: P N N M
;
_chemical_formula_sum "Si O2"
_cell_formula_units_Z 48
_cell_length_a 6.711502
_cell_length_b 34.171047
_cell_length_c 7.317143
_cell_angle_alpha 90.000000
_cell_angle_beta 90.000000
_cell_angle_gamma 90.000000
_cell_volume 1678.106626
_symmetry_space_group_name_H-M "P N N M"
_symmetry_group_IT_number 58
_symmetry_cell_setting 'orthorhombic'
loop_
_space_group_symop_operation_xyz
x,y,z
-x,-y,z
1/2+x,1/2-y,1/2-z
1/2-x,1/2+y,1/2-z
-x,-y,-z
x,y,-z
1/2-x,1/2+y,1/2+z
1/2+x,1/2-y,1/2+z
loop_
_atom_site_type_symbol
_atom_site_label
_atom_site_fract_x
_atom_site_fract_y
_atom_site_fract_z
Si Si1 0.042541 0.695882 0.780048
Si Si2 0.006383 0.217923 0.211521
Si Si3 0.719080 0.968556 0.723541
Si Si4 0.064478 0.863819 0.215615
Si Si5 0.392424 0.113568 0.711255
Si Si6 0.822959 0.051656 0.718327
O O1 0.273893 0.701491 0.731192
O O2 0.004965 0.652208 0.705823
O O3 0.967639 0.738143 0.711324
O O4 0.019946 0.694364 0.000000
O O5 0.881142 0.180448 0.286619
O O6 0.949993 0.223378 0.000000
O O7 0.701090 0.968024 0.500000
O O8 0.599386 0.930259 0.789060
O O9 0.948908 0.958383 0.770904
O O10 0.696864 0.013772 0.781938
O O11 0.847141 0.876663 0.291938
O O12 0.200451 0.902378 0.239492
O O13 0.037522 0.858695 0.000000
O O14 0.454948 0.111289 0.500000
O O15 0.813184 0.049399 0.500000
#
# Coordination Sequence:
#
# PCOD9445855 Si02
#       6
#     8   8   8   8   8   8
#     4   9  17  29  45  62  80 107 140 168 199 243
#     4   9  18  30  42  60  85 108 134 170 205 237
#     4   7  10  17  30  46  64  89 120 154 186 219
#     4   9  15  22  32  48  73 100 123 153 193 228
#     4   8  13  23  37  50  67  95 129 157 186 230
#     4   8  12  19  30  44  65  93 124 152 181 225
#
# _framework density 28.603664999999999
#
# number of rings (size 3 to 8) (size 9 to 14) (size 15 to 20)
#    0.000    3.667    0.000    2.500    0.000    1.333 
#    0.000    6.667    0.000    0.000    0.000    0.000 
#    0.000    1.333    0.000   16.667    0.000    9.667 
#
# Total GULP energy -267924.328187 kJ/mol
# GULP energy per Si atom -5581.756837 kJ/mol
# Density = 2.853856 g / cm^3
# Si number density = 28.603665 Si / 1000 Ang^3
#
#
#
# Elastic Constant Matrix: (Units=GPa)
#
#
# Indices 1 2 3 4 5 6 
#
# 1 74.5815 78.8796 4.7445 0.0000 0.0000 0.0000
# 2 78.8796 451.9934 11.2748 0.0000 0.0000 0.0000
# 3 4.7445 11.2748 137.9406 0.0000 0.0000 0.0000
# 4 0.0000 0.0000 0.0000 18.4332 0.0000 0.0000
# 5 0.0000 0.0000 0.0000 0.0000 5.7645 0.0000
# 6 0.0000 0.0000 0.0000 0.0000 0.0000 78.1573
#
#
#
# Elastic Compliance Matrix: (Units=1/GPa)
#
#
# Indices 1 2 3 4 5 6 
#
# 1 0.016458 -0.002864 -0.000332 0.000000 0.000000 0.000000
# 2 -0.002864 0.002715 -0.000123 0.000000 0.000000 0.000000
# 3 -0.000332 -0.000123 0.007271 0.000000 0.000000 0.000000
# 4 0.000000 0.000000 0.000000 0.054250 0.000000 0.000000
# 5 0.000000 0.000000 0.000000 0.000000 0.173475 0.000000
# 6 0.000000 0.000000 0.000000 0.000000 0.000000 0.012795
#
#
# Mechanical properties :
#
#
# Convention : Reuss Voigt Hill
#
# Bulk Modulus (GPa) = 50.49016 94.92369 72.70692
# Shear Modulus (GPa) = 17.84408 58.44544 38.14476
#
# Velocity S-wave (km/s) = 2.50039 4.52517 3.65576
# Velocity P-wave (km/s) = 5.10156 7.78208 6.57977
#
# Compressibility (1/GPa) = 0.01980584
#
# Stress axis : x y z
#
# Youngs Moduli (GPa) = 60.75979 368.28360 137.53251
#
# Poissons Ratio (x) = 1.05474 0.04566
# Poissons Ratio (y) = 0.17401 0.01698
# Poissons Ratio (z) = 0.02017 0.04546
#
# Static dielectric constant tensor:
#      x y z
#    x 2.335680 0.000000 0.000000 
#    y 0.000000 2.384620 0.000000 
#    z 0.000000 0.000000 2.057250 
# 
# From -- ./inp_files/4497.got.cif
#   From: 2010.05.17/outbox.cif.g08.bks.cpg/sg58_3_cif.got.tgz:4497.got - 2010.06.03 14:20:14.
