data_PCOD9445948
_publ_section_title
;
Structure prediction by ZEFSAII (Michael W. Deem and Ramdas Pophale) SiO2 
 PCOD9445948
Probable space group: P N N M
;
_chemical_formula_sum "Si O2"
_cell_formula_units_Z 56
_cell_length_a 15.000000
_cell_length_b 21.000000
_cell_length_c 9.000000
_cell_angle_alpha 90.000000
_cell_angle_beta 90.000000
_cell_angle_gamma 90.000000
_cell_volume 2835.000000
_symmetry_space_group_name_H-M "P N N M"
_symmetry_group_IT_number 58
_symmetry_cell_setting 'orthorhombic'
loop_
_space_group_symop_operation_xyz
x,y,z
-x,-y,z
1/2+x,1/2-y,1/2-z
1/2-x,1/2+y,1/2-z
-x,-y,-z
x,y,-z
1/2-x,1/2+y,1/2+z
1/2+x,1/2-y,1/2+z
loop_
_atom_site_type_symbol
_atom_site_label
_atom_site_fract_x
_atom_site_fract_y
_atom_site_fract_z
Si Si1 0.403420 0.218695 0.172893
Si Si2 0.285881 0.120145 0.676417
Si Si3 0.781058 0.602894 0.178898
Si Si4 0.082558 0.871581 0.674551
Si Si5 0.913010 0.714803 0.175074
Si Si6 0.604152 0.991797 0.177398
Si Si7 0.398286 0.633713 0.324674
O O1 0.324420 0.187346 0.266034
O O2 0.405205 0.295038 0.186884
O O3 0.499870 0.195571 0.231407
O O4 0.391537 0.202223 0.000000
O O5 0.284256 0.117927 0.500000
O O6 0.187600 0.107136 0.740431
O O7 0.354411 0.069232 0.742844
O O8 0.677378 0.600093 0.223710
O O9 0.827467 0.671310 0.207546
O O10 0.840202 0.551493 0.262590
O O11 0.784422 0.592827 0.000000
O O12 0.069261 0.885958 0.500000
O O13 0.993665 0.889447 0.763388
O O14 0.896018 0.789565 0.200370
O O15 0.934336 0.706965 0.000000
O O16 0.500000 0.000000 0.212951
O O17 0.613172 0.985686 0.000000
O O18 0.391111 0.622083 0.500000
#
# Coordination Sequence:
#
# PCOD9445948 Si02
#       7
#     8   8   8   8   8   8   8
#     4  10  19  33  55  84 118 152 186 229 278 329
#     4  12  24  38  58  82 111 150 192 233 281 336
#     4  10  20  36  58  82 112 150 188 227 274 331
#     4   9  19  36  57  84 118 152 185 225 277 333
#     4   9  18  33  55  85 119 153 186 224 276 334
#     4  11  25  43  61  83 111 143 183 233 284 332
#     4  10  20  36  58  85 117 150 187 232 278 328
#
# _framework density 19.753086
#
# number of rings (size 3 to 8) (size 9 to 14) (size 15 to 20)
#    0.000    1.857    0.000    4.286    0.000    8.000 
#    0.000    2.143    0.000    4.286    0.000    0.000 
#    0.000    0.000    0.000    0.000    0.000    0.000 
#
# Total GULP energy -312952.019725 kJ/mol
# GULP energy per Si atom -5588.428924 kJ/mol
# Density = 1.970813 g / cm^3
# Si number density = 19.753086 Si / 1000 Ang^3
#
#
#
# Elastic Constant Matrix: (Units=GPa)
#
#
# Indices 1 2 3 4 5 6 
#
# 1 176.5810 23.1895 89.8568 0.0000 0.0000 0.0000
# 2 23.1895 18.6810 31.8594 0.0000 0.0000 0.0000
# 3 89.8568 31.8594 89.1232 0.0000 0.0000 0.0000
# 4 0.0000 0.0000 0.0000 23.1839 0.0000 0.0000
# 5 0.0000 0.0000 0.0000 0.0000 37.4434 0.0000
# 6 0.0000 0.0000 0.0000 0.0000 0.0000 25.2699
#
#
#
# Elastic Compliance Matrix: (Units=1/GPa)
#
#
# Indices 1 2 3 4 5 6 
#
# 1 0.013326 0.016323 -0.019271 0.000000 0.000000 0.000000
# 2 0.016323 0.157132 -0.072629 0.000000 0.000000 0.000000
# 3 -0.019271 -0.072629 0.056613 0.000000 0.000000 0.000000
# 4 0.000000 0.000000 0.000000 0.043133 0.000000 0.000000
# 5 0.000000 0.000000 0.000000 0.000000 0.026707 0.000000
# 6 0.000000 0.000000 0.000000 0.000000 0.000000 0.039573
#
#
# Mechanical properties :
#
#
# Convention : Reuss Voigt Hill
#
# Bulk Modulus (GPa) = 13.17201 63.79963 38.48582
# Shear Modulus (GPa) = 9.74770 26.47807 18.11289
#
# Velocity S-wave (km/s) = 2.22384 3.66519 3.03143
# Velocity P-wave (km/s) = 3.64373 7.09085 5.63724
#
# Compressibility (1/GPa) = 0.07591856
#
# Stress axis : x y z
#
# Youngs Moduli (GPa) = 75.04310 6.36407 17.66392
#
# Poissons Ratio (x) = -0.10388 0.34039
# Poissons Ratio (y) = -1.22494 1.28291
# Poissons Ratio (z) = 1.44612 0.46221
#
# Static dielectric constant tensor:
#      x y z
#    x 1.679760 0.000000 0.000000 
#    y 0.000000 1.727970 0.000000 
#    z 0.000000 0.000000 1.657280 
# 
# From -- ./inp_files/6309.got.cif
#   From: 2010.05.17/outbox.ucp.g08.bks.cvg/sg58_4_cif.got.tgz:6309.got - 2010.06.11 16:41:41.
