data_PCOD9445250
_publ_section_title
;
Structure prediction by ZEFSAII (Michael W. Deem and Ramdas Pophale) SiO2 
 PCOD9445250
Probable space group: P N N M
;
_chemical_formula_sum "Si O2"
_cell_formula_units_Z 56
_cell_length_a 7.563278
_cell_length_b 21.709945
_cell_length_c 17.493937
_cell_angle_alpha 90.000000
_cell_angle_beta 90.000000
_cell_angle_gamma 90.000000
_cell_volume 2872.475580
_symmetry_space_group_name_H-M "P N N M"
_symmetry_group_IT_number 58
_symmetry_cell_setting 'orthorhombic'
loop_
_space_group_symop_operation_xyz
x,y,z
-x,-y,z
1/2+x,1/2-y,1/2-z
1/2-x,1/2+y,1/2-z
-x,-y,-z
x,y,-z
1/2-x,1/2+y,1/2+z
1/2+x,1/2-y,1/2+z
loop_
_atom_site_type_symbol
_atom_site_label
_atom_site_fract_x
_atom_site_fract_y
_atom_site_fract_z
Si Si1 0.229359 0.646891 0.811759
Si Si2 0.955162 0.146607 0.918447
Si Si3 0.459227 0.929085 0.219226
Si Si4 0.032152 0.288886 0.085058
Si Si5 0.674361 0.742621 0.805059
Si Si6 0.568025 0.618669 0.741134
Si Si7 0.966283 0.667454 0.588282
O O1 0.234918 0.700263 0.746615
O O2 0.419121 0.613054 0.806529
O O3 0.081771 0.598599 0.785561
O O4 0.151802 0.681705 0.885842
O O5 0.009836 0.108811 0.843943
O O6 0.745804 0.161550 0.915057
O O7 0.035753 0.214592 0.918151
O O8 0.994931 0.116409 0.000000
O O9 0.253587 0.916983 0.241333
O O10 0.510392 0.890316 0.142916
O O11 0.500000 0.000000 0.207570
O O12 0.180842 0.297111 0.149047
O O13 0.073155 0.311720 0.000000
O O14 0.608139 0.691822 0.745602
O O15 0.536989 0.772484 0.865733
O O16 0.031049 0.666657 0.500000
#
# Coordination Sequence:
#
# PCOD9445250 Si02
#       7
#     8   8   8   8   8   8   8
#     4  11  20  35  57  82 111 150 187 238 286 341
#     4   9  17  29  46  77 118 152 180 222 279 339
#     4  10  23  39  56  82 113 155 206 240 277 334
#     4  11  20  31  51  84 123 149 176 226 290 354
#     4  11  18  31  53  86 118 147 185 231 293 354
#     4  11  20  34  58  81 114 152 191 240 288 341
#     4   9  19  33  53  81 116 156 193 233 285 342
#
# _framework density 19.495380000000001
#
# number of rings (size 3 to 8) (size 9 to 14) (size 15 to 20)
#    0.000    1.714    4.286    1.286    2.000    0.857 
#    0.000    0.714    0.000    0.429    0.000    7.000 
#    0.000    0.000    0.000    0.000    0.000    0.000 
#
# Total GULP energy -311874.434429 kJ/mol
# GULP energy per Si atom -5569.186329 kJ/mol
# Density = 1.945101 g / cm^3
# Si number density = 19.495380 Si / 1000 Ang^3
#
#
#
# Elastic Constant Matrix: (Units=GPa)
#
#
# Indices 1 2 3 4 5 6 
#
# 1 41.5738 -9.4818 6.0222 0.0000 0.0000 0.0000
# 2 -9.4818 32.7554 8.8949 0.0000 0.0000 0.0000
# 3 6.0222 8.8949 63.4413 0.0000 0.0000 0.0000
# 4 0.0000 0.0000 0.0000 10.7785 0.0000 0.0000
# 5 0.0000 0.0000 0.0000 0.0000 18.6568 0.0000
# 6 0.0000 0.0000 0.0000 0.0000 0.0000 11.7919
#
#
#
# Elastic Compliance Matrix: (Units=1/GPa)
#
#
# Indices 1 2 3 4 5 6 
#
# 1 0.026583 0.008712 -0.003745 0.000000 0.000000 0.000000
# 2 0.008712 0.034593 -0.005677 0.000000 0.000000 0.000000
# 3 -0.003745 -0.005677 0.016914 0.000000 0.000000 0.000000
# 4 0.000000 0.000000 0.000000 0.092777 0.000000 0.000000
# 5 0.000000 0.000000 0.000000 0.000000 0.053600 0.000000
# 6 0.000000 0.000000 0.000000 0.000000 0.000000 0.084804
#
#
# Mechanical properties :
#
#
# Convention : Reuss Voigt Hill
#
# Bulk Modulus (GPa) = 13.04292 16.51567 14.77929
# Shear Modulus (GPa) = 14.87001 17.06780 15.96890
#
# Velocity S-wave (km/s) = 2.76478 2.96206 2.86512
# Velocity P-wave (km/s) = 4.11057 4.49315 4.30611
#
# Compressibility (1/GPa) = 0.07666995
#
# Stress axis : x y z
#
# Youngs Moduli (GPa) = 37.61799 28.90768 59.12242
#
# Poissons Ratio (x) = -0.25184 0.22141
# Poissons Ratio (y) = -0.32773 0.33565
# Poissons Ratio (z) = 0.14087 0.16411
#
# Static dielectric constant tensor:
#      x y z
#    x 1.800920 0.000000 0.000000 
#    y 0.000000 1.633740 0.000000 
#    z 0.000000 0.000000 1.780590 
# 
# From -- ./inp_files/25617.got.cif
#   From: 2010.05.17/outbox.cif.g08.bks.cpg/sg58_13_cif.got.tgz:25617.got - 2010.06.03 14:20:14.
