data_PCOD9445956
_publ_section_title
;
Structure prediction by ZEFSAII (Michael W. Deem and Ramdas Pophale) SiO2 
 PCOD9445956
Probable space group: P N N M
;
_chemical_formula_sum "Si O2"
_cell_formula_units_Z 64
_cell_length_a 21.000000
_cell_length_b 18.000000
_cell_length_c 9.000000
_cell_angle_alpha 90.000000
_cell_angle_beta 90.000000
_cell_angle_gamma 90.000000
_cell_volume 3402.000000
_symmetry_space_group_name_H-M "P N N M"
_symmetry_group_IT_number 58
_symmetry_cell_setting 'orthorhombic'
loop_
_space_group_symop_operation_xyz
x,y,z
-x,-y,z
1/2+x,1/2-y,1/2-z
1/2-x,1/2+y,1/2-z
-x,-y,-z
x,y,-z
1/2-x,1/2+y,1/2+z
1/2+x,1/2-y,1/2+z
loop_
_atom_site_type_symbol
_atom_site_label
_atom_site_fract_x
_atom_site_fract_y
_atom_site_fract_z
Si Si1 0.681875 0.696073 0.168929
Si Si2 0.258355 0.954897 0.663720
Si Si3 0.900142 0.402751 0.324621
Si Si4 0.046248 0.756847 0.322062
Si Si5 0.090035 0.445761 0.827351
Si Si6 0.703052 0.273411 0.173011
Si Si7 0.924175 0.716044 0.821849
Si Si8 0.748655 0.407161 0.669889
O O1 0.714926 0.616810 0.161609
O O2 0.608061 0.693510 0.213425
O O3 0.728872 0.742168 0.272914
O O4 0.682749 0.728827 0.000000
O O5 0.254071 0.991802 0.500000
O O6 0.332958 0.936411 0.683050
O O7 0.236950 0.007322 0.795888
O O8 0.909515 0.410109 0.500000
O O9 0.929791 0.325328 0.276329
O O10 0.925872 0.476883 0.249024
O O11 0.824095 0.398198 0.298442
O O12 0.035926 0.759087 0.500000
O O13 0.979736 0.768435 0.240315
O O14 0.063042 0.368582 0.766908
O O15 0.073298 0.451680 0.000000
O O16 0.644963 0.238178 0.262979
O O17 0.707383 0.358898 0.218891
O O18 0.693988 0.260755 0.000000
O O19 0.923762 0.715501 0.000000
O O20 0.736113 0.386464 0.500000
#
# Coordination Sequence:
#
# PCOD9445956 Si02
#       8
#     8   8   8   8   8   8   8   8
#     4  10  19  37  60  81 113 149 182 226 282 330
#     4   9  17  32  55  82 109 141 180 223 271 329
#     4   9  18  32  52  76 109 147 182 220 266 321
#     4  10  21  37  55  79 110 148 187 226 272 328
#     4   9  18  32  51  74 106 145 185 222 265 322
#     4  12  23  35  57  85 110 142 189 234 272 327
#     4  11  23  39  55  76 110 151 187 229 283 329
#     4  10  19  34  55  81 113 145 177 223 281 328
#
# _framework density 18.812463000000001
#
# number of rings (size 3 to 8) (size 9 to 14) (size 15 to 20)
#    0.000    2.000    2.500    1.875    0.000    3.500 
#    0.000    2.500    0.000    0.750    0.000    5.250 
#    0.000    0.000    0.000    0.000    0.000    0.000 
#
# Total GULP energy -356801.358786 kJ/mol
# GULP energy per Si atom -5575.021231 kJ/mol
# Density = 1.876965 g / cm^3
# Si number density = 18.812463 Si / 1000 Ang^3
#
#
#
# Elastic Constant Matrix: (Units=GPa)
#
#
# Indices 1 2 3 4 5 6 
#
# 1 11.2959 -2.9406 20.1554 0.0000 0.0000 0.0000
# 2 -2.9406 31.1930 9.8860 0.0000 0.0000 0.0000
# 3 20.1554 9.8860 31.6135 0.0000 0.0000 0.0000
# 4 0.0000 0.0000 0.0000 14.9367 0.0000 0.0000
# 5 0.0000 0.0000 0.0000 0.0000 38.3692 0.0000
# 6 0.0000 0.0000 0.0000 0.0000 0.0000 15.8662
#
#
#
# Elastic Compliance Matrix: (Units=1/GPa)
#
#
# Indices 1 2 3 4 5 6 
#
# 1 -0.217639 -0.071588 0.161144 0.000000 0.000000 0.000000
# 2 -0.071588 0.012038 0.041877 0.000000 0.000000 0.000000
# 3 0.161144 0.041877 -0.084202 0.000000 0.000000 0.000000
# 4 0.000000 0.000000 0.000000 0.066949 0.000000 0.000000
# 5 0.000000 0.000000 0.000000 0.000000 0.026063 0.000000
# 6 0.000000 0.000000 0.000000 0.000000 0.000000 0.063027
#
#
# Mechanical properties :
#
#
# Convention : Reuss Voigt Hill
#
# Bulk Modulus (GPa) = -37.12312 14.25599 -11.43357
# Shear Modulus (GPa) = -12.32715 16.96786 2.32035
#
# Velocity S-wave (km/s) = -2.56259 3.00650 1.11180
# Velocity P-wave (km/s) = 5.34153 4.43243 2.10778
#
# Compressibility (1/GPa) = -0.02693739
#
# Stress axis : x y z
#
# Youngs Moduli (GPa) = -4.59476 83.07143 -11.87625
#
# Poissons Ratio (x) = 5.94691 1.91378
# Poissons Ratio (y) = -0.32893 0.49734
# Poissons Ratio (z) = 0.74042 -3.47878
#
# Static dielectric constant tensor:
#      x y z
#    x 1.672460 0.000000 0.000000 
#    y 0.000000 1.700110 0.000000 
#    z 0.000000 0.000000 1.648360 
# 
# From -- ./inp_files/8311.got.cif
#   From: 2010.05.17/outbox.ucp.g08.bks.cvg/sg58_5_cif.got.tgz:8311.got - 2010.06.11 16:41:41.
