data_PCOD9445438
_publ_section_title
;
Structure prediction by ZEFSAII (Michael W. Deem and Ramdas Pophale) SiO2 
 PCOD9445438
Probable space group: P N N M
;
_chemical_formula_sum "Si O2"
_cell_formula_units_Z 60
_cell_length_a 5.492739
_cell_length_b 20.544860
_cell_length_c 23.987486
_cell_angle_alpha 90.000000
_cell_angle_beta 90.000000
_cell_angle_gamma 90.000000
_cell_volume 2706.929116
_symmetry_space_group_name_H-M "P N N M"
_symmetry_group_IT_number 58
_symmetry_cell_setting 'orthorhombic'
loop_
_space_group_symop_operation_xyz
x,y,z
-x,-y,z
1/2+x,1/2-y,1/2-z
1/2-x,1/2+y,1/2-z
-x,-y,-z
x,y,-z
1/2-x,1/2+y,1/2+z
1/2+x,1/2-y,1/2+z
loop_
_atom_site_type_symbol
_atom_site_label
_atom_site_fract_x
_atom_site_fract_y
_atom_site_fract_z
Si Si1 0.500000 0.500000 0.741460
Si Si2 0.617600 0.734727 0.677594
Si Si3 0.686391 0.387217 0.674709
Si Si4 0.441590 0.853450 0.257569
Si Si5 0.622725 0.797643 0.563831
Si Si6 0.225960 0.462689 0.160698
Si Si7 0.748733 0.958404 0.937069
Si Si8 0.379720 0.380897 0.063671
O O1 0.489406 0.437498 0.701197
O O2 0.702519 0.488195 0.789208
O O3 0.381973 0.688165 0.680506
O O4 0.600617 0.806206 0.703436
O O5 0.662550 0.744207 0.611975
O O6 0.797590 0.695422 0.717339
O O7 0.916715 0.397825 0.713775
O O8 0.735417 0.405985 0.611603
O O9 0.303580 0.897852 0.301775
O O10 0.608475 0.772729 0.500000
O O11 0.366326 0.836694 0.574039
O O12 0.865494 0.842057 0.567205
O O13 0.385713 0.436672 0.110017
O O14 0.000000 0.500000 0.133974
O O15 0.500000 0.000000 0.928749
O O16 0.737279 0.931737 0.000000
O O17 0.000000 0.000000 0.933365
O O18 0.355539 0.404730 0.000000
#
# Coordination Sequence:
#
# PCOD9445438 Si02
#       8
#     4   8   8   8   8   8   8   8
#     4  12  26  42  62 102 140 178 228 284 346 406
#     4  12  26  42  68  99 137 184 229 282 345 414
#     4  12  26  42  68  99 137 184 229 282 345 414
#     4  12  26  42  62 102 140 178 228 284 346 406
#     4  10  24  46  72 100 136 181 230 288 343 400
#     4  12  26  42  68  99 137 184 229 282 345 414
#     4  10  24  46  72 100 136 181 230 288 343 400
#     4  10  24  46  72 100 136 181 230 288 343 400
#
# _framework density 22.16534
#
# number of rings (size 3 to 8) (size 9 to 14) (size 15 to 20)
#    0.000    0.800    6.000    0.000   11.200    0.800 
#    0.000    1.000    0.000    0.000    0.000    0.000 
#    0.000    0.000    0.000    0.000    0.000    0.000 
#
# Total GULP energy -334431.106980 kJ/mol
# GULP energy per Si atom -5573.851783 kJ/mol
# Density = 2.211489 g / cm^3
# Si number density = 22.165340 Si / 1000 Ang^3
#
#
#
# Elastic Constant Matrix: (Units=GPa)
#
#
# Indices 1 2 3 4 5 6 
#
# 1 79.5409 -1.3391 16.5606 0.0000 0.0000 0.0000
# 2 -1.3391 28.0193 30.2764 0.0000 0.0000 0.0000
# 3 16.5606 30.2764 154.2207 0.0000 0.0000 0.0000
# 4 0.0000 0.0000 0.0000 107.0182 0.0000 0.0000
# 5 0.0000 0.0000 0.0000 0.0000 11.0453 0.0000
# 6 0.0000 0.0000 0.0000 0.0000 0.0000 22.6953
#
#
#
# Elastic Compliance Matrix: (Units=1/GPa)
#
#
# Indices 1 2 3 4 5 6 
#
# 1 0.013019 0.002707 -0.001930 0.000000 0.000000 0.000000
# 2 0.002707 0.045862 -0.009294 0.000000 0.000000 0.000000
# 3 -0.001930 -0.009294 0.008516 0.000000 0.000000 0.000000
# 4 0.000000 0.000000 0.000000 0.009344 0.000000 0.000000
# 5 0.000000 0.000000 0.000000 0.000000 0.090536 0.000000
# 6 0.000000 0.000000 0.000000 0.000000 0.000000 0.044062
#
#
# Mechanical properties :
#
#
# Convention : Reuss Voigt Hill
#
# Bulk Modulus (GPa) = 19.85532 39.19743 29.52638
# Shear Modulus (GPa) = 20.39475 42.57063 31.48269
#
# Velocity S-wave (km/s) = 3.03664 4.38721 3.77285
# Velocity P-wave (km/s) = 4.61218 6.58681 5.68587
#
# Compressibility (1/GPa) = 0.05036433
#
# Stress axis : x y z
#
# Youngs Moduli (GPa) = 76.80814 21.80448 117.42520
#
# Poissons Ratio (x) = -0.05903 0.22658
# Poissons Ratio (y) = -0.20793 1.09139
# Poissons Ratio (z) = 0.14820 0.20266
#
# Static dielectric constant tensor:
#      x y z
#    x 1.620890 0.000000 0.000000 
#    y 0.000000 1.833850 0.000000 
#    z 0.000000 0.000000 1.766790 
# 
# From -- ./inp_files/31055.got.cif
#   From: 2010.05.17/outbox.cif.g08.bks.cpg/sg58_16_cif.got.tgz:31055.got - 2010.06.03 14:20:14.
