data_PCOD9445714
_publ_section_title
;
Structure prediction by ZEFSAII (Michael W. Deem and Ramdas Pophale) SiO2 
 PCOD9445714
Probable space group: P N N M
;
_chemical_formula_sum "Si O2"
_cell_formula_units_Z 40
_cell_length_a 18.598826
_cell_length_b 13.873603
_cell_length_c 7.884737
_cell_angle_alpha 90.000000
_cell_angle_beta 90.000000
_cell_angle_gamma 90.000000
_cell_volume 2034.520199
_symmetry_space_group_name_H-M "P N N M"
_symmetry_group_IT_number 58
_symmetry_cell_setting 'orthorhombic'
loop_
_space_group_symop_operation_xyz
x,y,z
-x,-y,z
1/2+x,1/2-y,1/2-z
1/2-x,1/2+y,1/2-z
-x,-y,-z
x,y,-z
1/2-x,1/2+y,1/2+z
1/2+x,1/2-y,1/2+z
loop_
_atom_site_type_symbol
_atom_site_label
_atom_site_fract_x
_atom_site_fract_y
_atom_site_fract_z
Si Si1 0.968306 0.204800 0.696069
Si Si2 0.154702 0.944012 0.701680
Si Si3 0.699075 0.145924 0.809926
Si Si4 0.612100 0.055040 0.500000
Si Si5 0.453537 0.149445 0.500000
Si Si6 0.369068 0.662683 0.700927
O O1 0.955649 0.233526 0.500000
O O2 0.052259 0.181725 0.721207
O O3 0.920721 0.109936 0.731230
O O4 0.946615 0.285317 0.832407
O O5 0.167589 0.944637 0.500000
O O6 0.218431 0.884039 0.787202
O O7 0.152997 0.053231 0.764954
O O8 0.654187 0.089991 0.666565
O O9 0.685178 0.258910 0.777432
O O10 0.674720 0.121856 0.000000
O O11 0.534145 0.105662 0.500000
O O12 0.600028 0.940708 0.500000
O O13 0.373719 0.679451 0.500000
#
# Coordination Sequence:
#
# PCOD9445714 Si02
#       6
#     8   8   8   4   4   8
#     4  11  23  42  67 100 134 170 221 274 329 394
#     4  11  25  42  65 101 135 170 226 275 323 401
#     4  12  24  44  68  93 135 178 219 272 334 392
#     4  11  24  46  65  98 132 174 228 270 332 404
#     4  11  24  42  72  95 132 177 217 282 332 387
#     4  12  23  42  69  96 133 178 216 269 337 391
#
# _framework density 19.660655999999999
#
# number of rings (size 3 to 8) (size 9 to 14) (size 15 to 20)
#    0.000    0.600    5.000    3.000    2.800    4.800 
#    0.000    4.000    0.000    0.000    0.000    0.000 
#    0.000    0.000    0.000    0.000    0.000    0.000 
#
# Total GULP energy -223778.070164 kJ/mol
# GULP energy per Si atom -5594.451754 kJ/mol
# Density = 1.961591 g / cm^3
# Si number density = 19.660656 Si / 1000 Ang^3
#
#
#
# Elastic Constant Matrix: (Units=GPa)
#
#
# Indices 1 2 3 4 5 6 
#
# 1 41.3683 54.0431 26.9892 0.0000 0.0000 0.0000
# 2 54.0431 155.2963 50.7021 0.0000 0.0000 0.0000
# 3 26.9892 50.7021 139.7812 0.0000 0.0000 0.0000
# 4 0.0000 0.0000 0.0000 26.6140 0.0000 0.0000
# 5 0.0000 0.0000 0.0000 0.0000 13.7452 0.0000
# 6 0.0000 0.0000 0.0000 0.0000 0.0000 20.9504
#
#
#
# Elastic Compliance Matrix: (Units=1/GPa)
#
#
# Indices 1 2 3 4 5 6 
#
# 1 0.045761 -0.014792 -0.003470 0.000000 0.000000 0.000000
# 2 -0.014792 0.012086 -0.001528 0.000000 0.000000 0.000000
# 3 -0.003470 -0.001528 0.008378 0.000000 0.000000 0.000000
# 4 0.000000 0.000000 0.000000 0.037574 0.000000 0.000000
# 5 0.000000 0.000000 0.000000 0.000000 0.072753 0.000000
# 6 0.000000 0.000000 0.000000 0.000000 0.000000 0.047732
#
#
# Mechanical properties :
#
#
# Convention : Reuss Voigt Hill
#
# Bulk Modulus (GPa) = 37.53014 66.65721 52.09367
# Shear Modulus (GPa) = 18.33214 25.90934 22.12074
#
# Velocity S-wave (km/s) = 3.05688 3.63413 3.35793
# Velocity P-wave (km/s) = 5.62048 7.18238 6.44889
#
# Compressibility (1/GPa) = 0.02664525
#
# Stress axis : x y z
#
# Youngs Moduli (GPa) = 21.85264 82.74266 119.35703
#
# Poissons Ratio (x) = 1.22392 0.41420
# Poissons Ratio (y) = 0.32324 0.18235
# Poissons Ratio (z) = 0.07583 0.12641
#
# Static dielectric constant tensor:
#      x y z
#    x 1.675620 0.000000 0.000000 
#    y 0.000000 1.665490 0.000000 
#    z 0.000000 0.000000 1.683620 
# 
# From -- ./inp_files/7460.got.cif
#   From: 2010.05.17/outbox.cif.g08.bks.cpg/sg58_4_cif.got.tgz:7460.got - 2010.06.03 14:20:14.
