data_PCOD9445481
_publ_section_title
;
Structure prediction by ZEFSAII (Michael W. Deem and Ramdas Pophale) SiO2 
 PCOD9445481
Probable space group: P N N M
;
_chemical_formula_sum "Si O2"
_cell_formula_units_Z 32
_cell_length_a 10.455162
_cell_length_b 5.855864
_cell_length_c 21.779371
_cell_angle_alpha 90.000000
_cell_angle_beta 90.000000
_cell_angle_gamma 90.000000
_cell_volume 1333.420358
_symmetry_space_group_name_H-M "P N N M"
_symmetry_group_IT_number 58
_symmetry_cell_setting 'orthorhombic'
loop_
_space_group_symop_operation_xyz
x,y,z
-x,-y,z
1/2+x,1/2-y,1/2-z
1/2-x,1/2+y,1/2-z
-x,-y,-z
x,y,-z
1/2-x,1/2+y,1/2+z
1/2+x,1/2-y,1/2+z
loop_
_atom_site_type_symbol
_atom_site_label
_atom_site_fract_x
_atom_site_fract_y
_atom_site_fract_z
Si Si1 0.105342 0.194734 0.930009
Si Si2 0.608437 0.685276 0.773705
Si Si3 0.638368 0.026859 0.112373
Si Si4 0.312679 0.079407 0.662475
O O1 0.245862 0.082979 0.925316
O O2 0.122885 0.412594 0.886082
O O3 0.077188 0.261571 0.000000
O O4 0.000000 0.000000 0.913333
O O5 0.500000 0.500000 0.786724
O O6 0.613885 0.879486 0.825542
O O7 0.595253 0.764875 0.703670
O O8 0.744706 0.566250 0.783969
O O9 0.500000 0.000000 0.080730
O O10 0.699926 0.271043 0.130869
#
# Coordination Sequence:
#
# PCOD9445481 Si02
#       4
#     8   8   8   8
#     4  10  26  52  73 100 145 201 265 320 374 449
#     4  11  22  41  66 104 157 186 237 302 387 473
#     4  11  23  43  70 110 147 187 243 314 389 464
#     4  11  23  43  72 109 146 201 244 312 388 463
#
# _framework density 23.998432999999999
#
# number of rings (size 3 to 8) (size 9 to 14) (size 15 to 20)
#    0.000    1.250    5.000    0.000    0.000    3.500 
#    9.000    3.750    0.000    0.750    0.000    0.000 
#    0.000    0.000    0.000    0.000    0.000    0.000 
#
# Total GULP energy -178881.339572 kJ/mol
# GULP energy per Si atom -5590.041862 kJ/mol
# Density = 2.394381 g / cm^3
# Si number density = 23.998433 Si / 1000 Ang^3
#
#
#
# Elastic Constant Matrix: (Units=GPa)
#
#
# Indices 1 2 3 4 5 6 
#
# 1 168.0319 67.8691 46.7160 0.0000 0.0000 0.0000
# 2 67.8691 138.2768 77.1960 0.0000 0.0000 0.0000
# 3 46.7160 77.1960 136.6074 0.0000 0.0000 0.0000
# 4 0.0000 0.0000 0.0000 -20.4940 0.0000 0.0000
# 5 0.0000 0.0000 0.0000 0.0000 35.3337 0.0000
# 6 0.0000 0.0000 0.0000 0.0000 0.0000 59.9836
#
#
#
# Elastic Compliance Matrix: (Units=1/GPa)
#
#
# Indices 1 2 3 4 5 6 
#
# 1 0.007469 -0.003272 -0.000705 0.000000 0.000000 0.000000
# 2 -0.003272 0.011999 -0.005661 0.000000 0.000000 0.000000
# 3 -0.000705 -0.005661 0.010760 0.000000 0.000000 0.000000
# 4 0.000000 0.000000 0.000000 -0.048795 0.000000 0.000000
# 5 0.000000 0.000000 0.000000 0.000000 0.028302 0.000000
# 6 0.000000 0.000000 0.000000 0.000000 0.000000 0.016671
#
#
# Mechanical properties :
#
#
# Convention : Reuss Voigt Hill
#
# Bulk Modulus (GPa) = 91.31760 91.83094 91.57427
# Shear Modulus (GPa) = 101.35106 31.70698 66.52902
#
# Velocity S-wave (km/s) = 6.50569 3.63879 5.27090
# Velocity P-wave (km/s) = 9.72451 7.48350 8.67666
#
# Compressibility (1/GPa) = 0.01095079
#
# Stress axis : x y z
#
# Youngs Moduli (GPa) = 133.88713 83.34360 92.93268
#
# Poissons Ratio (x) = 0.27273 0.06552
# Poissons Ratio (y) = 0.43813 0.52611
# Poissons Ratio (z) = 0.09439 0.47183
#
# Static dielectric constant tensor:
#      x y z
#    x 2.038240 0.000000 0.000000 
#    y 0.000000 2.028860 0.000000 
#    z 0.000000 0.000000 1.852350 
# 
# From -- ./inp_files/29294.got.cif
#   From: 2010.05.17/outbox.cif.g08.bks.cpg/sg58_15_cif.got.tgz:29294.got - 2010.06.03 14:20:14.
