data_PCOD9445487
_publ_section_title
;
Structure prediction by ZEFSAII (Michael W. Deem and Ramdas Pophale) SiO2 
 PCOD9445487
Probable space group: P N N M
;
_chemical_formula_sum "Si O2"
_cell_formula_units_Z 24
_cell_length_a 12.963958
_cell_length_b 7.062505
_cell_length_c 13.446280
_cell_angle_alpha 90.000000
_cell_angle_beta 90.000000
_cell_angle_gamma 90.000000
_cell_volume 1231.114749
_symmetry_space_group_name_H-M "P N N M"
_symmetry_group_IT_number 58
_symmetry_cell_setting 'orthorhombic'
loop_
_space_group_symop_operation_xyz
x,y,z
-x,-y,z
1/2+x,1/2-y,1/2-z
1/2-x,1/2+y,1/2-z
-x,-y,-z
x,y,-z
1/2-x,1/2+y,1/2+z
1/2+x,1/2-y,1/2+z
loop_
_atom_site_type_symbol
_atom_site_label
_atom_site_fract_x
_atom_site_fract_y
_atom_site_fract_z
Si Si1 0.737492 0.202463 0.000000
Si Si2 0.885620 0.434250 0.640518
Si Si3 0.614336 0.588268 0.000000
Si Si4 0.981209 0.219801 0.000000
Si Si5 0.000000 0.500000 0.169094
O O1 0.686471 0.407489 0.000000
O O2 0.696783 0.078291 0.906069
O O3 0.858183 0.237634 0.000000
O O4 0.869160 0.226868 0.594608
O O5 0.904328 0.447428 0.758576
O O6 0.000000 0.500000 0.604867
O O7 0.500000 0.500000 0.000000
O O8 0.024492 0.325763 0.096924
O O9 0.000000 0.000000 0.000000
#
# Coordination Sequence:
#
# PCOD9445487 Si02
#       5
#     4   8   4   4   4
#     4  11  21  38  64 102 121 165 210 257 322 373
#     4   9  19  36  61  94 129 153 207 268 310 372
#     4  11  15  31  66  91 127 154 189 270 328 350
#     4  11  26  46  62  82 137 182 206 253 315 379
#     4   9  22  45  58  88 128 171 214 257 306 380
#
# _framework density 19.494527000000001
#
# number of rings (size 3 to 8) (size 9 to 14) (size 15 to 20)
#    1.000    1.000    3.333    1.000    0.000    9.333 
#   12.000    0.000    0.000    0.000    0.000    0.000 
#    0.000    0.000    0.000    0.000    0.000    0.000 
#
# Total GULP energy -133745.528575 kJ/mol
# GULP energy per Si atom -5572.730357 kJ/mol
# Density = 1.945016 g / cm^3
# Si number density = 19.494527 Si / 1000 Ang^3
#
#
#
# Elastic Constant Matrix: (Units=GPa)
#
#
# Indices 1 2 3 4 5 6 
#
# 1 56.6536 24.2383 4.5054 0.0000 0.0000 0.0000
# 2 24.2383 192.2009 70.4812 0.0000 0.0000 0.0000
# 3 4.5054 70.4812 158.7995 0.0000 0.0000 0.0000
# 4 0.0000 0.0000 0.0000 -0.2912 0.0000 0.0000
# 5 0.0000 0.0000 0.0000 0.0000 -10.8190 0.0000
# 6 0.0000 0.0000 0.0000 0.0000 0.0000 26.1560
#
#
#
# Elastic Compliance Matrix: (Units=1/GPa)
#
#
# Indices 1 2 3 4 5 6 
#
# 1 0.018708 -0.002585 0.000617 0.000000 0.000000 0.000000
# 2 -0.002585 0.006572 -0.002843 0.000000 0.000000 0.000000
# 3 0.000617 -0.002843 0.007542 0.000000 0.000000 0.000000
# 4 0.000000 0.000000 0.000000 -3.433676 0.000000 0.000000
# 5 0.000000 0.000000 0.000000 0.000000 -0.092430 0.000000
# 6 0.000000 0.000000 0.000000 0.000000 0.000000 0.038232
#
#
# Mechanical properties :
#
#
# Convention : Reuss Voigt Hill
#
# Bulk Modulus (GPa) = 43.10824 67.34485 55.22654
# Shear Modulus (GPa) = -1.45446 23.57111 11.05832
#
# Velocity S-wave (km/s) = -0.86470 3.48100 2.38429
# Velocity P-wave (km/s) = 4.60044 7.12580 5.99754
#
# Compressibility (1/GPa) = 0.02319742
#
# Stress axis : x y z
#
# Youngs Moduli (GPa) = 53.45247 152.16950 132.59520
#
# Poissons Ratio (x) = 0.39342 -0.08178
# Poissons Ratio (y) = 0.13820 0.37702
# Poissons Ratio (z) = -0.03297 0.43268
#
# Static dielectric constant tensor:
#      x y z
#    x 1.085300 0.000000 0.000000 
#    y 0.000000 1.636050 0.000000 
#    z 0.000000 0.000000 1.739340 
# 
# From -- ./inp_files/18191.got.cif
#   From: 2010.05.17/outbox.cif.g08.bks.cpg/sg58_10_cif.got.tgz:18191.got - 2010.06.03 14:20:14.
