data_PCOD9445238
_publ_section_title
;
Structure prediction by ZEFSAII (Michael W. Deem and Ramdas Pophale) SiO2 
 PCOD9445238
Probable space group: P N N M
;
_chemical_formula_sum "Si O2"
_cell_formula_units_Z 60
_cell_length_a 22.620683
_cell_length_b 5.279163
_cell_length_c 21.788762
_cell_angle_alpha 90.000000
_cell_angle_beta 90.000000
_cell_angle_gamma 90.000000
_cell_volume 2601.976323
_symmetry_space_group_name_H-M "P N N M"
_symmetry_group_IT_number 58
_symmetry_cell_setting 'orthorhombic'
loop_
_space_group_symop_operation_xyz
x,y,z
-x,-y,z
1/2+x,1/2-y,1/2-z
1/2-x,1/2+y,1/2-z
-x,-y,-z
x,y,-z
1/2-x,1/2+y,1/2+z
1/2+x,1/2-y,1/2+z
loop_
_atom_site_type_symbol
_atom_site_label
_atom_site_fract_x
_atom_site_fract_y
_atom_site_fract_z
Si Si1 0.961313 0.751575 0.500000
Si Si2 0.869362 0.942349 0.859870
Si Si3 0.850746 0.682886 0.741369
Si Si4 0.874825 0.828956 0.613369
Si Si5 0.178412 0.658430 0.568316
Si Si6 0.220627 0.713182 0.190442
Si Si7 0.460693 0.244891 0.571516
Si Si8 0.197552 0.409082 0.933673
O O1 0.923220 0.772322 0.562005
O O2 0.000000 0.500000 0.500000
O O3 0.000000 0.000000 0.500000
O O4 0.804866 0.022543 0.833558
O O5 0.906575 0.181665 0.883365
O O6 0.887813 0.790163 0.799247
O O7 0.859826 0.757530 0.917489
O O8 0.889768 0.739435 0.681657
O O9 0.827012 0.405179 0.761498
O O10 0.785969 0.797277 0.719041
O O11 0.825164 0.623248 0.594138
O O12 0.853252 0.118909 0.607114
O O13 0.150853 0.667113 0.500000
O O14 0.246090 0.728825 0.561123
O O15 0.213385 0.555835 0.128068
O O16 0.500000 0.500000 0.574409
O O17 0.442517 0.210951 0.500000
O O18 0.500000 0.000000 0.588805
O O19 0.192254 0.542905 0.000000
#
# Coordination Sequence:
#
# PCOD9445238 Si02
#       8
#     4   8   8   8   8   8   8   8
#     4  12  26  50  74 100 128 172 240 318 368 395
#     4  11  24  42  65  96 139 187 229 283 342 411
#     4  11  24  38  64  97 139 192 225 266 340 429
#     4  12  24  42  69  94 132 175 228 287 348 418
#     4  11  21  38  61 100 129 176 217 269 344 418
#     4  11  22  40  62  98 142 185 223 265 333 429
#     4  10  24  47  75 102 130 176 236 298 356 405
#     4  10  23  36  60  98 141 175 221 280 335 420
#
# _framework density 23.059394000000001
#
# number of rings (size 3 to 8) (size 9 to 14) (size 15 to 20)
#    0.000    1.067    4.000    2.000    7.467    1.067 
#    0.000    0.667    0.000    0.000    0.000    0.000 
#    0.000    0.000    0.000    0.000    0.000    0.000 
#
# Total GULP energy -334728.300224 kJ/mol
# GULP energy per Si atom -5578.805004 kJ/mol
# Density = 2.300691 g / cm^3
# Si number density = 23.059394 Si / 1000 Ang^3
#
#
#
# Elastic Constant Matrix: (Units=GPa)
#
#
# Indices 1 2 3 4 5 6 
#
# 1 72.4222 14.1053 25.5889 0.0000 0.0000 0.0000
# 2 14.1053 77.9619 13.8906 0.0000 0.0000 0.0000
# 3 25.5889 13.8906 129.7195 0.0000 0.0000 0.0000
# 4 0.0000 0.0000 0.0000 29.1874 0.0000 0.0000
# 5 0.0000 0.0000 0.0000 0.0000 20.6985 0.0000
# 6 0.0000 0.0000 0.0000 0.0000 0.0000 43.7550
#
#
#
# Elastic Compliance Matrix: (Units=1/GPa)
#
#
# Indices 1 2 3 4 5 6 
#
# 1 0.015224 -0.002263 -0.002761 0.000000 0.000000 0.000000
# 2 -0.002263 0.013413 -0.000990 0.000000 0.000000 0.000000
# 3 -0.002761 -0.000990 0.008360 0.000000 0.000000 0.000000
# 4 0.000000 0.000000 0.000000 0.034261 0.000000 0.000000
# 5 0.000000 0.000000 0.000000 0.000000 0.048313 0.000000
# 6 0.000000 0.000000 0.000000 0.000000 0.000000 0.022855
#
#
# Mechanical properties :
#
#
# Convention : Reuss Voigt Hill
#
# Bulk Modulus (GPa) = 40.04884 43.03036 41.53960
# Shear Modulus (GPa) = 30.71735 33.82943 32.27339
#
# Velocity S-wave (km/s) = 3.65375 3.83437 3.74515
# Velocity P-wave (km/s) = 5.93340 6.18905 6.06258
#
# Compressibility (1/GPa) = 0.02496951
#
# Stress axis : x y z
#
# Youngs Moduli (GPa) = 65.68539 74.55726 119.62348
#
# Poissons Ratio (x) = 0.16869 0.33027
# Poissons Ratio (y) = 0.14861 0.11842
# Poissons Ratio (z) = 0.18135 0.07381
#
# Static dielectric constant tensor:
#      x y z
#    x 1.892590 0.000000 0.000000 
#    y 0.000000 1.950760 0.000000 
#    z 0.000000 0.000000 1.994200 
# 
# From -- ./inp_files/30545.got.cif
#   From: 2010.05.17/outbox.cif.g08.bks.cpg/sg58_16_cif.got.tgz:30545.got - 2010.06.03 14:20:14.
