data_PCOD9445907
_publ_section_title
;
Structure prediction by ZEFSAII (Michael W. Deem and Ramdas Pophale) SiO2 
 PCOD9445907
Probable space group: P N N M
;
_chemical_formula_sum "Si O2"
_cell_formula_units_Z 64
_cell_length_a 21.000000
_cell_length_b 9.000000
_cell_length_c 18.000000
_cell_angle_alpha 90.000000
_cell_angle_beta 90.000000
_cell_angle_gamma 90.000000
_cell_volume 3402.000000
_symmetry_space_group_name_H-M "P N N M"
_symmetry_group_IT_number 58
_symmetry_cell_setting 'orthorhombic'
loop_
_space_group_symop_operation_xyz
x,y,z
-x,-y,z
1/2+x,1/2-y,1/2-z
1/2-x,1/2+y,1/2-z
-x,-y,-z
x,y,-z
1/2-x,1/2+y,1/2+z
1/2+x,1/2-y,1/2+z
loop_
_atom_site_type_symbol
_atom_site_label
_atom_site_fract_x
_atom_site_fract_y
_atom_site_fract_z
Si Si1 0.657964 0.691579 0.412507
Si Si2 0.774671 0.936050 0.172325
Si Si3 0.772706 0.924680 0.586629
Si Si4 0.064801 0.583979 0.827567
Si Si5 0.024510 0.668083 0.665967
Si Si6 0.147089 0.579575 0.587116
Si Si7 0.693727 0.104441 0.700620
Si Si8 0.899924 0.760226 0.410619
O O1 0.647181 0.661366 0.500000
O O2 0.672797 0.542708 0.365664
O O3 0.724134 0.784935 0.406502
O O4 0.601545 0.796719 0.379865
O O5 0.718569 0.894436 0.114536
O O6 0.734190 0.028115 0.233426
O O7 0.804305 0.783148 0.204162
O O8 0.777758 0.961941 0.500000
O O9 0.843489 0.874354 0.611483
O O10 0.735670 0.052819 0.629919
O O11 0.039462 0.667873 0.753578
O O12 0.122224 0.467241 0.804969
O O13 0.000000 0.500000 0.856378
O O14 0.093020 0.679442 0.626310
O O15 0.000000 0.500000 0.649509
O O16 0.966647 0.767867 0.634292
O O17 0.142492 0.603696 0.500000
O O18 0.129219 0.405596 0.601467
O O19 0.911435 0.774084 0.500000
#
# Coordination Sequence:
#
# PCOD9445907 Si02
#       8
#     8   8   8   8   8   8   8   8
#     4  10  21  39  62  87 117 154 201 251 307 367
#     4  12  23  37  60  86 122 158 205 260 312 361
#     4   9  18  35  59  87 122 159 195 243 302 368
#     4  10  21  39  63  91 120 157 204 251 307 371
#     4   9  17  28  51  86 124 159 200 240 277 350
#     4  10  18  30  52  84 120 161 200 240 291 348
#     4  11  24  38  59  89 121 155 204 257 310 365
#     4   9  16  29  54  89 124 159 197 236 285 352
#
# _framework density 18.812463000000001
#
# number of rings (size 3 to 8) (size 9 to 14) (size 15 to 20)
#    0.000    2.000    2.500    2.250    0.000    2.750 
#    0.000    0.625    0.000    3.000    0.000    2.625 
#    0.000    0.000    0.000    0.000    0.000    0.000 
#
# Total GULP energy -357057.637364 kJ/mol
# GULP energy per Si atom -5579.025584 kJ/mol
# Density = 1.876965 g / cm^3
# Si number density = 18.812463 Si / 1000 Ang^3
#
#
#
# Elastic Constant Matrix: (Units=GPa)
#
#
# Indices 1 2 3 4 5 6 
#
# 1 135.0340 36.0300 41.5878 0.0000 0.0000 0.0000
# 2 36.0300 84.2003 40.1746 0.0000 0.0000 0.0000
# 3 41.5878 40.1746 64.8868 0.0000 0.0000 0.0000
# 4 0.0000 0.0000 0.0000 19.5500 0.0000 0.0000
# 5 0.0000 0.0000 0.0000 0.0000 36.6830 0.0000
# 6 0.0000 0.0000 0.0000 0.0000 0.0000 28.0172
#
#
#
# Elastic Compliance Matrix: (Units=1/GPa)
#
#
# Indices 1 2 3 4 5 6 
#
# 1 0.009381 -0.001626 -0.005006 0.000000 0.000000 0.000000
# 2 -0.001626 0.017138 -0.009569 0.000000 0.000000 0.000000
# 3 -0.005006 -0.009569 0.024545 0.000000 0.000000 0.000000
# 4 0.000000 0.000000 0.000000 0.051151 0.000000 0.000000
# 5 0.000000 0.000000 0.000000 0.000000 0.027261 0.000000
# 6 0.000000 0.000000 0.000000 0.000000 0.000000 0.035692
#
#
# Mechanical properties :
#
#
# Convention : Reuss Voigt Hill
#
# Bulk Modulus (GPa) = 53.58446 57.74509 55.66477
# Shear Modulus (GPa) = 24.53519 27.93863 26.23691
#
# Velocity S-wave (km/s) = 3.61529 3.85790 3.73856
# Velocity P-wave (km/s) = 6.78029 7.11381 6.94905
#
# Compressibility (1/GPa) = 0.01866213
#
# Stress axis : x y z
#
# Youngs Moduli (GPa) = 106.59757 58.35103 40.74230
#
# Poissons Ratio (x) = 0.09486 0.20396
# Poissons Ratio (y) = 0.17329 0.38986
# Poissons Ratio (z) = 0.53363 0.55835
#
# Static dielectric constant tensor:
#      x y z
#    x 1.639000 0.000000 0.000000 
#    y 0.000000 1.671170 0.000000 
#    z 0.000000 0.000000 1.691310 
# 
# From -- ./inp_files/27532.got.cif
#   From: 2010.05.17/outbox.ucp.g08.bks.cvg/sg58_14_cif.got.tgz:27532.got - 2010.06.11 16:41:41.
