data_PCOD9445412
_publ_section_title
;
Structure prediction by ZEFSAII (Michael W. Deem and Ramdas Pophale) SiO2 
 PCOD9445412
Probable space group: P N N M
;
_chemical_formula_sum "Si O2"
_cell_formula_units_Z 64
_cell_length_a 33.533179
_cell_length_b 10.803082
_cell_length_c 8.681695
_cell_angle_alpha 90.000000
_cell_angle_beta 90.000000
_cell_angle_gamma 90.000000
_cell_volume 3145.045437
_symmetry_space_group_name_H-M "P N N M"
_symmetry_group_IT_number 58
_symmetry_cell_setting 'orthorhombic'
loop_
_space_group_symop_operation_xyz
x,y,z
-x,-y,z
1/2+x,1/2-y,1/2-z
1/2-x,1/2+y,1/2-z
-x,-y,-z
x,y,-z
1/2-x,1/2+y,1/2+z
1/2+x,1/2-y,1/2+z
loop_
_atom_site_type_symbol
_atom_site_label
_atom_site_fract_x
_atom_site_fract_y
_atom_site_fract_z
Si Si1 0.075767 0.749889 0.321629
Si Si2 0.284179 0.011238 0.315109
Si Si3 0.195297 0.017450 0.815272
Si Si4 0.452157 0.491662 0.321881
Si Si5 0.503121 0.145123 0.670579
Si Si6 0.166494 0.280644 0.683364
Si Si7 0.161748 0.747651 0.185485
Si Si8 0.076622 0.237959 0.679275
O O1 0.073279 0.717841 0.500000
O O2 0.039126 0.691285 0.230244
O O3 0.118824 0.717279 0.255642
O O4 0.067963 0.894635 0.291952
O O5 0.279188 0.010382 0.500000
O O6 0.241359 0.010318 0.234324
O O7 0.307424 0.138295 0.272756
O O8 0.308631 0.889362 0.264352
O O9 0.177351 0.142564 0.741806
O O10 0.175147 0.886538 0.766721
O O11 0.191759 0.026428 0.000000
O O12 0.500000 0.500000 0.294688
O O13 0.446119 0.454741 0.500000
O O14 0.431183 0.620678 0.287042
O O15 0.511248 0.199503 0.500000
O O16 0.538838 0.177045 0.784881
O O17 0.500000 0.000000 0.657760
O O18 0.174018 0.286304 0.500000
O O19 0.119276 0.298665 0.711422
O O20 0.158795 0.748649 0.000000
O O21 0.076342 0.200367 0.500000
#
# Coordination Sequence:
#
# PCOD9445412 Si02
#       8
#     8   8   8   8   8   8   8   8
#     4  12  25  40  64  94 127 165 210 265 320 372
#     4  11  24  43  70 100 132 173 216 266 327 392
#     4  11  23  43  71 100 132 171 214 267 329 392
#     4  11  22  38  62  89 120 162 209 257 313 375
#     4  11  25  43  63  87 122 170 216 261 314 378
#     4  11  25  43  64  97 137 173 217 270 323 387
#     4  10  24  44  66  96 133 172 216 266 323 392
#     4  11  24  41  64  94 128 165 211 267 318 370
#
# _framework density 20.349468999999999
#
# number of rings (size 3 to 8) (size 9 to 14) (size 15 to 20)
#    0.000    1.000    1.250    4.875    1.750    8.500 
#    0.000    0.000    0.000    0.000    0.000    0.000 
#    0.000    0.000    0.000    0.000    0.000    0.000 
#
# Total GULP energy -357891.304274 kJ/mol
# GULP energy per Si atom -5592.051629 kJ/mol
# Density = 2.030315 g / cm^3
# Si number density = 20.349469 Si / 1000 Ang^3
#
#
#
# Elastic Constant Matrix: (Units=GPa)
#
#
# Indices 1 2 3 4 5 6 
#
# 1 104.4312 12.0985 16.6167 0.0000 0.0000 0.0000
# 2 12.0985 82.0660 4.5633 0.0000 0.0000 0.0000
# 3 16.6167 4.5633 38.7751 0.0000 0.0000 0.0000
# 4 0.0000 0.0000 0.0000 25.6849 0.0000 0.0000
# 5 0.0000 0.0000 0.0000 0.0000 19.8429 0.0000
# 6 0.0000 0.0000 0.0000 0.0000 0.0000 816.2169
#
#
#
# Elastic Compliance Matrix: (Units=1/GPa)
#
#
# Indices 1 2 3 4 5 6 
#
# 1 0.010411 -0.001295 -0.004309 0.000000 0.000000 0.000000
# 2 -0.001295 0.012427 -0.000907 0.000000 0.000000 0.000000
# 3 -0.004309 -0.000907 0.027743 0.000000 0.000000 0.000000
# 4 0.000000 0.000000 0.000000 0.038933 0.000000 0.000000
# 5 0.000000 0.000000 0.000000 0.000000 0.050396 0.000000
# 6 0.000000 0.000000 0.000000 0.000000 0.000000 0.001225
#
#
# Mechanical properties :
#
#
# Convention : Reuss Voigt Hill
#
# Bulk Modulus (GPa) = 26.62581 32.42547 29.52564
# Shear Modulus (GPa) = 29.99781 185.14853 107.57317
#
# Velocity S-wave (km/s) = 3.84361 9.54893 7.27857
# Velocity P-wave (km/s) = 5.72804 11.72795 9.22917
#
# Compressibility (1/GPa) = 0.03755755
#
# Stress axis : x y z
#
# Youngs Moduli (GPa) = 96.04842 80.47169 36.04480
#
# Poissons Ratio (x) = 0.10423 0.15533
# Poissons Ratio (y) = 0.12441 0.03271
# Poissons Ratio (z) = 0.41390 0.07302
#
# Static dielectric constant tensor:
#      x y z
#    x 1.323860 0.000000 0.000000 
#    y 0.000000 1.667360 0.000000 
#    z 0.000000 0.000000 1.628610 
# 
# From -- ./inp_files/10981.got.cif
#   From: 2010.05.17/outbox.cif.g08.bks.cpg/sg58_6_cif.got.tgz:10981.got - 2010.06.03 14:20:14.
