data_PCOD9445032
_publ_section_title
;
Structure prediction by ZEFSAII (Michael W. Deem and Ramdas Pophale) SiO2 
 PCOD9445032
Probable space group: P N N M
;
_chemical_formula_sum "Si O2"
_cell_formula_units_Z 32
_cell_length_a 10.471113
_cell_length_b 8.245636
_cell_length_c 19.349621
_cell_angle_alpha 90.000000
_cell_angle_beta 90.000000
_cell_angle_gamma 90.000000
_cell_volume 1670.665362
_symmetry_space_group_name_H-M "P N N M"
_symmetry_group_IT_number 58
_symmetry_cell_setting 'orthorhombic'
loop_
_space_group_symop_operation_xyz
x,y,z
-x,-y,z
1/2+x,1/2-y,1/2-z
1/2-x,1/2+y,1/2-z
-x,-y,-z
x,y,-z
1/2-x,1/2+y,1/2+z
1/2+x,1/2-y,1/2+z
loop_
_atom_site_type_symbol
_atom_site_label
_atom_site_fract_x
_atom_site_fract_y
_atom_site_fract_z
Si Si1 0.246173 0.811607 0.644602
Si Si2 0.886126 0.364128 0.000000
Si Si3 0.526567 0.688417 0.630410
Si Si4 0.861857 0.081573 0.500000
Si Si5 0.862094 0.414851 0.758615
O O1 0.390624 0.776350 0.622009
O O2 0.162272 0.832108 0.574934
O O3 0.199675 0.658783 0.689938
O O4 0.268625 0.968022 0.695906
O O5 0.895338 0.247915 0.065214
O O6 0.000000 0.500000 0.000000
O O7 0.752381 0.452920 0.000000
O O8 0.500000 0.500000 0.634265
O O9 0.599504 0.759172 0.695905
O O10 0.000000 0.000000 0.500000
O O11 0.000000 0.500000 0.745593
#
# Coordination Sequence:
#
# PCOD9445032 Si02
#       5
#     8   4   8   4   8
#     4  11  22  43  65  96 132 172 223 273 338 399
#     4  12  19  44  69  89 127 168 223 267 329 403
#     4  11  21  37  68  98 120 170 224 280 326 395
#     4  12  26  42  67  95 134 181 213 272 345 397
#     4  10  22  39  65  95 132 172 219 282 335 399
#
# _framework density 19.154045
#
# number of rings (size 3 to 8) (size 9 to 14) (size 15 to 20)
#    0.000    1.000    5.000    2.625    0.000    5.000 
#    4.500    0.625    0.000    0.000    0.000    0.000 
#    0.000    0.000    0.000    0.000    0.000    0.000 
#
# Total GULP energy -178456.250255 kJ/mol
# GULP energy per Si atom -5576.757820 kJ/mol
# Density = 1.911045 g / cm^3
# Si number density = 19.154045 Si / 1000 Ang^3
#
#
#
# Elastic Constant Matrix: (Units=GPa)
#
#
# Indices 1 2 3 4 5 6 
#
# 1 67.2150 5.8608 35.0283 0.0000 0.0000 0.0000
# 2 5.8608 100.2819 38.6109 0.0000 0.0000 0.0000
# 3 35.0283 38.6109 117.2111 0.0000 0.0000 0.0000
# 4 0.0000 0.0000 0.0000 35.8842 0.0000 0.0000
# 5 0.0000 0.0000 0.0000 0.0000 27.1674 0.0000
# 6 0.0000 0.0000 0.0000 0.0000 0.0000 21.3695
#
#
#
# Elastic Compliance Matrix: (Units=1/GPa)
#
#
# Indices 1 2 3 4 5 6 
#
# 1 0.017737 0.001150 -0.005680 0.000000 0.000000 0.000000
# 2 0.001150 0.011495 -0.004130 0.000000 0.000000 0.000000
# 3 -0.005680 -0.004130 0.011590 0.000000 0.000000 0.000000
# 4 0.000000 0.000000 0.000000 0.027867 0.000000 0.000000
# 5 0.000000 0.000000 0.000000 0.000000 0.036809 0.000000
# 6 0.000000 0.000000 0.000000 0.000000 0.000000 0.046796
#
#
# Mechanical properties :
#
#
# Convention : Reuss Voigt Hill
#
# Bulk Modulus (GPa) = 42.54926 49.30088 45.92507
# Shear Modulus (GPa) = 28.17742 30.56477 29.37109
#
# Velocity S-wave (km/s) = 3.83965 3.99900 3.92013
# Velocity P-wave (km/s) = 6.47454 6.86423 6.67223
#
# Compressibility (1/GPa) = 0.02350217
#
# Stress axis : x y z
#
# Youngs Moduli (GPa) = 56.37868 86.99484 86.28471
#
# Poissons Ratio (x) = -0.10006 0.49006
# Poissons Ratio (y) = -0.06485 0.35638
# Poissons Ratio (z) = 0.32021 0.35932
#
# Static dielectric constant tensor:
#      x y z
#    x 1.687050 0.000000 0.000000 
#    y 0.000000 1.679890 0.000000 
#    z 0.000000 0.000000 1.427070 
# 
# From -- ./inp_files/28475.got.cif
#   From: 2010.05.17/outbox.cif.g08.bks.cpg/sg58_15_cif.got.tgz:28475.got - 2010.06.03 14:20:14.
