data_PCOD9445942
_publ_section_title
;
Structure prediction by ZEFSAII (Michael W. Deem and Ramdas Pophale) SiO2 
 PCOD9445942
Probable space group: P N N M
;
_chemical_formula_sum "Si O2"
_cell_formula_units_Z 56
_cell_length_a 21.000000
_cell_length_b 18.000000
_cell_length_c 9.000000
_cell_angle_alpha 90.000000
_cell_angle_beta 90.000000
_cell_angle_gamma 90.000000
_cell_volume 3402.000000
_symmetry_space_group_name_H-M "P N N M"
_symmetry_group_IT_number 58
_symmetry_cell_setting 'orthorhombic'
loop_
_space_group_symop_operation_xyz
x,y,z
-x,-y,z
1/2+x,1/2-y,1/2-z
1/2-x,1/2+y,1/2-z
-x,-y,-z
x,y,-z
1/2-x,1/2+y,1/2+z
1/2+x,1/2-y,1/2+z
loop_
_atom_site_type_symbol
_atom_site_label
_atom_site_fract_x
_atom_site_fract_y
_atom_site_fract_z
Si Si1 0.167674 0.276778 0.325065
Si Si2 0.264018 0.137084 0.327706
Si Si3 0.313795 0.514825 0.324050
Si Si4 0.116726 0.741131 0.178622
Si Si5 0.946361 0.937939 0.677506
Si Si6 0.021675 0.233259 0.678893
Si Si7 0.284655 0.357735 0.177858
O O1 0.167561 0.297704 0.500000
O O2 0.208543 0.200121 0.315436
O O3 0.092739 0.266537 0.280229
O O4 0.214561 0.331582 0.234761
O O5 0.263180 0.111892 0.500000
O O6 0.241431 0.073019 0.218414
O O7 0.334144 0.171651 0.297636
O O8 0.316524 0.502241 0.500000
O O9 0.381630 0.545746 0.265664
O O10 0.298701 0.439615 0.236717
O O11 0.158798 0.806751 0.252923
O O12 0.044467 0.738149 0.244866
O O13 0.112664 0.752074 0.000000
O O14 0.932501 0.940841 0.500000
O O15 0.972152 0.855174 0.709917
O O16 0.000000 0.000000 0.709664
O O17 0.015404 0.242748 0.500000
O O18 0.287125 0.352845 0.000000
#
# Coordination Sequence:
#
# PCOD9445942 Si02
#       7
#     8   8   8   8   8   8   8
#     4   9  18  35  56  78 107 141 180 223 268 319
#     4   9  18  36  56  75 105 144 180 217 268 322
#     4  12  23  34  53  80 108 139 179 227 271 317
#     4  10  21  36  55  80 111 142 179 227 268 314
#     4  10  20  34  52  76 110 150 181 208 259 329
#     4  10  19  33  54  80 111 147 179 216 268 323
#     4  11  22  36  55  77 106 143 183 224 271 325
#
# _framework density 16.460905
#
# number of rings (size 3 to 8) (size 9 to 14) (size 15 to 20)
#    0.000    1.857    1.429    4.714    0.000    5.429 
#    0.000    0.000    0.000    0.857    0.000    6.000 
#    0.000    0.000    0.000    0.000    0.000    0.000 
#
# Total GULP energy -312249.746716 kJ/mol
# GULP energy per Si atom -5575.888334 kJ/mol
# Density = 1.642344 g / cm^3
# Si number density = 16.460905 Si / 1000 Ang^3
#
#
#
# Elastic Constant Matrix: (Units=GPa)
#
#
# Indices 1 2 3 4 5 6 
#
# 1 159.3798 28.2516 53.1464 0.0000 0.0000 0.0000
# 2 28.2516 38.1868 29.0506 0.0000 0.0000 0.0000
# 3 53.1464 29.0506 81.8391 0.0000 0.0000 0.0000
# 4 0.0000 0.0000 0.0000 23.0333 0.0000 0.0000
# 5 0.0000 0.0000 0.0000 0.0000 38.2840 0.0000
# 6 0.0000 0.0000 0.0000 0.0000 0.0000 27.0607
#
#
#
# Elastic Compliance Matrix: (Units=1/GPa)
#
#
# Indices 1 2 3 4 5 6 
#
# 1 0.008217 -0.002767 -0.004354 0.000000 0.000000 0.000000
# 2 -0.002767 0.036806 -0.011269 0.000000 0.000000 0.000000
# 3 -0.004354 -0.011269 0.019046 0.000000 0.000000 0.000000
# 4 0.000000 0.000000 0.000000 0.043415 0.000000 0.000000
# 5 0.000000 0.000000 0.000000 0.000000 0.026121 0.000000
# 6 0.000000 0.000000 0.000000 0.000000 0.000000 0.036954
#
#
# Mechanical properties :
#
#
# Convention : Reuss Voigt Hill
#
# Bulk Modulus (GPa) = 36.64150 55.58920 46.11535
# Shear Modulus (GPa) = 23.10169 28.93942 26.02055
#
# Velocity S-wave (km/s) = 3.75030 4.19748 3.98018
# Velocity P-wave (km/s) = 6.40789 7.57203 7.01415
#
# Compressibility (1/GPa) = 0.02729146
#
# Stress axis : x y z
#
# Youngs Moduli (GPa) = 121.70597 27.16914 52.50332
#
# Poissons Ratio (x) = 0.07517 0.22858
# Poissons Ratio (y) = 0.33672 0.59164
# Poissons Ratio (z) = 0.52987 0.30616
#
# Static dielectric constant tensor:
#      x y z
#    x 1.541470 0.000000 0.000000 
#    y 0.000000 1.570000 0.000000 
#    z 0.000000 0.000000 1.551920 
# 
# From -- ./inp_files/9169.got.cif
#   From: 2010.05.17/outbox.ucp.g08.bks.cvg/sg58_5_cif.got.tgz:9169.got - 2010.06.11 16:41:41.
