data_PCOD9445089
_publ_section_title
;
Structure prediction by ZEFSAII (Michael W. Deem and Ramdas Pophale) SiO2 
 PCOD9445089
Probable space group: P N N M
;
_chemical_formula_sum "Si O2"
_cell_formula_units_Z 64
_cell_length_a 8.816449
_cell_length_b 15.848802
_cell_length_c 21.757860
_cell_angle_alpha 90.000000
_cell_angle_beta 90.000000
_cell_angle_gamma 90.000000
_cell_volume 3040.229140
_symmetry_space_group_name_H-M "P N N M"
_symmetry_group_IT_number 58
_symmetry_cell_setting 'orthorhombic'
loop_
_space_group_symop_operation_xyz
x,y,z
-x,-y,z
1/2+x,1/2-y,1/2-z
1/2-x,1/2+y,1/2-z
-x,-y,-z
x,y,-z
1/2-x,1/2+y,1/2+z
1/2+x,1/2-y,1/2+z
loop_
_atom_site_type_symbol
_atom_site_label
_atom_site_fract_x
_atom_site_fract_y
_atom_site_fract_z
Si Si1 0.424040 0.892059 0.244216
Si Si2 0.609108 0.429136 0.841208
Si Si3 0.112278 0.824601 0.573294
Si Si4 0.370868 0.427426 0.322540
Si Si5 0.399146 0.698069 0.732388
Si Si6 0.128620 0.446886 0.119834
Si Si7 0.184996 0.495247 0.570509
Si Si8 0.854662 0.346748 0.641192
O O1 0.265651 0.936252 0.226409
O O2 0.418378 0.791200 0.243353
O O3 0.446764 0.916199 0.315391
O O4 0.542629 0.902999 0.188160
O O5 0.500000 0.500000 0.812442
O O6 0.513765 0.383516 0.894641
O O7 0.643512 0.362234 0.788751
O O8 0.748382 0.481053 0.866390
O O9 0.101278 0.823561 0.500000
O O10 0.274826 0.868428 0.591931
O O11 0.083044 0.730407 0.600410
O O12 0.500000 0.500000 0.324327
O O13 0.456160 0.342139 0.302139
O O14 0.275454 0.430066 0.386170
O O15 0.263745 0.698429 0.684935
O O16 0.000000 0.500000 0.083874
O O17 0.226456 0.482591 0.500000
O O18 0.228065 0.586968 0.596841
O O19 0.000000 0.500000 0.573023
#
# Coordination Sequence:
#
# PCOD9445089 Si02
#       8
#     8   8   8   8   8   8   8   8
#     4  12  24  40  65  99 138 171 215 273 347 402
#     4  10  22  40  65  96 128 169 218 272 327 395
#     4  11  24  46  67  91 128 180 231 266 320 397
#     4  12  24  41  66  98 134 174 224 273 331 393
#     4  12  22  40  65  98 135 168 213 279 342 395
#     4  11  24  40  64 100 132 164 213 278 342 392
#     4  11  25  45  67  96 136 183 232 272 326 407
#     4  12  23  42  68  99 132 178 218 277 332 402
#
# _framework density 21.051044000000001
#
# number of rings (size 3 to 8) (size 9 to 14) (size 15 to 20)
#    0.000    0.625    5.000    4.500    1.750    2.750 
#    0.000    0.000    0.000    0.000    0.000    0.000 
#    0.000    0.000    0.000    0.000    0.000    0.000 
#
# Total GULP energy -357140.868192 kJ/mol
# GULP energy per Si atom -5580.326065 kJ/mol
# Density = 2.100313 g / cm^3
# Si number density = 21.051044 Si / 1000 Ang^3
#
#
#
# Elastic Constant Matrix: (Units=GPa)
#
#
# Indices 1 2 3 4 5 6 
#
# 1 48.0287 -0.7498 5.5923 0.0000 0.0000 0.0000
# 2 -0.7498 83.4201 13.2322 0.0000 0.0000 0.0000
# 3 5.5923 13.2322 120.9214 0.0000 0.0000 0.0000
# 4 0.0000 0.0000 0.0000 15.1122 0.0000 0.0000
# 5 0.0000 0.0000 0.0000 0.0000 -0.2037 0.0000
# 6 0.0000 0.0000 0.0000 0.0000 0.0000 29.4683
#
#
#
# Elastic Compliance Matrix: (Units=1/GPa)
#
#
# Indices 1 2 3 4 5 6 
#
# 1 0.020944 0.000348 -0.001007 0.000000 0.000000 0.000000
# 2 0.000348 0.012205 -0.001352 0.000000 0.000000 0.000000
# 3 -0.001007 -0.001352 0.008464 0.000000 0.000000 0.000000
# 4 0.000000 0.000000 0.000000 0.066172 0.000000 0.000000
# 5 0.000000 0.000000 0.000000 0.000000 -4.909741 0.000000
# 6 0.000000 0.000000 0.000000 0.000000 0.000000 0.033935
#
#
# Mechanical properties :
#
#
# Convention : Reuss Voigt Hill
#
# Bulk Modulus (GPa) = 26.60136 32.05774 29.32955
# Shear Modulus (GPa) = -1.05231 24.49505 11.72137
#
# Velocity S-wave (km/s) = -0.70779 3.41486 2.36224
# Velocity P-wave (km/s) = 3.46353 5.55068 4.62634
#
# Compressibility (1/GPa) = 0.03759207
#
# Stress axis : x y z
#
# Youngs Moduli (GPa) = 47.74744 81.93333 118.14321
#
# Poissons Ratio (x) = -0.02851 0.11893
# Poissons Ratio (y) = -0.01661 0.15969
# Poissons Ratio (z) = 0.04807 0.11075
#
# Static dielectric constant tensor:
#      x y z
#    x 1.907160 0.000000 0.000000 
#    y 0.000000 1.752470 0.000000 
#    z 0.000000 0.000000 1.742770 
# 
# From -- ./inp_files/31615.got.cif
#   From: 2010.05.17/outbox.cif.g08.bks.cpg/sg58_16_cif.got.tgz:31615.got - 2010.06.03 14:20:14.
