data_PCOD9445489
_publ_section_title
;
Structure prediction by ZEFSAII (Michael W. Deem and Ramdas Pophale) SiO2 
 PCOD9445489
Probable space group: P N N M
;
_chemical_formula_sum "Si O2"
_cell_formula_units_Z 64
_cell_length_a 10.265644
_cell_length_b 20.664559
_cell_length_c 14.700619
_cell_angle_alpha 90.000000
_cell_angle_beta 90.000000
_cell_angle_gamma 90.000000
_cell_volume 3118.515901
_symmetry_space_group_name_H-M "P N N M"
_symmetry_group_IT_number 58
_symmetry_cell_setting 'orthorhombic'
loop_
_space_group_symop_operation_xyz
x,y,z
-x,-y,z
1/2+x,1/2-y,1/2-z
1/2-x,1/2+y,1/2-z
-x,-y,-z
x,y,-z
1/2-x,1/2+y,1/2+z
1/2+x,1/2-y,1/2+z
loop_
_atom_site_type_symbol
_atom_site_label
_atom_site_fract_x
_atom_site_fract_y
_atom_site_fract_z
Si Si1 0.853453 0.520434 0.201715
Si Si2 0.313552 0.793649 0.868524
Si Si3 0.776013 0.559476 0.401483
Si Si4 0.810200 0.668625 0.844932
Si Si5 0.896373 0.943002 0.300579
Si Si6 0.474930 0.266785 0.635608
Si Si7 0.467378 0.588843 0.599134
Si Si8 0.020658 0.806721 0.348424
O O1 0.834196 0.527852 0.311249
O O2 0.825397 0.591390 0.160373
O O3 0.744999 0.468660 0.170837
O O4 0.000000 0.500000 0.181581
O O5 0.324115 0.866299 0.904028
O O6 0.309869 0.805523 0.759433
O O7 0.429996 0.746510 0.894302
O O8 0.174728 0.762768 0.894344
O O9 0.806056 0.529645 0.500000
O O10 0.618750 0.567148 0.390582
O O11 0.932303 0.706820 0.886550
O O12 0.667620 0.685371 0.883438
O O13 0.896013 0.932218 0.190793
O O14 0.948645 0.876239 0.343157
O O15 0.000000 0.000000 0.318782
O O16 0.532560 0.333605 0.598080
O O17 0.469319 0.281141 0.744073
O O18 0.420867 0.566020 0.500000
#
# Coordination Sequence:
#
# PCOD9445489 Si02
#       8
#     8   8   8   8   8   8   8   8
#     4  11  22  31  42  64  93 125 154 181 223 261
#     4   8  15  27  45  65  79 108 149 183 222 262
#     4   9  17  32  48  63  90 122 153 187 218 255
#     4   9  16  29  43  61  86 112 140 185 229 262
#     4  11  18  31  45  64  89 119 156 184 206 261
#     4   8  15  27  43  64  85 106 142 186 228 262
#     4   9  17  30  49  67  85 118 159 191 214 249
#     4   9  16  27  45  62  83 111 144 184 226 260
#
# _framework density 20.522583999999998
#
# number of rings (size 3 to 8) (size 9 to 14) (size 15 to 20)
#    0.000    2.750    2.500    1.500    1.750    1.000 
#    6.750    0.000    0.000    0.000    0.000    0.000 
#    0.000    2.000    0.000    0.125    0.000    0.000 
#
# Total GULP energy -356957.682938 kJ/mol
# GULP energy per Si atom -5577.463796 kJ/mol
# Density = 2.047587 g / cm^3
# Si number density = 20.522584 Si / 1000 Ang^3
#
#
#
# Elastic Constant Matrix: (Units=GPa)
#
#
# Indices 1 2 3 4 5 6 
#
# 1 117.0824 34.5486 -6.6298 0.0000 0.0000 0.0000
# 2 34.5486 49.5100 -4.2507 0.0000 0.0000 0.0000
# 3 -6.6298 -4.2507 25.9383 0.0000 0.0000 0.0000
# 4 0.0000 0.0000 0.0000 -2.4592 0.0000 0.0000
# 5 0.0000 0.0000 0.0000 0.0000 -3.3670 0.0000
# 6 0.0000 0.0000 0.0000 0.0000 0.0000 43.8083
#
#
#
# Elastic Compliance Matrix: (Units=1/GPa)
#
#
# Indices 1 2 3 4 5 6 
#
# 1 0.010817 -0.007415 0.001550 0.000000 0.000000 0.000000
# 2 -0.007415 0.025569 0.002295 0.000000 0.000000 0.000000
# 3 0.001550 0.002295 0.039325 0.000000 0.000000 0.000000
# 4 0.000000 0.000000 0.000000 -0.406631 0.000000 0.000000
# 5 0.000000 0.000000 0.000000 0.000000 -0.296996 0.000000
# 6 0.000000 0.000000 0.000000 0.000000 0.000000 0.022827
#
#
# Mechanical properties :
#
#
# Convention : Reuss Voigt Hill
#
# Bulk Modulus (GPa) = 14.58355 26.65186 20.61770
# Shear Modulus (GPa) = -8.69427 18.85392 5.07982
#
# Velocity S-wave (km/s) = -2.06049 3.03428 1.57499
# Velocity P-wave (km/s) = 1.20858 5.02898 3.65727
#
# Compressibility (1/GPa) = 0.06857041
#
# Stress axis : x y z
#
# Youngs Moduli (GPa) = 92.44920 39.10949 25.42895
#
# Poissons Ratio (x) = 0.29000 -0.03940
# Poissons Ratio (y) = 0.68551 -0.05836
# Poissons Ratio (z) = -0.14326 -0.08976
#
# Static dielectric constant tensor:
#      x y z
#    x 1.725430 0.000000 0.000000 
#    y 0.000000 1.717320 0.000000 
#    z 0.000000 0.000000 1.742620 
# 
# From -- ./inp_files/29210.got.cif
#   From: 2010.05.17/outbox.cif.g08.bks.cpg/sg58_15_cif.got.tgz:29210.got - 2010.06.03 14:20:14.
