data_PCOD9445040
_publ_section_title
;
Structure prediction by ZEFSAII (Michael W. Deem and Ramdas Pophale) SiO2 
 PCOD9445040
Probable space group: P N N M
;
_chemical_formula_sum "Si O2"
_cell_formula_units_Z 24
_cell_length_a 8.011070
_cell_length_b 9.154439
_cell_length_c 14.218296
_cell_angle_alpha 90.000000
_cell_angle_beta 90.000000
_cell_angle_gamma 90.000000
_cell_volume 1042.725064
_symmetry_space_group_name_H-M "P N N M"
_symmetry_group_IT_number 58
_symmetry_cell_setting 'orthorhombic'
loop_
_space_group_symop_operation_xyz
x,y,z
-x,-y,z
1/2+x,1/2-y,1/2-z
1/2-x,1/2+y,1/2-z
-x,-y,-z
x,y,-z
1/2-x,1/2+y,1/2+z
1/2+x,1/2-y,1/2+z
loop_
_atom_site_type_symbol
_atom_site_label
_atom_site_fract_x
_atom_site_fract_y
_atom_site_fract_z
Si Si1 0.670034 0.596875 0.395953
Si Si2 0.464597 0.829347 0.290628
Si Si3 0.139931 0.697065 0.612429
O O1 0.500000 0.500000 0.399786
O O2 0.712596 0.648914 0.500000
O O3 0.613155 0.733647 0.335581
O O4 0.802059 0.470936 0.371073
O O5 0.294700 0.790421 0.345827
O O6 0.481234 0.780352 0.180533
O O7 0.500000 0.000000 0.302193
O O8 0.119506 0.718560 0.500000
#
# Coordination Sequence:
#
# PCOD9445040 Si02
#       3
#     8   8   8
#     4   8  16  33  55  78 110 152 189 227 284 346
#     4  11  21  36  62  90 118 152 199 250 293 342
#     4  10  22  40  60  86 122 160 196 237 294 361
#
# _framework density 23.016611999999999
#
# number of rings (size 3 to 8) (size 9 to 14) (size 15 to 20)
#    0.000    2.333    0.000    5.000    0.000    3.333 
#    0.000    3.333    0.000   19.000    0.000    0.000 
#    0.000    0.000    0.000    0.000    0.000    0.000 
#
# Total GULP energy -133903.297950 kJ/mol
# GULP energy per Si atom -5579.304081 kJ/mol
# Density = 2.296423 g / cm^3
# Si number density = 23.016612 Si / 1000 Ang^3
#
#
#
# Elastic Constant Matrix: (Units=GPa)
#
#
# Indices 1 2 3 4 5 6 
#
# 1 99.8273 24.2449 49.2233 0.0000 0.0000 0.0000
# 2 24.2449 110.5683 94.3325 0.0000 0.0000 0.0000
# 3 49.2233 94.3325 142.0153 0.0000 0.0000 0.0000
# 4 0.0000 0.0000 0.0000 26.0386 0.0000 0.0000
# 5 0.0000 0.0000 0.0000 0.0000 1.1222 0.0000
# 6 0.0000 0.0000 0.0000 0.0000 0.0000 33.3310
#
#
#
# Elastic Compliance Matrix: (Units=1/GPa)
#
#
# Indices 1 2 3 4 5 6 
#
# 1 0.012304 0.002170 -0.005706 0.000000 0.000000 0.000000
# 2 0.002170 0.021256 -0.014871 0.000000 0.000000 0.000000
# 3 -0.005706 -0.014871 0.018897 0.000000 0.000000 0.000000
# 4 0.000000 0.000000 0.000000 0.038405 0.000000 0.000000
# 5 0.000000 0.000000 0.000000 0.000000 0.891091 0.000000
# 6 0.000000 0.000000 0.000000 0.000000 0.000000 0.030002
#
#
# Mechanical properties :
#
#
# Convention : Reuss Voigt Hill
#
# Bulk Modulus (GPa) = 63.92685 76.44580 70.18633
# Shear Modulus (GPa) = 4.74391 24.40571 14.57481
#
# Velocity S-wave (km/s) = 1.43720 3.25984 2.51914
# Velocity P-wave (km/s) = 5.53070 6.88870 6.24671
#
# Compressibility (1/GPa) = 0.01564288
#
# Stress axis : x y z
#
# Youngs Moduli (GPa) = 81.27538 47.04584 52.91715
#
# Poissons Ratio (x) = -0.10211 0.30196
# Poissons Ratio (y) = -0.17640 0.78695
# Poissons Ratio (z) = 0.46378 0.69963
#
# Static dielectric constant tensor:
#      x y z
#    x 2.038370 0.000000 0.000000 
#    y 0.000000 1.829650 0.000000 
#    z 0.000000 0.000000 1.931660 
# 
# From -- ./inp_files/12128.got.cif
#   From: 2010.05.17/outbox.cif.g08.bks.cpg/sg58_7_cif.got.tgz:12128.got - 2010.06.03 14:20:14.
