data_PCOD9445681
_publ_section_title
;
Structure prediction by ZEFSAII (Michael W. Deem and Ramdas Pophale) SiO2 
 PCOD9445681
Probable space group: P N N M
;
_chemical_formula_sum "Si O2"
_cell_formula_units_Z 48
_cell_length_a 22.843443
_cell_length_b 11.917666
_cell_length_c 8.842258
_cell_angle_alpha 90.000000
_cell_angle_beta 90.000000
_cell_angle_gamma 90.000000
_cell_volume 2407.220951
_symmetry_space_group_name_H-M "P N N M"
_symmetry_group_IT_number 58
_symmetry_cell_setting 'orthorhombic'
loop_
_space_group_symop_operation_xyz
x,y,z
-x,-y,z
1/2+x,1/2-y,1/2-z
1/2-x,1/2+y,1/2-z
-x,-y,-z
x,y,-z
1/2-x,1/2+y,1/2+z
1/2+x,1/2-y,1/2+z
loop_
_atom_site_type_symbol
_atom_site_label
_atom_site_fract_x
_atom_site_fract_y
_atom_site_fract_z
Si Si1 0.045950 0.410827 0.827765
Si Si2 0.157871 0.570613 0.829551
Si Si3 0.723517 0.138049 0.682736
Si Si4 0.931533 0.004813 0.180836
Si Si5 0.643184 0.698652 0.178944
Si Si6 0.883252 0.779013 0.319957
O O1 0.105120 0.482399 0.839400
O O2 0.063270 0.301294 0.734898
O O3 0.000000 0.500000 0.762729
O O4 0.026959 0.380220 0.000000
O O5 0.210111 0.491070 0.772528
O O6 0.138833 0.672010 0.725419
O O7 0.170706 0.612179 0.000000
O O8 0.716067 0.143994 0.500000
O O9 0.790017 0.166626 0.719525
O O10 0.676417 0.222410 0.756316
O O11 0.902231 0.120295 0.234243
O O12 0.896155 0.901724 0.254558
O O13 0.928344 0.994798 0.000000
O O14 0.000000 0.000000 0.225387
O O15 0.635401 0.683360 0.000000
O O16 0.880379 0.781919 0.500000
#
# Coordination Sequence:
#
# PCOD9445681 Si02
#       6
#     8   8   8   8   8   8
#     4   9  19  37  62  87 117 161 206 245 295 363
#     4   9  19  37  59  86 120 158 204 248 296 367
#     4   9  21  42  64  90 124 165 205 246 307 377
#     4  11  26  46  66  88 122 172 218 251 307 385
#     4  11  24  40  63  95 127 158 201 260 314 362
#     4  11  23  39  63  94 126 158 201 260 313 359
#
# _framework density 19.940004999999999
#
# number of rings (size 3 to 8) (size 9 to 14) (size 15 to 20)
#    0.000    2.000    0.000    3.500    4.667    5.667 
#    0.000    0.000    0.000    0.000    0.000    0.000 
#    0.000    0.000    0.000    0.000    0.000    0.000 
#
# Total GULP energy -268021.130955 kJ/mol
# GULP energy per Si atom -5583.773562 kJ/mol
# Density = 1.989462 g / cm^3
# Si number density = 19.940005 Si / 1000 Ang^3
#
#
#
# Elastic Constant Matrix: (Units=GPa)
#
#
# Indices 1 2 3 4 5 6 
#
# 1 52.4162 16.4294 24.5986 0.0000 0.0000 0.0000
# 2 16.4294 90.5837 29.4181 0.0000 0.0000 0.0000
# 3 24.5986 29.4181 61.2625 0.0000 0.0000 0.0000
# 4 0.0000 0.0000 0.0000 -16.0838 0.0000 0.0000
# 5 0.0000 0.0000 0.0000 0.0000 36.4227 0.0000
# 6 0.0000 0.0000 0.0000 0.0000 0.0000 7.6136
#
#
#
# Elastic Compliance Matrix: (Units=1/GPa)
#
#
# Indices 1 2 3 4 5 6 
#
# 1 0.023663 -0.001429 -0.008815 0.000000 0.000000 0.000000
# 2 -0.001429 0.013166 -0.005748 0.000000 0.000000 0.000000
# 3 -0.008815 -0.005748 0.022623 0.000000 0.000000 0.000000
# 4 0.000000 0.000000 0.000000 -0.062174 0.000000 0.000000
# 5 0.000000 0.000000 0.000000 0.000000 0.027455 0.000000
# 6 0.000000 0.000000 0.000000 0.000000 0.000000 0.131343
#
#
# Mechanical properties :
#
#
# Convention : Reuss Voigt Hill
#
# Bulk Modulus (GPa) = 36.40774 38.35049 37.37912
# Shear Modulus (GPa) = 25.35293 14.51160 19.93227
#
# Velocity S-wave (km/s) = 3.56962 2.70063 3.16509
# Velocity P-wave (km/s) = 5.94036 5.38510 5.66953
#
# Compressibility (1/GPa) = 0.02746668
#
# Stress axis : x y z
#
# Youngs Moduli (GPa) = 42.26035 75.95608 44.20281
#
# Poissons Ratio (x) = 0.10854 0.38965
# Poissons Ratio (y) = 0.06039 0.25409
# Poissons Ratio (z) = 0.37253 0.43662
#
# Static dielectric constant tensor:
#      x y z
#    x 1.748290 0.000000 0.000000 
#    y 0.000000 1.698730 0.000000 
#    z 0.000000 0.000000 1.685600 
# 
# From -- ./inp_files/9728.got.cif
#   From: 2010.05.17/outbox.cif.g08.bks.cpg/sg58_5_cif.got.tgz:9728.got - 2010.06.03 14:20:14.
