data_PCOD9445355
_publ_section_title
;
Structure prediction by ZEFSAII (Michael W. Deem and Ramdas Pophale) SiO2 
 PCOD9445355
Probable space group: P N N M
;
_chemical_formula_sum "Si O2"
_cell_formula_units_Z 32
_cell_length_a 9.724338
_cell_length_b 12.925694
_cell_length_c 10.380611
_cell_angle_alpha 90.000000
_cell_angle_beta 90.000000
_cell_angle_gamma 90.000000
_cell_volume 1304.778623
_symmetry_space_group_name_H-M "P N N M"
_symmetry_group_IT_number 58
_symmetry_cell_setting 'orthorhombic'
loop_
_space_group_symop_operation_xyz
x,y,z
-x,-y,z
1/2+x,1/2-y,1/2-z
1/2-x,1/2+y,1/2-z
-x,-y,-z
x,y,-z
1/2-x,1/2+y,1/2+z
1/2+x,1/2-y,1/2+z
loop_
_atom_site_type_symbol
_atom_site_label
_atom_site_fract_x
_atom_site_fract_y
_atom_site_fract_z
Si Si1 0.029661 0.823887 0.353312
Si Si2 0.208418 0.454830 0.187338
Si Si3 0.936125 0.332774 0.860258
Si Si4 0.635423 0.429299 0.636895
O O1 0.991154 0.795984 0.500000
O O2 0.145116 0.913656 0.361072
O O3 0.098508 0.734890 0.264822
O O4 0.903978 0.860128 0.261190
O O5 0.148858 0.561330 0.132636
O O6 0.241337 0.491495 0.332520
O O7 0.093145 0.370138 0.161695
O O8 0.921276 0.279211 0.000000
O O9 0.500000 0.500000 0.625632
O O10 0.659317 0.375207 0.500000
#
# Coordination Sequence:
#
# PCOD9445355 Si02
#       4
#     8   8   8   8
#     4  11  24  41  66 101 135 174 224 275 331 398
#     4  10  23  44  69  95 132 176 222 274 330 398
#     4  11  24  43  68  97 133 179 223 271 335 396
#     4   9  20  40  66  94 127 169 215 268 327 388
#
# _framework density 24.525231000000002
#
# number of rings (size 3 to 8) (size 9 to 14) (size 15 to 20)
#    0.000    1.750    0.000    3.750    3.500    9.500 
#    0.000    2.500    0.000    0.000    0.000    0.000 
#    0.000    0.000    0.000    0.000    0.000    0.000 
#
# Total GULP energy -178494.880109 kJ/mol
# GULP energy per Si atom -5577.965003 kJ/mol
# Density = 2.446941 g / cm^3
# Si number density = 24.525231 Si / 1000 Ang^3
#
#
#
# Elastic Constant Matrix: (Units=GPa)
#
#
# Indices 1 2 3 4 5 6 
#
# 1 83.2408 0.1685 32.5641 0.0000 0.0000 0.0000
# 2 0.1685 71.9970 58.3757 0.0000 0.0000 0.0000
# 3 32.5641 58.3757 252.9118 0.0000 0.0000 0.0000
# 4 0.0000 0.0000 0.0000 13.1988 0.0000 0.0000
# 5 0.0000 0.0000 0.0000 0.0000 -33.1648 0.0000
# 6 0.0000 0.0000 0.0000 0.0000 0.0000 35.4572
#
#
#
# Elastic Compliance Matrix: (Units=1/GPa)
#
#
# Indices 1 2 3 4 5 6 
#
# 1 0.012800 0.001607 -0.002019 0.000000 0.000000 0.000000
# 2 0.001607 0.017289 -0.004197 0.000000 0.000000 0.000000
# 3 -0.002019 -0.004197 0.005183 0.000000 0.000000 0.000000
# 4 0.000000 0.000000 0.000000 0.075765 0.000000 0.000000
# 5 0.000000 0.000000 0.000000 0.000000 -0.030152 0.000000
# 6 0.000000 0.000000 0.000000 0.000000 0.000000 0.028203
#
#
# Mechanical properties :
#
#
# Convention : Reuss Voigt Hill
#
# Bulk Modulus (GPa) = 38.38345 65.59626 51.98986
# Shear Modulus (GPa) = 39.37314 24.23431 31.80372
#
# Velocity S-wave (km/s) = 4.01111 3.14688 3.60498
# Velocity P-wave (km/s) = 6.09398 6.32521 6.21067
#
# Compressibility (1/GPa) = 0.02605290
#
# Stress axis : x y z
#
# Youngs Moduli (GPa) = 78.12538 57.83999 192.94763
#
# Poissons Ratio (x) = -0.09295 0.38956
# Poissons Ratio (y) = -0.12555 0.80990
# Poissons Ratio (z) = 0.15774 0.24278
#
# Static dielectric constant tensor:
#      x y z
#    x 1.972010 0.000000 0.000000 
#    y 0.000000 2.056110 0.000000 
#    z 0.000000 0.000000 2.030460 
# 
# From -- ./inp_files/3514.got.cif
#   From: 2010.05.17/outbox.cif.g08.bks.cpg/sg58_2_cif.got.tgz:3514.got - 2010.06.03 14:20:14.
