data_PCOD9445595
_publ_section_title
;
Structure prediction by ZEFSAII (Michael W. Deem and Ramdas Pophale) SiO2 
 PCOD9445595
Probable space group: P N N M
;
_chemical_formula_sum "Si O2"
_cell_formula_units_Z 44
_cell_length_a 5.370211
_cell_length_b 14.327497
_cell_length_c 27.162988
_cell_angle_alpha 90.000000
_cell_angle_beta 90.000000
_cell_angle_gamma 90.000000
_cell_volume 2089.965985
_symmetry_space_group_name_H-M "P N N M"
_symmetry_group_IT_number 58
_symmetry_cell_setting 'orthorhombic'
loop_
_space_group_symop_operation_xyz
x,y,z
-x,-y,z
1/2+x,1/2-y,1/2-z
1/2-x,1/2+y,1/2-z
-x,-y,-z
x,y,-z
1/2-x,1/2+y,1/2+z
1/2+x,1/2-y,1/2+z
loop_
_atom_site_type_symbol
_atom_site_label
_atom_site_fract_x
_atom_site_fract_y
_atom_site_fract_z
Si Si1 0.747532 0.064069 0.000000
Si Si2 0.801384 0.259697 0.813989
Si Si3 0.170546 0.411988 0.845229
Si Si4 0.499721 0.603819 0.752561
Si Si5 0.320365 0.844100 0.446416
Si Si6 0.828929 0.730972 0.575685
O O1 0.731281 0.133194 0.952045
O O2 0.500000 0.000000 0.000000
O O3 0.000000 0.000000 0.000000
O O4 0.728007 0.330566 0.769134
O O5 0.847154 0.164728 0.785585
O O6 0.651203 0.236144 0.864307
O O7 0.037662 0.313211 0.836216
O O8 0.388944 0.409791 0.806885
O O9 0.233213 0.415507 0.902334
O O10 0.000000 0.500000 0.832668
O O11 0.500000 0.500000 0.731650
O O12 0.313803 0.888190 0.500000
O O13 0.593174 0.797067 0.438961
O O14 0.095082 0.769210 0.443043
#
# Coordination Sequence:
#
# PCOD9445595 Si02
#       6
#     4   8   8   8   8   8
#     4  12  24  42  68  98 135 176 225 286 346 408
#     4  11  24  41  66  96 133 182 223 284 347 409
#     4  11  23  39  64  97 134 177 228 283 348 415
#     4  12  23  41  68  97 134 178 233 284 349 419
#     4  11  21  40  68  96 132 176 222 275 334 413
#     4  11  23  42  66  96 131 176 228 270 342 411
#
# _framework density 21.052973000000001
#
# number of rings (size 3 to 8) (size 9 to 14) (size 15 to 20)
#    0.000    0.727    7.273    1.091    0.000    1.091 
#    0.000    2.727    0.000    3.818    0.000    0.000 
#    0.000    0.000    0.000    0.000    0.000    0.000 
#
# Total GULP energy -245083.636695 kJ/mol
# GULP energy per Si atom -5570.082652 kJ/mol
# Density = 2.100506 g / cm^3
# Si number density = 21.052973 Si / 1000 Ang^3
#
#
#
# Elastic Constant Matrix: (Units=GPa)
#
#
# Indices 1 2 3 4 5 6 
#
# 1 52.7003 2.5295 -10.6035 0.0000 0.0000 0.0000
# 2 2.5295 103.8569 7.3682 0.0000 0.0000 0.0000
# 3 -10.6035 7.3682 100.2111 0.0000 0.0000 0.0000
# 4 0.0000 0.0000 0.0000 22.6823 0.0000 0.0000
# 5 0.0000 0.0000 0.0000 0.0000 8.2838 0.0000
# 6 0.0000 0.0000 0.0000 0.0000 0.0000 28.7196
#
#
#
# Elastic Compliance Matrix: (Units=1/GPa)
#
#
# Indices 1 2 3 4 5 6 
#
# 1 0.019428 -0.000622 0.002101 0.000000 0.000000 0.000000
# 2 -0.000622 0.009699 -0.000779 0.000000 0.000000 0.000000
# 3 0.002101 -0.000779 0.010259 0.000000 0.000000 0.000000
# 4 0.000000 0.000000 0.000000 0.044087 0.000000 0.000000
# 5 0.000000 0.000000 0.000000 0.000000 0.120717 0.000000
# 6 0.000000 0.000000 0.000000 0.000000 0.000000 0.034819
#
#
# Mechanical properties :
#
#
# Convention : Reuss Voigt Hill
#
# Bulk Modulus (GPa) = 24.51827 28.37297 26.44562
# Shear Modulus (GPa) = 19.90414 29.10209 24.50311
#
# Velocity S-wave (km/s) = 3.07812 3.72200 3.41527
# Velocity P-wave (km/s) = 4.92995 5.65484 5.30479
#
# Compressibility (1/GPa) = 0.04078592
#
# Stress axis : x y z
#
# Youngs Moduli (GPa) = 51.47236 103.10286 97.47949
#
# Poissons Ratio (x) = 0.06416 -0.20485
# Poissons Ratio (y) = 0.03203 0.07593
# Poissons Ratio (z) = -0.10817 0.08031
#
# Static dielectric constant tensor:
#      x y z
#    x 1.685530 0.000000 0.000000 
#    y 0.000000 1.925490 0.000000 
#    z 0.000000 0.000000 1.793080 
# 
# From -- ./inp_files/32749.got.cif
#   From: 2010.05.17/outbox.cif.g08.bks.cpg/sg58_17_cif.got.tgz:32749.got - 2010.06.03 14:20:14.
