data_PCOD9445967
_publ_section_title
;
Structure prediction by ZEFSAII (Michael W. Deem and Ramdas Pophale) SiO2 
 PCOD9445967
Probable space group: P N N M
;
_chemical_formula_sum "Si O2"
_cell_formula_units_Z 56
_cell_length_a 15.000000
_cell_length_b 9.000000
_cell_length_c 21.000000
_cell_angle_alpha 90.000000
_cell_angle_beta 90.000000
_cell_angle_gamma 90.000000
_cell_volume 2835.000000
_symmetry_space_group_name_H-M "P N N M"
_symmetry_group_IT_number 58
_symmetry_cell_setting 'orthorhombic'
loop_
_space_group_symop_operation_xyz
x,y,z
-x,-y,z
1/2+x,1/2-y,1/2-z
1/2-x,1/2+y,1/2-z
-x,-y,-z
x,y,-z
1/2-x,1/2+y,1/2+z
1/2+x,1/2-y,1/2+z
loop_
_atom_site_type_symbol
_atom_site_label
_atom_site_fract_x
_atom_site_fract_y
_atom_site_fract_z
Si Si1 0.907023 0.567013 0.076020
Si Si2 0.097682 0.556332 0.714443
Si Si3 0.817106 0.855467 0.923087
Si Si4 0.142870 0.820465 0.370793
Si Si5 0.564017 0.769689 0.000000
Si Si6 0.634356 0.111252 0.000000
Si Si7 0.774741 0.619956 0.371394
Si Si8 0.231123 0.567514 0.830708
O O1 0.896937 0.742035 0.091298
O O2 0.829008 0.475105 0.108771
O O3 0.000000 0.500000 0.097236
O O4 0.899311 0.554266 0.000000
O O5 0.097931 0.721108 0.684247
O O6 0.139133 0.460423 0.657485
O O7 0.169643 0.533945 0.770113
O O8 0.000000 0.500000 0.732118
O O9 0.731324 0.764754 0.897217
O O10 0.807267 0.007968 0.884694
O O11 0.814201 0.878052 0.000000
O O12 0.085477 0.820920 0.435523
O O13 0.179398 0.971640 0.339934
O O14 0.462113 0.817325 0.000000
O O15 0.617733 0.930263 0.000000
O O16 0.690949 0.164013 0.940343
O O17 0.750286 0.759158 0.329591
#
# Coordination Sequence:
#
# PCOD9445967 Si02
#       8
#     8   8   8   8   4   4   8   8
#     4   9  19  35  57  82 112 154 203 250 295 341
#     4  11  22  41  62  81 111 159 205 241 284 355
#     4   9  15  31  55  82 113 149 194 236 285 355
#     4  10  19  35  59  86 115 154 191 237 294 357
#     4  11  18  35  61  91 116 151 194 236 288 370
#     4  11  20  33  61  93 120 148 192 240 296 363
#     4  11  21  36  59  90 119 155 195 245 302 365
#     4  11  24  36  58  84 123 149 196 242 305 355
#
# _framework density 19.753086
#
# number of rings (size 3 to 8) (size 9 to 14) (size 15 to 20)
#    0.000    1.714    4.286    2.143    2.000    0.000 
#    0.000    4.286    0.000    4.286    0.000    0.000 
#    0.000    0.000    0.000    0.000    0.000    0.000 
#
# Total GULP energy -312065.931659 kJ/mol
# GULP energy per Si atom -5572.605922 kJ/mol
# Density = 1.970813 g / cm^3
# Si number density = 19.753086 Si / 1000 Ang^3
#
#
#
# Elastic Constant Matrix: (Units=GPa)
#
#
# Indices 1 2 3 4 5 6 
#
# 1 50.2285 14.5071 6.0589 0.0000 0.0000 0.0000
# 2 14.5071 56.9243 -3.2134 0.0000 0.0000 0.0000
# 3 6.0589 -3.2134 42.8729 0.0000 0.0000 0.0000
# 4 0.0000 0.0000 0.0000 2.6179 0.0000 0.0000
# 5 0.0000 0.0000 0.0000 0.0000 -0.9318 0.0000
# 6 0.0000 0.0000 0.0000 0.0000 0.0000 22.4830
#
#
#
# Elastic Compliance Matrix: (Units=1/GPa)
#
#
# Indices 1 2 3 4 5 6 
#
# 1 0.022015 -0.005811 -0.003547 0.000000 0.000000 0.000000
# 2 -0.005811 0.019176 0.002258 0.000000 0.000000 0.000000
# 3 -0.003547 0.002258 0.023995 0.000000 0.000000 0.000000
# 4 0.000000 0.000000 0.000000 0.381992 0.000000 0.000000
# 5 0.000000 0.000000 0.000000 0.000000 -1.073141 0.000000
# 6 0.000000 0.000000 0.000000 0.000000 0.000000 0.044478
#
#
# Mechanical properties :
#
#
# Convention : Reuss Voigt Hill
#
# Bulk Modulus (GPa) = 19.61255 20.52567 20.06911
# Shear Modulus (GPa) = -9.08611 13.67868 2.29629
#
# Velocity S-wave (km/s) = -2.14705 2.63436 1.07936
# Velocity P-wave (km/s) = 1.95038 4.43473 3.42570
#
# Compressibility (1/GPa) = 0.05098775
#
# Stress axis : x y z
#
# Youngs Moduli (GPa) = 45.42334 52.14975 41.67491
#
# Poissons Ratio (x) = 0.30303 0.14781
# Poissons Ratio (y) = 0.26394 -0.09412
# Poissons Ratio (z) = 0.16111 -0.11778
#
# Static dielectric constant tensor:
#      x y z
#    x 1.691530 0.000000 0.000000 
#    y 0.000000 1.738940 0.000000 
#    z 0.000000 0.000000 1.700920 
# 
# From -- ./inp_files/30054.got.cif
#   From: 2010.05.17/outbox.ucp.g08.bks.cvg/sg58_16_cif.got.tgz:30054.got - 2010.06.11 16:41:41.
