data_PCOD9445476
_publ_section_title
;
Structure prediction by ZEFSAII (Michael W. Deem and Ramdas Pophale) SiO2 
 PCOD9445476
Probable space group: P N N M
;
_chemical_formula_sum "Si O2"
_cell_formula_units_Z 30
_cell_length_a 4.963840
_cell_length_b 10.317289
_cell_length_c 26.237009
_cell_angle_alpha 90.000000
_cell_angle_beta 90.000000
_cell_angle_gamma 90.000000
_cell_volume 1343.685698
_symmetry_space_group_name_H-M "P N N M"
_symmetry_group_IT_number 58
_symmetry_cell_setting 'orthorhombic'
loop_
_space_group_symop_operation_xyz
x,y,z
-x,-y,z
1/2+x,1/2-y,1/2-z
1/2-x,1/2+y,1/2-z
-x,-y,-z
x,y,-z
1/2-x,1/2+y,1/2+z
1/2+x,1/2-y,1/2+z
loop_
_atom_site_type_symbol
_atom_site_label
_atom_site_fract_x
_atom_site_fract_y
_atom_site_fract_z
Si Si1 0.758175 0.410798 0.376626
Si Si2 0.000000 0.000000 0.688522
Si Si3 0.500000 0.500000 0.000000
Si Si4 0.637058 0.832072 0.239006
Si Si5 0.716608 0.121299 0.596172
O O1 0.500000 0.500000 0.373528
O O2 0.846457 0.377957 0.318782
O O3 0.660091 0.275250 0.402402
O O4 0.000000 0.500000 0.399573
O O5 0.117340 0.897885 0.648064
O O6 0.771904 0.934574 0.722828
O O7 0.618263 0.594662 0.045110
O O8 0.336849 0.790244 0.253144
O O9 0.500000 0.000000 0.596627
#
# Coordination Sequence:
#
# PCOD9445476 Si02
#       5
#     8   4   2   8   8
#     4  12  27  45  70 107 157 195 243 308 382 447
#     4  11  24  35  68  96 140 189 250 281 348 434
#     4  10  26  48  84 108 136 180 272 318 384 440
#     4  12  24  39  61 100 147 200 247 291 349 437
#     4  11  25  48  77 104 141 193 250 312 373 447
#
# _framework density 22.326651999999999
#
# number of rings (size 3 to 8) (size 9 to 14) (size 15 to 20)
#    0.000    0.533    4.000    3.600    7.467    0.000 
#    0.000    1.333    0.000    0.000    0.000    0.000 
#    0.000    0.000    0.000    0.000    0.000    0.000 
#
# Total GULP energy -167064.046551 kJ/mol
# GULP energy per Si atom -5568.801552 kJ/mol
# Density = 2.227584 g / cm^3
# Si number density = 22.326652 Si / 1000 Ang^3
#
#
#
# Elastic Constant Matrix: (Units=GPa)
#
#
# Indices 1 2 3 4 5 6 
#
# 1 45.4564 32.5632 -8.8854 0.0000 0.0000 0.0000
# 2 32.5632 193.4381 47.0754 0.0000 0.0000 0.0000
# 3 -8.8854 47.0754 116.3272 0.0000 0.0000 0.0000
# 4 0.0000 0.0000 0.0000 -19.2372 0.0000 0.0000
# 5 0.0000 0.0000 0.0000 0.0000 444.1933 0.0000
# 6 0.0000 0.0000 0.0000 0.0000 0.0000 56.7160
#
#
#
# Elastic Compliance Matrix: (Units=1/GPa)
#
#
# Indices 1 2 3 4 5 6 
#
# 1 0.026824 -0.005562 0.004300 0.000000 0.000000 0.000000
# 2 -0.005562 0.006888 -0.003212 0.000000 0.000000 0.000000
# 3 0.004300 -0.003212 0.010225 0.000000 0.000000 0.000000
# 4 0.000000 0.000000 0.000000 -0.051983 0.000000 0.000000
# 5 0.000000 0.000000 0.000000 0.000000 0.002251 0.000000
# 6 0.000000 0.000000 0.000000 0.000000 0.000000 0.017632
#
#
# Mechanical properties :
#
#
# Convention : Reuss Voigt Hill
#
# Bulk Modulus (GPa) = 28.58158 55.19201 41.88680
# Shear Modulus (GPa) = 154.09431 115.29899 134.69665
#
# Velocity S-wave (km/s) = 8.31673 7.19402 7.77566
# Velocity P-wave (km/s) = 10.24955 9.68397 9.97077
#
# Compressibility (1/GPa) = 0.03498757
#
# Stress axis : x y z
#
# Youngs Moduli (GPa) = 37.28022 145.18851 97.80202
#
# Poissons Ratio (x) = 0.80752 -0.42052
# Poissons Ratio (y) = 0.20735 0.31415
# Poissons Ratio (z) = -0.16029 0.46636
#
# Static dielectric constant tensor:
#      x y z
#    x 1.967800 0.000000 0.000000 
#    y 0.000000 2.017560 0.000000 
#    z 0.000000 0.000000 1.734680 
# 
# From -- ./inp_files/33976.got.cif
#   From: 2010.05.17/outbox.cif.g08.bks.cpg/sg58_17_cif.got.tgz:33976.got - 2010.06.03 14:20:14.
