data_PCOD9445642
_publ_section_title
;
Structure prediction by ZEFSAII (Michael W. Deem and Ramdas Pophale) SiO2 
 PCOD9445642
Probable space group: P N N M
;
_chemical_formula_sum "Si O2"
_cell_formula_units_Z 34
_cell_length_a 5.788246
_cell_length_b 10.349449
_cell_length_c 26.008046
_cell_angle_alpha 90.000000
_cell_angle_beta 90.000000
_cell_angle_gamma 90.000000
_cell_volume 1558.016073
_symmetry_space_group_name_H-M "P N N M"
_symmetry_group_IT_number 58
_symmetry_cell_setting 'orthorhombic'
loop_
_space_group_symop_operation_xyz
x,y,z
-x,-y,z
1/2+x,1/2-y,1/2-z
1/2-x,1/2+y,1/2-z
-x,-y,-z
x,y,-z
1/2-x,1/2+y,1/2+z
1/2+x,1/2-y,1/2+z
loop_
_atom_site_type_symbol
_atom_site_label
_atom_site_fract_x
_atom_site_fract_y
_atom_site_fract_z
Si Si1 0.500000 0.000000 0.000000
Si Si2 0.702802 0.396721 0.403402
Si Si3 0.184293 0.891230 0.271790
Si Si4 0.979892 0.357098 0.130978
Si Si5 0.583509 0.182322 0.178330
O O1 0.325492 0.056387 0.954904
O O2 0.500000 0.500000 0.390639
O O3 0.591228 0.253697 0.404596
O O4 0.901369 0.376945 0.360650
O O5 0.373261 0.879884 0.316649
O O6 0.264502 0.912063 0.213481
O O7 0.053199 0.755911 0.276446
O O8 0.000000 0.000000 0.285494
O O9 0.739692 0.289179 0.148558
O O10 0.000000 0.500000 0.106373
#
# Coordination Sequence:
#
# PCOD9445642 Si02
#       5
#     2   8   8   8   8
#     4  12  26  56  78 104 138 188 250 344 390 470
#     4  11  27  49  76 106 140 187 252 318 394 457
#     4  11  22  39  61  96 151 202 249 288 355 439
#     4  11  23  44  67 105 146 194 240 305 372 453
#     4  11  23  42  66 107 149 205 247 305 363 454
#
# _framework density 21.822626
#
# number of rings (size 3 to 8) (size 9 to 14) (size 15 to 20)
#    0.000    0.941    4.706    1.765    0.000    2.824 
#   10.588    0.588    0.000    5.647    0.000    0.000 
#    0.000    0.000    0.000    0.000    0.000    0.000 
#
# Total GULP energy -189351.933138 kJ/mol
# GULP energy per Si atom -5569.174504 kJ/mol
# Density = 2.177296 g / cm^3
# Si number density = 21.822626 Si / 1000 Ang^3
#
#
#
# Elastic Constant Matrix: (Units=GPa)
#
#
# Indices 1 2 3 4 5 6 
#
# 1 134.5896 71.3563 75.2528 0.0000 0.0000 0.0000
# 2 71.3563 154.7996 49.8215 0.0000 0.0000 0.0000
# 3 75.2528 49.8215 128.6491 0.0000 0.0000 0.0000
# 4 0.0000 0.0000 0.0000 -2.5758 0.0000 0.0000
# 5 0.0000 0.0000 0.0000 0.0000 -7.9948 0.0000
# 6 0.0000 0.0000 0.0000 0.0000 0.0000 52.8971
#
#
#
# Elastic Compliance Matrix: (Units=1/GPa)
#
#
# Indices 1 2 3 4 5 6 
#
# 1 0.012917 -0.004024 -0.005997 0.000000 0.000000 0.000000
# 2 -0.004024 0.008633 -0.000990 0.000000 0.000000 0.000000
# 3 -0.005997 -0.000990 0.011664 0.000000 0.000000 0.000000
# 4 0.000000 0.000000 0.000000 -0.388232 0.000000 0.000000
# 5 0.000000 0.000000 0.000000 0.000000 -0.125081 0.000000
# 6 0.000000 0.000000 0.000000 0.000000 0.000000 0.018905
#
#
# Mechanical properties :
#
#
# Convention : Reuss Voigt Hill
#
# Bulk Modulus (GPa) = 89.34271 90.09995 89.72133
# Shear Modulus (GPa) = -11.48259 23.23917 5.87829
#
# Velocity S-wave (km/s) = -2.29635 3.26684 1.64302
# Velocity P-wave (km/s) = 5.83081 7.45699 6.69347
#
# Compressibility (1/GPa) = 0.01119286
#
# Stress axis : x y z
#
# Youngs Moduli (GPa) = 77.42030 115.83051 85.73121
#
# Poissons Ratio (x) = 0.46608 0.51414
# Poissons Ratio (y) = 0.31153 0.08485
# Poissons Ratio (z) = 0.46430 0.11463
#
# Static dielectric constant tensor:
#      x y z
#    x 1.956440 0.000000 0.000000 
#    y 0.000000 1.951900 0.000000 
#    z 0.000000 0.000000 1.708930 
# 
# From -- ./inp_files/30810.got.cif
#   From: 2010.05.17/outbox.cif.g08.bks.cpg/sg58_16_cif.got.tgz:30810.got - 2010.06.03 14:20:14.
