data_PCOD9445371
_publ_section_title
;
Structure prediction by ZEFSAII (Michael W. Deem and Ramdas Pophale) SiO2 
 PCOD9445371
Probable space group: P N N M
;
_chemical_formula_sum "Si O2"
_cell_formula_units_Z 58
_cell_length_a 26.481890
_cell_length_b 12.311820
_cell_length_c 8.579393
_cell_angle_alpha 90.000000
_cell_angle_beta 90.000000
_cell_angle_gamma 90.000000
_cell_volume 2797.227550
_symmetry_space_group_name_H-M "P N N M"
_symmetry_group_IT_number 58
_symmetry_cell_setting 'orthorhombic'
loop_
_space_group_symop_operation_xyz
x,y,z
-x,-y,z
1/2+x,1/2-y,1/2-z
1/2-x,1/2+y,1/2-z
-x,-y,-z
x,y,-z
1/2-x,1/2+y,1/2+z
1/2+x,1/2-y,1/2+z
loop_
_atom_site_type_symbol
_atom_site_label
_atom_site_fract_x
_atom_site_fract_y
_atom_site_fract_z
Si Si1 0.393183 0.492265 0.329967
Si Si2 0.181903 0.837552 0.681728
Si Si3 0.290736 0.901676 0.313960
Si Si4 0.638690 0.280767 0.817243
Si Si5 0.656903 0.874779 0.316711
Si Si6 0.549389 0.138720 0.684972
Si Si7 0.000000 0.000000 0.000000
Si Si8 0.551924 0.893660 0.183675
O O1 0.370555 0.466769 0.500000
O O2 0.369732 0.400465 0.220039
O O3 0.371737 0.607496 0.272656
O O4 0.453577 0.497384 0.365432
O O5 0.183009 0.807615 0.500000
O O6 0.231053 0.911648 0.712384
O O7 0.190242 0.729996 0.783840
O O8 0.299044 0.892088 0.500000
O O9 0.315088 0.794788 0.238221
O O10 0.319122 0.011606 0.263441
O O11 0.589641 0.207929 0.778070
O O12 0.642990 0.302827 0.000000
O O13 0.644885 0.883924 0.500000
O O14 0.606646 0.849239 0.220129
O O15 0.557800 0.147132 0.500000
O O16 0.492352 0.170916 0.729101
O O17 0.553429 0.014327 0.741384
O O18 0.541544 0.899569 0.000000
#
# Coordination Sequence:
#
# PCOD9445371 Si02
#       8
#     8   8   8   8   8   8   2   8
#     4  10  23  47  73 100 134 181 236 289 349 428
#     4  11  25  45  69 103 139 178 234 296 351 417
#     4  10  24  44  67  98 141 184 231 287 352 429
#     4  12  24  40  67 102 139 178 231 292 349 413
#     4  11  23  42  66  95 133 181 226 279 351 422
#     4  11  21  36  58  89 130 177 219 267 337 414
#     4   8  24  48  78 100 134 188 242 292 342 438
#     4  11  21  36  58  90 129 169 218 279 336 399
#
# _framework density 20.734817
#
# number of rings (size 3 to 8) (size 9 to 14) (size 15 to 20)
#    0.414    0.828    1.379    5.793    1.931    2.759 
#    0.000    2.759    0.000    0.000    0.000    0.000 
#    0.000    0.000    0.000    0.000    0.000    0.000 
#
# Total GULP energy -323251.246429 kJ/mol
# GULP energy per Si atom -5573.297352 kJ/mol
# Density = 2.068762 g / cm^3
# Si number density = 20.734817 Si / 1000 Ang^3
#
#
#
# Elastic Constant Matrix: (Units=GPa)
#
#
# Indices 1 2 3 4 5 6 
#
# 1 99.4995 20.0484 14.3848 0.0000 0.0000 0.0000
# 2 20.0484 59.2440 -9.6240 0.0000 0.0000 0.0000
# 3 14.3848 -9.6240 40.7100 0.0000 0.0000 0.0000
# 4 0.0000 0.0000 0.0000 26.5243 0.0000 0.0000
# 5 0.0000 0.0000 0.0000 0.0000 19.7132 0.0000
# 6 0.0000 0.0000 0.0000 0.0000 0.0000 15.5494
#
#
#
# Elastic Compliance Matrix: (Units=1/GPa)
#
#
# Indices 1 2 3 4 5 6 
#
# 1 0.011797 -0.004856 -0.005317 0.000000 0.000000 0.000000
# 2 -0.004856 0.019552 0.006338 0.000000 0.000000 0.000000
# 3 -0.005317 0.006338 0.027941 0.000000 0.000000 0.000000
# 4 0.000000 0.000000 0.000000 0.037701 0.000000 0.000000
# 5 0.000000 0.000000 0.000000 0.000000 0.050727 0.000000
# 6 0.000000 0.000000 0.000000 0.000000 0.000000 0.064311
#
#
# Mechanical properties :
#
#
# Convention : Reuss Voigt Hill
#
# Bulk Modulus (GPa) = 19.37170 27.67465 23.52317
# Shear Modulus (GPa) = 21.10537 24.00033 22.55285
#
# Velocity S-wave (km/s) = 3.19387 3.40588 3.30158
# Velocity P-wave (km/s) = 4.79207 5.37053 5.08953
#
# Compressibility (1/GPa) = 0.05162170
#
# Stress axis : x y z
#
# Youngs Moduli (GPa) = 84.76479 51.14510 35.78981
#
# Poissons Ratio (x) = 0.24836 0.19028
# Poissons Ratio (y) = 0.41161 -0.22684
# Poissons Ratio (z) = 0.45065 -0.32416
#
# Static dielectric constant tensor:
#      x y z
#    x 1.809160 0.000000 0.000000 
#    y 0.000000 1.788410 0.000000 
#    z 0.000000 0.000000 1.695100 
# 
# From -- ./inp_files/10451.got.cif
#   From: 2010.05.17/outbox.cif.g08.bks.cpg/sg58_6_cif.got.tgz:10451.got - 2010.06.03 14:20:14.
