data_PCOD9445234
_publ_section_title
;
Structure prediction by ZEFSAII (Michael W. Deem and Ramdas Pophale) SiO2 
 PCOD9445234
Probable space group: P N N M
;
_chemical_formula_sum "Si O2"
_cell_formula_units_Z 60
_cell_length_a 9.558512
_cell_length_b 12.794990
_cell_length_c 24.975618
_cell_angle_alpha 90.000000
_cell_angle_beta 90.000000
_cell_angle_gamma 90.000000
_cell_volume 3054.544692
_symmetry_space_group_name_H-M "P N N M"
_symmetry_group_IT_number 58
_symmetry_cell_setting 'orthorhombic'
loop_
_space_group_symop_operation_xyz
x,y,z
-x,-y,z
1/2+x,1/2-y,1/2-z
1/2-x,1/2+y,1/2-z
-x,-y,-z
x,y,-z
1/2-x,1/2+y,1/2+z
1/2+x,1/2-y,1/2+z
loop_
_atom_site_type_symbol
_atom_site_label
_atom_site_fract_x
_atom_site_fract_y
_atom_site_fract_z
Si Si1 0.445981 0.378992 0.440578
Si Si2 0.378008 0.811426 0.061789
Si Si3 0.883527 0.171725 0.286483
Si Si4 0.160105 0.489768 0.820566
Si Si5 0.991211 0.874997 0.823626
Si Si6 0.911056 0.906308 0.623814
Si Si7 0.182104 0.601481 0.706883
Si Si8 0.500000 0.000000 0.876653
O O1 0.500000 0.500000 0.440851
O O2 0.488084 0.337195 0.500000
O O3 0.278857 0.360845 0.436635
O O4 0.498031 0.331642 0.383963
O O5 0.394474 0.701698 0.092313
O O6 0.476347 0.898410 0.087961
O O7 0.413783 0.795231 0.000000
O O8 0.899548 0.157329 0.222444
O O9 0.906731 0.293466 0.297465
O O10 0.004740 0.114942 0.320561
O O11 0.738225 0.120645 0.307817
O O12 0.260161 0.548844 0.861714
O O13 0.165265 0.549172 0.763925
O O14 0.000000 0.500000 0.838333
O O15 0.838136 0.857633 0.800492
O O16 0.000000 0.000000 0.827945
O O17 0.000000 0.000000 0.596456
O O18 0.132454 0.521044 0.661750
#
# Coordination Sequence:
#
# PCOD9445234 Si02
#       8
#     8   8   8   8   8   8   8   4
#     4   9  20  36  56  84 119 162 213 257 311 381
#     4  11  24  42  67  93 124 173 217 270 329 381
#     4  11  23  39  58  90 128 169 213 258 323 388
#     4  11  24  38  59  95 131 167 213 266 320 383
#     4  11  20  37  57  80 117 168 204 249 315 375
#     4  10  22  45  66  91 133 170 219 268 323 396
#     4  12  24  33  59  92 124 169 208 255 314 395
#     4  12  23  40  58  96 134 156 207 268 320 382
#
# _framework density 19.642861
#
# number of rings (size 3 to 8) (size 9 to 14) (size 15 to 20)
#    0.000    1.200    4.667    2.200    3.733    0.267 
#    0.000    0.667    0.000    0.400    0.000    0.000 
#    0.000    0.000    0.000    0.000    0.000    0.000 
#
# Total GULP energy -334595.610310 kJ/mol
# GULP energy per Si atom -5576.593505 kJ/mol
# Density = 1.959815 g / cm^3
# Si number density = 19.642861 Si / 1000 Ang^3
#
#
#
# Elastic Constant Matrix: (Units=GPa)
#
#
# Indices 1 2 3 4 5 6 
#
# 1 90.3124 21.4411 23.8398 0.0000 0.0000 0.0000
# 2 21.4411 98.8106 50.9595 0.0000 0.0000 0.0000
# 3 23.8398 50.9595 87.0259 0.0000 0.0000 0.0000
# 4 0.0000 0.0000 0.0000 -7.1370 0.0000 0.0000
# 5 0.0000 0.0000 0.0000 0.0000 5.5094 0.0000
# 6 0.0000 0.0000 0.0000 0.0000 0.0000 16.0740
#
#
#
# Elastic Compliance Matrix: (Units=1/GPa)
#
#
# Indices 1 2 3 4 5 6 
#
# 1 0.012053 -0.001307 -0.002536 0.000000 0.000000 0.000000
# 2 -0.001307 0.014641 -0.008215 0.000000 0.000000 0.000000
# 3 -0.002536 -0.008215 0.016996 0.000000 0.000000 0.000000
# 4 0.000000 0.000000 0.000000 -0.140115 0.000000 0.000000
# 5 0.000000 0.000000 0.000000 0.000000 0.181509 0.000000
# 6 0.000000 0.000000 0.000000 0.000000 0.000000 0.062212
#
#
# Mechanical properties :
#
#
# Convention : Reuss Voigt Hill
#
# Bulk Modulus (GPa) = 51.09252 52.06997 51.58125
# Shear Modulus (GPa) = 28.09986 14.88318 21.49152
#
# Velocity S-wave (km/s) = 3.78635 2.75560 3.31133
# Velocity P-wave (km/s) = 6.72179 6.05726 6.39816
#
# Compressibility (1/GPa) = 0.01957234
#
# Stress axis : x y z
#
# Youngs Moduli (GPa) = 82.97027 68.30232 58.83723
#
# Poissons Ratio (x) = 0.08929 0.14922
# Poissons Ratio (y) = 0.10847 0.48335
# Poissons Ratio (z) = 0.21042 0.56111
#
# Static dielectric constant tensor:
#      x y z
#    x 1.732470 0.000000 0.000000 
#    y 0.000000 1.735030 0.000000 
#    z 0.000000 0.000000 1.685800 
# 
# From -- ./inp_files/33352.got.cif
#   From: 2010.05.17/outbox.cif.g08.bks.cpg/sg58_17_cif.got.tgz:33352.got - 2010.06.03 14:20:14.
