data_PCOD9445791
_publ_section_title
;
Structure prediction by ZEFSAII (Michael W. Deem and Ramdas Pophale) SiO2 
 PCOD9445791
Probable space group: P N N M
;
_chemical_formula_sum "Si O2"
_cell_formula_units_Z 48
_cell_length_a 8.568559
_cell_length_b 8.669340
_cell_length_c 29.792373
_cell_angle_alpha 90.000000
_cell_angle_beta 90.000000
_cell_angle_gamma 90.000000
_cell_volume 2213.089226
_symmetry_space_group_name_H-M "P N N M"
_symmetry_group_IT_number 58
_symmetry_cell_setting 'orthorhombic'
loop_
_space_group_symop_operation_xyz
x,y,z
-x,-y,z
1/2+x,1/2-y,1/2-z
1/2-x,1/2+y,1/2-z
-x,-y,-z
x,y,-z
1/2-x,1/2+y,1/2+z
1/2+x,1/2-y,1/2+z
loop_
_atom_site_type_symbol
_atom_site_label
_atom_site_fract_x
_atom_site_fract_y
_atom_site_fract_z
Si Si1 0.617831 0.380374 0.214603
Si Si2 0.667951 0.428886 0.641867
Si Si3 0.325871 0.065094 0.049937
Si Si4 0.327128 0.944180 0.357900
Si Si5 0.115344 0.617720 0.718277
Si Si6 0.825400 0.063128 0.450286
O O1 0.500000 0.500000 0.238700
O O2 0.704828 0.471945 0.175031
O O3 0.750646 0.322065 0.248554
O O4 0.499024 0.248274 0.199562
O O5 0.500000 0.500000 0.651595
O O6 0.720480 0.479977 0.592163
O O7 0.670955 0.241976 0.645278
O O8 0.797020 0.472569 0.678640
O O9 0.333225 0.251011 0.050378
O O10 0.500000 0.000000 0.055910
O O11 0.270678 0.016685 0.000000
O O12 0.279783 0.987027 0.408795
O O13 0.500000 0.000000 0.348159
O O14 0.000000 0.500000 0.743279
O O15 0.770402 0.014461 0.500000
O O16 0.000000 0.000000 0.444130
#
# Coordination Sequence:
#
# PCOD9445791 Si02
#       6
#     8   8   8   8   8   8
#     4  12  25  47  70  96 131 169 222 271 338 403
#     4  11  25  43  64  97 136 172 219 272 325 389
#     4   9  19  38  65  95 130 172 218 266 323 385
#     4  11  25  41  67  95 132 178 216 269 330 391
#     4  12  27  43  70  98 127 169 217 279 330 397
#     4   9  19  37  63  96 130 169 218 269 322 384
#
# _framework density 21.689139999999998
#
# number of rings (size 3 to 8) (size 9 to 14) (size 15 to 20)
#    0.000    1.333    1.667    3.000    7.000    2.000 
#    0.000    0.000    0.000    0.000    0.000    0.000 
#    0.000    0.000    0.000    0.000    0.000    0.000 
#
# Total GULP energy -268218.239685 kJ/mol
# GULP energy per Si atom -5587.879993 kJ/mol
# Density = 2.163977 g / cm^3
# Si number density = 21.689140 Si / 1000 Ang^3
#
#
#
# Elastic Constant Matrix: (Units=GPa)
#
#
# Indices 1 2 3 4 5 6 
#
# 1 149.3213 44.9991 80.9314 0.0000 0.0000 0.0000
# 2 44.9991 34.7403 31.5406 0.0000 0.0000 0.0000
# 3 80.9314 31.5406 148.7004 0.0000 0.0000 0.0000
# 4 0.0000 0.0000 0.0000 20.9916 0.0000 0.0000
# 5 0.0000 0.0000 0.0000 0.0000 37.3082 0.0000
# 6 0.0000 0.0000 0.0000 0.0000 0.0000 48.4402
#
#
#
# Elastic Compliance Matrix: (Units=1/GPa)
#
#
# Indices 1 2 3 4 5 6 
#
# 1 0.012877 -0.012777 -0.004298 0.000000 0.000000 0.000000
# 2 -0.012777 0.048329 -0.003297 0.000000 0.000000 0.000000
# 3 -0.004298 -0.003297 0.009764 0.000000 0.000000 0.000000
# 4 0.000000 0.000000 0.000000 0.047638 0.000000 0.000000
# 5 0.000000 0.000000 0.000000 0.000000 0.026804 0.000000
# 6 0.000000 0.000000 0.000000 0.000000 0.000000 0.020644
#
#
# Mechanical properties :
#
#
# Convention : Reuss Voigt Hill
#
# Bulk Modulus (GPa) = 33.08565 71.96712 52.52638
# Shear Modulus (GPa) = 23.05474 33.03406 28.04440
#
# Velocity S-wave (km/s) = 3.26385 3.90689 3.59975
# Velocity P-wave (km/s) = 5.43058 7.32154 6.44578
#
# Compressibility (1/GPa) = 0.03022459
#
# Stress axis : x y z
#
# Youngs Moduli (GPa) = 77.65650 20.69164 102.42139
#
# Poissons Ratio (x) = 0.26439 0.44024
# Poissons Ratio (y) = 0.99225 0.33765
# Poissons Ratio (z) = 0.33379 0.06821
#
# Static dielectric constant tensor:
#      x y z
#    x 1.757500 0.000000 0.000000 
#    y 0.000000 1.848370 0.000000 
#    z 0.000000 0.000000 1.808760 
# 
# From -- ./inp_files/34565.got.cif
#   From: 2010.05.17/outbox.cif.g08.bks.cpg/sg58_18_cif.got.tgz:34565.got - 2010.06.03 14:20:14.
