data_PCOD9445037
_publ_section_title
;
Structure prediction by ZEFSAII (Michael W. Deem and Ramdas Pophale) SiO2 
 PCOD9445037
Probable space group: P N N M
;
_chemical_formula_sum "Si O2"
_cell_formula_units_Z 48
_cell_length_a 7.301698
_cell_length_b 29.270092
_cell_length_c 11.183264
_cell_angle_alpha 90.000000
_cell_angle_beta 90.000000
_cell_angle_gamma 90.000000
_cell_volume 2390.102528
_symmetry_space_group_name_H-M "P N N M"
_symmetry_group_IT_number 58
_symmetry_cell_setting 'orthorhombic'
loop_
_space_group_symop_operation_xyz
x,y,z
-x,-y,z
1/2+x,1/2-y,1/2-z
1/2-x,1/2+y,1/2-z
-x,-y,-z
x,y,-z
1/2-x,1/2+y,1/2+z
1/2+x,1/2-y,1/2+z
loop_
_atom_site_type_symbol
_atom_site_label
_atom_site_fract_x
_atom_site_fract_y
_atom_site_fract_z
Si Si1 0.975851 0.732795 0.128647
Si Si2 0.287182 0.585343 0.638105
Si Si3 0.288321 0.985835 0.137252
Si Si4 0.765081 0.355317 0.865255
Si Si5 0.294299 0.387389 0.365631
Si Si6 0.389347 0.310024 0.800865
O O1 0.109674 0.689687 0.146241
O O2 0.006597 0.771001 0.226949
O O3 0.767907 0.715314 0.126318
O O4 0.023157 0.753850 0.000000
O O5 0.207443 0.585587 0.500000
O O6 0.309729 0.532264 0.676920
O O7 0.197636 0.612541 0.749230
O O8 0.486821 0.606876 0.625705
O O9 0.270711 0.935494 0.191085
O O10 0.500000 0.000000 0.138469
O O11 0.225637 0.978747 0.000000
O O12 0.551254 0.339517 0.860479
O O13 0.799411 0.374591 0.000000
O O14 0.218588 0.381514 0.500000
O O15 0.271605 0.343482 0.284591
#
# Coordination Sequence:
#
# PCOD9445037 Si02
#       6
#     8   8   8   8   8   8
#     4  11  23  39  58  83 116 154 196 241 292 351
#     4   9  18  34  57  82 111 149 192 233 282 342
#     4   9  17  29  49  81 115 146 183 234 291 341
#     4  10  22  40  59  85 120 155 192 238 292 344
#     4   9  18  32  53  81 113 145 188 242 290 340
#     4  11  21  39  60  84 112 153 197 241 292 353
#
# _framework density 20.082820000000002
#
# number of rings (size 3 to 8) (size 9 to 14) (size 15 to 20)
#    0.000    2.167    1.667    1.500    2.333    2.667 
#    0.000    0.833    0.000    9.500    0.000    0.000 
#    0.000    0.000    0.000    0.000    0.000    0.000 
#
# Total GULP energy -267323.017328 kJ/mol
# GULP energy per Si atom -5569.229528 kJ/mol
# Density = 2.003711 g / cm^3
# Si number density = 20.082820 Si / 1000 Ang^3
#
#
#
# Elastic Constant Matrix: (Units=GPa)
#
#
# Indices 1 2 3 4 5 6 
#
# 1 41.7762 -1.2707 10.4133 0.0000 0.0000 0.0000
# 2 -1.2707 76.2520 51.5506 0.0000 0.0000 0.0000
# 3 10.4133 51.5506 102.2487 0.0000 0.0000 0.0000
# 4 0.0000 0.0000 0.0000 -38.1664 0.0000 0.0000
# 5 0.0000 0.0000 0.0000 0.0000 14.6891 0.0000
# 6 0.0000 0.0000 0.0000 0.0000 0.0000 29.1861
#
#
#
# Elastic Compliance Matrix: (Units=1/GPa)
#
#
# Indices 1 2 3 4 5 6 
#
# 1 0.025082 0.003254 -0.004195 0.000000 0.000000 0.000000
# 2 0.003254 0.020318 -0.010575 0.000000 0.000000 0.000000
# 3 -0.004195 -0.010575 0.015539 0.000000 0.000000 0.000000
# 4 0.000000 0.000000 0.000000 -0.026201 0.000000 0.000000
# 5 0.000000 0.000000 0.000000 0.000000 0.068078 0.000000
# 6 0.000000 0.000000 0.000000 0.000000 0.000000 0.034263
#
#
# Mechanical properties :
#
#
# Convention : Reuss Voigt Hill
#
# Bulk Modulus (GPa) = 26.38071 37.96261 32.17166
# Shear Modulus (GPa) = 28.94426 11.78066 20.36246
#
# Velocity S-wave (km/s) = 3.80049 2.42462 3.18767
# Velocity P-wave (km/s) = 5.69410 5.17517 5.44083
#
# Compressibility (1/GPa) = 0.03790648
#
# Stress axis : x y z
#
# Youngs Moduli (GPa) = 39.86973 49.21750 64.35450
#
# Poissons Ratio (x) = -0.16015 0.26996
# Poissons Ratio (y) = -0.12974 0.68055
# Poissons Ratio (z) = 0.16725 0.52048
#
# Static dielectric constant tensor:
#      x y z
#    x 1.748480 0.000000 0.000000 
#    y 0.000000 1.727500 0.000000 
#    z 0.000000 0.000000 1.741030 
# 
# From -- ./inp_files/13321.got.cif
#   From: 2010.05.17/outbox.cif.g08.bks.cpg/sg58_7_cif.got.tgz:13321.got - 2010.06.03 14:20:14.
