data_PCOD9445945
_publ_section_title
;
Structure prediction by ZEFSAII (Michael W. Deem and Ramdas Pophale) SiO2 
 PCOD9445945
Probable space group: P N N M
;
_chemical_formula_sum "Si O2"
_cell_formula_units_Z 64
_cell_length_a 24.000000
_cell_length_b 15.000000
_cell_length_c 9.000000
_cell_angle_alpha 90.000000
_cell_angle_beta 90.000000
_cell_angle_gamma 90.000000
_cell_volume 3240.000000
_symmetry_space_group_name_H-M "P N N M"
_symmetry_group_IT_number 58
_symmetry_cell_setting 'orthorhombic'
loop_
_space_group_symop_operation_xyz
x,y,z
-x,-y,z
1/2+x,1/2-y,1/2-z
1/2-x,1/2+y,1/2-z
-x,-y,-z
x,y,-z
1/2-x,1/2+y,1/2+z
1/2+x,1/2-y,1/2+z
loop_
_atom_site_type_symbol
_atom_site_label
_atom_site_fract_x
_atom_site_fract_y
_atom_site_fract_z
Si Si1 0.212743 0.838090 0.669744
Si Si2 0.997319 0.265617 0.327771
Si Si3 0.905233 0.836897 0.174117
Si Si4 0.568670 0.052518 0.832625
Si Si5 0.713477 0.853108 0.321896
Si Si6 0.821037 0.968534 0.680350
Si Si7 0.411855 0.121134 0.675242
Si Si8 0.843853 0.648974 0.835224
O O1 0.193936 0.820342 0.500000
O O2 0.211258 0.747420 0.761648
O O3 0.278260 0.861155 0.663280
O O4 0.182973 0.927783 0.726408
O O5 0.990814 0.241913 0.500000
O O6 0.036217 0.194272 0.244769
O O7 0.031440 0.359101 0.318573
O O8 0.939126 0.293030 0.253646
O O9 0.874593 0.917314 0.257052
O O10 0.863873 0.750808 0.186369
O O11 0.912060 0.855813 0.000000
O O12 0.558664 0.969791 0.725790
O O13 0.629080 0.090574 0.791902
O O14 0.564599 0.018495 0.000000
O O15 0.717745 0.850384 0.500000
O O16 0.765865 0.912628 0.269858
O O17 0.652833 0.891391 0.283832
O O18 0.821585 0.967590 0.500000
O O19 0.416945 0.132859 0.500000
O O20 0.865498 0.621292 0.000000
#
# Coordination Sequence:
#
# PCOD9445945 Si02
#       8
#     8   8   8   8   8   8   8   8
#     4  10  20  35  55  80 111 148 187 228 276 332
#     4  10  21  36  54  78 109 144 184 230 279 329
#     4  10  19  33  55  80 106 139 182 226 267 320
#     4  10  20  32  50  78 109 143 184 227 272 326
#     4  10  22  38  56  80 114 151 185 226 275 328
#     4  10  20  35  56  81 113 148 181 225 280 328
#     4  11  22  36  53  76 109 148 187 226 277 333
#     4   9  17  31  50  74 107 142 178 220 266 319
#
# _framework density 19.753086
#
# number of rings (size 3 to 8) (size 9 to 14) (size 15 to 20)
#    0.000    2.000    1.250    2.625    0.000    7.500 
#    0.000    1.250    0.000    0.750    0.000    5.250 
#    0.000    0.000    0.000    0.000    0.000    0.000 
#
# Total GULP energy -357030.707682 kJ/mol
# GULP energy per Si atom -5578.604808 kJ/mol
# Density = 1.970813 g / cm^3
# Si number density = 19.753086 Si / 1000 Ang^3
#
#
#
# Elastic Constant Matrix: (Units=GPa)
#
#
# Indices 1 2 3 4 5 6 
#
# 1 15.6289 -10.2198 11.9125 0.0000 0.0000 0.0000
# 2 -10.2198 46.9140 3.6000 0.0000 0.0000 0.0000
# 3 11.9125 3.6000 23.8237 0.0000 0.0000 0.0000
# 4 0.0000 0.0000 0.0000 16.1539 0.0000 0.0000
# 5 0.0000 0.0000 0.0000 0.0000 15.5874 0.0000
# 6 0.0000 0.0000 0.0000 0.0000 0.0000 18.8965
#
#
#
# Elastic Compliance Matrix: (Units=1/GPa)
#
#
# Indices 1 2 3 4 5 6 
#
# 1 0.152518 0.039535 -0.082238 0.000000 0.000000 0.000000
# 2 0.039535 0.031814 -0.024576 0.000000 0.000000 0.000000
# 3 -0.082238 -0.024576 0.086810 0.000000 0.000000 0.000000
# 4 0.000000 0.000000 0.000000 0.061905 0.000000 0.000000
# 5 0.000000 0.000000 0.000000 0.000000 0.064154 0.000000
# 6 0.000000 0.000000 0.000000 0.000000 0.000000 0.052920
#
#
# Mechanical properties :
#
#
# Convention : Reuss Voigt Hill
#
# Bulk Modulus (GPa) = 7.32144 10.77245 9.04694
# Shear Modulus (GPa) = 7.93392 15.53250 11.73321
#
# Velocity S-wave (km/s) = 2.00631 2.80720 2.43984
# Velocity P-wave (km/s) = 3.01356 3.99657 3.53936
#
# Compressibility (1/GPa) = 0.13658517
#
# Stress axis : x y z
#
# Youngs Moduli (GPa) = 6.55659 31.43285 11.51944
#
# Poissons Ratio (x) = -1.24271 0.94733
# Poissons Ratio (y) = -0.25922 0.28310
# Poissons Ratio (z) = 0.53920 0.77250
#
# Static dielectric constant tensor:
#      x y z
#    x 1.727750 0.000000 0.000000 
#    y 0.000000 1.689290 0.000000 
#    z 0.000000 0.000000 1.683110 
# 
# From -- ./inp_files/10017.got.cif
#   From: 2010.05.17/outbox.ucp.g08.bks.cvg/sg58_6_cif.got.tgz:10017.got - 2010.06.11 16:41:41.
