data_PCOD9445772
_publ_section_title
;
Structure prediction by ZEFSAII (Michael W. Deem and Ramdas Pophale) SiO2 
 PCOD9445772
Probable space group: P N N M
;
_chemical_formula_sum "Si O2"
_cell_formula_units_Z 44
_cell_length_a 13.761933
_cell_length_b 13.200714
_cell_length_c 11.439362
_cell_angle_alpha 90.000000
_cell_angle_beta 90.000000
_cell_angle_gamma 90.000000
_cell_volume 2078.158484
_symmetry_space_group_name_H-M "P N N M"
_symmetry_group_IT_number 58
_symmetry_cell_setting 'orthorhombic'
loop_
_space_group_symop_operation_xyz
x,y,z
-x,-y,z
1/2+x,1/2-y,1/2-z
1/2-x,1/2+y,1/2-z
-x,-y,-z
x,y,-z
1/2-x,1/2+y,1/2+z
1/2+x,1/2-y,1/2+z
loop_
_atom_site_type_symbol
_atom_site_label
_atom_site_fract_x
_atom_site_fract_y
_atom_site_fract_z
Si Si1 0.268729 0.084937 0.270055
Si Si2 0.385330 0.276997 0.266186
Si Si3 0.605459 0.281993 0.640421
Si Si4 0.802542 0.619400 0.709774
Si Si5 0.399190 0.298276 0.000000
Si Si6 0.332919 0.521095 0.000000
Si Si7 0.610331 0.245332 0.000000
O O1 0.340710 0.172580 0.314158
O O2 0.179526 0.137025 0.200064
O O3 0.228771 0.022936 0.381361
O O4 0.324019 0.998733 0.197207
O O5 0.497309 0.291236 0.301739
O O6 0.313924 0.366925 0.304373
O O7 0.360767 0.270523 0.127492
O O8 0.600540 0.293672 0.500000
O O9 0.650602 0.172369 0.675624
O O10 0.845374 0.691528 0.610855
O O11 0.496878 0.234612 0.000000
O O12 0.400179 0.421608 0.000000
O O13 0.377471 0.633650 0.000000
#
# Coordination Sequence:
#
# PCOD9445772 Si02
#       7
#     8   8   8   8   4   4   4
#     4  11  26  42  69 103 133 184 229 280 349 408
#     4  11  24  44  68  96 138 178 224 281 345 399
#     4  11  26  45  66  99 141 178 225 280 345 414
#     4  11  25  44  68  98 141 179 228 282 348 400
#     4  12  23  43  74  97 128 184 233 289 329 405
#     4  12  21  42  74  98 130 171 243 281 331 398
#     4  12  23  45  66 103 143 171 230 293 337 404
#
# _framework density 21.172592000000002
#
# number of rings (size 3 to 8) (size 9 to 14) (size 15 to 20)
#    0.000    0.727    7.273    0.273   10.182    1.455 
#    0.000    2.727    0.000    0.000    0.000    0.000 
#    0.000    0.000    0.000    0.000    0.000    0.000 
#
# Total GULP energy -245277.726228 kJ/mol
# GULP energy per Si atom -5574.493778 kJ/mol
# Density = 2.112440 g / cm^3
# Si number density = 21.172592 Si / 1000 Ang^3
#
#
#
# Elastic Constant Matrix: (Units=GPa)
#
#
# Indices 1 2 3 4 5 6 
#
# 1 79.0873 11.2799 28.3564 0.0000 0.0000 0.0000
# 2 11.2799 94.3444 7.5595 0.0000 0.0000 0.0000
# 3 28.3564 7.5595 91.4139 0.0000 0.0000 0.0000
# 4 0.0000 0.0000 0.0000 19.1972 0.0000 0.0000
# 5 0.0000 0.0000 0.0000 0.0000 19.2861 0.0000
# 6 0.0000 0.0000 0.0000 0.0000 0.0000 18.1765
#
#
#
# Elastic Compliance Matrix: (Units=1/GPa)
#
#
# Indices 1 2 3 4 5 6 
#
# 1 0.014401 -0.001373 -0.004354 0.000000 0.000000 0.000000
# 2 -0.001373 0.010801 -0.000467 0.000000 0.000000 0.000000
# 3 -0.004354 -0.000467 0.012328 0.000000 0.000000 0.000000
# 4 0.000000 0.000000 0.000000 0.052091 0.000000 0.000000
# 5 0.000000 0.000000 0.000000 0.000000 0.051851 0.000000
# 6 0.000000 0.000000 0.000000 0.000000 0.000000 0.055016
#
#
# Mechanical properties :
#
#
# Convention : Reuss Voigt Hill
#
# Bulk Modulus (GPa) = 39.77297 39.91522 39.84409
# Shear Modulus (GPa) = 23.01422 25.84195 24.42808
#
# Velocity S-wave (km/s) = 3.30052 3.49741 3.40039
# Velocity P-wave (km/s) = 5.77498 5.93316 5.85461
#
# Compressibility (1/GPa) = 0.02514271
#
# Stress axis : x y z
#
# Youngs Moduli (GPa) = 69.43937 92.58349 81.11359
#
# Poissons Ratio (x) = 0.12711 0.35314
# Poissons Ratio (y) = 0.09534 0.03790
# Poissons Ratio (z) = 0.30231 0.04326
#
# Static dielectric constant tensor:
#      x y z
#    x 1.778560 0.000000 0.000000 
#    y 0.000000 1.767150 0.000000 
#    z 0.000000 0.000000 1.644010 
# 
# From -- ./inp_files/15539.got.cif
#   From: 2010.05.17/outbox.cif.g08.bks.cpg/sg58_8_cif.got.tgz:15539.got - 2010.06.03 14:20:14.
