data_PCOD9445695
_publ_section_title
;
Structure prediction by ZEFSAII (Michael W. Deem and Ramdas Pophale) SiO2 
 PCOD9445695
Probable space group: P N N M
;
_chemical_formula_sum "Si O2"
_cell_formula_units_Z 58
_cell_length_a 16.933715
_cell_length_b 18.856087
_cell_length_c 8.090234
_cell_angle_alpha 90.000000
_cell_angle_beta 90.000000
_cell_angle_gamma 90.000000
_cell_volume 2583.240868
_symmetry_space_group_name_H-M "P N N M"
_symmetry_group_IT_number 58
_symmetry_cell_setting 'orthorhombic'
loop_
_space_group_symop_operation_xyz
x,y,z
-x,-y,z
1/2+x,1/2-y,1/2-z
1/2-x,1/2+y,1/2-z
-x,-y,-z
x,y,-z
1/2-x,1/2+y,1/2+z
1/2+x,1/2-y,1/2+z
loop_
_atom_site_type_symbol
_atom_site_label
_atom_site_fract_x
_atom_site_fract_y
_atom_site_fract_z
Si Si1 0.630584 0.411255 0.692445
Si Si2 0.500000 0.000000 0.000000
Si Si3 0.061291 0.302991 0.813537
Si Si4 0.162683 0.933234 0.306038
Si Si5 0.288528 0.171801 0.196108
Si Si6 0.731844 0.179304 0.810546
Si Si7 0.520415 0.663510 0.190773
Si Si8 0.431334 0.076904 0.310693
O O1 0.612914 0.397136 0.500000
O O2 0.654607 0.492426 0.716059
O O3 0.704713 0.363191 0.741948
O O4 0.553736 0.389524 0.794067
O O5 0.561536 0.974011 0.848817
O O6 0.138801 0.305003 0.702330
O O7 0.006061 0.235627 0.777830
O O8 0.008822 0.373036 0.796916
O O9 0.091703 0.296911 0.000000
O O10 0.148428 0.945851 0.500000
O O11 0.244940 0.892865 0.281630
O O12 0.095938 0.878471 0.243227
O O13 0.279995 0.254482 0.236936
O O14 0.357353 0.129651 0.287554
O O15 0.300426 0.163626 0.000000
O O16 0.753771 0.170620 0.000000
O O17 0.536009 0.681542 0.000000
O O18 0.427736 0.047434 0.500000
#
# Coordination Sequence:
#
# PCOD9445695 Si02
#       8
#     8   2   8   8   8   8   8   8
#     4  11  24  41  66  98 136 180 225 274 340 408
#     4  12  26  48  72  98 144 184 226 312 348 418
#     4  11  24  43  68 100 134 174 228 288 342 407
#     4  11  25  43  64  95 136 176 219 276 341 404
#     4  11  23  44  70  99 137 182 230 287 349 409
#     4  12  25  41  68 100 136 178 229 283 344 417
#     4  11  23  40  67  98 132 176 223 273 338 408
#     4  11  26  46  74 105 137 188 242 289 357 427
#
# _framework density 22.452414999999998
#
# number of rings (size 3 to 8) (size 9 to 14) (size 15 to 20)
#    0.000    0.828    2.069    4.759    1.931    8.828 
#    0.000    0.000    0.000    0.000    0.000    0.000 
#    0.000    0.000    0.000    0.000    0.000    0.000 
#
# Total GULP energy -324069.868285 kJ/mol
# GULP energy per Si atom -5587.411522 kJ/mol
# Density = 2.240131 g / cm^3
# Si number density = 22.452415 Si / 1000 Ang^3
#
#
#
# Elastic Constant Matrix: (Units=GPa)
#
#
# Indices 1 2 3 4 5 6 
#
# 1 38.8991 1.1367 19.5253 0.0000 0.0000 0.0000
# 2 1.1367 61.5655 10.3866 0.0000 0.0000 0.0000
# 3 19.5253 10.3866 84.7825 0.0000 0.0000 0.0000
# 4 0.0000 0.0000 0.0000 21.2400 0.0000 0.0000
# 5 0.0000 0.0000 0.0000 0.0000 0.0406 0.0000
# 6 0.0000 0.0000 0.0000 0.0000 0.0000 -4.9233
#
#
#
# Elastic Compliance Matrix: (Units=1/GPa)
#
#
# Indices 1 2 3 4 5 6 
#
# 1 0.029090 0.000606 -0.006774 0.000000 0.000000 0.000000
# 2 0.000606 0.016598 -0.002173 0.000000 0.000000 0.000000
# 3 -0.006774 -0.002173 0.013621 0.000000 0.000000 0.000000
# 4 0.000000 0.000000 0.000000 0.047081 0.000000 0.000000
# 5 0.000000 0.000000 0.000000 0.000000 24.609315 0.000000
# 6 0.000000 0.000000 0.000000 0.000000 0.000000 -0.203115
#
#
# Mechanical properties :
#
#
# Convention : Reuss Voigt Hill
#
# Bulk Modulus (GPa) = 23.45905 27.48271 25.47088
# Shear Modulus (GPa) = 0.20372 13.55137 6.87755
#
# Velocity S-wave (km/s) = 0.30155 2.45941 1.75209
# Velocity P-wave (km/s) = 3.25458 4.50909 3.93219
#
# Compressibility (1/GPa) = 0.04262747
#
# Stress axis : x y z
#
# Youngs Moduli (GPa) = 34.37634 60.24725 73.41590
#
# Poissons Ratio (x) = -0.03649 0.49729
# Poissons Ratio (y) = -0.02082 0.15953
# Poissons Ratio (z) = 0.23285 0.13091
#
# Static dielectric constant tensor:
#      x y z
#    x 1.819110 0.000000 0.000000 
#    y 0.000000 1.819850 0.000000 
#    z 0.000000 0.000000 1.783480 
# 
# From -- ./inp_files/8013.got.cif
#   From: 2010.05.17/outbox.cif.g08.bks.cpg/sg58_5_cif.got.tgz:8013.got - 2010.06.03 14:20:14.
