data_PCOD9445296
_publ_section_title
;
Structure prediction by ZEFSAII (Michael W. Deem and Ramdas Pophale) SiO2 
 PCOD9445296
Probable space group: P N N M
;
_chemical_formula_sum "Si O2"
_cell_formula_units_Z 64
_cell_length_a 31.286488
_cell_length_b 12.215771
_cell_length_c 8.478149
_cell_angle_alpha 90.000000
_cell_angle_beta 90.000000
_cell_angle_gamma 90.000000
_cell_volume 3240.251666
_symmetry_space_group_name_H-M "P N N M"
_symmetry_group_IT_number 58
_symmetry_cell_setting 'orthorhombic'
loop_
_space_group_symop_operation_xyz
x,y,z
-x,-y,z
1/2+x,1/2-y,1/2-z
1/2-x,1/2+y,1/2-z
-x,-y,-z
x,y,-z
1/2-x,1/2+y,1/2+z
1/2+x,1/2-y,1/2+z
loop_
_atom_site_type_symbol
_atom_site_label
_atom_site_fract_x
_atom_site_fract_y
_atom_site_fract_z
Si Si1 0.917236 0.734612 0.186675
Si Si2 0.544246 0.440773 0.809846
Si Si3 0.709114 0.454897 0.313950
Si Si4 0.673397 0.240131 0.815072
Si Si5 0.378475 0.169429 0.310953
Si Si6 0.805858 0.493228 0.690989
Si Si7 0.951202 0.495681 0.191753
Si Si8 0.873374 0.083038 0.311661
O O1 0.875733 0.769302 0.284145
O O2 0.929831 0.611696 0.231437
O O3 0.953089 0.822718 0.228564
O O4 0.907856 0.737379 0.000000
O O5 0.500000 0.500000 0.771360
O O6 0.585247 0.512929 0.757809
O O7 0.546337 0.427725 0.000000
O O8 0.707664 0.476003 0.500000
O O9 0.700936 0.327486 0.279073
O O10 0.756770 0.481722 0.256568
O O11 0.670645 0.524247 0.238621
O O12 0.679208 0.114985 0.763562
O O13 0.683640 0.248652 0.000000
O O14 0.379483 0.171708 0.500000
O O15 0.375894 0.293009 0.249996
O O16 0.337597 0.097911 0.258288
O O17 0.420914 0.103619 0.254204
O O18 0.807207 0.485354 0.500000
O O19 0.000000 0.500000 0.248960
O O20 0.952679 0.489379 0.000000
O O21 0.874757 0.085725 0.500000
#
# Coordination Sequence:
#
# PCOD9445296 Si02
#       8
#     8   8   8   8   8   8   8   8
#     4  11  21  37  64  92 119 157 205 255 301 358
#     4  10  23  42  62  87 123 163 203 251 306 365
#     4  11  24  42  64  93 122 158 206 253 303 365
#     4  11  22  40  64  89 122 161 200 252 309 362
#     4  11  23  40  64  90 123 163 205 252 302 360
#     4  10  24  43  63  90 125 161 201 250 306 367
#     4   9  20  38  59  89 125 158 196 248 305 355
#     4  11  24  42  62  88 125 166 202 247 308 364
#
# _framework density 19.751550999999999
#
# number of rings (size 3 to 8) (size 9 to 14) (size 15 to 20)
#    0.000    1.500    2.500    1.875    3.500    2.250 
#    0.000    0.000    0.000    3.000    0.000    0.000 
#    0.000    0.000    0.000    0.000    0.000    0.000 
#
# Total GULP energy -357598.356846 kJ/mol
# GULP energy per Si atom -5587.474326 kJ/mol
# Density = 1.970660 g / cm^3
# Si number density = 19.751551 Si / 1000 Ang^3
#
#
#
# Elastic Constant Matrix: (Units=GPa)
#
#
# Indices 1 2 3 4 5 6 
#
# 1 109.3388 28.8518 13.3907 0.0000 0.0000 0.0000
# 2 28.8518 110.0051 14.8921 0.0000 0.0000 0.0000
# 3 13.3907 14.8921 22.4212 0.0000 0.0000 0.0000
# 4 0.0000 0.0000 0.0000 30.5685 0.0000 0.0000
# 5 0.0000 0.0000 0.0000 0.0000 21.1158 0.0000
# 6 0.0000 0.0000 0.0000 0.0000 0.0000 30.0019
#
#
#
# Elastic Compliance Matrix: (Units=1/GPa)
#
#
# Indices 1 2 3 4 5 6 
#
# 1 0.010271 -0.002048 -0.004774 0.000000 0.000000 0.000000
# 2 -0.002048 0.010397 -0.005683 0.000000 0.000000 0.000000
# 3 -0.004774 -0.005683 0.051226 0.000000 0.000000 0.000000
# 4 0.000000 0.000000 0.000000 0.032713 0.000000 0.000000
# 5 0.000000 0.000000 0.000000 0.000000 0.047358 0.000000
# 6 0.000000 0.000000 0.000000 0.000000 0.000000 0.033331
#
#
# Mechanical properties :
#
#
# Convention : Reuss Voigt Hill
#
# Bulk Modulus (GPa) = 21.32866 39.55937 30.44402
# Shear Modulus (GPa) = 22.13040 28.64595 25.38817
#
# Velocity S-wave (km/s) = 3.35093 3.81243 3.58910
# Velocity P-wave (km/s) = 5.07873 6.28104 5.71161
#
# Compressibility (1/GPa) = 0.04688526
#
# Stress axis : x y z
#
# Youngs Moduli (GPa) = 97.36282 96.18344 19.52123
#
# Poissons Ratio (x) = 0.19694 0.09320
# Poissons Ratio (y) = 0.19935 0.11093
# Poissons Ratio (z) = 0.46483 0.54658
#
# Static dielectric constant tensor:
#      x y z
#    x 1.708670 0.000000 0.000000 
#    y 0.000000 1.671270 0.000000 
#    z 0.000000 0.000000 1.678690 
# 
# From -- ./inp_files/10973.got.cif
#   From: 2010.05.17/outbox.cif.g08.bks.cpg/sg58_6_cif.got.tgz:10973.got - 2010.06.03 14:20:14.
