data_PCOD9445640
_publ_section_title
;
Structure prediction by ZEFSAII (Michael W. Deem and Ramdas Pophale) SiO2 
 PCOD9445640
Probable space group: P N N M
;
_chemical_formula_sum "Si O2"
_cell_formula_units_Z 64
_cell_length_a 11.619165
_cell_length_b 16.972488
_cell_length_c 15.422728
_cell_angle_alpha 90.000000
_cell_angle_beta 90.000000
_cell_angle_gamma 90.000000
_cell_volume 3041.456635
_symmetry_space_group_name_H-M "P N N M"
_symmetry_group_IT_number 58
_symmetry_cell_setting 'orthorhombic'
loop_
_space_group_symop_operation_xyz
x,y,z
-x,-y,z
1/2+x,1/2-y,1/2-z
1/2-x,1/2+y,1/2-z
-x,-y,-z
x,y,-z
1/2-x,1/2+y,1/2+z
1/2+x,1/2-y,1/2+z
loop_
_atom_site_type_symbol
_atom_site_label
_atom_site_fract_x
_atom_site_fract_y
_atom_site_fract_z
Si Si1 0.330039 0.798419 0.900214
Si Si2 0.658242 0.433782 0.902080
Si Si3 0.098227 0.899132 0.351680
Si Si4 0.570339 0.081867 0.402153
Si Si5 0.120536 0.548520 0.596876
Si Si6 0.580446 0.775260 0.847486
Si Si7 0.276921 0.938455 0.227491
Si Si8 0.145568 0.674912 0.846305
O O1 0.443941 0.761815 0.857424
O O2 0.308847 0.875780 0.845249
O O3 0.220448 0.741989 0.892419
O O4 0.355037 0.815323 0.000000
O O5 0.538355 0.408332 0.859795
O O6 0.650808 0.528328 0.905746
O O7 0.768823 0.400558 0.852868
O O8 0.662398 0.402393 0.000000
O O9 0.132896 0.809500 0.374793
O O10 0.147190 0.921211 0.257270
O O11 0.620785 0.089780 0.500000
O O12 0.648275 0.078263 0.314963
O O13 0.474471 0.149599 0.388753
O O14 0.500000 0.000000 0.402092
O O15 0.164928 0.529871 0.500000
O O16 0.104095 0.642826 0.602933
O O17 0.196595 0.519526 0.677942
O O18 0.000000 0.500000 0.606664
O O19 0.618927 0.794538 0.749914
#
# Coordination Sequence:
#
# PCOD9445640 Si02
#       8
#     8   8   8   8   8   8   8   8
#     4  12  24  40  66  98 135 175 224 282 336 400
#     4  11  24  42  66  95 130 175 232 283 333 413
#     4  11  24  39  61  95 132 181 220 278 344 403
#     4  11  23  39  63  95 132 174 217 276 351 415
#     4  11  22  38  65  97 131 172 223 284 346 405
#     4  12  23  40  64  97 135 170 218 285 346 400
#     4  12  23  42  64  96 137 178 226 282 341 419
#     4  12  23  42  68  98 134 176 223 279 347 413
#
# _framework density 21.042549000000001
#
# number of rings (size 3 to 8) (size 9 to 14) (size 15 to 20)
#    0.000    0.500    5.000    5.250    0.000    3.500 
#    0.000    0.000    0.000    0.000    0.000   21.875 
#    0.000    0.000    0.000    0.000    0.000    0.000 
#
# Total GULP energy -357298.646808 kJ/mol
# GULP energy per Si atom -5582.791356 kJ/mol
# Density = 2.099466 g / cm^3
# Si number density = 21.042549 Si / 1000 Ang^3
#
#
#
# Elastic Constant Matrix: (Units=GPa)
#
#
# Indices 1 2 3 4 5 6 
#
# 1 80.7604 29.1351 62.4563 0.0000 0.0000 0.0000
# 2 29.1351 141.9309 45.3415 0.0000 0.0000 0.0000
# 3 62.4563 45.3415 137.4845 0.0000 0.0000 0.0000
# 4 0.0000 0.0000 0.0000 24.2121 0.0000 0.0000
# 5 0.0000 0.0000 0.0000 0.0000 16.1932 0.0000
# 6 0.0000 0.0000 0.0000 0.0000 0.0000 29.5829
#
#
#
# Elastic Compliance Matrix: (Units=1/GPa)
#
#
# Indices 1 2 3 4 5 6 
#
# 1 0.019300 -0.001298 -0.008340 0.000000 0.000000 0.000000
# 2 -0.001298 0.007963 -0.002037 0.000000 0.000000 0.000000
# 3 -0.008340 -0.002037 0.011734 0.000000 0.000000 0.000000
# 4 0.000000 0.000000 0.000000 0.041302 0.000000 0.000000
# 5 0.000000 0.000000 0.000000 0.000000 0.061754 0.000000
# 6 0.000000 0.000000 0.000000 0.000000 0.000000 0.033803
#
#
# Mechanical properties :
#
#
# Convention : Reuss Voigt Hill
#
# Bulk Modulus (GPa) = 63.90310 70.44909 67.17609
# Shear Modulus (GPa) = 24.45953 28.88049 26.67001
#
# Velocity S-wave (km/s) = 3.41307 3.70872 3.56396
# Velocity P-wave (km/s) = 6.77986 7.20358 6.99493
#
# Compressibility (1/GPa) = 0.01564869
#
# Stress axis : x y z
#
# Youngs Moduli (GPa) = 51.81384 125.58624 85.22475
#
# Poissons Ratio (x) = 0.16297 0.71074
# Poissons Ratio (y) = 0.06724 0.17356
# Poissons Ratio (z) = 0.43211 0.25576
#
# Static dielectric constant tensor:
#      x y z
#    x 1.777330 0.000000 0.000000 
#    y 0.000000 1.855870 0.000000 
#    z 0.000000 0.000000 1.737050 
# 
# From -- ./inp_files/21518.got.cif
#   From: 2010.05.17/outbox.cif.g08.bks.cpg/sg58_11_cif.got.tgz:21518.got - 2010.06.03 14:20:14.
