data_PCOD9445512
_publ_section_title
;
Structure prediction by ZEFSAII (Michael W. Deem and Ramdas Pophale) SiO2 
 PCOD9445512
Probable space group: P N N M
;
_chemical_formula_sum "Si O2"
_cell_formula_units_Z 58
_cell_length_a 11.571840
_cell_length_b 8.756088
_cell_length_c 26.280053
_cell_angle_alpha 90.000000
_cell_angle_beta 90.000000
_cell_angle_gamma 90.000000
_cell_volume 2662.801387
_symmetry_space_group_name_H-M "P N N M"
_symmetry_group_IT_number 58
_symmetry_cell_setting 'orthorhombic'
loop_
_space_group_symop_operation_xyz
x,y,z
-x,-y,z
1/2+x,1/2-y,1/2-z
1/2-x,1/2+y,1/2-z
-x,-y,-z
x,y,-z
1/2-x,1/2+y,1/2+z
1/2+x,1/2-y,1/2+z
loop_
_atom_site_type_symbol
_atom_site_label
_atom_site_fract_x
_atom_site_fract_y
_atom_site_fract_z
Si Si1 0.887151 0.095344 0.571850
Si Si2 0.871241 0.551199 0.194980
Si Si3 0.000000 0.500000 0.000000
Si Si4 0.334700 0.075382 0.413648
Si Si5 0.275898 0.237535 0.745764
Si Si6 0.472890 0.336415 0.182348
Si Si7 0.294571 0.841354 0.144539
Si Si8 0.632668 0.949098 0.944966
O O1 0.900935 0.112349 0.632702
O O2 0.872684 0.267176 0.554200
O O3 0.773009 0.004335 0.558908
O O4 0.000000 0.000000 0.555695
O O5 0.867016 0.534369 0.134079
O O6 0.830841 0.712001 0.218417
O O7 0.781815 0.425658 0.217788
O O8 0.000000 0.500000 0.210208
O O9 0.066499 0.596403 0.954644
O O10 0.282690 0.226513 0.388581
O O11 0.389493 0.246091 0.780327
O O12 0.269818 0.356791 0.698397
O O13 0.500000 0.500000 0.207509
O O14 0.582910 0.239948 0.161188
O O15 0.314937 0.984070 0.107276
O O16 0.500000 0.000000 0.943691
O O17 0.682586 0.002759 0.000000
#
# Coordination Sequence:
#
# PCOD9445512 Si02
#       8
#     8   8   2   8   8   8   8   8
#     4  11  21  42  70  98 134 174 221 288 336 401
#     4  11  23  42  62  99 138 175 227 280 335 418
#     4  12  28  44  78  94 124 188 234 288 348 412
#     4  11  23  45  69  98 131 174 237 282 338 408
#     4  11  24  37  65  96 134 182 220 272 344 408
#     4  11  19  40  64  96 135 174 223 282 332 404
#     4  11  23  41  65  99 139 180 220 288 347 406
#     4  11  24  39  61  99 138 174 225 280 349 406
#
# _framework density 21.781572000000001
#
# number of rings (size 3 to 8) (size 9 to 14) (size 15 to 20)
#    0.000    0.966    6.207    1.655    3.862    0.828 
#    0.000    0.000    0.000    1.241    0.000    0.000 
#    0.000    0.000    0.000    0.000    0.000    0.000 
#
# Total GULP energy -323189.989503 kJ/mol
# GULP energy per Si atom -5572.241198 kJ/mol
# Density = 2.173200 g / cm^3
# Si number density = 21.781572 Si / 1000 Ang^3
#
#
#
# Elastic Constant Matrix: (Units=GPa)
#
#
# Indices 1 2 3 4 5 6 
#
# 1 65.1036 10.1512 26.3700 0.0000 0.0000 0.0000
# 2 10.1512 46.9251 34.3016 0.0000 0.0000 0.0000
# 3 26.3700 34.3016 152.7032 0.0000 0.0000 0.0000
# 4 0.0000 0.0000 0.0000 56.6313 0.0000 0.0000
# 5 0.0000 0.0000 0.0000 0.0000 -15.3854 0.0000
# 6 0.0000 0.0000 0.0000 0.0000 0.0000 17.2431
#
#
#
# Elastic Compliance Matrix: (Units=1/GPa)
#
#
# Indices 1 2 3 4 5 6 
#
# 1 0.016641 -0.001794 -0.002471 0.000000 0.000000 0.000000
# 2 -0.001794 0.025691 -0.005461 0.000000 0.000000 0.000000
# 3 -0.002471 -0.005461 0.008202 0.000000 0.000000 0.000000
# 4 0.000000 0.000000 0.000000 0.017658 0.000000 0.000000
# 5 0.000000 0.000000 0.000000 0.000000 -0.064997 0.000000
# 6 0.000000 0.000000 0.000000 0.000000 0.000000 0.057994
#
#
# Mechanical properties :
#
#
# Convention : Reuss Voigt Hill
#
# Bulk Modulus (GPa) = 32.17291 45.15307 38.66299
# Shear Modulus (GPa) = 54.94463 24.62506 39.78485
#
# Velocity S-wave (km/s) = 5.02793 3.36601 4.27844
# Velocity P-wave (km/s) = 6.96488 5.99013 6.49581
#
# Compressibility (1/GPa) = 0.03108205
#
# Stress axis : x y z
#
# Youngs Moduli (GPa) = 60.09404 38.92474 121.92104
#
# Poissons Ratio (x) = 0.06982 0.30123
# Poissons Ratio (y) = 0.10780 0.66582
# Poissons Ratio (z) = 0.14847 0.21257
#
# Static dielectric constant tensor:
#      x y z
#    x 1.843640 0.000000 0.000000 
#    y 0.000000 1.741940 0.000000 
#    z 0.000000 0.000000 1.899200 
# 
# From -- ./inp_files/33601.got.cif
#   From: 2010.05.17/outbox.cif.g08.bks.cpg/sg58_17_cif.got.tgz:33601.got - 2010.06.03 14:20:14.
