data_PCOD9445440
_publ_section_title
;
Structure prediction by ZEFSAII (Michael W. Deem and Ramdas Pophale) SiO2 
 PCOD9445440
Probable space group: P N N M
;
_chemical_formula_sum "Si O2"
_cell_formula_units_Z 50
_cell_length_a 26.176528
_cell_length_b 9.267027
_cell_length_c 10.045433
_cell_angle_alpha 90.000000
_cell_angle_beta 90.000000
_cell_angle_gamma 90.000000
_cell_volume 2436.806991
_symmetry_space_group_name_H-M "P N N M"
_symmetry_group_IT_number 58
_symmetry_cell_setting 'orthorhombic'
loop_
_space_group_symop_operation_xyz
x,y,z
-x,-y,z
1/2+x,1/2-y,1/2-z
1/2-x,1/2+y,1/2-z
-x,-y,-z
x,y,-z
1/2-x,1/2+y,1/2+z
1/2+x,1/2-y,1/2+z
loop_
_atom_site_type_symbol
_atom_site_label
_atom_site_fract_x
_atom_site_fract_y
_atom_site_fract_z
Si Si1 0.364897 0.049077 0.652593
Si Si2 0.701078 0.515231 0.152573
Si Si3 0.080005 0.008313 0.651359
Si Si4 0.226247 0.649828 0.657449
Si Si5 0.500000 0.000000 0.000000
Si Si6 0.942803 0.666968 0.263885
Si Si7 0.043252 0.778809 0.146286
O O1 0.345261 0.043614 0.500000
O O2 0.321742 0.085490 0.760382
O O3 0.408476 0.172447 0.658566
O O4 0.394880 0.903969 0.690501
O O5 0.640122 0.523632 0.168001
O O6 0.725316 0.413230 0.263995
O O7 0.723294 0.676694 0.166632
O O8 0.711245 0.465163 0.000000
O O9 0.065600 0.975619 0.500000
O O10 0.071006 0.175115 0.682032
O O11 0.048923 0.902158 0.745194
O O12 0.225167 0.612185 0.500000
O O13 0.537968 0.066326 0.883652
O O14 0.991522 0.690310 0.168623
O O15 0.043768 0.844492 0.000000
#
# Coordination Sequence:
#
# PCOD9445440 Si02
#       7
#     8   8   8   8   2   8   8
#     4  11  24  43  68  96 133 177 218 273 337 397
#     4  10  24  47  67  98 137 168 217 277 333 407
#     4  11  25  43  68  97 132 176 224 273 338 389
#     4  11  25  44  72 100 128 171 219 276 336 397
#     4  12  24  40  60 104 140 168 236 280 324 392
#     4  12  25  41  67  98 136 181 224 279 328 397
#     4  11  24  43  66  95 135 177 220 272 334 399
#
# _framework density 20.518654999999999
#
# number of rings (size 3 to 8) (size 9 to 14) (size 15 to 20)
#    0.000    0.960    4.000    1.440    4.480    5.760 
#    0.000    0.000    0.000    0.000    0.000    0.000 
#    0.000    0.000    0.000    0.000    0.000    0.000 
#
# Total GULP energy -279140.852332 kJ/mol
# GULP energy per Si atom -5582.817047 kJ/mol
# Density = 2.047195 g / cm^3
# Si number density = 20.518655 Si / 1000 Ang^3
#
#
#
# Elastic Constant Matrix: (Units=GPa)
#
#
# Indices 1 2 3 4 5 6 
#
# 1 36.9246 0.4705 23.3334 0.0000 0.0000 0.0000
# 2 0.4705 41.8976 36.4639 0.0000 0.0000 0.0000
# 3 23.3334 36.4639 141.8749 0.0000 0.0000 0.0000
# 4 0.0000 0.0000 0.0000 30.1525 0.0000 0.0000
# 5 0.0000 0.0000 0.0000 0.0000 -188.0917 0.0000
# 6 0.0000 0.0000 0.0000 0.0000 0.0000 35.5738
#
#
#
# Elastic Compliance Matrix: (Units=1/GPa)
#
#
# Indices 1 2 3 4 5 6 
#
# 1 0.031106 0.005285 -0.006474 0.000000 0.000000 0.000000
# 2 0.005285 0.031643 -0.009002 0.000000 0.000000 0.000000
# 3 -0.006474 -0.009002 0.010427 0.000000 0.000000 0.000000
# 4 0.000000 0.000000 0.000000 0.033165 0.000000 0.000000
# 5 0.000000 0.000000 0.000000 0.000000 -0.005317 0.000000
# 6 0.000000 0.000000 0.000000 0.000000 0.000000 0.028111
#
#
# Mechanical properties :
#
#
# Convention : Reuss Voigt Hill
#
# Bulk Modulus (GPa) = 18.94154 37.91472 28.42813
# Shear Modulus (GPa) = 29.91968 -13.77779 8.07095
#
# Velocity S-wave (km/s) = 3.82274 -2.59410 1.98545
# Velocity P-wave (km/s) = 5.36059 3.08963 4.37503
#
# Compressibility (1/GPa) = 0.05279402
#
# Stress axis : x y z
#
# Youngs Moduli (GPa) = 32.14810 31.60278 95.90618
#
# Poissons Ratio (x) = -0.16703 0.62092
# Poissons Ratio (y) = -0.16991 0.86334
# Poissons Ratio (z) = 0.20813 0.28448
#
# Static dielectric constant tensor:
#      x y z
#    x 1.722860 0.000000 0.000000 
#    y 0.000000 1.713920 0.000000 
#    z 0.000000 0.000000 1.707640 
# 
# From -- ./inp_files/10796.got.cif
#   From: 2010.05.17/outbox.cif.g08.bks.cpg/sg58_6_cif.got.tgz:10796.got - 2010.06.03 14:20:14.
