data_PCOD9445437
_publ_section_title
;
Structure prediction by ZEFSAII (Michael W. Deem and Ramdas Pophale) SiO2 
 PCOD9445437
Probable space group: P N N M
;
_chemical_formula_sum "Si O2"
_cell_formula_units_Z 40
_cell_length_a 11.546275
_cell_length_b 8.581463
_cell_length_c 17.828910
_cell_angle_alpha 90.000000
_cell_angle_beta 90.000000
_cell_angle_gamma 90.000000
_cell_volume 1766.558501
_symmetry_space_group_name_H-M "P N N M"
_symmetry_group_IT_number 58
_symmetry_cell_setting 'orthorhombic'
loop_
_space_group_symop_operation_xyz
x,y,z
-x,-y,z
1/2+x,1/2-y,1/2-z
1/2-x,1/2+y,1/2-z
-x,-y,-z
x,y,-z
1/2-x,1/2+y,1/2+z
1/2+x,1/2-y,1/2+z
loop_
_atom_site_type_symbol
_atom_site_label
_atom_site_fract_x
_atom_site_fract_y
_atom_site_fract_z
Si Si1 0.952841 0.671806 0.821468
Si Si2 0.127963 0.531499 0.588285
Si Si3 0.349798 0.610077 0.793309
Si Si4 0.213936 0.880169 0.411970
Si Si5 0.332818 0.346541 0.329536
O O1 0.930641 0.756865 0.741821
O O2 0.834608 0.650038 0.868002
O O3 0.000000 0.500000 0.810724
O O4 0.047195 0.782353 0.863292
O O5 0.126601 0.494701 0.500000
O O6 0.150212 0.715389 0.596379
O O7 0.232956 0.428577 0.621490
O O8 0.000000 0.500000 0.619015
O O9 0.354747 0.523400 0.873116
O O10 0.357982 0.471877 0.734022
O O11 0.225526 0.694181 0.793337
O O12 0.233465 0.911301 0.500000
#
# Coordination Sequence:
#
# PCOD9445437 Si02
#       5
#     8   8   8   8   8
#     4  12  25  46  72 112 147 192 250 316 370 439
#     4  10  24  46  71 104 151 199 246 305 371 447
#     4  12  24  44  69 109 145 195 247 303 369 443
#     4  11  25  49  75 109 154 198 248 312 381 446
#     4  12  23  42  73 105 144 196 254 306 370 435
#
# _framework density 22.642893999999998
#
# number of rings (size 3 to 8) (size 9 to 14) (size 15 to 20)
#    0.000    0.600    6.000    0.600    0.000    7.600 
#    0.000    2.000    0.000    6.600    0.000    0.000 
#    0.000    0.000    0.000    0.000    0.000    0.000 
#
# Total GULP energy -223533.560122 kJ/mol
# GULP energy per Si atom -5588.339003 kJ/mol
# Density = 2.259136 g / cm^3
# Si number density = 22.642894 Si / 1000 Ang^3
#
#
#
# Elastic Constant Matrix: (Units=GPa)
#
#
# Indices 1 2 3 4 5 6 
#
# 1 95.2458 36.3418 61.0363 0.0000 0.0000 0.0000
# 2 36.3418 118.0966 66.0383 0.0000 0.0000 0.0000
# 3 61.0363 66.0383 123.3459 0.0000 0.0000 0.0000
# 4 0.0000 0.0000 0.0000 33.9682 0.0000 0.0000
# 5 0.0000 0.0000 0.0000 0.0000 -3.1222 0.0000
# 6 0.0000 0.0000 0.0000 0.0000 0.0000 42.6222
#
#
#
# Elastic Compliance Matrix: (Units=1/GPa)
#
#
# Indices 1 2 3 4 5 6 
#
# 1 0.015413 -0.000682 -0.007262 0.000000 0.000000 0.000000
# 2 -0.000682 0.012116 -0.006149 0.000000 0.000000 0.000000
# 3 -0.007262 -0.006149 0.014993 0.000000 0.000000 0.000000
# 4 0.000000 0.000000 0.000000 0.029439 0.000000 0.000000
# 5 0.000000 0.000000 0.000000 0.000000 -0.320286 0.000000
# 6 0.000000 0.000000 0.000000 0.000000 0.000000 0.023462
#
#
# Mechanical properties :
#
#
# Convention : Reuss Voigt Hill
#
# Bulk Modulus (GPa) = 69.75658 73.72458 71.74058
# Shear Modulus (GPa) = -26.05557 26.24509 0.09476
#
# Velocity S-wave (km/s) = -3.39590 3.40823 0.20479
# Velocity P-wave (km/s) = 3.93674 6.93674 5.63987
#
# Compressibility (1/GPa) = 0.01433557
#
# Stress axis : x y z
#
# Youngs Moduli (GPa) = 64.88049 82.53388 66.69863
#
# Poissons Ratio (x) = 0.05633 0.48434
# Poissons Ratio (y) = 0.04428 0.41014
# Poissons Ratio (z) = 0.47113 0.50752
#
# Static dielectric constant tensor:
#      x y z
#    x 1.901500 0.000000 0.000000 
#    y 0.000000 1.830230 0.000000 
#    z 0.000000 0.000000 1.828150 
# 
# From -- ./inp_files/25938.got.cif
#   From: 2010.05.17/outbox.cif.g08.bks.cpg/sg58_13_cif.got.tgz:25938.got - 2010.06.03 14:20:14.
