data_PCOD9445353
_publ_section_title
;
Structure prediction by ZEFSAII (Michael W. Deem and Ramdas Pophale) SiO2 
 PCOD9445353
Probable space group: P N N M
;
_chemical_formula_sum "Si O2"
_cell_formula_units_Z 36
_cell_length_a 19.925209
_cell_length_b 9.580214
_cell_length_c 8.361157
_cell_angle_alpha 90.000000
_cell_angle_beta 90.000000
_cell_angle_gamma 90.000000
_cell_volume 1596.042583
_symmetry_space_group_name_H-M "P N N M"
_symmetry_group_IT_number 58
_symmetry_cell_setting 'orthorhombic'
loop_
_space_group_symop_operation_xyz
x,y,z
-x,-y,z
1/2+x,1/2-y,1/2-z
1/2-x,1/2+y,1/2-z
-x,-y,-z
x,y,-z
1/2-x,1/2+y,1/2+z
1/2+x,1/2-y,1/2+z
loop_
_atom_site_type_symbol
_atom_site_label
_atom_site_fract_x
_atom_site_fract_y
_atom_site_fract_z
Si Si1 0.000000 0.500000 0.757508
Si Si2 0.782079 0.521845 0.310506
Si Si3 0.869807 0.002209 0.688163
Si Si4 0.101713 0.293158 0.188394
Si Si5 0.619504 0.795600 0.320958
O O1 0.948442 0.618942 0.696919
O O2 0.944207 0.397556 0.831464
O O3 0.778605 0.544175 0.500000
O O4 0.708446 0.511274 0.237258
O O5 0.824818 0.645267 0.227568
O O6 0.823688 0.380447 0.274077
O O7 0.876041 0.980285 0.500000
O O8 0.899550 0.151047 0.738823
O O9 0.900735 0.870026 0.778242
O O10 0.086393 0.320552 0.000000
O O11 0.644413 0.767191 0.500000
#
# Coordination Sequence:
#
# PCOD9445353 Si02
#       5
#     4   8   8   8   8
#     4  10  23  44  69  90 117 160 211 252 303 370
#     4  11  22  40  64  94 127 164 202 249 307 368
#     4  12  25  41  60  92 128 163 204 255 309 362
#     4  11  22  41  66  93 123 163 206 252 302 364
#     4  11  22  41  66  93 123 163 206 252 302 364
#
# _framework density 22.555789999999998
#
# number of rings (size 3 to 8) (size 9 to 14) (size 15 to 20)
#    0.000    0.889    0.000   10.000    0.000    0.889 
#    0.000   23.333    0.000    0.000    0.000    0.000 
#    0.000    0.000    0.000    0.000    0.000    0.000 
#
# Total GULP energy -201062.575059 kJ/mol
# GULP energy per Si atom -5585.071529 kJ/mol
# Density = 2.250445 g / cm^3
# Si number density = 22.555790 Si / 1000 Ang^3
#
#
#
# Elastic Constant Matrix: (Units=GPa)
#
#
# Indices 1 2 3 4 5 6 
#
# 1 75.8243 32.8713 8.9424 0.0000 0.0000 0.0000
# 2 32.8713 165.1323 24.8366 0.0000 0.0000 0.0000
# 3 8.9424 24.8366 108.0272 0.0000 0.0000 0.0000
# 4 0.0000 0.0000 0.0000 31.1746 0.0000 0.0000
# 5 0.0000 0.0000 0.0000 0.0000 -8.5832 0.0000
# 6 0.0000 0.0000 0.0000 0.0000 0.0000 -9.6111
#
#
#
# Elastic Compliance Matrix: (Units=1/GPa)
#
#
# Indices 1 2 3 4 5 6 
#
# 1 0.014466 -0.002796 -0.000555 0.000000 0.000000 0.000000
# 2 -0.002796 0.006813 -0.001335 0.000000 0.000000 0.000000
# 3 -0.000555 -0.001335 0.009610 0.000000 0.000000 0.000000
# 4 0.000000 0.000000 0.000000 0.032077 0.000000 0.000000
# 5 0.000000 0.000000 0.000000 0.000000 -0.116506 0.000000
# 6 0.000000 0.000000 0.000000 0.000000 0.000000 -0.104047
#
#
# Mechanical properties :
#
#
# Convention : Reuss Voigt Hill
#
# Bulk Modulus (GPa) = 46.47403 53.58717 50.03060
# Shear Modulus (GPa) = -35.45025 21.41830 -7.01597
#
# Velocity S-wave (km/s) = -3.96873 3.08485 -1.76557
# Velocity P-wave (km/s) = 0.59357 6.04132 4.25119
#
# Compressibility (1/GPa) = 0.02151739
#
# Stress axis : x y z
#
# Youngs Moduli (GPa) = 69.12765 146.77515 104.06095
#
# Poissons Ratio (x) = 0.41041 0.05771
# Poissons Ratio (y) = 0.19329 0.13892
# Poissons Ratio (z) = 0.03834 0.19594
#
# Static dielectric constant tensor:
#      x y z
#    x 1.826770 0.000000 0.000000 
#    y 0.000000 1.831130 0.000000 
#    z 0.000000 0.000000 1.799750 
# 
# From -- ./inp_files/8654.got.cif
#   From: 2010.05.17/outbox.cif.g08.bks.cpg/sg58_5_cif.got.tgz:8654.got - 2010.06.03 14:20:14.
