data_PCOD9445605
_publ_section_title
;
Structure prediction by ZEFSAII (Michael W. Deem and Ramdas Pophale) SiO2 
 PCOD9445605
Probable space group: P N N M
;
_chemical_formula_sum "Si O2"
_cell_formula_units_Z 32
_cell_length_a 20.894487
_cell_length_b 10.168154
_cell_length_c 7.870429
_cell_angle_alpha 90.000000
_cell_angle_beta 90.000000
_cell_angle_gamma 90.000000
_cell_volume 1672.138450
_symmetry_space_group_name_H-M "P N N M"
_symmetry_group_IT_number 58
_symmetry_cell_setting 'orthorhombic'
loop_
_space_group_symop_operation_xyz
x,y,z
-x,-y,z
1/2+x,1/2-y,1/2-z
1/2-x,1/2+y,1/2-z
-x,-y,-z
x,y,-z
1/2-x,1/2+y,1/2+z
1/2+x,1/2-y,1/2+z
loop_
_atom_site_type_symbol
_atom_site_label
_atom_site_fract_x
_atom_site_fract_y
_atom_site_fract_z
Si Si1 0.940837 0.598000 0.807288
Si Si2 0.597918 0.586769 0.000000
Si Si3 0.215262 0.823843 0.306414
Si Si4 0.312913 0.037505 0.197591
Si Si5 0.542774 0.296249 0.000000
O O1 0.875607 0.515759 0.789384
O O2 0.940955 0.710980 0.665968
O O3 0.000000 0.500000 0.774008
O O4 0.946843 0.648772 0.000000
O O5 0.643196 0.624539 0.159425
O O6 0.580553 0.433684 0.000000
O O7 0.532557 0.668294 0.000000
O O8 0.242895 0.815232 0.500000
O O9 0.211899 0.677298 0.233662
O O10 0.258155 0.927832 0.209519
O O11 0.330216 0.060712 0.000000
#
# Coordination Sequence:
#
# PCOD9445605 Si02
#       5
#     8   4   8   8   4
#     4  11  24  39  64  97 128 169 223 270 318 391
#     4   9  22  42  64  94 127 173 210 276 321 390
#     4   9  22  39  58  88 127 163 217 256 325 382
#     4  11  22  38  62  91 126 172 211 269 324 382
#     4  11  21  42  72  90 131 172 218 265 335 381
#
# _framework density 19.137172
#
# number of rings (size 3 to 8) (size 9 to 14) (size 15 to 20)
#    0.750    1.000    1.250    2.625    3.500    2.000 
#    0.000    3.750    0.000    0.000    0.000    0.000 
#    0.000    0.000    0.000    0.000    0.000    0.000 
#
# Total GULP energy -178574.013550 kJ/mol
# GULP energy per Si atom -5580.437923 kJ/mol
# Density = 1.909362 g / cm^3
# Si number density = 19.137172 Si / 1000 Ang^3
#
#
#
# Elastic Constant Matrix: (Units=GPa)
#
#
# Indices 1 2 3 4 5 6 
#
# 1 99.9133 67.3981 2.1902 0.0000 0.0000 0.0000
# 2 67.3981 153.2835 42.2865 0.0000 0.0000 0.0000
# 3 2.1902 42.2865 64.0325 0.0000 0.0000 0.0000
# 4 0.0000 0.0000 0.0000 25.4355 0.0000 0.0000
# 5 0.0000 0.0000 0.0000 0.0000 43.9678 0.0000
# 6 0.0000 0.0000 0.0000 0.0000 0.0000 25.8614
#
#
#
# Elastic Compliance Matrix: (Units=1/GPa)
#
#
# Indices 1 2 3 4 5 6 
#
# 1 0.015351 -0.008076 0.004809 0.000000 0.000000 0.000000
# 2 -0.008076 0.012226 -0.007798 0.000000 0.000000 0.000000
# 3 0.004809 -0.007798 0.020602 0.000000 0.000000 0.000000
# 4 0.000000 0.000000 0.000000 0.039315 0.000000 0.000000
# 5 0.000000 0.000000 0.000000 0.000000 0.022744 0.000000
# 6 0.000000 0.000000 0.000000 0.000000 0.000000 0.038668
#
#
# Mechanical properties :
#
#
# Convention : Reuss Voigt Hill
#
# Bulk Modulus (GPa) = 38.39020 60.10876 49.24948
# Shear Modulus (GPa) = 27.82090 32.74323 30.28207
#
# Velocity S-wave (km/s) = 3.81696 4.14088 3.98222
# Velocity P-wave (km/s) = 6.28726 7.37158 6.85091
#
# Compressibility (1/GPa) = 0.02604832
#
# Stress axis : x y z
#
# Youngs Moduli (GPa) = 65.14067 81.79116 48.53838
#
# Poissons Ratio (x) = 0.66058 -0.23340
# Poissons Ratio (y) = 0.52611 0.37850
# Poissons Ratio (z) = -0.31323 0.63780
#
# Static dielectric constant tensor:
#      x y z
#    x 1.646200 0.000000 0.000000 
#    y 0.000000 1.656040 0.000000 
#    z 0.000000 0.000000 1.677320 
# 
# From -- ./inp_files/2197.got.cif
#   From: 2010.05.17/outbox.cif.g08.bks.cpg/sg58_2_cif.got.tgz:2197.got - 2010.06.03 14:20:14.
