data_PCOD9445920
_publ_section_title
;
Structure prediction by ZEFSAII (Michael W. Deem and Ramdas Pophale) SiO2 
 PCOD9445920
Probable space group: P N N M
;
_chemical_formula_sum "Si O2"
_cell_formula_units_Z 48
_cell_length_a 18.000000
_cell_length_b 9.000000
_cell_length_c 15.000000
_cell_angle_alpha 90.000000
_cell_angle_beta 90.000000
_cell_angle_gamma 90.000000
_cell_volume 2430.000000
_symmetry_space_group_name_H-M "P N N M"
_symmetry_group_IT_number 58
_symmetry_cell_setting 'orthorhombic'
loop_
_space_group_symop_operation_xyz
x,y,z
-x,-y,z
1/2+x,1/2-y,1/2-z
1/2-x,1/2+y,1/2-z
-x,-y,-z
x,y,-z
1/2-x,1/2+y,1/2+z
1/2+x,1/2-y,1/2+z
loop_
_atom_site_type_symbol
_atom_site_label
_atom_site_fract_x
_atom_site_fract_y
_atom_site_fract_z
Si Si1 0.843207 0.655502 0.298280
Si Si2 0.957162 0.847325 0.000000
Si Si3 0.327044 0.783612 0.000000
Si Si4 0.709825 0.466325 0.500000
Si Si5 0.578151 0.596361 0.206933
Si Si6 0.589161 0.533235 0.000000
Si Si7 0.777553 0.930496 0.790684
Si Si8 0.509412 0.174455 0.683578
O O1 0.857561 0.659151 0.404570
O O2 0.786815 0.785079 0.268829
O O3 0.799317 0.510668 0.267810
O O4 0.917587 0.686044 0.244878
O O5 0.976843 0.757125 0.089771
O O6 0.874026 0.909150 0.000000
O O7 0.000000 0.000000 0.000000
O O8 0.354441 0.610127 0.000000
O O9 0.243717 0.862561 0.000000
O O10 0.730202 0.410619 0.601303
O O11 0.500000 0.500000 0.212156
O O12 0.598690 0.606577 0.100148
O O13 0.647557 0.522927 0.261315
O O14 0.555542 0.747190 0.258546
O O15 0.500000 0.500000 0.000000
O O16 0.500000 0.000000 0.667052
#
# Coordination Sequence:
#
# PCOD9445920 Si02
#       8
#     8   4   4   4   8   4   8   8
#     4  11  23  42  63  92 133 170 220 273 334 400
#     4  12  23  45  72  98 127 174 230 278 336 416
#     4  10  20  38  65  98 128 167 223 276 321 391
#     4  10  20  37  63  94 127 168 214 269 330 396
#     4  11  20  40  66  93 126 173 222 268 330 393
#     4  10  18  34  66  98 126 166 223 271 316 392
#     4  11  22  39  65  92 127 173 217 269 333 401
#     4  12  26  43  65  98 137 174 219 283 335 399
#
# _framework density 19.753086
#
# number of rings (size 3 to 8) (size 9 to 14) (size 15 to 20)
#    0.000    1.000    5.000    2.750    2.333    0.000 
#    0.000    5.000    0.000    0.000    0.000    0.000 
#    0.000    0.000    0.000    0.000    0.000    0.000 
#
# Total GULP energy -267209.615813 kJ/mol
# GULP energy per Si atom -5566.866996 kJ/mol
# Density = 1.970813 g / cm^3
# Si number density = 19.753086 Si / 1000 Ang^3
#
#
#
# Elastic Constant Matrix: (Units=GPa)
#
#
# Indices 1 2 3 4 5 6 
#
# 1 27.1788 24.5190 26.0733 0.0000 0.0000 0.0000
# 2 24.5190 96.0972 35.0880 0.0000 0.0000 0.0000
# 3 26.0733 35.0880 166.3307 0.0000 0.0000 0.0000
# 4 0.0000 0.0000 0.0000 20.3761 0.0000 0.0000
# 5 0.0000 0.0000 0.0000 0.0000 10.0619 0.0000
# 6 0.0000 0.0000 0.0000 0.0000 0.0000 41.6497
#
#
#
# Elastic Compliance Matrix: (Units=1/GPa)
#
#
# Indices 1 2 3 4 5 6 
#
# 1 0.052594 -0.011278 -0.005865 0.000000 0.000000 0.000000
# 2 -0.011278 0.013693 -0.001121 0.000000 0.000000 0.000000
# 3 -0.005865 -0.001121 0.007168 0.000000 0.000000 0.000000
# 4 0.000000 0.000000 0.000000 0.049077 0.000000 0.000000
# 5 0.000000 0.000000 0.000000 0.000000 0.099385 0.000000
# 6 0.000000 0.000000 0.000000 0.000000 0.000000 0.024010
#
#
# Mechanical properties :
#
#
# Convention : Reuss Voigt Hill
#
# Bulk Modulus (GPa) = 27.08010 51.21858 39.14934
# Shear Modulus (GPa) = 16.96273 28.01263 22.48768
#
# Velocity S-wave (km/s) = 2.93360 3.76990 3.37774
# Velocity P-wave (km/s) = 5.02133 6.70338 5.92237
#
# Compressibility (1/GPa) = 0.03692749
#
# Stress axis : x y z
#
# Youngs Moduli (GPa) = 19.01348 73.03102 139.50959
#
# Poissons Ratio (x) = 0.82362 0.81828
# Poissons Ratio (y) = 0.21443 0.15635
# Poissons Ratio (z) = 0.11152 0.08185
#
# Static dielectric constant tensor:
#      x y z
#    x 1.667800 0.000000 0.000000 
#    y 0.000000 1.757010 0.000000 
#    z 0.000000 0.000000 1.689880 
# 
# From -- ./inp_files/22791.got.cif
#   From: 2010.05.17/outbox.ucp.g08.bks.cvg/sg58_12_cif.got.tgz:22791.got - 2010.06.11 16:41:41.
