data_PCOD9445230
_publ_section_title
;
Structure prediction by ZEFSAII (Michael W. Deem and Ramdas Pophale) SiO2 
 PCOD9445230
Probable space group: P N N M
;
_chemical_formula_sum "Si O2"
_cell_formula_units_Z 32
_cell_length_a 9.527565
_cell_length_b 7.912425
_cell_length_c 17.743198
_cell_angle_alpha 90.000000
_cell_angle_beta 90.000000
_cell_angle_gamma 90.000000
_cell_volume 1337.591270
_symmetry_space_group_name_H-M "P N N M"
_symmetry_group_IT_number 58
_symmetry_cell_setting 'orthorhombic'
loop_
_space_group_symop_operation_xyz
x,y,z
-x,-y,z
1/2+x,1/2-y,1/2-z
1/2-x,1/2+y,1/2-z
-x,-y,-z
x,y,-z
1/2-x,1/2+y,1/2+z
1/2+x,1/2-y,1/2+z
loop_
_atom_site_type_symbol
_atom_site_label
_atom_site_fract_x
_atom_site_fract_y
_atom_site_fract_z
Si Si1 0.338070 0.323332 0.357197
Si Si2 0.649620 0.971116 0.235821
Si Si3 0.341689 0.810402 0.000000
Si Si4 0.602483 0.158263 0.612642
Si Si5 0.668098 0.779428 0.000000
O O1 0.272798 0.491858 0.321942
O O2 0.235787 0.256649 0.423095
O O3 0.493320 0.312615 0.390573
O O4 0.341702 0.197425 0.285104
O O5 0.642606 0.109547 0.302519
O O6 0.500000 0.000000 0.194426
O O7 0.501826 0.747935 0.000000
O O8 0.325195 0.015755 0.000000
O O9 0.743341 0.198250 0.568260
O O10 0.500000 0.000000 0.587570
#
# Coordination Sequence:
#
# PCOD9445230 Si02
#       5
#     8   8   4   8   4
#     4  10  22  44  68  98 132 175 221 268 331 400
#     4   9  22  41  67  97 136 168 218 273 329 389
#     4  11  27  40  65  96 138 173 222 282 329 400
#     4   9  21  43  67  96 130 177 219 280 332 405
#     4  11  24  42  66  94 139 178 218 280 342 384
#
# _framework density 23.923601000000001
#
# number of rings (size 3 to 8) (size 9 to 14) (size 15 to 20)
#    0.000    2.750    0.000    1.125    7.000    7.000 
#    4.500   20.625    0.000    0.000    0.000    0.000 
#    0.000    0.000    0.000    0.000    0.000    0.000 
#
# Total GULP energy -178630.605147 kJ/mol
# GULP energy per Si atom -5582.206411 kJ/mol
# Density = 2.386915 g / cm^3
# Si number density = 23.923601 Si / 1000 Ang^3
#
#
#
# Elastic Constant Matrix: (Units=GPa)
#
#
# Indices 1 2 3 4 5 6 
#
# 1 186.6253 28.8188 53.3701 0.0000 0.0000 0.0000
# 2 28.8188 66.9608 4.4133 0.0000 0.0000 0.0000
# 3 53.3701 4.4133 53.3577 0.0000 0.0000 0.0000
# 4 0.0000 0.0000 0.0000 -56.9764 0.0000 0.0000
# 5 0.0000 0.0000 0.0000 0.0000 22.2204 0.0000
# 6 0.0000 0.0000 0.0000 0.0000 0.0000 43.1810
#
#
#
# Elastic Compliance Matrix: (Units=1/GPa)
#
#
# Indices 1 2 3 4 5 6 
#
# 1 0.008045 -0.002948 -0.007803 0.000000 0.000000 0.000000
# 2 -0.002948 0.016096 0.001618 0.000000 0.000000 0.000000
# 3 -0.007803 0.001618 0.026413 0.000000 0.000000 0.000000
# 4 0.000000 0.000000 0.000000 -0.017551 0.000000 0.000000
# 5 0.000000 0.000000 0.000000 0.000000 0.045004 0.000000
# 6 0.000000 0.000000 0.000000 0.000000 0.000000 0.023158
#
#
# Mechanical properties :
#
#
# Convention : Reuss Voigt Hill
#
# Bulk Modulus (GPa) = 30.97273 53.34981 42.16127
# Shear Modulus (GPa) = 38.40404 16.37443 27.38924
#
# Velocity S-wave (km/s) = 4.01094 2.61903 3.38725
# Velocity P-wave (km/s) = 5.86727 5.61197 5.74104
#
# Compressibility (1/GPa) = 0.03228646
#
# Stress axis : x y z
#
# Youngs Moduli (GPa) = 124.29952 62.12584 37.86073
#
# Poissons Ratio (x) = 0.18316 0.29543
# Poissons Ratio (y) = 0.36646 -0.06124
# Poissons Ratio (z) = 0.96992 -0.10049
#
# Static dielectric constant tensor:
#      x y z
#    x 1.914270 0.000000 0.000000 
#    y 0.000000 2.052700 0.000000 
#    z 0.000000 0.000000 1.902930 
# 
# From -- ./inp_files/28492.got.cif
#   From: 2010.05.17/outbox.cif.g08.bks.cpg/sg58_15_cif.got.tgz:28492.got - 2010.06.03 14:20:14.
