data_PCOD9445300
_publ_section_title
;
Structure prediction by ZEFSAII (Michael W. Deem and Ramdas Pophale) SiO2 
 PCOD9445300
Probable space group: P N N M
;
_chemical_formula_sum "Si O2"
_cell_formula_units_Z 32
_cell_length_a 10.037786
_cell_length_b 17.416102
_cell_length_c 8.466757
_cell_angle_alpha 90.000000
_cell_angle_beta 90.000000
_cell_angle_gamma 90.000000
_cell_volume 1480.150880
_symmetry_space_group_name_H-M "P N N M"
_symmetry_group_IT_number 58
_symmetry_cell_setting 'orthorhombic'
loop_
_space_group_symop_operation_xyz
x,y,z
-x,-y,z
1/2+x,1/2-y,1/2-z
1/2-x,1/2+y,1/2-z
-x,-y,-z
x,y,-z
1/2-x,1/2+y,1/2+z
1/2+x,1/2-y,1/2+z
loop_
_atom_site_type_symbol
_atom_site_label
_atom_site_fract_x
_atom_site_fract_y
_atom_site_fract_z
Si Si1 0.203668 0.073078 0.190163
Si Si2 0.278790 0.408701 0.816863
Si Si3 0.501479 0.871209 0.185602
Si Si4 0.510317 0.701786 0.313972
O O1 0.355120 0.095083 0.231386
O O2 0.105605 0.142303 0.234467
O O3 0.168687 0.992307 0.268200
O O4 0.195013 0.064176 0.000000
O O5 0.352666 0.343269 0.716817
O O6 0.122173 0.405940 0.779454
O O7 0.303394 0.393477 0.000000
O O8 0.504681 0.780359 0.218469
O O9 0.481176 0.886744 0.000000
O O10 0.494568 0.719014 0.500000
#
# Coordination Sequence:
#
# PCOD9445300 Si02
#       4
#     8   8   8   8
#     4  10  23  42  63  89 121 159 203 254 311 364
#     4  12  25  40  61  91 125 163 207 250 299 364
#     4  11  23  41  65  92 124 160 202 254 310 366
#     4  11  23  41  65  92 124 160 202 254 310 366
#
# _framework density 21.619418
#
# number of rings (size 3 to 8) (size 9 to 14) (size 15 to 20)
#    0.000    1.000    0.000    6.750    0.000   12.000 
#    0.000    0.000    0.000    0.000    0.000    0.000 
#    0.000    0.000    0.000    0.000    0.000    0.000 
#
# Total GULP energy -179242.081073 kJ/mol
# GULP energy per Si atom -5601.315034 kJ/mol
# Density = 2.157021 g / cm^3
# Si number density = 21.619418 Si / 1000 Ang^3
#
#
#
# Elastic Constant Matrix: (Units=GPa)
#
#
# Indices 1 2 3 4 5 6 
#
# 1 60.1930 -11.8540 7.0233 0.0000 0.0000 0.0000
# 2 -11.8540 75.3930 6.0644 0.0000 0.0000 0.0000
# 3 7.0233 6.0644 12.8954 0.0000 0.0000 0.0000
# 4 0.0000 0.0000 0.0000 27.5647 0.0000 0.0000
# 5 0.0000 0.0000 0.0000 0.0000 48.3850 0.0000
# 6 0.0000 0.0000 0.0000 0.0000 0.0000 30.9040
#
#
#
# Elastic Compliance Matrix: (Units=1/GPa)
#
#
# Indices 1 2 3 4 5 6 
#
# 1 0.018797 0.003927 -0.012084 0.000000 0.000000 0.000000
# 2 0.003927 0.014606 -0.009008 0.000000 0.000000 0.000000
# 3 -0.012084 -0.009008 0.088365 0.000000 0.000000 0.000000
# 4 0.000000 0.000000 0.000000 0.036278 0.000000 0.000000
# 5 0.000000 0.000000 0.000000 0.000000 0.020668 0.000000
# 6 0.000000 0.000000 0.000000 0.000000 0.000000 0.032358
#
#
# Mechanical properties :
#
#
# Convention : Reuss Voigt Hill
#
# Bulk Modulus (GPa) = 11.43668 16.77208 14.10438
# Shear Modulus (GPa) = 18.21184 31.18725 24.69955
#
# Velocity S-wave (km/s) = 2.90553 3.80222 3.38371
# Velocity P-wave (km/s) = 4.06911 5.20102 4.66949
#
# Compressibility (1/GPa) = 0.08743797
#
# Stress axis : x y z
#
# Youngs Moduli (GPa) = 53.20101 68.46549 11.31674
#
# Poissons Ratio (x) = -0.26889 0.13675
# Poissons Ratio (y) = -0.20894 0.10194
# Poissons Ratio (z) = 0.64289 0.61672
#
# Static dielectric constant tensor:
#      x y z
#    x 1.781300 0.000000 0.000000 
#    y 0.000000 1.743910 0.000000 
#    z 0.000000 0.000000 1.714940 
# 
# From -- ./inp_files/2174.got.cif
#   From: 2010.05.17/outbox.cif.g08.bks.cpg/sg58_2_cif.got.tgz:2174.got - 2010.06.03 14:20:14.
