data_PCOD9445132
_publ_section_title
;
Structure prediction by ZEFSAII (Michael W. Deem and Ramdas Pophale) SiO2 
 PCOD9445132
Probable space group: P N N M
;
_chemical_formula_sum "Si O2"
_cell_formula_units_Z 32
_cell_length_a 18.235387
_cell_length_b 10.665082
_cell_length_c 7.801819
_cell_angle_alpha 90.000000
_cell_angle_beta 90.000000
_cell_angle_gamma 90.000000
_cell_volume 1517.312564
_symmetry_space_group_name_H-M "P N N M"
_symmetry_group_IT_number 58
_symmetry_cell_setting 'orthorhombic'
loop_
_space_group_symop_operation_xyz
x,y,z
-x,-y,z
1/2+x,1/2-y,1/2-z
1/2-x,1/2+y,1/2-z
-x,-y,-z
x,y,-z
1/2-x,1/2+y,1/2+z
1/2+x,1/2-y,1/2+z
loop_
_atom_site_type_symbol
_atom_site_label
_atom_site_fract_x
_atom_site_fract_y
_atom_site_fract_z
Si Si1 0.978769 0.145286 0.305238
Si Si2 0.276403 0.127813 0.196230
Si Si3 0.618534 0.956710 0.500000
Si Si4 0.188853 0.895861 0.295649
Si Si5 0.467299 0.801036 0.500000
O O1 0.985096 0.194575 0.500000
O O2 0.893404 0.147315 0.251131
O O3 0.028125 0.217669 0.169879
O O4 0.000000 0.000000 0.307565
O O5 0.335494 0.078925 0.332327
O O6 0.212117 0.025207 0.208525
O O7 0.260841 0.273741 0.241121
O O8 0.303846 0.129737 0.000000
O O9 0.599659 0.103393 0.500000
O O10 0.542333 0.882021 0.500000
O O11 0.190337 0.919906 0.500000
#
# Coordination Sequence:
#
# PCOD9445132 Si02
#       5
#     8   8   4   8   4
#     4  10  22  41  64  93 129 168 211 260 314 378
#     4  11  24  41  65  92 127 167 208 265 323 376
#     4  11  24  42  62  96 123 164 213 259 315 378
#     4  10  22  41  64  94 127 165 213 259 313 380
#     4  11  23  40  68  88 129 169 207 262 309 382
#
# _framework density 21.089918999999998
#
# number of rings (size 3 to 8) (size 9 to 14) (size 15 to 20)
#    0.000    1.500    3.750    0.375    3.500    3.000 
#    0.000    5.000    0.000    0.000    0.000    0.000 
#    0.000    0.000    0.000    0.000    0.000    0.000 
#
# Total GULP energy -178779.237256 kJ/mol
# GULP energy per Si atom -5586.851164 kJ/mol
# Density = 2.104192 g / cm^3
# Si number density = 21.089919 Si / 1000 Ang^3
#
#
#
# Elastic Constant Matrix: (Units=GPa)
#
#
# Indices 1 2 3 4 5 6 
#
# 1 17.1110 10.4400 11.0005 0.0000 0.0000 0.0000
# 2 10.4400 98.0366 21.8631 0.0000 0.0000 0.0000
# 3 11.0005 21.8631 80.9944 0.0000 0.0000 0.0000
# 4 0.0000 0.0000 0.0000 64.5374 0.0000 0.0000
# 5 0.0000 0.0000 0.0000 0.0000 7.7537 0.0000
# 6 0.0000 0.0000 0.0000 0.0000 0.0000 42.7921
#
#
#
# Elastic Compliance Matrix: (Units=1/GPa)
#
#
# Indices 1 2 3 4 5 6 
#
# 1 0.066617 -0.005401 -0.007590 0.000000 0.000000 0.000000
# 2 -0.005401 0.011292 -0.002314 0.000000 0.000000 0.000000
# 3 -0.007590 -0.002314 0.014002 0.000000 0.000000 0.000000
# 4 0.000000 0.000000 0.000000 0.015495 0.000000 0.000000
# 5 0.000000 0.000000 0.000000 0.000000 0.128970 0.000000
# 6 0.000000 0.000000 0.000000 0.000000 0.000000 0.023369
#
#
# Mechanical properties :
#
#
# Convention : Reuss Voigt Hill
#
# Bulk Modulus (GPa) = 16.31336 31.41655 23.86496
# Shear Modulus (GPa) = 16.08810 33.20589 24.64700
#
# Velocity S-wave (km/s) = 2.76494 3.97229 3.42228
# Velocity P-wave (km/s) = 4.23617 5.99730 5.19195
#
# Compressibility (1/GPa) = 0.06129946
#
# Stress axis : x y z
#
# Youngs Moduli (GPa) = 15.01120 88.56143 71.41796
#
# Poissons Ratio (x) = 0.47836 0.54204
# Poissons Ratio (y) = 0.08108 0.16529
# Poissons Ratio (z) = 0.11393 0.20496
#
# Static dielectric constant tensor:
#      x y z
#    x 1.793790 0.000000 0.000000 
#    y 0.000000 1.781860 0.000000 
#    z 0.000000 0.000000 1.734730 
# 
# From -- ./inp_files/2202.got.cif
#   From: 2010.05.17/outbox.cif.g08.bks.cpg/sg58_2_cif.got.tgz:2202.got - 2010.06.03 14:20:14.
