data_PCOD9445546
_publ_section_title
;
Structure prediction by ZEFSAII (Michael W. Deem and Ramdas Pophale) SiO2 
 PCOD9445546
Probable space group: P N N M
;
_chemical_formula_sum "Si O2"
_cell_formula_units_Z 32
_cell_length_a 7.607516
_cell_length_b 14.420637
_cell_length_c 12.031484
_cell_angle_alpha 90.000000
_cell_angle_beta 90.000000
_cell_angle_gamma 90.000000
_cell_volume 1319.916680
_symmetry_space_group_name_H-M "P N N M"
_symmetry_group_IT_number 58
_symmetry_cell_setting 'orthorhombic'
loop_
_space_group_symop_operation_xyz
x,y,z
-x,-y,z
1/2+x,1/2-y,1/2-z
1/2-x,1/2+y,1/2-z
-x,-y,-z
x,y,-z
1/2-x,1/2+y,1/2+z
1/2+x,1/2-y,1/2+z
loop_
_atom_site_type_symbol
_atom_site_label
_atom_site_fract_x
_atom_site_fract_y
_atom_site_fract_z
Si Si1 0.639074 0.648189 0.500000
Si Si2 0.687458 0.139119 0.632515
Si Si3 0.739854 0.433755 0.500000
Si Si4 0.313710 0.221475 0.702165
Si Si5 0.192402 0.039885 0.235450
O O1 0.698951 0.543294 0.500000
O O2 0.426266 0.637388 0.500000
O O3 0.708239 0.701928 0.606803
O O4 0.699001 0.133068 0.500000
O O5 0.494797 0.171213 0.671292
O O6 0.806799 0.220528 0.684427
O O7 0.727896 0.040239 0.688815
O O8 0.807099 0.429463 0.373127
O O9 0.174516 0.137594 0.702119
O O10 0.000000 0.000000 0.201169
#
# Coordination Sequence:
#
# PCOD9445546 Si02
#       5
#     4   8   4   8   8
#     4  11  20  44  75  99 139 202 243 298 378 432
#     4  12  27  49  72 108 151 200 246 317 385 447
#     4  11  20  46  78  98 142 201 251 300 373 427
#     4  12  26  46  76 109 146 201 257 306 381 449
#     4  12  25  46  74 109 151 198 251 314 377 455
#
# _framework density 24.243956000000001
#
# number of rings (size 3 to 8) (size 9 to 14) (size 15 to 20)
#    0.000    0.250    6.250    3.750    3.500    1.500 
#    9.000    1.250    0.000    0.000    0.000    0.000 
#    0.000    0.000    0.000    0.000    0.000    0.000 
#
# Total GULP energy -178851.669791 kJ/mol
# GULP energy per Si atom -5589.114681 kJ/mol
# Density = 2.418878 g / cm^3
# Si number density = 24.243956 Si / 1000 Ang^3
#
#
#
# Elastic Constant Matrix: (Units=GPa)
#
#
# Indices 1 2 3 4 5 6 
#
# 1 29.0062 29.1734 31.5732 0.0000 0.0000 0.0000
# 2 29.1734 183.3191 69.3498 0.0000 0.0000 0.0000
# 3 31.5732 69.3498 185.3813 0.0000 0.0000 0.0000
# 4 0.0000 0.0000 0.0000 41.6168 0.0000 0.0000
# 5 0.0000 0.0000 0.0000 0.0000 25.4033 0.0000
# 6 0.0000 0.0000 0.0000 0.0000 0.0000 42.5088
#
#
#
# Elastic Compliance Matrix: (Units=1/GPa)
#
#
# Indices 1 2 3 4 5 6 
#
# 1 0.046055 -0.005081 -0.005943 0.000000 0.000000 0.000000
# 2 -0.005081 0.006915 -0.001721 0.000000 0.000000 0.000000
# 3 -0.005943 -0.001721 0.007050 0.000000 0.000000 0.000000
# 4 0.000000 0.000000 0.000000 0.024029 0.000000 0.000000
# 5 0.000000 0.000000 0.000000 0.000000 0.039365 0.000000
# 6 0.000000 0.000000 0.000000 0.000000 0.000000 0.023525
#
#
# Mechanical properties :
#
#
# Convention : Reuss Voigt Hill
#
# Bulk Modulus (GPa) = 28.96105 73.09994 51.03049
# Shear Modulus (GPa) = 27.18300 39.74646 33.46473
#
# Velocity S-wave (km/s) = 3.35211 4.05339 3.71931
# Velocity P-wave (km/s) = 5.19170 7.21969 6.28799
#
# Compressibility (1/GPa) = 0.03452914
#
# Stress axis : x y z
#
# Youngs Moduli (GPa) = 21.71333 144.61837 141.83497
#
# Poissons Ratio (x) = 0.73479 0.84294
# Poissons Ratio (y) = 0.11032 0.24416
# Poissons Ratio (z) = 0.12904 0.24895
#
# Static dielectric constant tensor:
#      x y z
#    x 2.035080 0.000000 0.000000 
#    y 0.000000 1.882020 0.000000 
#    z 0.000000 0.000000 1.988840 
# 
# From -- ./inp_files/12366.got.cif
#   From: 2010.05.17/outbox.cif.g08.bks.cpg/sg58_7_cif.got.tgz:12366.got - 2010.06.03 14:20:14.
