data_PCOD9445818
_publ_section_title
;
Structure prediction by ZEFSAII (Michael W. Deem and Ramdas Pophale) SiO2 
 PCOD9445818
Probable space group: P N N M
;
_chemical_formula_sum "Si O2"
_cell_formula_units_Z 44
_cell_length_a 12.282927
_cell_length_b 8.304275
_cell_length_c 16.568509
_cell_angle_alpha 90.000000
_cell_angle_beta 90.000000
_cell_angle_gamma 90.000000
_cell_volume 1690.001233
_symmetry_space_group_name_H-M "P N N M"
_symmetry_group_IT_number 58
_symmetry_cell_setting 'orthorhombic'
loop_
_space_group_symop_operation_xyz
x,y,z
-x,-y,z
1/2+x,1/2-y,1/2-z
1/2-x,1/2+y,1/2-z
-x,-y,-z
x,y,-z
1/2-x,1/2+y,1/2+z
1/2+x,1/2-y,1/2+z
loop_
_atom_site_type_symbol
_atom_site_label
_atom_site_fract_x
_atom_site_fract_y
_atom_site_fract_z
Si Si1 0.914932 0.234288 0.905403
Si Si2 0.468518 0.754840 0.850975
Si Si3 0.856211 0.856613 0.094441
Si Si4 0.841480 0.453202 0.691580
Si Si5 0.726469 0.464478 0.845375
Si Si6 0.619380 0.629846 0.000000
O O1 0.818358 0.332233 0.865974
O O2 0.041318 0.250976 0.879456
O O3 0.889390 0.044457 0.899810
O O4 0.915606 0.276376 0.000000
O O5 0.559296 0.830084 0.791708
O O6 0.388140 0.617407 0.819376
O O7 0.390529 0.909098 0.866538
O O8 0.531652 0.693688 0.929668
O O9 0.748350 0.850036 0.145936
O O10 0.831019 0.825836 0.000000
O O11 0.782740 0.538923 0.766328
O O12 0.696440 0.553253 0.927810
#
# Coordination Sequence:
#
# PCOD9445818 Si02
#       6
#     8   8   8   8   8   4
#     4   9  18  37  69 102 146 187 263 316 380 479
#     4  11  27  49  71 112 151 206 266 333 392 495
#     4   9  19  38  67 106 142 207 252 322 395 461
#     4  11  27  43  75 109 158 202 262 337 395 475
#     4  12  24  46  76 113 153 208 262 334 407 480
#     4  12  29  51  84 109 155 216 277 325 416 485
#
# _framework density 26.035485999999999
#
# number of rings (size 3 to 8) (size 9 to 14) (size 15 to 20)
#    0.000    1.455    2.727    2.727    7.636    0.727 
#    3.273    0.000    0.000    3.273    0.000    0.000 
#    0.000    0.000    0.000    0.000    0.000    0.000 
#
# Total GULP energy -245214.975198 kJ/mol
# GULP energy per Si atom -5573.067618 kJ/mol
# Density = 2.597623 g / cm^3
# Si number density = 26.035486 Si / 1000 Ang^3
#
#
#
# Elastic Constant Matrix: (Units=GPa)
#
#
# Indices 1 2 3 4 5 6 
#
# 1 175.9973 59.7884 87.1225 0.0000 0.0000 0.0000
# 2 59.7884 68.1266 44.3148 0.0000 0.0000 0.0000
# 3 87.1225 44.3148 111.6877 0.0000 0.0000 0.0000
# 4 0.0000 0.0000 0.0000 33.6760 0.0000 0.0000
# 5 0.0000 0.0000 0.0000 0.0000 56.1633 0.0000
# 6 0.0000 0.0000 0.0000 0.0000 0.0000 53.6016
#
#
#
# Elastic Compliance Matrix: (Units=1/GPa)
#
#
# Indices 1 2 3 4 5 6 
#
# 1 0.010476 -0.005228 -0.006098 0.000000 0.000000 0.000000
# 2 -0.005228 0.022393 -0.004807 0.000000 0.000000 0.000000
# 3 -0.006098 -0.004807 0.015618 0.000000 0.000000 0.000000
# 4 0.000000 0.000000 0.000000 0.029695 0.000000 0.000000
# 5 0.000000 0.000000 0.000000 0.000000 0.017805 0.000000
# 6 0.000000 0.000000 0.000000 0.000000 0.000000 0.018656
#
#
# Mechanical properties :
#
#
# Convention : Reuss Voigt Hill
#
# Bulk Modulus (GPa) = 61.64577 82.02921 71.83749
# Shear Modulus (GPa) = 32.82635 39.66058 36.24346
#
# Velocity S-wave (km/s) = 3.55467 3.90722 3.73511
# Velocity P-wave (km/s) = 6.36997 7.20626 6.80099
#
# Compressibility (1/GPa) = 0.01622171
#
# Stress axis : x y z
#
# Youngs Moduli (GPa) = 95.45252 44.65611 64.02975
#
# Poissons Ratio (x) = 0.23344 0.39045
# Poissons Ratio (y) = 0.49898 0.30781
# Poissons Ratio (z) = 0.58207 0.21468
#
# Static dielectric constant tensor:
#      x y z
#    x 2.097870 0.000000 0.000000 
#    y 0.000000 2.182090 0.000000 
#    z 0.000000 0.000000 2.090250 
# 
# From -- ./inp_files/21059.got.cif
#   From: 2010.05.17/outbox.cif.g08.bks.cpg/sg58_11_cif.got.tgz:21059.got - 2010.06.03 14:20:14.
