data_PCOD9445279
_publ_section_title
;
Structure prediction by ZEFSAII (Michael W. Deem and Ramdas Pophale) SiO2 
 PCOD9445279
Probable space group: P N N M
;
_chemical_formula_sum "Si O2"
_cell_formula_units_Z 30
_cell_length_a 32.448434
_cell_length_b 4.769813
_cell_length_c 7.163078
_cell_angle_alpha 90.000000
_cell_angle_beta 90.000000
_cell_angle_gamma 90.000000
_cell_volume 1108.650801
_symmetry_space_group_name_H-M "P N N M"
_symmetry_group_IT_number 58
_symmetry_cell_setting 'orthorhombic'
loop_
_space_group_symop_operation_xyz
x,y,z
-x,-y,z
1/2+x,1/2-y,1/2-z
1/2-x,1/2+y,1/2-z
-x,-y,-z
x,y,-z
1/2-x,1/2+y,1/2+z
1/2+x,1/2-y,1/2+z
loop_
_atom_site_type_symbol
_atom_site_label
_atom_site_fract_x
_atom_site_fract_y
_atom_site_fract_z
Si Si1 0.388887 0.341336 0.220624
Si Si2 0.500000 0.500000 0.500000
Si Si3 0.278614 0.651730 0.212386
Si Si4 0.444230 0.845071 0.779233
Si Si5 0.330847 0.019552 0.500000
O O1 0.429341 0.155377 0.272048
O O2 0.352060 0.221802 0.339062
O O3 0.403166 0.657091 0.258382
O O4 0.382252 0.305291 0.000000
O O5 0.479610 0.706882 0.660793
O O6 0.261311 0.359313 0.290023
O O7 0.310629 0.811784 0.339470
O O8 0.292696 0.612003 0.000000
O O9 0.453147 0.831816 0.000000
#
# Coordination Sequence:
#
# PCOD9445279 Si02
#       5
#     8   2   8   8   4
#     4  10  23  43  63  93 124 170 214 267 315 382
#     4  12  22  38  64  96 124 174 210 250 336 360
#     4  12  25  45  65  96 130 169 209 268 327 399
#     4  10  23  41  62  91 132 162 215 263 314 379
#     4  12  24  42  72  91 132 164 226 256 344 369
#
# _framework density 27.059920000000002
#
# number of rings (size 3 to 8) (size 9 to 14) (size 15 to 20)
#    0.000    1.067    2.667    2.800    0.000    6.400 
#    0.000    9.333    0.000    0.000    0.000    0.000 
#    0.000    0.000    0.000    0.000    0.000    0.000 
#
# Total GULP energy -167041.862707 kJ/mol
# GULP energy per Si atom -5568.062090 kJ/mol
# Density = 2.699833 g / cm^3
# Si number density = 27.059920 Si / 1000 Ang^3
#
#
#
# Elastic Constant Matrix: (Units=GPa)
#
#
# Indices 1 2 3 4 5 6 
#
# 1 111.2995 25.8086 8.0729 0.0000 0.0000 0.0000
# 2 25.8086 122.9733 -2.8226 0.0000 0.0000 0.0000
# 3 8.0729 -2.8226 158.0650 0.0000 0.0000 0.0000
# 4 0.0000 0.0000 0.0000 -19.0565 0.0000 0.0000
# 5 0.0000 0.0000 0.0000 0.0000-1297.0604 0.0000
# 6 0.0000 0.0000 0.0000 0.0000 0.0000 69.2099
#
#
#
# Elastic Compliance Matrix: (Units=1/GPa)
#
#
# Indices 1 2 3 4 5 6 
#
# 1 0.009487 -0.002003 -0.000520 0.000000 0.000000 0.000000
# 2 -0.002003 0.008558 0.000255 0.000000 0.000000 0.000000
# 3 -0.000520 0.000255 0.006358 0.000000 0.000000 0.000000
# 4 0.000000 0.000000 0.000000 -0.052475 0.000000 0.000000
# 5 0.000000 0.000000 0.000000 0.000000 -0.000771 0.000000
# 6 0.000000 0.000000 0.000000 0.000000 0.000000 0.014449
#
#
# Mechanical properties :
#
#
# Convention : Reuss Voigt Hill
#
# Bulk Modulus (GPa) = 50.33635 50.49505 50.41570
# Shear Modulus (GPa) = -1544.85412 -225.29613 -885.07513
#
# Velocity S-wave (km/s) = -23.91946 -9.13449 -18.10497
# Velocity P-wave (km/s) = 27.28025 9.62034 20.45438
#
# Compressibility (1/GPa) = 0.01986636
#
# Stress axis : x y z
#
# Youngs Moduli (GPa) = 105.40778 116.84874 157.29101
#
# Poissons Ratio (x) = 0.23405 0.08184
# Poissons Ratio (y) = 0.21113 -0.04013
# Poissons Ratio (z) = 0.05484 -0.02981
#
# Static dielectric constant tensor:
#      x y z
#    x 2.266410 0.000000 0.000000 
#    y 0.000000 2.031460 0.000000 
#    z 0.000000 0.000000 1.989290 
# 
# From -- ./inp_files/10592.got.cif
#   From: 2010.05.17/outbox.cif.g08.bks.cpg/sg58_6_cif.got.tgz:10592.got - 2010.06.03 14:20:14.
