data_PCOD9445012
_publ_section_title
;
Structure prediction by ZEFSAII (Michael W. Deem and Ramdas Pophale) SiO2 
 PCOD9445012
Probable space group: P N N M
;
_chemical_formula_sum "Si O2"
_cell_formula_units_Z 48
_cell_length_a 10.015590
_cell_length_b 15.984293
_cell_length_c 12.877509
_cell_angle_alpha 90.000000
_cell_angle_beta 90.000000
_cell_angle_gamma 90.000000
_cell_volume 2061.587782
_symmetry_space_group_name_H-M "P N N M"
_symmetry_group_IT_number 58
_symmetry_cell_setting 'orthorhombic'
loop_
_space_group_symop_operation_xyz
x,y,z
-x,-y,z
1/2+x,1/2-y,1/2-z
1/2-x,1/2+y,1/2-z
-x,-y,-z
x,y,-z
1/2-x,1/2+y,1/2+z
1/2+x,1/2-y,1/2+z
loop_
_atom_site_type_symbol
_atom_site_label
_atom_site_fract_x
_atom_site_fract_y
_atom_site_fract_z
Si Si1 0.191361 0.474303 0.615045
Si Si2 0.075522 0.416114 0.170717
Si Si3 0.267678 0.655675 0.663474
Si Si4 0.430807 0.368507 0.338257
Si Si5 0.174180 0.691793 0.883140
Si Si6 0.152155 0.837924 0.388140
O O1 0.146061 0.451124 0.500000
O O2 0.113560 0.429059 0.708296
O O3 0.186000 0.573868 0.630725
O O4 0.347530 0.449218 0.628213
O O5 0.214676 0.394833 0.116836
O O6 0.000000 0.500000 0.135777
O O7 0.972635 0.342327 0.147562
O O8 0.418915 0.644522 0.625227
O O9 0.265310 0.660254 0.789255
O O10 0.202186 0.742068 0.625825
O O11 0.339302 0.291565 0.377059
O O12 0.429976 0.362679 0.213209
O O13 0.208432 0.665687 0.000000
O O14 0.085624 0.847071 0.500000
#
# Coordination Sequence:
#
# PCOD9445012 Si02
#       6
#     8   8   8   8   8   8
#     4  11  24  41  64  92 124 162 200 252 316 366
#     4  11  22  42  62  93 123 156 208 260 294 362
#     4  11  22  41  61  92 125 160 208 253 297 376
#     4  10  23  41  62  91 128 155 209 254 300 371
#     4  11  23  41  65  90 121 165 207 252 310 360
#     4  10  22  39  63  90 123 166 205 254 309 355
#
# _framework density 23.283024999999999
#
# number of rings (size 3 to 8) (size 9 to 14) (size 15 to 20)
#    0.000    1.333    3.333    2.000    0.000    5.000 
#    0.000    0.833    0.000    3.000    0.000    0.000 
#    0.000    0.000    0.000    0.000    0.000    0.000 
#
# Total GULP energy -268528.477708 kJ/mol
# GULP energy per Si atom -5594.343286 kJ/mol
# Density = 2.323003 g / cm^3
# Si number density = 23.283025 Si / 1000 Ang^3
#
#
#
# Elastic Constant Matrix: (Units=GPa)
#
#
# Indices 1 2 3 4 5 6 
#
# 1 53.2469 -19.5132 -3.8140 0.0000 0.0000 0.0000
# 2 -19.5132 60.3236 16.2438 0.0000 0.0000 0.0000
# 3 -3.8140 16.2438 184.1503 0.0000 0.0000 0.0000
# 4 0.0000 0.0000 0.0000 -11.7407 0.0000 0.0000
# 5 0.0000 0.0000 0.0000 0.0000 -4.6146 0.0000
# 6 0.0000 0.0000 0.0000 0.0000 0.0000 16.9199
#
#
#
# Elastic Compliance Matrix: (Units=1/GPa)
#
#
# Indices 1 2 3 4 5 6 
#
# 1 0.021311 0.006940 -0.000171 0.000000 0.000000 0.000000
# 2 0.006940 0.019240 -0.001553 0.000000 0.000000 0.000000
# 3 -0.000171 -0.001553 0.005564 0.000000 0.000000 0.000000
# 4 0.000000 0.000000 0.000000 -0.085174 0.000000 0.000000
# 5 0.000000 0.000000 0.000000 0.000000 -0.216705 0.000000
# 6 0.000000 0.000000 0.000000 0.000000 0.000000 0.059102
#
#
# Mechanical properties :
#
#
# Convention : Reuss Voigt Hill
#
# Bulk Modulus (GPa) = 17.68455 31.50599 24.59527
# Shear Modulus (GPa) = -26.56141 20.43321 -3.06410
#
# Velocity S-wave (km/s) = -3.38125 2.96565 -1.14843
# Velocity P-wave (km/s) = 2.76257 5.02870 2.97120
#
# Compressibility (1/GPa) = 0.05654652
#
# Stress axis : x y z
#
# Youngs Moduli (GPa) = 46.92332 51.97404 179.73201
#
# Poissons Ratio (x) = -0.36068 0.03069
# Poissons Ratio (y) = -0.32563 0.27920
# Poissons Ratio (z) = 0.00801 0.08074
#
# Static dielectric constant tensor:
#      x y z
#    x 1.877650 0.000000 0.000000 
#    y 0.000000 1.902390 0.000000 
#    z 0.000000 0.000000 1.882860 
# 
# From -- ./inp_files/14372.got.cif
#   From: 2010.05.17/outbox.cif.g08.bks.cpg/sg58_8_cif.got.tgz:14372.got - 2010.06.03 14:20:14.
