data_PCOD9445998
_publ_section_title
;
Structure prediction by ZEFSAII (Michael W. Deem and Ramdas Pophale) SiO2 
 PCOD9445998
Probable space group: P N N M
;
_chemical_formula_sum "Si O2"
_cell_formula_units_Z 40
_cell_length_a 24.000000
_cell_length_b 9.000000
_cell_length_c 9.000000
_cell_angle_alpha 90.000000
_cell_angle_beta 90.000000
_cell_angle_gamma 90.000000
_cell_volume 1944.000000
_symmetry_space_group_name_H-M "P N N M"
_symmetry_group_IT_number 58
_symmetry_cell_setting 'orthorhombic'
loop_
_space_group_symop_operation_xyz
x,y,z
-x,-y,z
1/2+x,1/2-y,1/2-z
1/2-x,1/2+y,1/2-z
-x,-y,-z
x,y,-z
1/2-x,1/2+y,1/2+z
1/2+x,1/2-y,1/2+z
loop_
_atom_site_type_symbol
_atom_site_label
_atom_site_fract_x
_atom_site_fract_y
_atom_site_fract_z
Si Si1 0.526058 0.333359 0.669377
Si Si2 0.225429 0.213323 0.176804
Si Si3 0.370531 0.538803 0.173984
Si Si4 0.823750 0.459804 0.822115
Si Si5 0.420943 0.207341 0.823923
O O1 0.500000 0.500000 0.662776
O O2 0.541542 0.291730 0.500000
O O3 0.578694 0.354974 0.776131
O O4 0.479274 0.227238 0.738461
O O5 0.180409 0.089563 0.224450
O O6 0.200954 0.376613 0.215005
O O7 0.280750 0.164859 0.263269
O O8 0.235860 0.211275 0.000000
O O9 0.389783 0.368017 0.194976
O O10 0.356760 0.558000 0.000000
O O11 0.882216 0.420125 0.744973
O O12 0.829160 0.451684 0.000000
O O13 0.429312 0.186364 0.000000
#
# Coordination Sequence:
#
# PCOD9445998 Si02
#       5
#     8   8   8   8   8
#     4   9  17  31  54  83 114 149 186 224 270 323
#     4  11  24  40  58  82 111 144 184 229 277 330
#     4  10  20  35  57  85 115 147 185 228 273 324
#     4  11  24  40  58  82 111 144 184 229 277 330
#     4  10  20  35  57  85 115 147 185 228 273 324
#
# _framework density 20.576132000000001
#
# number of rings (size 3 to 8) (size 9 to 14) (size 15 to 20)
#    0.000    1.800    0.000    4.200    0.000   12.800 
#    0.000    1.000    0.000    6.000    0.000    0.000 
#    0.000    0.000    0.000    0.000    0.000    0.000 
#
# Total GULP energy -223660.042760 kJ/mol
# GULP energy per Si atom -5591.501069 kJ/mol
# Density = 2.052930 g / cm^3
# Si number density = 20.576132 Si / 1000 Ang^3
#
#
#
# Elastic Constant Matrix: (Units=GPa)
#
#
# Indices 1 2 3 4 5 6 
#
# 1 16.9450 -30.0999 -17.1933 0.0000 0.0000 0.0000
# 2 -30.0999 18.3572 13.0739 0.0000 0.0000 0.0000
# 3 -17.1933 13.0739 71.0835 0.0000 0.0000 0.0000
# 4 0.0000 0.0000 0.0000 1.2767 0.0000 0.0000
# 5 0.0000 0.0000 0.0000 0.0000 30.5060 0.0000
# 6 0.0000 0.0000 0.0000 0.0000 0.0000 18.5004
#
#
#
# Elastic Compliance Matrix: (Units=1/GPa)
#
#
# Indices 1 2 3 4 5 6 
#
# 1 -0.030580 -0.051638 0.002101 0.000000 0.000000 0.000000
# 2 -0.051638 -0.024511 -0.007982 0.000000 0.000000 0.000000
# 3 0.002101 -0.007982 0.016044 0.000000 0.000000 0.000000
# 4 0.000000 0.000000 0.000000 0.783286 0.000000 0.000000
# 5 0.000000 0.000000 0.000000 0.000000 0.032780 0.000000
# 6 0.000000 0.000000 0.000000 0.000000 0.000000 0.054053
#
#
# Mechanical properties :
#
#
# Convention : Reuss Voigt Hill
#
# Bulk Modulus (GPa) = -6.48991 4.21633 -1.13679
# Shear Modulus (GPa) = 5.58816 19.43027 12.50922
#
# Velocity S-wave (km/s) = 1.64977 3.07630 2.46833
# Velocity P-wave (km/s) = 0.68414 3.83037 2.75134
#
# Compressibility (1/GPa) = -0.15408525
#
# Stress axis : x y z
#
# Youngs Moduli (GPa) = -32.70082 -40.79832 62.32804
#
# Poissons Ratio (x) = -2.10675 -0.13094
# Poissons Ratio (y) = -1.68861 0.49749
# Poissons Ratio (z) = 0.06870 -0.32565
#
# Static dielectric constant tensor:
#      x y z
#    x 1.777120 0.000000 0.000000 
#    y 0.000000 1.720480 0.000000 
#    z 0.000000 0.000000 1.678550 
# 
# From -- ./inp_files/2405.got.cif
#   From: 2010.05.17/outbox.ucp.g08.bks.cvg/sg58_2_cif.got.tgz:2405.got - 2010.06.11 16:41:41.
