data_PCOD9445453
_publ_section_title
;
Structure prediction by ZEFSAII (Michael W. Deem and Ramdas Pophale) SiO2 
 PCOD9445453
Probable space group: P N N M
;
_chemical_formula_sum "Si O2"
_cell_formula_units_Z 32
_cell_length_a 5.189525
_cell_length_b 13.089224
_cell_length_c 23.230443
_cell_angle_alpha 90.000000
_cell_angle_beta 90.000000
_cell_angle_gamma 90.000000
_cell_volume 1577.970937
_symmetry_space_group_name_H-M "P N N M"
_symmetry_group_IT_number 58
_symmetry_cell_setting 'orthorhombic'
loop_
_space_group_symop_operation_xyz
x,y,z
-x,-y,z
1/2+x,1/2-y,1/2-z
1/2-x,1/2+y,1/2-z
-x,-y,-z
x,y,-z
1/2-x,1/2+y,1/2+z
1/2+x,1/2-y,1/2+z
loop_
_atom_site_type_symbol
_atom_site_label
_atom_site_fract_x
_atom_site_fract_y
_atom_site_fract_z
Si Si1 0.249096 0.069584 0.000000
Si Si2 0.000000 0.000000 0.337923
Si Si3 0.225693 0.749621 0.412197
Si Si4 0.132035 0.784577 0.716616
Si Si5 0.773479 0.385376 0.064318
O O1 0.247213 0.144621 0.054450
O O2 0.500000 0.000000 0.000000
O O3 0.000000 0.000000 0.000000
O O4 0.086043 0.903845 0.299562
O O5 0.780917 0.961851 0.382865
O O6 0.210244 0.734807 0.344061
O O7 0.464613 0.822992 0.427228
O O8 0.963973 0.806122 0.431221
O O9 0.366864 0.763167 0.759811
O O10 0.767455 0.431564 0.000000
#
# Coordination Sequence:
#
# PCOD9445453 Si02
#       5
#     4   4   8   8   8
#     4  12  24  42  68  97 134 175 228 276 330 403
#     4  10  25  42  72 102 130 177 230 270 346 414
#     4  11  23  43  67  96 133 174 216 273 343 386
#     4  11  25  47  69  94 136 177 225 284 327 392
#     4  11  20  39  69 102 136 162 202 275 347 416
#
# _framework density 20.279208000000001
#
# number of rings (size 3 to 8) (size 9 to 14) (size 15 to 20)
#    0.000    1.000    2.500    4.875    0.000    9.000 
#    6.750    6.250    0.000    0.000    0.000    0.000 
#    0.000    0.000    0.000    0.000    0.000    0.000 
#
# Total GULP energy -179071.490432 kJ/mol
# GULP energy per Si atom -5595.984076 kJ/mol
# Density = 2.023305 g / cm^3
# Si number density = 20.279208 Si / 1000 Ang^3
#
#
#
# Elastic Constant Matrix: (Units=GPa)
#
#
# Indices 1 2 3 4 5 6 
#
# 1 164.9828 78.3538 43.9499 0.0000 0.0000 0.0000
# 2 78.3538 163.8619 74.1793 0.0000 0.0000 0.0000
# 3 43.9499 74.1793 129.0708 0.0000 0.0000 0.0000
# 4 0.0000 0.0000 0.0000 57.9699 0.0000 0.0000
# 5 0.0000 0.0000 0.0000 0.0000 33.3652 0.0000
# 6 0.0000 0.0000 0.0000 0.0000 0.0000 39.8439
#
#
#
# Elastic Compliance Matrix: (Units=1/GPa)
#
#
# Indices 1 2 3 4 5 6 
#
# 1 0.007889 -0.003455 -0.000701 0.000000 0.000000 0.000000
# 2 -0.003455 0.009762 -0.004434 0.000000 0.000000 0.000000
# 3 -0.000701 -0.004434 0.010534 0.000000 0.000000 0.000000
# 4 0.000000 0.000000 0.000000 0.017250 0.000000 0.000000
# 5 0.000000 0.000000 0.000000 0.000000 0.029971 0.000000
# 6 0.000000 0.000000 0.000000 0.000000 0.000000 0.025098
#
#
# Mechanical properties :
#
#
# Convention : Reuss Voigt Hill
#
# Bulk Modulus (GPa) = 90.85746 94.54238 92.69992
# Shear Modulus (GPa) = 41.20229 43.66463 42.43346
#
# Velocity S-wave (km/s) = 4.51238 4.64526 4.57931
# Velocity P-wave (km/s) = 8.48819 8.68866 8.58901
#
# Compressibility (1/GPa) = 0.01100625
#
# Stress axis : x y z
#
# Youngs Moduli (GPa) = 126.76336 102.43810 94.92639
#
# Poissons Ratio (x) = 0.35393 0.06650
# Poissons Ratio (y) = 0.43797 0.42090
# Poissons Ratio (z) = 0.08880 0.45420
#
# Static dielectric constant tensor:
#      x y z
#    x 1.712420 0.000000 0.000000 
#    y 0.000000 1.706370 0.000000 
#    z 0.000000 0.000000 1.724730 
# 
# From -- ./inp_files/30785.got.cif
#   From: 2010.05.17/outbox.cif.g08.bks.cpg/sg58_16_cif.got.tgz:30785.got - 2010.06.03 14:20:14.
