data_PCOD9445805
_publ_section_title
;
Structure prediction by ZEFSAII (Michael W. Deem and Ramdas Pophale) SiO2 
 PCOD9445805
Probable space group: P N N M
;
_chemical_formula_sum "Si O2"
_cell_formula_units_Z 36
_cell_length_a 10.140855
_cell_length_b 7.033847
_cell_length_c 26.762234
_cell_angle_alpha 90.000000
_cell_angle_beta 90.000000
_cell_angle_gamma 90.000000
_cell_volume 1908.929344
_symmetry_space_group_name_H-M "P N N M"
_symmetry_group_IT_number 58
_symmetry_cell_setting 'orthorhombic'
loop_
_space_group_symop_operation_xyz
x,y,z
-x,-y,z
1/2+x,1/2-y,1/2-z
1/2-x,1/2+y,1/2-z
-x,-y,-z
x,y,-z
1/2-x,1/2+y,1/2+z
1/2+x,1/2-y,1/2+z
loop_
_atom_site_type_symbol
_atom_site_label
_atom_site_fract_x
_atom_site_fract_y
_atom_site_fract_z
Si Si1 0.650384 0.526583 0.137094
Si Si2 0.375985 0.126444 0.786243
Si Si3 0.125912 0.363295 0.058502
Si Si4 0.500000 0.500000 0.395628
Si Si5 0.317135 0.304363 0.314491
O O1 0.500000 0.500000 0.119533
O O2 0.646321 0.696910 0.177273
O O3 0.752290 0.578060 0.093317
O O4 0.707196 0.339202 0.164218
O O5 0.394689 0.198982 0.729771
O O6 0.500000 0.000000 0.801926
O O7 0.250820 0.988170 0.789983
O O8 0.083116 0.148554 0.071814
O O9 0.000000 0.500000 0.068772
O O10 0.157721 0.380736 0.000000
O O11 0.407905 0.375260 0.359359
#
# Coordination Sequence:
#
# PCOD9445805 Si02
#       5
#     8   8   8   4   8
#     4  12  25  44  66  96 137 177 218 274 332 401
#     4  12  26  40  61  95 137 181 220 263 326 397
#     4  11  25  46  71  98 129 171 227 287 340 391
#     4  12  25  42  70  98 130 172 227 280 326 398
#     4  12  26  39  63  98 136 179 218 268 326 396
#
# _framework density 18.858739
#
# number of rings (size 3 to 8) (size 9 to 14) (size 15 to 20)
#    0.000    0.222    8.889    0.333    7.778    0.444 
#    0.000    0.000    0.000    2.000    0.000    0.000 
#    0.000    0.000    0.000    0.000    0.000    0.000 
#
# Total GULP energy -201341.384940 kJ/mol
# GULP energy per Si atom -5592.816248 kJ/mol
# Density = 1.881582 g / cm^3
# Si number density = 18.858739 Si / 1000 Ang^3
#
#
#
# Elastic Constant Matrix: (Units=GPa)
#
#
# Indices 1 2 3 4 5 6 
#
# 1 93.2079 47.6407 55.8214 0.0000 0.0000 0.0000
# 2 47.6407 102.6571 40.4724 0.0000 0.0000 0.0000
# 3 55.8214 40.4724 102.1474 0.0000 0.0000 0.0000
# 4 0.0000 0.0000 0.0000 27.6584 0.0000 0.0000
# 5 0.0000 0.0000 0.0000 0.0000 20.2295 0.0000
# 6 0.0000 0.0000 0.0000 0.0000 0.0000 45.2322
#
#
#
# Elastic Compliance Matrix: (Units=1/GPa)
#
#
# Indices 1 2 3 4 5 6 
#
# 1 0.018122 -0.005340 -0.007788 0.000000 0.000000 0.000000
# 2 -0.005340 0.013118 -0.002279 0.000000 0.000000 0.000000
# 3 -0.007788 -0.002279 0.014949 0.000000 0.000000 0.000000
# 4 0.000000 0.000000 0.000000 0.036155 0.000000 0.000000
# 5 0.000000 0.000000 0.000000 0.000000 0.049433 0.000000
# 6 0.000000 0.000000 0.000000 0.000000 0.000000 0.022108
#
#
# Mechanical properties :
#
#
# Convention : Reuss Voigt Hill
#
# Bulk Modulus (GPa) = 65.04077 65.09791 65.06934
# Shear Modulus (GPa) = 26.34032 28.89588 27.61810
#
# Velocity S-wave (km/s) = 3.74132 3.91861 3.83099
# Velocity P-wave (km/s) = 7.29566 7.42076 7.35847
#
# Compressibility (1/GPa) = 0.01537497
#
# Stress axis : x y z
#
# Youngs Moduli (GPa) = 55.18214 76.23191 66.89564
#
# Poissons Ratio (x) = 0.40705 0.52095
# Poissons Ratio (y) = 0.29465 0.15249
# Poissons Ratio (z) = 0.42973 0.17377
#
# Static dielectric constant tensor:
#      x y z
#    x 1.649240 0.000000 0.000000 
#    y 0.000000 1.652790 0.000000 
#    z 0.000000 0.000000 1.619530 
# 
# From -- ./inp_files/31800.got.cif
#   From: 2010.05.17/outbox.cif.g08.bks.cpg/sg58_16_cif.got.tgz:31800.got - 2010.06.03 14:20:14.
