data_PCOD9445875
_publ_section_title
;
Structure prediction by ZEFSAII (Michael W. Deem and Ramdas Pophale) SiO2 
 PCOD9445875
Probable space group: P N N M
;
_chemical_formula_sum "Si O2"
_cell_formula_units_Z 40
_cell_length_a 13.190859
_cell_length_b 14.744678
_cell_length_c 7.950706
_cell_angle_alpha 90.000000
_cell_angle_beta 90.000000
_cell_angle_gamma 90.000000
_cell_volume 1546.372313
_symmetry_space_group_name_H-M "P N N M"
_symmetry_group_IT_number 58
_symmetry_cell_setting 'orthorhombic'
loop_
_space_group_symop_operation_xyz
x,y,z
-x,-y,z
1/2+x,1/2-y,1/2-z
1/2-x,1/2+y,1/2-z
-x,-y,-z
x,y,-z
1/2-x,1/2+y,1/2+z
1/2+x,1/2-y,1/2+z
loop_
_atom_site_type_symbol
_atom_site_label
_atom_site_fract_x
_atom_site_fract_y
_atom_site_fract_z
Si Si1 0.470291 0.266577 0.805918
Si Si2 0.301283 0.067125 0.292862
Si Si3 0.604118 0.549328 0.205626
Si Si4 0.578641 0.096097 0.306825
Si Si5 0.299249 0.743694 0.196530
O O1 0.402521 0.346266 0.729508
O O2 0.488788 0.164953 0.740525
O O3 0.587913 0.302119 0.796971
O O4 0.444505 0.257931 0.000000
O O5 0.304684 0.071999 0.500000
O O6 0.200659 0.009834 0.245861
O O7 0.390935 0.000498 0.229512
O O8 0.279618 0.170294 0.235737
O O9 0.500000 0.500000 0.255727
O O10 0.604533 0.553767 0.000000
O O11 0.563669 0.078368 0.500000
O O12 0.677145 0.161892 0.286927
O O13 0.280462 0.761719 0.000000
#
# Coordination Sequence:
#
# PCOD9445875 Si02
#       5
#     8   8   8   8   8
#     4   8  14  24  39  54  76 104 126 153 187 225
#     4   9  15  23  40  63  80 101 132 160 190 229
#     4   9  12  19  38  61  78  95 125 161 191 227
#     4   9  16  25  37  56  82 105 127 156 189 229
#     4   8  14  26  40  55  77 103 130 157 187 224
#
# _framework density 25.866993000000001
#
# number of rings (size 3 to 8) (size 9 to 14) (size 15 to 20)
#    1.200    2.200    2.000    0.000    0.000    0.000 
#    0.000    2.000    0.000    7.800    0.000    1.400 
#    0.000   11.200    0.000    0.000    0.000    0.000 
#
# Total GULP energy -223061.223026 kJ/mol
# GULP energy per Si atom -5576.530576 kJ/mol
# Density = 2.580812 g / cm^3
# Si number density = 25.866993 Si / 1000 Ang^3
#
#
#
# Elastic Constant Matrix: (Units=GPa)
#
#
# Indices 1 2 3 4 5 6 
#
# 1 114.8146 39.2627 10.2687 0.0000 0.0000 0.0000
# 2 39.2627 238.6885 13.5059 0.0000 0.0000 0.0000
# 3 10.2687 13.5059 17.0786 0.0000 0.0000 0.0000
# 4 0.0000 0.0000 0.0000 -15.6216 0.0000 0.0000
# 5 0.0000 0.0000 0.0000 0.0000 12.8511 0.0000
# 6 0.0000 0.0000 0.0000 0.0000 0.0000 51.5093
#
#
#
# Elastic Compliance Matrix: (Units=1/GPa)
#
#
# Indices 1 2 3 4 5 6 
#
# 1 0.009580 -0.001308 -0.004725 0.000000 0.000000 0.000000
# 2 -0.001308 0.004565 -0.002823 0.000000 0.000000 0.000000
# 3 -0.004725 -0.002823 0.063626 0.000000 0.000000 0.000000
# 4 0.000000 0.000000 0.000000 -0.064014 0.000000 0.000000
# 5 0.000000 0.000000 0.000000 0.000000 0.077814 0.000000
# 6 0.000000 0.000000 0.000000 0.000000 0.000000 0.019414
#
#
# Mechanical properties :
#
#
# Convention : Reuss Voigt Hill
#
# Bulk Modulus (GPa) = 16.65074 55.18401 35.91738
# Shear Modulus (GPa) = 33.62090 30.25072 31.93581
#
# Velocity S-wave (km/s) = 3.60913 3.42346 3.51752
# Velocity P-wave (km/s) = 4.88045 6.08333 5.51478
#
# Compressibility (1/GPa) = 0.06005738
#
# Stress axis : x y z
#
# Youngs Moduli (GPa) = 104.38694 219.08090 15.71678
#
# Poissons Ratio (x) = 0.28665 0.07426
# Poissons Ratio (y) = 0.13658 0.04437
# Poissons Ratio (z) = 0.49325 0.61846
#
# Static dielectric constant tensor:
#      x y z
#    x 2.241770 0.000000 0.000000 
#    y 0.000000 2.122590 0.000000 
#    z 0.000000 0.000000 1.907160 
# 
# From -- ./inp_files/5988.got.cif
#   From: 2010.05.17/outbox.cif.g08.bks.cpg/sg58_3_cif.got.tgz:5988.got - 2010.06.03 14:20:14.
