data_PCOD9445200
_publ_section_title
;
Structure prediction by ZEFSAII (Michael W. Deem and Ramdas Pophale) SiO2 
 PCOD9445200
Probable space group: P N N M
;
_chemical_formula_sum "Si O2"
_cell_formula_units_Z 32
_cell_length_a 14.615447
_cell_length_b 5.287747
_cell_length_c 18.013660
_cell_angle_alpha 90.000000
_cell_angle_beta 90.000000
_cell_angle_gamma 90.000000
_cell_volume 1392.145831
_symmetry_space_group_name_H-M "P N N M"
_symmetry_group_IT_number 58
_symmetry_cell_setting 'orthorhombic'
loop_
_space_group_symop_operation_xyz
x,y,z
-x,-y,z
1/2+x,1/2-y,1/2-z
1/2-x,1/2+y,1/2-z
-x,-y,-z
x,y,-z
1/2-x,1/2+y,1/2+z
1/2+x,1/2-y,1/2+z
loop_
_atom_site_type_symbol
_atom_site_label
_atom_site_fract_x
_atom_site_fract_y
_atom_site_fract_z
Si Si1 0.762161 0.929785 0.915190
Si Si2 0.890814 0.023275 0.413990
Si Si3 0.234605 0.208118 0.296928
Si Si4 0.046038 0.255468 0.910847
O O1 0.664492 0.789952 0.903355
O O2 0.845100 0.738001 0.902043
O O3 0.789101 0.166157 0.864695
O O4 0.766362 0.008144 0.000000
O O5 0.864900 0.948913 0.500000
O O6 0.856137 0.863177 0.343476
O O7 0.000000 0.000000 0.413078
O O8 0.230389 0.453894 0.242817
O O9 0.000000 0.500000 0.877009
O O10 0.029490 0.254618 0.000000
O O11 0.000000 0.000000 0.881404
#
# Coordination Sequence:
#
# PCOD9445200 Si02
#       4
#     8   8   8   8
#     4  10  22  42  74 106 140 187 245 308 368 441
#     4  10  23  46  80 116 149 195 257 322 384 450
#     4  12  25  46  72  99 149 196 239 298 374 456
#     4   9  19  34  59  95 133 171 219 282 344 409
#
# _framework density 22.9861
#
# number of rings (size 3 to 8) (size 9 to 14) (size 15 to 20)
#    0.000    1.750    2.500    0.750    3.500    1.000 
#    0.000    5.000   11.000    0.000    0.000    0.000 
#    0.000    1.000    0.000    0.000    0.000    0.000 
#
# Total GULP energy -178218.602448 kJ/mol
# GULP energy per Si atom -5569.331326 kJ/mol
# Density = 2.293378 g / cm^3
# Si number density = 22.986100 Si / 1000 Ang^3
#
#
#
# Elastic Constant Matrix: (Units=GPa)
#
#
# Indices 1 2 3 4 5 6 
#
# 1 67.3216 40.9666 48.0951 0.0000 0.0000 0.0000
# 2 40.9666 166.6109 90.9781 0.0000 0.0000 0.0000
# 3 48.0951 90.9781 146.1145 0.0000 0.0000 0.0000
# 4 0.0000 0.0000 0.0000 273.5627 0.0000 0.0000
# 5 0.0000 0.0000 0.0000 0.0000 70.7635 0.0000
# 6 0.0000 0.0000 0.0000 0.0000 0.0000 24.4226
#
#
#
# Elastic Compliance Matrix: (Units=1/GPa)
#
#
# Indices 1 2 3 4 5 6 
#
# 1 0.019847 -0.001989 -0.005294 0.000000 0.000000 0.000000
# 2 -0.001989 0.009293 -0.005132 0.000000 0.000000 0.000000
# 3 -0.005294 -0.005132 0.011782 0.000000 0.000000 0.000000
# 4 0.000000 0.000000 0.000000 0.003655 0.000000 0.000000
# 5 0.000000 0.000000 0.000000 0.000000 0.014132 0.000000
# 6 0.000000 0.000000 0.000000 0.000000 0.000000 0.040946
#
#
# Mechanical properties :
#
#
# Convention : Reuss Voigt Hill
#
# Bulk Modulus (GPa) = 62.14344 82.23627 72.18986
# Shear Modulus (GPa) = 38.50637 87.08358 62.79498
#
# Velocity S-wave (km/s) = 4.09736 6.16178 5.23240
# Velocity P-wave (km/s) = 7.03409 9.29933 8.24488
#
# Compressibility (1/GPa) = 0.01609180
#
# Stress axis : x y z
#
# Youngs Moduli (GPa) = 50.38615 107.60482 84.87583
#
# Poissons Ratio (x) = 0.21402 0.44936
# Poissons Ratio (y) = 0.10022 0.43556
# Poissons Ratio (z) = 0.26676 0.55220
#
# Static dielectric constant tensor:
#      x y z
#    x 1.879770 0.000000 0.000000 
#    y 0.000000 2.044130 0.000000 
#    z 0.000000 0.000000 1.928290 
# 
# From -- ./inp_files/26537.got.cif
#   From: 2010.05.17/outbox.cif.g08.bks.cpg/sg58_14_cif.got.tgz:26537.got - 2010.06.03 14:20:14.
