data_PCOD9445362
_publ_section_title
;
Structure prediction by ZEFSAII (Michael W. Deem and Ramdas Pophale) SiO2 
 PCOD9445362
Probable space group: P N N M
;
_chemical_formula_sum "Si O2"
_cell_formula_units_Z 42
_cell_length_a 26.871415
_cell_length_b 7.662732
_cell_length_c 9.211928
_cell_angle_alpha 90.000000
_cell_angle_beta 90.000000
_cell_angle_gamma 90.000000
_cell_volume 1896.813831
_symmetry_space_group_name_H-M "P N N M"
_symmetry_group_IT_number 58
_symmetry_cell_setting 'orthorhombic'
loop_
_space_group_symop_operation_xyz
x,y,z
-x,-y,z
1/2+x,1/2-y,1/2-z
1/2-x,1/2+y,1/2-z
-x,-y,-z
x,y,-z
1/2-x,1/2+y,1/2+z
1/2+x,1/2-y,1/2+z
loop_
_atom_site_type_symbol
_atom_site_label
_atom_site_fract_x
_atom_site_fract_y
_atom_site_fract_z
Si Si1 0.606875 0.301182 0.675126
Si Si2 0.540969 0.616617 0.220684
Si Si3 0.198843 0.083702 0.330710
Si Si4 0.598198 0.963517 0.166768
Si Si5 0.311269 0.217944 0.670005
Si Si6 0.000000 0.000000 0.000000
O O1 0.601954 0.307632 0.500000
O O2 0.585553 0.481947 0.740211
O O3 0.663832 0.294867 0.731035
O O4 0.580401 0.135500 0.748288
O O5 0.500000 0.500000 0.139802
O O6 0.560957 0.798524 0.164200
O O7 0.513826 0.641351 0.373966
O O8 0.183004 0.090179 0.500000
O O9 0.256699 0.133123 0.324754
O O10 0.192635 0.893828 0.262121
O O11 0.646289 0.896933 0.255441
O O12 0.610445 0.008424 0.000000
O O13 0.323682 0.251637 0.500000
#
# Coordination Sequence:
#
# PCOD9445362 Si02
#       6
#     8   8   8   8   8   2
#     4  12  24  41  71 100 133 180 228 278 336 407
#     4  10  23  45  71  99 134 174 226 283 340 400
#     4  11  24  41  63  96 137 175 221 282 339 396
#     4  12  27  43  67  99 138 180 224 283 344 401
#     4  11  24  41  65  94 132 178 228 274 331 407
#     4   8  20  44  72 100 136 166 238 276 346 400
#
# _framework density 22.142392000000001
#
# number of rings (size 3 to 8) (size 9 to 14) (size 15 to 20)
#    0.571    0.381    2.857    3.429    2.667    8.000 
#    0.000    2.857    0.000    0.000    0.000    0.000 
#    0.000    0.000    0.000    0.000    0.000    0.000 
#
# Total GULP energy -234011.597488 kJ/mol
# GULP energy per Si atom -5571.704702 kJ/mol
# Density = 2.209199 g / cm^3
# Si number density = 22.142392 Si / 1000 Ang^3
#
#
#
# Elastic Constant Matrix: (Units=GPa)
#
#
# Indices 1 2 3 4 5 6 
#
# 1 55.4427 -0.9344 19.7935 0.0000 0.0000 0.0000
# 2 -0.9344 112.3724 28.3588 0.0000 0.0000 0.0000
# 3 19.7935 28.3588 145.3077 0.0000 0.0000 0.0000
# 4 0.0000 0.0000 0.0000 -15.2085 0.0000 0.0000
# 5 0.0000 0.0000 0.0000 0.0000 174.6534 0.0000
# 6 0.0000 0.0000 0.0000 0.0000 0.0000 28.1568
#
#
#
# Elastic Compliance Matrix: (Units=1/GPa)
#
#
# Indices 1 2 3 4 5 6 
#
# 1 0.019036 0.000855 -0.002760 0.000000 0.000000 0.000000
# 2 0.000855 0.009398 -0.001951 0.000000 0.000000 0.000000
# 3 -0.002760 -0.001951 0.007639 0.000000 0.000000 0.000000
# 4 0.000000 0.000000 0.000000 -0.065753 0.000000 0.000000
# 5 0.000000 0.000000 0.000000 0.000000 0.005726 0.000000
# 6 0.000000 0.000000 0.000000 0.000000 0.000000 0.035515
#
#
# Mechanical properties :
#
#
# Convention : Reuss Voigt Hill
#
# Bulk Modulus (GPa) = 35.25874 45.28428 40.27151
# Shear Modulus (GPa) = 174.05270 55.24735 114.65002
#
# Velocity S-wave (km/s) = 8.87563 5.00051 7.20354
# Velocity P-wave (km/s) = 10.99972 7.33730 9.34959
#
# Compressibility (1/GPa) = 0.02836176
#
# Stress axis : x y z
#
# Youngs Moduli (GPa) = 52.53106 106.40150 130.91417
#
# Poissons Ratio (x) = -0.09095 0.36131
# Poissons Ratio (y) = -0.04490 0.25537
# Poissons Ratio (z) = 0.14498 0.20755
#
# Static dielectric constant tensor:
#      x y z
#    x 1.962480 0.000000 0.000000 
#    y 0.000000 1.842210 0.000000 
#    z 0.000000 0.000000 1.768060 
# 
# From -- ./inp_files/10288.got.cif
#   From: 2010.05.17/outbox.cif.g08.bks.cpg/sg58_6_cif.got.tgz:10288.got - 2010.06.03 14:20:14.
