data_PCOD9445505
_publ_section_title
;
Structure prediction by ZEFSAII (Michael W. Deem and Ramdas Pophale) SiO2 
 PCOD9445505
Probable space group: P N N M
;
_chemical_formula_sum "Si O2"
_cell_formula_units_Z 56
_cell_length_a 14.003228
_cell_length_b 11.635083
_cell_length_c 18.687155
_cell_angle_alpha 90.000000
_cell_angle_beta 90.000000
_cell_angle_gamma 90.000000
_cell_volume 3044.674245
_symmetry_space_group_name_H-M "P N N M"
_symmetry_group_IT_number 58
_symmetry_cell_setting 'orthorhombic'
loop_
_space_group_symop_operation_xyz
x,y,z
-x,-y,z
1/2+x,1/2-y,1/2-z
1/2-x,1/2+y,1/2-z
-x,-y,-z
x,y,-z
1/2-x,1/2+y,1/2+z
1/2+x,1/2-y,1/2+z
loop_
_atom_site_type_symbol
_atom_site_label
_atom_site_fract_x
_atom_site_fract_y
_atom_site_fract_z
Si Si1 0.719295 0.394141 0.579909
Si Si2 0.346735 0.237737 0.164122
Si Si3 0.016212 0.363635 0.761528
Si Si4 0.299468 0.726145 0.787830
Si Si5 0.643689 0.612417 0.652941
Si Si6 0.107216 0.981115 0.689339
Si Si7 0.477647 0.744963 0.416654
O O1 0.715730 0.438127 0.500000
O O2 0.820306 0.334024 0.594807
O O3 0.702944 0.503941 0.628092
O O4 0.628281 0.308923 0.587626
O O5 0.436634 0.197272 0.211192
O O6 0.255978 0.209674 0.213750
O O7 0.347830 0.373267 0.148359
O O8 0.115614 0.315617 0.729333
O O9 0.000000 0.500000 0.756544
O O10 0.010897 0.326774 0.845956
O O11 0.218197 0.782967 0.837376
O O12 0.338685 0.602413 0.812037
O O13 0.603405 0.570823 0.729822
O O14 0.557565 0.648156 0.601054
O O15 0.000000 0.000000 0.664209
O O16 0.490505 0.786120 0.500000
#
# Coordination Sequence:
#
# PCOD9445505 Si02
#       7
#     8   8   8   8   8   8   8
#     4  11  22  38  60  87 123 155 193 241 294 359
#     4  11  22  35  59  88 112 156 195 240 288 347
#     4  12  23  37  57  87 121 152 194 248 295 344
#     4  11  21  35  58  88 116 148 197 242 290 341
#     4  11  20  34  59  86 121 154 191 238 294 350
#     4  11  19  35  59  85 115 147 192 251 289 338
#     4  11  22  36  56  88 124 161 194 231 294 363
#
# _framework density 18.392772999999998
#
# number of rings (size 3 to 8) (size 9 to 14) (size 15 to 20)
#    0.000    0.857    7.143    2.571    2.000    1.429 
#    0.000    0.000    0.000    6.000    0.000    0.000 
#    0.000    0.000    0.000    0.000    0.000    0.000 
#
# Total GULP energy -312032.614757 kJ/mol
# GULP energy per Si atom -5572.010978 kJ/mol
# Density = 1.835091 g / cm^3
# Si number density = 18.392773 Si / 1000 Ang^3
#
#
#
# Elastic Constant Matrix: (Units=GPa)
#
#
# Indices 1 2 3 4 5 6 
#
# 1 47.3312 -9.7000 22.0749 0.0000 0.0000 0.0000
# 2 -9.7000 84.2970 9.3435 0.0000 0.0000 0.0000
# 3 22.0749 9.3435 31.1151 0.0000 0.0000 0.0000
# 4 0.0000 0.0000 0.0000 10.2996 0.0000 0.0000
# 5 0.0000 0.0000 0.0000 0.0000 16.2094 0.0000
# 6 0.0000 0.0000 0.0000 0.0000 0.0000 32.9776
#
#
#
# Elastic Compliance Matrix: (Units=1/GPa)
#
#
# Indices 1 2 3 4 5 6 
#
# 1 0.035214 0.007056 -0.027101 0.000000 0.000000 0.000000
# 2 0.007056 0.013685 -0.009115 0.000000 0.000000 0.000000
# 3 -0.027101 -0.009115 0.054103 0.000000 0.000000 0.000000
# 4 0.000000 0.000000 0.000000 0.097091 0.000000 0.000000
# 5 0.000000 0.000000 0.000000 0.000000 0.061693 0.000000
# 6 0.000000 0.000000 0.000000 0.000000 0.000000 0.030324
#
#
# Mechanical properties :
#
#
# Convention : Reuss Voigt Hill
#
# Bulk Modulus (GPa) = 22.38122 22.90890 22.64506
# Shear Modulus (GPa) = 13.68646 21.29897 17.49271
#
# Velocity S-wave (km/s) = 2.73082 3.40664 3.08728
# Velocity P-wave (km/s) = 4.70511 5.28735 5.00470
#
# Compressibility (1/GPa) = 0.04468031
#
# Stress axis : x y z
#
# Youngs Moduli (GPa) = 28.39815 73.07222 18.48319
#
# Poissons Ratio (x) = -0.51559 0.50092
# Poissons Ratio (y) = -0.20038 0.16848
# Poissons Ratio (z) = 0.76963 0.66608
#
# Static dielectric constant tensor:
#      x y z
#    x 1.650330 0.000000 0.000000 
#    y 0.000000 1.665710 0.000000 
#    z 0.000000 0.000000 1.661770 
# 
# From -- ./inp_files/29607.got.cif
#   From: 2010.05.17/outbox.cif.g08.bks.cpg/sg58_15_cif.got.tgz:29607.got - 2010.06.03 14:20:14.
