data_PCOD9445906
_publ_section_title
;
Structure prediction by ZEFSAII (Michael W. Deem and Ramdas Pophale) SiO2 
 PCOD9445906
Probable space group: P N N M
;
_chemical_formula_sum "Si O2"
_cell_formula_units_Z 64
_cell_length_a 21.000000
_cell_length_b 18.000000
_cell_length_c 9.000000
_cell_angle_alpha 90.000000
_cell_angle_beta 90.000000
_cell_angle_gamma 90.000000
_cell_volume 3402.000000
_symmetry_space_group_name_H-M "P N N M"
_symmetry_group_IT_number 58
_symmetry_cell_setting 'orthorhombic'
loop_
_space_group_symop_operation_xyz
x,y,z
-x,-y,z
1/2+x,1/2-y,1/2-z
1/2-x,1/2+y,1/2-z
-x,-y,-z
x,y,-z
1/2-x,1/2+y,1/2+z
1/2+x,1/2-y,1/2+z
loop_
_atom_site_type_symbol
_atom_site_label
_atom_site_fract_x
_atom_site_fract_y
_atom_site_fract_z
Si Si1 0.849553 0.904360 0.672581
Si Si2 0.175058 0.938494 0.179300
Si Si3 0.392617 0.042873 0.820425
Si Si4 0.820313 0.601232 0.319591
Si Si5 0.023687 0.673642 0.679030
Si Si6 0.358899 0.285252 0.821704
Si Si7 0.891831 0.745135 0.317971
Si Si8 0.794454 0.345385 0.172220
O O1 0.867722 0.918656 0.500000
O O2 0.886836 0.831071 0.730804
O O3 0.777378 0.873725 0.673549
O O4 0.850072 0.982165 0.760523
O O5 0.249878 0.926880 0.223050
O O6 0.140078 0.867017 0.250706
O O7 0.170959 0.936543 0.000000
O O8 0.454008 0.091297 0.769838
O O9 0.335398 0.096043 0.766724
O O10 0.373491 0.959786 0.771467
O O11 0.394878 0.040919 0.000000
O O12 0.821307 0.601653 0.500000
O O13 0.838008 0.685007 0.272505
O O14 0.018467 0.668021 0.500000
O O15 0.078453 0.734820 0.709011
O O16 0.957176 0.706292 0.731625
O O17 0.304061 0.235332 0.745158
O O18 0.350877 0.289704 0.000000
O O19 0.889959 0.748700 0.500000
O O20 0.816011 0.342956 0.000000
#
# Coordination Sequence:
#
# PCOD9445906 Si02
#       8
#     8   8   8   8   8   8   8   8
#     4  10  20  33  51  74 104 137 173 215 260 307
#     4  11  21  34  53  78 106 135 169 211 265 314
#     4   9  16  29  49  77 107 136 167 208 254 300
#     4   9  17  29  49  77 109 134 162 209 261 309
#     4   8  16  30  50  74 102 134 172 212 254 301
#     4  10  20  34  53  77 103 132 171 214 256 304
#     4   9  17  31  50  75 103 133 170 215 259 303
#     4  10  18  30  50  76 104 136 171 205 255 310
#
# _framework density 18.812463000000001
#
# number of rings (size 3 to 8) (size 9 to 14) (size 15 to 20)
#    0.000    2.500    1.250    2.625    0.000    3.000 
#    0.000    3.125    0.000    8.250    0.000    3.500 
#    0.000    0.000    0.000    0.000    0.000    0.000 
#
# Total GULP energy -356623.034461 kJ/mol
# GULP energy per Si atom -5572.234913 kJ/mol
# Density = 1.876965 g / cm^3
# Si number density = 18.812463 Si / 1000 Ang^3
#
#
#
# Elastic Constant Matrix: (Units=GPa)
#
#
# Indices 1 2 3 4 5 6 
#
# 1 25.0705 1.4972 -4.7410 0.0000 0.0000 0.0000
# 2 1.4972 132.5295 26.2264 0.0000 0.0000 0.0000
# 3 -4.7410 26.2264 21.0328 0.0000 0.0000 0.0000
# 4 0.0000 0.0000 0.0000 26.5851 0.0000 0.0000
# 5 0.0000 0.0000 0.0000 0.0000 12.7445 0.0000
# 6 0.0000 0.0000 0.0000 0.0000 0.0000 17.0604
#
#
#
# Elastic Compliance Matrix: (Units=1/GPa)
#
#
# Indices 1 2 3 4 5 6 
#
# 1 0.042640 -0.003165 0.013557 0.000000 0.000000 0.000000
# 2 -0.003165 0.010252 -0.013497 0.000000 0.000000 0.000000
# 3 0.013557 -0.013497 0.067431 0.000000 0.000000 0.000000
# 4 0.000000 0.000000 0.000000 0.037615 0.000000 0.000000
# 5 0.000000 0.000000 0.000000 0.000000 0.078465 0.000000
# 6 0.000000 0.000000 0.000000 0.000000 0.000000 0.058615
#
#
# Mechanical properties :
#
#
# Convention : Reuss Voigt Hill
#
# Bulk Modulus (GPa) = 8.76313 24.95537 16.85925
# Shear Modulus (GPa) = 14.73774 21.65467 18.19621
#
# Velocity S-wave (km/s) = 2.80197 3.39644 3.11343
# Velocity P-wave (km/s) = 3.89054 5.35492 4.68036
#
# Compressibility (1/GPa) = 0.11411447
#
# Stress axis : x y z
#
# Youngs Moduli (GPa) = 23.45204 97.54007 14.83008
#
# Poissons Ratio (x) = 0.30868 -0.20106
# Poissons Ratio (y) = 0.07422 0.20016
# Poissons Ratio (z) = -0.31795 1.31651
#
# Static dielectric constant tensor:
#      x y z
#    x 1.705410 0.000000 0.000000 
#    y 0.000000 1.663260 0.000000 
#    z 0.000000 0.000000 1.633560 
# 
# From -- ./inp_files/9328.got.cif
#   From: 2010.05.17/outbox.ucp.g08.bks.cvg/sg58_5_cif.got.tgz:9328.got - 2010.06.11 16:41:41.
