data_PCOD9445904
_publ_section_title
;
Structure prediction by ZEFSAII (Michael W. Deem and Ramdas Pophale) SiO2 
 PCOD9445904
Probable space group: P N N M
;
_chemical_formula_sum "Si O2"
_cell_formula_units_Z 56
_cell_length_a 21.000000
_cell_length_b 15.000000
_cell_length_c 9.000000
_cell_angle_alpha 90.000000
_cell_angle_beta 90.000000
_cell_angle_gamma 90.000000
_cell_volume 2835.000000
_symmetry_space_group_name_H-M "P N N M"
_symmetry_group_IT_number 58
_symmetry_cell_setting 'orthorhombic'
loop_
_space_group_symop_operation_xyz
x,y,z
-x,-y,z
1/2+x,1/2-y,1/2-z
1/2-x,1/2+y,1/2-z
-x,-y,-z
x,y,-z
1/2-x,1/2+y,1/2+z
1/2+x,1/2-y,1/2+z
loop_
_atom_site_type_symbol
_atom_site_label
_atom_site_fract_x
_atom_site_fract_y
_atom_site_fract_z
Si Si1 0.071518 0.094977 0.819769
Si Si2 0.423017 0.397899 0.678904
Si Si3 0.092351 0.715677 0.679325
Si Si4 0.523994 0.097939 0.819331
Si Si5 0.815924 0.789823 0.821261
Si Si6 0.671024 0.111777 0.820940
Si Si7 0.203826 0.581955 0.319825
O O1 0.115347 0.175463 0.768544
O O2 0.998031 0.104603 0.778895
O O3 0.097882 0.997435 0.775452
O O4 0.072887 0.094517 0.000000
O O5 0.417572 0.391562 0.500000
O O6 0.392764 0.311718 0.752931
O O7 0.092664 0.722349 0.500000
O O8 0.143693 0.641514 0.724634
O O9 0.024196 0.675546 0.728564
O O10 0.596700 0.111885 0.775514
O O11 0.500000 0.000000 0.771257
O O12 0.522335 0.096831 0.000000
O O13 0.797154 0.697491 0.748974
O O14 0.766950 0.866508 0.778534
O O15 0.816070 0.781144 0.000000
O O16 0.699937 0.018873 0.767891
O O17 0.674131 0.116030 0.000000
O O18 0.201558 0.578051 0.500000
#
# Coordination Sequence:
#
# PCOD9445904 Si02
#       7
#     8   8   8   8   8   8   8
#     4   8  16  32  51  69  95 132 168 196 238 298
#     4   9  17  31  51  73  97 128 163 202 244 292
#     4  10  18  30  49  75 101 127 161 204 251 297
#     4   9  15  27  51  76  99 129 163 203 251 300
#     4  10  20  35  53  72  98 135 171 205 246 295
#     4  10  19  34  55  78 100 129 170 210 248 299
#     4   9  19  34  51  70  98 134 168 196 238 302
#
# _framework density 19.753086
#
# number of rings (size 3 to 8) (size 9 to 14) (size 15 to 20)
#    0.000    2.714    1.429    1.714    0.000    1.143 
#    0.000    5.714    0.000    0.857    0.000    0.000 
#    0.000    0.000    0.000    0.000    0.000    0.000 
#
# Total GULP energy -312163.742302 kJ/mol
# GULP energy per Si atom -5574.352541 kJ/mol
# Density = 1.970813 g / cm^3
# Si number density = 19.753086 Si / 1000 Ang^3
#
#
#
# Elastic Constant Matrix: (Units=GPa)
#
#
# Indices 1 2 3 4 5 6 
#
# 1 37.3310 29.5552 9.3927 0.0000 0.0000 0.0000
# 2 29.5552 157.4325 18.1346 0.0000 0.0000 0.0000
# 3 9.3927 18.1346 1.3628 0.0000 0.0000 0.0000
# 4 0.0000 0.0000 0.0000 25.0532 0.0000 0.0000
# 5 0.0000 0.0000 0.0000 0.0000 5.8637 0.0000
# 6 0.0000 0.0000 0.0000 0.0000 0.0000 9.5620
#
#
#
# Elastic Compliance Matrix: (Units=1/GPa)
#
#
# Indices 1 2 3 4 5 6 
#
# 1 0.012320 -0.014017 0.101603 0.000000 0.000000 0.000000
# 2 -0.014017 0.004025 0.043042 0.000000 0.000000 0.000000
# 3 0.101603 0.043042 -0.539251 0.000000 0.000000 0.000000
# 4 0.000000 0.000000 0.000000 0.039915 0.000000 0.000000
# 5 0.000000 0.000000 0.000000 0.000000 0.170541 0.000000
# 6 0.000000 0.000000 0.000000 0.000000 0.000000 0.104581
#
#
# Mechanical properties :
#
#
# Convention : Reuss Voigt Hill
#
# Bulk Modulus (GPa) = -3.82192 34.47682 15.32745
# Shear Modulus (GPa) = -8.98730 17.36534 4.18902
#
# Velocity S-wave (km/s) = -2.13534 2.96821 1.45784
# Velocity P-wave (km/s) = 2.83172 5.40729 3.25731
#
# Compressibility (1/GPa) = -0.26164886
#
# Stress axis : x y z
#
# Youngs Moduli (GPa) = 81.16633 248.42936 -1.85442
#
# Poissons Ratio (x) = 3.48211 0.18841
# Poissons Ratio (y) = 1.13767 0.07982
# Poissons Ratio (z) = -8.24672 -10.69290
#
# Static dielectric constant tensor:
#      x y z
#    x 1.727700 0.000000 0.000000 
#    y 0.000000 1.701430 0.000000 
#    z 0.000000 0.000000 1.663070 
# 
# From -- ./inp_files/8965.got.cif
#   From: 2010.05.17/outbox.ucp.g08.bks.cvg/sg58_5_cif.got.tgz:8965.got - 2010.06.11 16:41:41.
