data_PCOD9445496
_publ_section_title
;
Structure prediction by ZEFSAII (Michael W. Deem and Ramdas Pophale) SiO2 
 PCOD9445496
Probable space group: P N N M
;
_chemical_formula_sum "Si O2"
_cell_formula_units_Z 48
_cell_length_a 19.159280
_cell_length_b 5.061851
_cell_length_c 36.853075
_cell_angle_alpha 90.000000
_cell_angle_beta 90.000000
_cell_angle_gamma 90.000000
_cell_volume 3574.063568
_symmetry_space_group_name_H-M "P N N M"
_symmetry_group_IT_number 58
_symmetry_cell_setting 'orthorhombic'
loop_
_space_group_symop_operation_xyz
x,y,z
-x,-y,z
1/2+x,1/2-y,1/2-z
1/2-x,1/2+y,1/2-z
-x,-y,-z
x,y,-z
1/2-x,1/2+y,1/2+z
1/2+x,1/2-y,1/2+z
loop_
_atom_site_type_symbol
_atom_site_label
_atom_site_fract_x
_atom_site_fract_y
_atom_site_fract_z
Si Si1 0.133018 0.848680 0.842845
Si Si2 0.548050 0.745383 0.271832
Si Si3 0.168580 0.983122 0.274175
Si Si4 0.550883 0.250624 0.539268
Si Si5 0.236597 0.488433 0.298965
Si Si6 0.421576 0.871051 0.381563
O O1 0.097083 0.718943 0.806981
O O2 0.211495 0.918936 0.831357
O O3 0.127525 0.616906 0.872005
O O4 0.093332 0.115534 0.856170
O O5 0.500000 0.500000 0.281651
O O6 0.595571 0.640925 0.238657
O O7 0.500000 0.000000 0.264825
O O8 0.204759 0.777854 0.301180
O O9 0.214281 0.989862 0.237069
O O10 0.176415 0.273441 0.290885
O O11 0.500000 0.500000 0.542202
O O12 0.588222 0.265594 0.500000
O O13 0.590366 0.223705 0.577183
O O14 0.500000 0.000000 0.538071
O O15 0.500000 0.000000 0.377719
#
# Coordination Sequence:
#
# PCOD9445496 Si02
#       6
#     8   8   8   8   8   8
#     4  11  20  28  40  56  75  95 118 150 192 232
#     4  11  20  28  39  56  75  93 115 148 193 234
#     4   9  17  29  41  51  67  91 119 147 176 216
#     4   9  17  28  40  52  68  94 124 148 175 217
#     4   9  17  29  41  52  66  91 122 147 175 216
#     4  11  19  28  39  55  76  96 117 150 194 231
#
# _framework density 13.430092
#
# number of rings (size 3 to 8) (size 9 to 14) (size 15 to 20)
#    0.000    2.000    0.000    7.000    0.000    5.333 
#    0.000    0.000    0.000    0.000    0.000    0.000 
#    0.000    0.000    0.000    0.000    0.000    0.000 
#
# Total GULP energy -267295.817008 kJ/mol
# GULP energy per Si atom -5568.662854 kJ/mol
# Density = 1.339952 g / cm^3
# Si number density = 13.430092 Si / 1000 Ang^3
#
#
#
# Elastic Constant Matrix: (Units=GPa)
#
#
# Indices 1 2 3 4 5 6 
#
# 1 12.0997 -9.1961 9.3139 0.0000 0.0000 0.0000
# 2 -9.1961 62.2099 2.9530 0.0000 0.0000 0.0000
# 3 9.3139 2.9530 50.9499 0.0000 0.0000 0.0000
# 4 0.0000 0.0000 0.0000 17.3532 0.0000 0.0000
# 5 0.0000 0.0000 0.0000 0.0000 11.3182 0.0000
# 6 0.0000 0.0000 0.0000 0.0000 0.0000 12.2485
#
#
#
# Elastic Compliance Matrix: (Units=1/GPa)
#
#
# Indices 1 2 3 4 5 6 
#
# 1 0.112750 0.017694 -0.021637 0.000000 0.000000 0.000000
# 2 0.017694 0.018896 -0.004330 0.000000 0.000000 0.000000
# 3 -0.021637 -0.004330 0.023833 0.000000 0.000000 0.000000
# 4 0.000000 0.000000 0.000000 0.057626 0.000000 0.000000
# 5 0.000000 0.000000 0.000000 0.000000 0.088354 0.000000
# 6 0.000000 0.000000 0.000000 0.000000 0.000000 0.081643
#
#
# Mechanical properties :
#
#
# Convention : Reuss Voigt Hill
#
# Bulk Modulus (GPa) = 7.19764 14.60014 10.89889
# Shear Modulus (GPa) = 11.21179 16.32987 13.77083
#
# Velocity S-wave (km/s) = 2.89247 3.49078 3.20562
# Velocity P-wave (km/s) = 4.06524 5.20982 4.67271
#
# Compressibility (1/GPa) = 0.13893452
#
# Stress axis : x y z
#
# Youngs Moduli (GPa) = 8.86914 52.92199 41.95789
#
# Poissons Ratio (x) = -0.93641 0.90784
# Poissons Ratio (y) = -0.15693 0.18167
# Poissons Ratio (z) = 0.19190 0.22914
#
# Static dielectric constant tensor:
#      x y z
#    x 1.438080 0.000000 0.000000 
#    y 0.000000 1.456680 0.000000 
#    z 0.000000 0.000000 1.468050 
# 
# From -- ./inp_files/35108.got.cif
#   From: 2010.05.17/outbox.cif.g08.bks.cpg/sg58_18_cif.got.tgz:35108.got - 2010.06.03 14:20:14.
