data_PCOD9445493
_publ_section_title
;
Structure prediction by ZEFSAII (Michael W. Deem and Ramdas Pophale) SiO2 
 PCOD9445493
Probable space group: P N N M
;
_chemical_formula_sum "Si O2"
_cell_formula_units_Z 48
_cell_length_a 7.823266
_cell_length_b 14.776101
_cell_length_c 22.301077
_cell_angle_alpha 90.000000
_cell_angle_beta 90.000000
_cell_angle_gamma 90.000000
_cell_volume 2577.945817
_symmetry_space_group_name_H-M "P N N M"
_symmetry_group_IT_number 58
_symmetry_cell_setting 'orthorhombic'
loop_
_space_group_symop_operation_xyz
x,y,z
-x,-y,z
1/2+x,1/2-y,1/2-z
1/2-x,1/2+y,1/2-z
-x,-y,-z
x,y,-z
1/2-x,1/2+y,1/2+z
1/2+x,1/2-y,1/2+z
loop_
_atom_site_type_symbol
_atom_site_label
_atom_site_fract_x
_atom_site_fract_y
_atom_site_fract_z
Si Si1 0.787153 0.767950 0.933507
Si Si2 0.587422 0.593355 0.404816
Si Si3 0.470059 0.892300 0.899272
Si Si4 0.335618 0.451936 0.265882
Si Si5 0.377229 0.131955 0.228596
Si Si6 0.163581 0.298090 0.191911
O O1 0.620006 0.832758 0.928525
O O2 0.796621 0.698515 0.878483
O O3 0.952028 0.830750 0.921349
O O4 0.793365 0.728992 0.000000
O O5 0.500000 0.500000 0.427088
O O6 0.778998 0.619759 0.424243
O O7 0.615723 0.577353 0.333475
O O8 0.494055 0.866914 0.828631
O O9 0.500000 0.000000 0.904927
O O10 0.500000 0.500000 0.238657
O O11 0.191556 0.530153 0.266189
O O12 0.283351 0.366973 0.227241
O O13 0.218606 0.197095 0.211972
O O14 0.475805 0.172684 0.285738
#
# Coordination Sequence:
#
# PCOD9445493 Si02
#       6
#     8   8   8   8   8   8
#     4  11  26  40  53  79 119 164 205 240 279 340
#     4  11  19  35  58  87 118 148 188 240 300 364
#     4  11  18  36  58  84 115 151 188 243 298 353
#     4  11  20  35  61  92 120 146 182 243 309 363
#     4  11  20  34  59  92 120 147 186 239 309 357
#     4  11  21  36  58  86 118 152 190 241 294 353
#
# _framework density 18.619475999999999
#
# number of rings (size 3 to 8) (size 9 to 14) (size 15 to 20)
#    0.000    1.000    5.000    5.500    0.000    1.333 
#    0.000    0.000    0.000    2.500    0.000    0.000 
#    0.000    0.000    0.000    0.000    0.000    0.000 
#
# Total GULP energy -267943.912633 kJ/mol
# GULP energy per Si atom -5582.164847 kJ/mol
# Density = 1.857710 g / cm^3
# Si number density = 18.619476 Si / 1000 Ang^3
#
#
#
# Elastic Constant Matrix: (Units=GPa)
#
#
# Indices 1 2 3 4 5 6 
#
# 1 123.7180 4.3002 19.2063 0.0000 0.0000 0.0000
# 2 4.3002 40.9690 24.7367 0.0000 0.0000 0.0000
# 3 19.2063 24.7367 121.2291 0.0000 0.0000 0.0000
# 4 0.0000 0.0000 0.0000 12.1784 0.0000 0.0000
# 5 0.0000 0.0000 0.0000 0.0000 -12.3176 0.0000
# 6 0.0000 0.0000 0.0000 0.0000 0.0000 29.4101
#
#
#
# Elastic Compliance Matrix: (Units=1/GPa)
#
#
# Indices 1 2 3 4 5 6 
#
# 1 0.008287 -0.000088 -0.001295 0.000000 0.000000 0.000000
# 2 -0.000088 0.027839 -0.005667 0.000000 0.000000 0.000000
# 3 -0.001295 -0.005667 0.009610 0.000000 0.000000 0.000000
# 4 0.000000 0.000000 0.000000 0.082113 0.000000 0.000000
# 5 0.000000 0.000000 0.000000 0.000000 -0.081185 0.000000
# 6 0.000000 0.000000 0.000000 0.000000 0.000000 0.034002
#
#
# Mechanical properties :
#
#
# Convention : Reuss Voigt Hill
#
# Bulk Modulus (GPa) = 31.60804 42.48919 37.04862
# Shear Modulus (GPa) = 47.47833 21.69904 34.58869
#
# Velocity S-wave (km/s) = 5.05516 3.41749 4.31474
# Velocity P-wave (km/s) = 7.14741 6.20013 6.69056
#
# Compressibility (1/GPa) = 0.03163752
#
# Stress axis : x y z
#
# Youngs Moduli (GPa) = 120.67110 35.92032 104.05526
#
# Poissons Ratio (x) = 0.00316 0.13475
# Poissons Ratio (y) = 0.01061 0.58965
# Poissons Ratio (z) = 0.15626 0.20355
#
# Static dielectric constant tensor:
#      x y z
#    x 1.723620 0.000000 0.000000 
#    y 0.000000 1.612230 0.000000 
#    z 0.000000 0.000000 1.671800 
# 
# From -- ./inp_files/31545.got.cif
#   From: 2010.05.17/outbox.cif.g08.bks.cpg/sg58_16_cif.got.tgz:31545.got - 2010.06.03 14:20:14.
