data_PCOD9445700
_publ_section_title
;
Structure prediction by ZEFSAII (Michael W. Deem and Ramdas Pophale) SiO2 
 PCOD9445700
Probable space group: P N N M
;
_chemical_formula_sum "Si O2"
_cell_formula_units_Z 48
_cell_length_a 25.556101
_cell_length_b 9.763216
_cell_length_c 8.222324
_cell_angle_alpha 90.000000
_cell_angle_beta 90.000000
_cell_angle_gamma 90.000000
_cell_volume 2051.549876
_symmetry_space_group_name_H-M "P N N M"
_symmetry_group_IT_number 58
_symmetry_cell_setting 'orthorhombic'
loop_
_space_group_symop_operation_xyz
x,y,z
-x,-y,z
1/2+x,1/2-y,1/2-z
1/2-x,1/2+y,1/2-z
-x,-y,-z
x,y,-z
1/2-x,1/2+y,1/2+z
1/2+x,1/2-y,1/2+z
loop_
_atom_site_type_symbol
_atom_site_label
_atom_site_fract_x
_atom_site_fract_y
_atom_site_fract_z
Si Si1 0.470335 0.796706 0.809084
Si Si2 0.262266 0.809025 0.309098
Si Si3 0.421389 0.529187 0.310704
Si Si4 0.810757 0.953374 0.690211
Si Si5 0.865470 0.544175 0.308127
Si Si6 0.082835 0.716932 0.190993
O O1 0.458181 0.636201 0.780085
O O2 0.523512 0.834559 0.718674
O O3 0.418409 0.877173 0.754226
O O4 0.477819 0.824264 0.000000
O O5 0.256013 0.780217 0.500000
O O6 0.269480 0.668008 0.215081
O O7 0.214503 0.904358 0.254674
O O8 0.314956 0.897619 0.281689
O O9 0.436718 0.526535 0.500000
O O10 0.362207 0.582202 0.290614
O O11 0.418397 0.373619 0.247747
O O12 0.824648 0.961422 0.500000
O O13 0.858317 0.571683 0.500000
O O14 0.877340 0.384649 0.278970
O O15 0.095128 0.718803 0.000000
#
# Coordination Sequence:
#
# PCOD9445700 Si02
#       6
#     8   8   8   8   8   8
#     4  11  23  41  65  94 127 168 215 266 319 377
#     4  11  25  44  68  97 128 167 211 259 317 377
#     4  11  24  42  65  93 128 169 213 262 318 377
#     4  11  25  44  67  97 128 164 211 260 315 378
#     4  11  24  42  65  94 129 168 213 264 317 377
#     4  11  25  41  62  95 130 170 216 264 315 378
#
# _framework density 23.396946
#
# number of rings (size 3 to 8) (size 9 to 14) (size 15 to 20)
#    0.000    1.000    1.667    4.000    2.333   11.333 
#    0.000    0.000    0.000    0.000    0.000    0.000 
#    0.000    0.000    0.000    0.000    0.000    0.000 
#
# Total GULP energy -268859.126943 kJ/mol
# GULP energy per Si atom -5601.231811 kJ/mol
# Density = 2.334369 g / cm^3
# Si number density = 23.396946 Si / 1000 Ang^3
#
#
#
# Elastic Constant Matrix: (Units=GPa)
#
#
# Indices 1 2 3 4 5 6 
#
# 1 38.4804 -2.5530 -2.1187 0.0000 0.0000 0.0000
# 2 -2.5530 85.8507 -4.8931 0.0000 0.0000 0.0000
# 3 -2.1187 -4.8931 25.2332 0.0000 0.0000 0.0000
# 4 0.0000 0.0000 0.0000 43.1800 0.0000 0.0000
# 5 0.0000 0.0000 0.0000 0.0000 -66.9015 0.0000
# 6 0.0000 0.0000 0.0000 0.0000 0.0000 40.9428
#
#
#
# Elastic Compliance Matrix: (Units=1/GPa)
#
#
# Indices 1 2 3 4 5 6 
#
# 1 0.026179 0.000914 0.002375 0.000000 0.000000 0.000000
# 2 0.000914 0.011810 0.002367 0.000000 0.000000 0.000000
# 3 0.002375 0.002367 0.040289 0.000000 0.000000 0.000000
# 4 0.000000 0.000000 0.000000 0.023159 0.000000 0.000000
# 5 0.000000 0.000000 0.000000 0.000000 -0.014947 0.000000
# 6 0.000000 0.000000 0.000000 0.000000 0.000000 0.024424
#
#
# Mechanical properties :
#
#
# Convention : Reuss Voigt Hill
#
# Bulk Modulus (GPa) = 11.16199 14.49274 12.82736
# Shear Modulus (GPa) = 38.62064 14.05288 26.33676
#
# Velocity S-wave (km/s) = 4.06725 2.45343 3.35871
# Velocity P-wave (km/s) = 5.18052 3.77273 4.53163
#
# Compressibility (1/GPa) = 0.08958980
#
# Stress axis : x y z
#
# Youngs Moduli (GPa) = 38.19904 84.67251 24.82085
#
# Poissons Ratio (x) = -0.07738 -0.05896
# Poissons Ratio (y) = -0.03491 -0.05875
# Poissons Ratio (z) = -0.09074 -0.20041
#
# Static dielectric constant tensor:
#      x y z
#    x 1.884370 0.000000 0.000000 
#    y 0.000000 1.920290 0.000000 
#    z 0.000000 0.000000 1.785030 
# 
# From -- ./inp_files/10739.got.cif
#   From: 2010.05.17/outbox.cif.g08.bks.cpg/sg58_6_cif.got.tgz:10739.got - 2010.06.03 14:20:14.
