data_PCOD9445186
_publ_section_title
;
Structure prediction by ZEFSAII (Michael W. Deem and Ramdas Pophale) SiO2 
 PCOD9445186
Probable space group: P N N M
;
_chemical_formula_sum "Si O2"
_cell_formula_units_Z 48
_cell_length_a 10.223982
_cell_length_b 8.540709
_cell_length_c 27.953038
_cell_angle_alpha 90.000000
_cell_angle_beta 90.000000
_cell_angle_gamma 90.000000
_cell_volume 2440.860818
_symmetry_space_group_name_H-M "P N N M"
_symmetry_group_IT_number 58
_symmetry_cell_setting 'orthorhombic'
loop_
_space_group_symop_operation_xyz
x,y,z
-x,-y,z
1/2+x,1/2-y,1/2-z
1/2-x,1/2+y,1/2-z
-x,-y,-z
x,y,-z
1/2-x,1/2+y,1/2+z
1/2+x,1/2-y,1/2+z
loop_
_atom_site_type_symbol
_atom_site_label
_atom_site_fract_x
_atom_site_fract_y
_atom_site_fract_z
Si Si1 0.120980 0.381732 0.856211
Si Si2 0.354038 0.561754 0.810234
Si Si3 0.367698 0.899243 0.846364
Si Si4 0.360993 0.578840 0.299214
Si Si5 0.895536 0.860098 0.944780
Si Si6 0.856602 0.576344 0.449611
O O1 0.252694 0.481573 0.846619
O O2 0.119797 0.259886 0.811995
O O3 0.108662 0.276008 0.904662
O O4 0.000000 0.500000 0.854670
O O5 0.500000 0.500000 0.818977
O O6 0.360696 0.748479 0.813844
O O7 0.319485 0.534286 0.754558
O O8 0.352209 0.833196 0.900172
O O9 0.500000 0.000000 0.842168
O O10 0.248466 0.012460 0.834353
O O11 0.500000 0.500000 0.308285
O O12 0.753563 0.942655 0.946140
O O13 0.924157 0.807460 0.000000
O O14 0.000000 0.000000 0.933546
O O15 0.834876 0.662105 0.500000
O O16 0.000000 0.500000 0.450853
#
# Coordination Sequence:
#
# PCOD9445186 Si02
#       6
#     8   8   8   8   8   8
#     4  12  25  40  63  95 131 165 209 273 330 371
#     4  11  26  41  60  92 127 162 208 267 329 372
#     4  11  22  39  66  88 119 167 210 256 307 382
#     4  11  23  42  63  87 122 168 217 257 311 391
#     4  10  22  42  68  96 130 173 216 256 311 393
#     4   9  19  36  64  94 118 157 212 253 292 366
#
# _framework density 19.665192000000001
#
# number of rings (size 3 to 8) (size 9 to 14) (size 15 to 20)
#    0.000    1.333    1.667    3.500    4.667    5.667 
#    0.000    0.833    0.000    1.000    0.000    0.000 
#    0.000    0.000    0.000    0.000    0.000    0.000 
#
# Total GULP energy -267739.810447 kJ/mol
# GULP energy per Si atom -5577.912718 kJ/mol
# Density = 1.962043 g / cm^3
# Si number density = 19.665192 Si / 1000 Ang^3
#
#
#
# Elastic Constant Matrix: (Units=GPa)
#
#
# Indices 1 2 3 4 5 6 
#
# 1 101.5130 54.3901 64.8522 0.0000 0.0000 0.0000
# 2 54.3901 88.2600 21.8446 0.0000 0.0000 0.0000
# 3 64.8522 21.8446 111.3577 0.0000 0.0000 0.0000
# 4 0.0000 0.0000 0.0000 -141.6685 0.0000 0.0000
# 5 0.0000 0.0000 0.0000 0.0000 57.2802 0.0000
# 6 0.0000 0.0000 0.0000 0.0000 0.0000 26.4394
#
#
#
# Elastic Compliance Matrix: (Units=1/GPa)
#
#
# Indices 1 2 3 4 5 6 
#
# 1 0.023219 -0.011521 -0.011262 0.000000 0.000000 0.000000
# 2 -0.011521 0.017625 0.003252 0.000000 0.000000 0.000000
# 3 -0.011262 0.003252 0.014901 0.000000 0.000000 0.000000
# 4 0.000000 0.000000 0.000000 -0.007059 0.000000 0.000000
# 5 0.000000 0.000000 0.000000 0.000000 0.017458 0.000000
# 6 0.000000 0.000000 0.000000 0.000000 0.000000 0.037822
#
#
# Mechanical properties :
#
#
# Convention : Reuss Voigt Hill
#
# Bulk Modulus (GPa) = 59.94199 64.81161 62.37680
# Shear Modulus (GPa) = 33.64988 -0.92018 16.36485
#
# Velocity S-wave (km/s) = 4.14108 -0.68479 2.88787
# Velocity P-wave (km/s) = 7.30836 5.69244 6.55042
#
# Compressibility (1/GPa) = 0.01668280
#
# Stress axis : x y z
#
# Youngs Moduli (GPa) = 43.06879 56.73730 67.11041
#
# Poissons Ratio (x) = 0.65368 0.75580
# Poissons Ratio (y) = 0.49620 -0.21826
# Poissons Ratio (z) = 0.48504 -0.18452
#
# Static dielectric constant tensor:
#      x y z
#    x 1.655910 0.000000 0.000000 
#    y 0.000000 1.640300 0.000000 
#    z 0.000000 0.000000 1.745140 
# 
# From -- ./inp_files/34542.got.cif
#   From: 2010.05.17/outbox.cif.g08.bks.cpg/sg58_18_cif.got.tgz:34542.got - 2010.06.03 14:20:14.
