data_PCOD9445993
_publ_section_title
;
Structure prediction by ZEFSAII (Michael W. Deem and Ramdas Pophale) SiO2 
 PCOD9445993
Probable space group: P N N M
;
_chemical_formula_sum "Si O2"
_cell_formula_units_Z 64
_cell_length_a 12.000000
_cell_length_b 18.000000
_cell_length_c 15.000000
_cell_angle_alpha 90.000000
_cell_angle_beta 90.000000
_cell_angle_gamma 90.000000
_cell_volume 3240.000000
_symmetry_space_group_name_H-M "P N N M"
_symmetry_group_IT_number 58
_symmetry_cell_setting 'orthorhombic'
loop_
_space_group_symop_operation_xyz
x,y,z
-x,-y,z
1/2+x,1/2-y,1/2-z
1/2-x,1/2+y,1/2-z
-x,-y,-z
x,y,-z
1/2-x,1/2+y,1/2+z
1/2+x,1/2-y,1/2+z
loop_
_atom_site_type_symbol
_atom_site_label
_atom_site_fract_x
_atom_site_fract_y
_atom_site_fract_z
Si Si1 0.822152 0.224107 0.398237
Si Si2 0.551622 0.123027 0.261382
Si Si3 0.197884 0.900447 0.259437
Si Si4 0.397299 0.107191 0.105297
Si Si5 0.409116 0.717103 0.679823
Si Si6 0.647388 0.705514 0.600410
Si Si7 0.847876 0.378914 0.893991
Si Si8 0.801548 0.934141 0.760621
O O1 0.827817 0.198741 0.500000
O O2 0.853542 0.156435 0.332403
O O3 0.886208 0.302538 0.390397
O O4 0.697202 0.250895 0.373090
O O5 0.671733 0.089740 0.283266
O O6 0.502508 0.091273 0.169172
O O7 0.562549 0.213241 0.256057
O O8 0.464813 0.109309 0.342071
O O9 0.197110 0.851890 0.169749
O O10 0.149478 0.982473 0.242499
O O11 0.290880 0.073650 0.159367
O O12 0.402095 0.086669 0.000000
O O13 0.514410 0.705457 0.616015
O O14 0.379901 0.637756 0.723345
O O15 0.676115 0.685742 0.500000
O O16 0.680984 0.791067 0.617153
O O17 0.758439 0.422146 0.834665
O O18 0.852627 0.394730 0.000000
#
# Coordination Sequence:
#
# PCOD9445993 Si02
#       8
#     8   8   8   8   8   8   8   8
#     4   9  17  32  55  78  98 128 174 220 257 300
#     4   9  18  33  53  76  99 130 172 214 257 305
#     4  11  22  33  48  76 113 142 167 205 258 315
#     4   9  18  34  55  74  95 129 174 217 253 296
#     4   9  17  34  56  75  99 134 174 218 258 300
#     4  10  20  35  55  77 101 134 180 226 259 295
#     4   9  18  35  58  81 103 131 173 221 263 305
#     4  10  21  35  51  77 111 140 164 202 260 319
#
# _framework density 19.753086
#
# number of rings (size 3 to 8) (size 9 to 14) (size 15 to 20)
#    0.000    2.500    0.000    4.125    0.000    7.500 
#    0.000    2.500    0.000    0.750    0.000    3.500 
#    0.000    0.000    0.000    0.000    0.000    0.000 
#
# Total GULP energy -356968.923344 kJ/mol
# GULP energy per Si atom -5577.639427 kJ/mol
# Density = 1.970813 g / cm^3
# Si number density = 19.753086 Si / 1000 Ang^3
#
#
#
# Elastic Constant Matrix: (Units=GPa)
#
#
# Indices 1 2 3 4 5 6 
#
# 1 3.7998 -10.1423 1.0232 0.0000 0.0000 0.0000
# 2 -10.1423 81.1373 42.4421 0.0000 0.0000 0.0000
# 3 1.0232 42.4421 124.0791 0.0000 0.0000 0.0000
# 4 0.0000 0.0000 0.0000 18.6010 0.0000 0.0000
# 5 0.0000 0.0000 0.0000 0.0000 12.9413 0.0000
# 6 0.0000 0.0000 0.0000 0.0000 0.0000 15.4434
#
#
#
# Elastic Compliance Matrix: (Units=1/GPa)
#
#
# Indices 1 2 3 4 5 6 
#
# 1 0.467541 0.073635 -0.029043 0.000000 0.000000 0.000000
# 2 0.073635 0.026608 -0.009709 0.000000 0.000000 0.000000
# 3 -0.029043 -0.009709 0.011620 0.000000 0.000000 0.000000
# 4 0.000000 0.000000 0.000000 0.053761 0.000000 0.000000
# 5 0.000000 0.000000 0.000000 0.000000 0.077272 0.000000
# 6 0.000000 0.000000 0.000000 0.000000 0.000000 0.064752
#
#
# Mechanical properties :
#
#
# Convention : Reuss Voigt Hill
#
# Bulk Modulus (GPa) = 1.73751 30.62915 16.18333
# Shear Modulus (GPa) = 6.07067 21.11001 13.59034
#
# Velocity S-wave (km/s) = 1.75498 3.27264 2.62584
# Velocity P-wave (km/s) = 2.23341 5.46076 4.17181
#
# Compressibility (1/GPa) = 0.57553616
#
# Stress axis : x y z
#
# Youngs Moduli (GPa) = 2.13885 37.58293 86.06000
#
# Poissons Ratio (x) = -2.76744 2.49946
# Poissons Ratio (y) = -0.15750 0.83553
# Poissons Ratio (z) = 0.06212 0.36488
#
# Static dielectric constant tensor:
#      x y z
#    x 1.743080 0.000000 0.000000 
#    y 0.000000 1.713250 0.000000 
#    z 0.000000 0.000000 1.672680 
# 
# From -- ./inp_files/21531.got.cif
#   From: 2010.05.17/outbox.ucp.g08.bks.cvg/sg58_11_cif.got.tgz:21531.got - 2010.06.11 16:41:41.
