data_PCOD9445995
_publ_section_title
;
Structure prediction by ZEFSAII (Michael W. Deem and Ramdas Pophale) SiO2 
 PCOD9445995
Probable space group: P N N M
;
_chemical_formula_sum "Si O2"
_cell_formula_units_Z 56
_cell_length_a 21.000000
_cell_length_b 18.000000
_cell_length_c 9.000000
_cell_angle_alpha 90.000000
_cell_angle_beta 90.000000
_cell_angle_gamma 90.000000
_cell_volume 3402.000000
_symmetry_space_group_name_H-M "P N N M"
_symmetry_group_IT_number 58
_symmetry_cell_setting 'orthorhombic'
loop_
_space_group_symop_operation_xyz
x,y,z
-x,-y,z
1/2+x,1/2-y,1/2-z
1/2-x,1/2+y,1/2-z
-x,-y,-z
x,y,-z
1/2-x,1/2+y,1/2+z
1/2+x,1/2-y,1/2+z
loop_
_atom_site_type_symbol
_atom_site_label
_atom_site_fract_x
_atom_site_fract_y
_atom_site_fract_z
Si Si1 0.117342 0.789914 0.179400
Si Si2 0.468103 0.689970 0.678594
Si Si3 0.692001 0.570978 0.181316
Si Si4 0.569174 0.463495 0.179104
Si Si5 0.096436 0.615329 0.820189
Si Si6 0.834779 0.530624 0.681924
Si Si7 0.445653 0.862783 0.320112
O O1 0.165492 0.848477 0.258595
O O2 0.120254 0.700487 0.214429
O O3 0.043894 0.812215 0.216258
O O4 0.125174 0.796459 0.000000
O O5 0.463294 0.682893 0.500000
O O6 0.432725 0.620011 0.753512
O O7 0.443840 0.773844 0.715822
O O8 0.632951 0.512603 0.218089
O O9 0.762466 0.549039 0.251822
O O10 0.698030 0.572732 0.000000
O O11 0.500000 0.500000 0.223159
O O12 0.568932 0.458748 0.000000
O O13 0.137209 0.549711 0.740642
O O14 0.019531 0.612183 0.785338
O O15 0.101600 0.606152 0.000000
O O16 0.832054 0.531560 0.500000
O O17 0.889025 0.590103 0.740856
O O18 0.438525 0.870660 0.500000
#
# Coordination Sequence:
#
# PCOD9445995 Si02
#       7
#     8   8   8   8   8   8   8
#     4   9  18  35  59  87 114 143 183 230 281 336
#     4   9  18  33  58  89 115 143 183 230 279 335
#     4  11  23  39  58  79 113 158 193 231 289 345
#     4  10  20  35  56  84 114 147 189 234 281 335
#     4   9  19  38  64  88 114 149 188 232 287 348
#     4  12  25  39  56  84 117 151 196 241 285 337
#     4   9  19  38  62  87 115 150 189 232 288 347
#
# _framework density 16.460905
#
# number of rings (size 3 to 8) (size 9 to 14) (size 15 to 20)
#    0.000    2.143    1.429    3.857    0.000    4.857 
#    2.571    2.857    0.000    0.000    0.000    0.000 
#    0.000    0.000    0.000    0.000    0.000    0.000 
#
# Total GULP energy -311984.642632 kJ/mol
# GULP energy per Si atom -5571.154333 kJ/mol
# Density = 1.642344 g / cm^3
# Si number density = 16.460905 Si / 1000 Ang^3
#
#
#
# Elastic Constant Matrix: (Units=GPa)
#
#
# Indices 1 2 3 4 5 6 
#
# 1 148.9494 83.7012 51.5151 0.0000 0.0000 0.0000
# 2 83.7012 158.3131 51.3863 0.0000 0.0000 0.0000
# 3 51.5151 51.3863 78.0037 0.0000 0.0000 0.0000
# 4 0.0000 0.0000 0.0000 39.7526 0.0000 0.0000
# 5 0.0000 0.0000 0.0000 0.0000 33.2990 0.0000
# 6 0.0000 0.0000 0.0000 0.0000 0.0000 39.2706
#
#
#
# Elastic Compliance Matrix: (Units=1/GPa)
#
#
# Indices 1 2 3 4 5 6 
#
# 1 0.010523 -0.004208 -0.004178 0.000000 0.000000 0.000000
# 2 -0.004208 0.009717 -0.003622 0.000000 0.000000 0.000000
# 3 -0.004178 -0.003622 0.017965 0.000000 0.000000 0.000000
# 4 0.000000 0.000000 0.000000 0.025156 0.000000 0.000000
# 5 0.000000 0.000000 0.000000 0.000000 0.030031 0.000000
# 6 0.000000 0.000000 0.000000 0.000000 0.000000 0.025464
#
#
# Mechanical properties :
#
#
# Convention : Reuss Voigt Hill
#
# Bulk Modulus (GPa) = 70.47362 84.27458 77.37410
# Shear Modulus (GPa) = 33.87495 35.70868 34.79182
#
# Velocity S-wave (km/s) = 4.54133 4.66263 4.60238
# Velocity P-wave (km/s) = 8.39071 8.96074 8.68040
#
# Compressibility (1/GPa) = 0.01418971
#
# Stress axis : x y z
#
# Youngs Moduli (GPa) = 95.02993 102.91288 55.66263
#
# Poissons Ratio (x) = 0.43301 0.23255
# Poissons Ratio (y) = 0.39984 0.20164
# Poissons Ratio (z) = 0.39702 0.37280
#
# Static dielectric constant tensor:
#      x y z
#    x 1.555470 0.000000 0.000000 
#    y 0.000000 1.577460 0.000000 
#    z 0.000000 0.000000 1.559750 
# 
# From -- ./inp_files/9162.got.cif
#   From: 2010.05.17/outbox.ucp.g08.bks.cvg/sg58_5_cif.got.tgz:9162.got - 2010.06.11 16:41:41.
