data_PCOD9445074
_publ_section_title
;
Structure prediction by ZEFSAII (Michael W. Deem and Ramdas Pophale) SiO2 
 PCOD9445074
Probable space group: P N N M
;
_chemical_formula_sum "Si O2"
_cell_formula_units_Z 40
_cell_length_a 17.688580
_cell_length_b 5.590404
_cell_length_c 18.354497
_cell_angle_alpha 90.000000
_cell_angle_beta 90.000000
_cell_angle_gamma 90.000000
_cell_volume 1815.008451
_symmetry_space_group_name_H-M "P N N M"
_symmetry_group_IT_number 58
_symmetry_cell_setting 'orthorhombic'
loop_
_space_group_symop_operation_xyz
x,y,z
-x,-y,z
1/2+x,1/2-y,1/2-z
1/2-x,1/2+y,1/2-z
-x,-y,-z
x,y,-z
1/2-x,1/2+y,1/2+z
1/2+x,1/2-y,1/2+z
loop_
_atom_site_type_symbol
_atom_site_label
_atom_site_fract_x
_atom_site_fract_y
_atom_site_fract_z
Si Si1 0.452415 0.748531 0.415298
Si Si2 0.695556 0.235967 0.829158
Si Si3 0.919766 0.116280 0.275577
Si Si4 0.413282 0.082266 0.920377
Si Si5 0.338408 0.004114 0.313987
O O1 0.500000 0.500000 0.401032
O O2 0.427164 0.726660 0.500000
O O3 0.500000 0.000000 0.411776
O O4 0.381426 0.801342 0.360870
O O5 0.642734 0.417530 0.785092
O O6 0.772554 0.355199 0.856834
O O7 0.645028 0.119311 0.892603
O O8 0.705669 0.049864 0.762643
O O9 0.916791 0.233289 0.355077
O O10 0.901555 0.312256 0.215089
O O11 0.000000 0.000000 0.262950
O O12 0.500000 0.000000 0.925251
O O13 0.390550 0.173760 0.000000
#
# Coordination Sequence:
#
# PCOD9445074 Si02
#       5
#     8   8   8   8   8
#     4  10  25  47  71 102 137 183 242 297 360 432
#     4  11  23  41  62  98 134 175 233 286 353 420
#     4  11  23  40  64  99 132 182 236 282 347 421
#     4  10  22  40  63  95 135 180 233 287 339 415
#     4  11  25  40  69  98 139 179 228 302 355 420
#
# _framework density 22.038466
#
# number of rings (size 3 to 8) (size 9 to 14) (size 15 to 20)
#    0.000    1.400    4.000    0.000    5.600    2.000 
#    0.000    0.000    0.000    0.000    0.000    0.000 
#    0.000    0.000    0.000    0.000    0.000    0.000 
#
# Total GULP energy -223071.354942 kJ/mol
# GULP energy per Si atom -5576.783874 kJ/mol
# Density = 2.198831 g / cm^3
# Si number density = 22.038466 Si / 1000 Ang^3
#
#
#
# Elastic Constant Matrix: (Units=GPa)
#
#
# Indices 1 2 3 4 5 6 
#
# 1 141.2734 48.7892 53.3174 0.0000 0.0000 0.0000
# 2 48.7892 57.5830 0.8804 0.0000 0.0000 0.0000
# 3 53.3174 0.8804 83.1215 0.0000 0.0000 0.0000
# 4 0.0000 0.0000 0.0000 26.1094 0.0000 0.0000
# 5 0.0000 0.0000 0.0000 0.0000 312.6253 0.0000
# 6 0.0000 0.0000 0.0000 0.0000 0.0000 48.9535
#
#
#
# Elastic Compliance Matrix: (Units=1/GPa)
#
#
# Indices 1 2 3 4 5 6 
#
# 1 0.014997 -0.012562 -0.009487 0.000000 0.000000 0.000000
# 2 -0.012562 0.027891 0.007762 0.000000 0.000000 0.000000
# 3 -0.009487 0.007762 0.018033 0.000000 0.000000 0.000000
# 4 0.000000 0.000000 0.000000 0.038300 0.000000 0.000000
# 5 0.000000 0.000000 0.000000 0.000000 0.003199 0.000000
# 6 0.000000 0.000000 0.000000 0.000000 0.000000 0.020428
#
#
# Mechanical properties :
#
#
# Convention : Reuss Voigt Hill
#
# Bulk Modulus (GPa) = 30.91284 54.21689 42.56486
# Shear Modulus (GPa) = 30.82551 89.47035 60.14793
#
# Velocity S-wave (km/s) = 3.74400 6.37852 5.22987
# Velocity P-wave (km/s) = 5.72252 8.88267 7.47158
#
# Compressibility (1/GPa) = 0.03234902
#
# Stress axis : x y z
#
# Youngs Moduli (GPa) = 66.68007 35.85402 55.45251
#
# Poissons Ratio (x) = 0.45039 0.52606
# Poissons Ratio (y) = 0.83761 -0.43043
# Poissons Ratio (z) = 0.63257 -0.27830
#
# Static dielectric constant tensor:
#      x y z
#    x 1.773130 0.000000 0.000000 
#    y 0.000000 1.916380 0.000000 
#    z 0.000000 0.000000 1.948580 
# 
# From -- ./inp_files/27152.got.cif
#   From: 2010.05.17/outbox.cif.g08.bks.cpg/sg58_14_cif.got.tgz:27152.got - 2010.06.03 14:20:14.
