data_PCOD9445631
_publ_section_title
;
Structure prediction by ZEFSAII (Michael W. Deem and Ramdas Pophale) SiO2 
 PCOD9445631
Probable space group: P N N M
;
_chemical_formula_sum "Si O2"
_cell_formula_units_Z 56
_cell_length_a 23.145004
_cell_length_b 8.825006
_cell_length_c 13.850382
_cell_angle_alpha 90.000000
_cell_angle_beta 90.000000
_cell_angle_gamma 90.000000
_cell_volume 2829.006994
_symmetry_space_group_name_H-M "P N N M"
_symmetry_group_IT_number 58
_symmetry_cell_setting 'orthorhombic'
loop_
_space_group_symop_operation_xyz
x,y,z
-x,-y,z
1/2+x,1/2-y,1/2-z
1/2-x,1/2+y,1/2-z
-x,-y,-z
x,y,-z
1/2-x,1/2+y,1/2+z
1/2+x,1/2-y,1/2+z
loop_
_atom_site_type_symbol
_atom_site_label
_atom_site_fract_x
_atom_site_fract_y
_atom_site_fract_z
Si Si1 0.580721 0.650091 0.116344
Si Si2 0.690704 0.837993 0.192859
Si Si3 0.186700 0.144707 0.891406
Si Si4 0.365000 0.868298 0.757557
Si Si5 0.158930 0.788505 0.110124
Si Si6 0.549130 0.304995 0.884260
Si Si7 0.937582 0.433735 0.886169
O O1 0.634723 0.742632 0.157774
O O2 0.517683 0.712450 0.146679
O O3 0.574899 0.471408 0.141160
O O4 0.584039 0.659010 0.000000
O O5 0.745955 0.816740 0.125766
O O6 0.696845 0.786412 0.304771
O O7 0.679855 0.018176 0.193451
O O8 0.157996 0.225211 0.800172
O O9 0.170184 0.967560 0.885709
O O10 0.169696 0.196231 0.000000
O O11 0.411690 0.819215 0.835323
O O12 0.393421 0.967973 0.674119
O O13 0.091434 0.734739 0.125738
O O14 0.826310 0.260852 0.000000
O O15 0.550030 0.295611 0.000000
O O16 0.000000 0.500000 0.855051
O O17 0.935232 0.463018 0.000000
#
# Coordination Sequence:
#
# PCOD9445631 Si02
#       7
#     8   8   8   8   8   8   8
#     4   9  19  38  60  85 116 157 196 243 299 356
#     4  11  22  37  62  86 117 158 201 245 295 357
#     4  11  23  41  59  84 119 159 205 250 294 353
#     4  11  23  35  58  88 120 150 197 241 306 350
#     4   9  20  38  59  82 118 159 197 246 298 351
#     4   9  20  37  58  85 121 152 191 244 302 362
#     4   9  19  37  59  84 115 151 196 246 301 359
#
# _framework density 19.794930999999998
#
# number of rings (size 3 to 8) (size 9 to 14) (size 15 to 20)
#    0.000    2.143    0.000    3.429    4.000    1.714 
#    0.000    2.143    0.000    6.857    0.000    0.000 
#    0.000    0.000    0.000    0.000    0.000    0.000 
#
# Total GULP energy -311898.853022 kJ/mol
# GULP energy per Si atom -5569.622375 kJ/mol
# Density = 1.974988 g / cm^3
# Si number density = 19.794931 Si / 1000 Ang^3
#
#
#
# Elastic Constant Matrix: (Units=GPa)
#
#
# Indices 1 2 3 4 5 6 
#
# 1 58.1202 22.3123 23.4161 0.0000 0.0000 0.0000
# 2 22.3123 54.7664 16.4437 0.0000 0.0000 0.0000
# 3 23.4161 16.4437 41.0104 0.0000 0.0000 0.0000
# 4 0.0000 0.0000 0.0000 65.7774 0.0000 0.0000
# 5 0.0000 0.0000 0.0000 0.0000 25.4186 0.0000
# 6 0.0000 0.0000 0.0000 0.0000 0.0000 26.6058
#
#
#
# Elastic Compliance Matrix: (Units=1/GPa)
#
#
# Indices 1 2 3 4 5 6 
#
# 1 0.024223 -0.006498 -0.011225 0.000000 0.000000 0.000000
# 2 -0.006498 0.022502 -0.005312 0.000000 0.000000 0.000000
# 3 -0.011225 -0.005312 0.032923 0.000000 0.000000 0.000000
# 4 0.000000 0.000000 0.000000 0.015203 0.000000 0.000000
# 5 0.000000 0.000000 0.000000 0.000000 0.039341 0.000000
# 6 0.000000 0.000000 0.000000 0.000000 0.000000 0.037586
#
#
# Mechanical properties :
#
#
# Convention : Reuss Voigt Hill
#
# Bulk Modulus (GPa) = 29.78227 30.91569 30.34898
# Shear Modulus (GPa) = 21.83012 29.67534 25.75273
#
# Velocity S-wave (km/s) = 3.32447 3.87607 3.61082
# Velocity P-wave (km/s) = 5.46024 5.97359 5.72267
#
# Compressibility (1/GPa) = 0.03357703
#
# Stress axis : x y z
#
# Youngs Moduli (GPa) = 41.28320 44.44101 30.37356
#
# Poissons Ratio (x) = 0.28879 0.34095
# Poissons Ratio (y) = 0.26827 0.16135
# Poissons Ratio (z) = 0.46341 0.23607
#
# Static dielectric constant tensor:
#      x y z
#    x 1.745680 0.000000 0.000000 
#    y 0.000000 1.725420 0.000000 
#    z 0.000000 0.000000 1.693330 
# 
# From -- ./inp_files/23247.got.cif
#   From: 2010.05.17/outbox.cif.g08.bks.cpg/sg58_12_cif.got.tgz:23247.got - 2010.06.03 14:20:14.
