data_PCOD9445124
_publ_section_title
;
Structure prediction by ZEFSAII (Michael W. Deem and Ramdas Pophale) SiO2 
 PCOD9445124
Probable space group: P N N M
;
_chemical_formula_sum "Si O2"
_cell_formula_units_Z 48
_cell_length_a 8.944207
_cell_length_b 8.332578
_cell_length_c 30.241840
_cell_angle_alpha 90.000000
_cell_angle_beta 90.000000
_cell_angle_gamma 90.000000
_cell_volume 2253.872999
_symmetry_space_group_name_H-M "P N N M"
_symmetry_group_IT_number 58
_symmetry_cell_setting 'orthorhombic'
loop_
_space_group_symop_operation_xyz
x,y,z
-x,-y,z
1/2+x,1/2-y,1/2-z
1/2-x,1/2+y,1/2-z
-x,-y,-z
x,y,-z
1/2-x,1/2+y,1/2+z
1/2+x,1/2-y,1/2+z
loop_
_atom_site_type_symbol
_atom_site_label
_atom_site_fract_x
_atom_site_fract_y
_atom_site_fract_z
Si Si1 0.965911 0.313166 0.550364
Si Si2 0.140209 0.091853 0.621537
Si Si3 0.937689 0.320891 0.842461
Si Si4 0.891802 0.133765 0.241378
Si Si5 0.341681 0.082819 0.809844
Si Si6 0.797216 0.742627 0.104486
O O1 0.996922 0.264055 0.500000
O O2 0.789311 0.299868 0.561342
O O3 0.000000 0.500000 0.556083
O O4 0.063767 0.203667 0.584117
O O5 0.259128 0.185494 0.651239
O O6 0.244353 0.943712 0.605900
O O7 0.000000 0.000000 0.642939
O O8 0.976276 0.218374 0.799570
O O9 0.000000 0.500000 0.834184
O O10 0.026513 0.256853 0.885468
O O11 0.856139 0.264261 0.277817
O O12 0.752947 0.044026 0.218812
O O13 0.000000 0.000000 0.260212
O O14 0.271124 0.151403 0.855193
O O15 0.500000 0.000000 0.819986
#
# Coordination Sequence:
#
# PCOD9445124 Si02
#       6
#     8   8   8   8   8   8
#     4  10  22  41  66  98 134 167 214 275 333 401
#     4   9  21  37  66  92 122 164 213 266 322 391
#     4  10  22  42  64  90 131 168 217 271 329 394
#     4  12  26  43  63  91 130 179 216 282 328 388
#     4  12  27  42  64  96 131 176 228 275 330 403
#     4  10  22  41  63  94 128 174 216 265 333 390
#
# _framework density 21.296675
#
# number of rings (size 3 to 8) (size 9 to 14) (size 15 to 20)
#    0.000    1.500    1.667    2.000   11.667    5.000 
#    0.000    0.833    0.000    8.000    0.000    0.000 
#    0.000    0.000    0.000    0.000    0.000    0.000 
#
# Total GULP energy -267979.809810 kJ/mol
# GULP energy per Si atom -5582.912704 kJ/mol
# Density = 2.124820 g / cm^3
# Si number density = 21.296675 Si / 1000 Ang^3
#
#
#
# Elastic Constant Matrix: (Units=GPa)
#
#
# Indices 1 2 3 4 5 6 
#
# 1 105.3866 36.6472 29.5383 0.0000 0.0000 0.0000
# 2 36.6472 89.8756 43.6324 0.0000 0.0000 0.0000
# 3 29.5383 43.6324 83.1079 0.0000 0.0000 0.0000
# 4 0.0000 0.0000 0.0000 17.5688 0.0000 0.0000
# 5 0.0000 0.0000 0.0000 0.0000 -64.1295 0.0000
# 6 0.0000 0.0000 0.0000 0.0000 0.0000 36.0093
#
#
#
# Elastic Compliance Matrix: (Units=1/GPa)
#
#
# Indices 1 2 3 4 5 6 
#
# 1 0.011336 -0.003578 -0.002150 0.000000 0.000000 0.000000
# 2 -0.003578 0.016062 -0.007161 0.000000 0.000000 0.000000
# 3 -0.002150 -0.007161 0.016556 0.000000 0.000000 0.000000
# 4 0.000000 0.000000 0.000000 0.056919 0.000000 0.000000
# 5 0.000000 0.000000 0.000000 0.000000 -0.015593 0.000000
# 6 0.000000 0.000000 0.000000 0.000000 0.000000 0.027771
#
#
# Mechanical properties :
#
#
# Convention : Reuss Voigt Hill
#
# Bulk Modulus (GPa) = 55.02025 55.33400 55.17712
# Shear Modulus (GPa) = 34.50940 9.12654 21.81797
#
# Velocity S-wave (km/s) = 4.02980 2.07237 3.20422
# Velocity P-wave (km/s) = 6.89519 5.63606 6.29717
#
# Compressibility (1/GPa) = 0.01817513
#
# Stress axis : x y z
#
# Youngs Moduli (GPa) = 88.21516 62.25877 60.39978
#
# Poissons Ratio (x) = 0.22278 0.12988
# Poissons Ratio (y) = 0.31566 0.43251
# Poissons Ratio (z) = 0.18970 0.44583
#
# Static dielectric constant tensor:
#      x y z
#    x 1.844330 0.000000 0.000000 
#    y 0.000000 1.798930 0.000000 
#    z 0.000000 0.000000 1.728980 
# 
# From -- ./inp_files/34536.got.cif
#   From: 2010.05.17/outbox.cif.g08.bks.cpg/sg58_18_cif.got.tgz:34536.got - 2010.06.03 14:20:14.
