data_PCOD9445525
_publ_section_title
;
Structure prediction by ZEFSAII (Michael W. Deem and Ramdas Pophale) SiO2 
 PCOD9445525
Probable space group: P N N M
;
_chemical_formula_sum "Si O2"
_cell_formula_units_Z 40
_cell_length_a 8.230194
_cell_length_b 12.260330
_cell_length_c 21.363858
_cell_angle_alpha 90.000000
_cell_angle_beta 90.000000
_cell_angle_gamma 90.000000
_cell_volume 2155.717836
_symmetry_space_group_name_H-M "P N N M"
_symmetry_group_IT_number 58
_symmetry_cell_setting 'orthorhombic'
loop_
_space_group_symop_operation_xyz
x,y,z
-x,-y,z
1/2+x,1/2-y,1/2-z
1/2-x,1/2+y,1/2-z
-x,-y,-z
x,y,-z
1/2-x,1/2+y,1/2+z
1/2+x,1/2-y,1/2+z
loop_
_atom_site_type_symbol
_atom_site_label
_atom_site_fract_x
_atom_site_fract_y
_atom_site_fract_z
Si Si1 0.837859 0.564737 0.315528
Si Si2 0.687396 0.518502 0.814414
Si Si3 0.830280 0.748014 0.837125
Si Si4 0.820831 0.946132 0.927945
Si Si5 0.302309 0.213645 0.703794
O O1 0.708231 0.540520 0.260323
O O2 0.788624 0.518900 0.382453
O O3 0.829695 0.696030 0.317977
O O4 0.000000 0.500000 0.295805
O O5 0.500000 0.500000 0.829531
O O6 0.768544 0.624159 0.845990
O O7 0.774752 0.404101 0.826143
O O8 0.818865 0.826867 0.896301
O O9 0.724661 0.793062 0.778640
O O10 0.016557 0.749235 0.813808
O O11 0.769355 0.943615 0.000000
O O12 0.000000 0.000000 0.925037
#
# Coordination Sequence:
#
# PCOD9445525 Si02
#       5
#     8   8   8   8   8
#     4  11  22  35  60  90 124 155 202 252 307 364
#     4  11  22  34  57  91 124 157 190 253 317 369
#     4  11  22  35  60  90 123 158 201 249 313 367
#     4  11  23  42  63  86 123 166 209 249 296 371
#     4  11  20  35  56  90 124 154 191 258 311 370
#
# _framework density 18.555304
#
# number of rings (size 3 to 8) (size 9 to 14) (size 15 to 20)
#    0.000    1.000    4.000    6.000    2.800    0.400 
#    0.000    0.000    0.000    4.200    0.000    0.000 
#    0.000    0.000    0.000    0.000    0.000    0.000 
#
# Total GULP energy -223314.645440 kJ/mol
# GULP energy per Si atom -5582.866136 kJ/mol
# Density = 1.851307 g / cm^3
# Si number density = 18.555304 Si / 1000 Ang^3
#
#
#
# Elastic Constant Matrix: (Units=GPa)
#
#
# Indices 1 2 3 4 5 6 
#
# 1 59.1453 19.9874 15.5440 0.0000 0.0000 0.0000
# 2 19.9874 160.0531 38.2567 0.0000 0.0000 0.0000
# 3 15.5440 38.2567 87.8716 0.0000 0.0000 0.0000
# 4 0.0000 0.0000 0.0000 24.7013 0.0000 0.0000
# 5 0.0000 0.0000 0.0000 0.0000 17.2382 0.0000
# 6 0.0000 0.0000 0.0000 0.0000 0.0000 33.2668
#
#
#
# Elastic Compliance Matrix: (Units=1/GPa)
#
#
# Indices 1 2 3 4 5 6 
#
# 1 0.018124 -0.001671 -0.002479 0.000000 0.000000 0.000000
# 2 -0.001671 0.007128 -0.002808 0.000000 0.000000 0.000000
# 3 -0.002479 -0.002808 0.013041 0.000000 0.000000 0.000000
# 4 0.000000 0.000000 0.000000 0.040484 0.000000 0.000000
# 5 0.000000 0.000000 0.000000 0.000000 0.058011 0.000000
# 6 0.000000 0.000000 0.000000 0.000000 0.000000 0.030060
#
#
# Mechanical properties :
#
#
# Convention : Reuss Voigt Hill
#
# Bulk Modulus (GPa) = 41.02010 50.51626 45.76818
# Shear Modulus (GPa) = 26.47087 30.59337 28.53212
#
# Velocity S-wave (km/s) = 3.78112 4.06491 3.92558
# Velocity P-wave (km/s) = 6.42008 7.02247 6.72802
#
# Compressibility (1/GPa) = 0.02437829
#
# Stress axis : x y z
#
# Youngs Moduli (GPa) = 55.17682 140.29829 76.68101
#
# Poissons Ratio (x) = 0.23442 0.19006
# Poissons Ratio (y) = 0.09219 0.21529
# Poissons Ratio (z) = 0.13676 0.39390
#
# Static dielectric constant tensor:
#      x y z
#    x 1.686880 0.000000 0.000000 
#    y 0.000000 1.717500 0.000000 
#    z 0.000000 0.000000 1.592380 
# 
# From -- ./inp_files/28732.got.cif
#   From: 2010.05.17/outbox.cif.g08.bks.cpg/sg58_15_cif.got.tgz:28732.got - 2010.06.03 14:20:14.
