data_PCOD9445921
_publ_section_title
;
Structure prediction by ZEFSAII (Michael W. Deem and Ramdas Pophale) SiO2 
 PCOD9445921
Probable space group: P N N M
;
_chemical_formula_sum "Si O2"
_cell_formula_units_Z 64
_cell_length_a 18.000000
_cell_length_b 9.000000
_cell_length_c 24.000000
_cell_angle_alpha 90.000000
_cell_angle_beta 90.000000
_cell_angle_gamma 90.000000
_cell_volume 3888.000000
_symmetry_space_group_name_H-M "P N N M"
_symmetry_group_IT_number 58
_symmetry_cell_setting 'orthorhombic'
loop_
_space_group_symop_operation_xyz
x,y,z
-x,-y,z
1/2+x,1/2-y,1/2-z
1/2-x,1/2+y,1/2-z
-x,-y,-z
x,y,-z
1/2-x,1/2+y,1/2+z
1/2+x,1/2-y,1/2+z
loop_
_atom_site_type_symbol
_atom_site_label
_atom_site_fract_x
_atom_site_fract_y
_atom_site_fract_z
Si Si1 0.409981 0.830517 0.778632
Si Si2 0.177296 0.764651 0.936068
Si Si3 0.148522 0.273606 0.841430
Si Si4 0.775736 0.796192 0.674252
Si Si5 0.214496 0.861671 0.284478
Si Si6 0.919895 0.326106 0.740988
Si Si7 0.421408 0.079123 0.366179
Si Si8 0.583649 0.438325 0.435847
O O1 0.389295 0.755351 0.719191
O O2 0.361345 0.755432 0.826284
O O3 0.497704 0.816377 0.782868
O O4 0.391967 0.006523 0.772773
O O5 0.234047 0.727855 0.884882
O O6 0.104647 0.668936 0.919425
O O7 0.145183 0.931152 0.933765
O O8 0.202127 0.734625 0.000000
O O9 0.235702 0.264200 0.827443
O O10 0.134979 0.444172 0.857701
O O11 0.110276 0.175692 0.888584
O O12 0.741808 0.686605 0.722212
O O13 0.774982 0.965305 0.698909
O O14 0.131074 0.802018 0.283661
O O15 0.921886 0.324869 0.808982
O O16 0.500000 0.000000 0.371356
O O17 0.500000 0.500000 0.424688
O O18 0.582570 0.380143 0.500000
#
# Coordination Sequence:
#
# PCOD9445921 Si02
#       8
#     8   8   8   8   8   8   8   8
#     4   9  20  33  55  83 112 142 176 219 291 334
#     4  11  24  39  55  76 110 158 195 228 270 321
#     4  10  19  33  51  79 104 144 181 220 276 314
#     4  11  22  37  54  83 111 145 188 232 280 337
#     4  11  21  33  54  81 111 144 178 230 290 329
#     4  10  18  35  54  84 114 142 174 224 284 347
#     4  11  18  34  55  75 113 146 184 224 261 322
#     4  10  23  38  51  75 109 149 193 227 261 312
#
# _framework density 16.460905
#
# number of rings (size 3 to 8) (size 9 to 14) (size 15 to 20)
#    0.000    1.625    5.000    2.250    5.250    1.250 
#    0.000    0.000    0.000    0.000    0.000    4.375 
#    0.000    0.000    0.000    0.000    0.000    0.000 
#
# Total GULP energy -356478.287971 kJ/mol
# GULP energy per Si atom -5569.973250 kJ/mol
# Density = 1.642344 g / cm^3
# Si number density = 16.460905 Si / 1000 Ang^3
#
#
#
# Elastic Constant Matrix: (Units=GPa)
#
#
# Indices 1 2 3 4 5 6 
#
# 1 78.4399 42.4395 42.0876 0.0000 0.0000 0.0000
# 2 42.4395 54.8254 39.0476 0.0000 0.0000 0.0000
# 3 42.0876 39.0476 91.1779 0.0000 0.0000 0.0000
# 4 0.0000 0.0000 0.0000 20.5336 0.0000 0.0000
# 5 0.0000 0.0000 0.0000 0.0000 26.2004 0.0000
# 6 0.0000 0.0000 0.0000 0.0000 0.0000 27.5873
#
#
#
# Elastic Compliance Matrix: (Units=1/GPa)
#
#
# Indices 1 2 3 4 5 6 
#
# 1 0.023059 -0.014775 -0.004316 0.000000 0.000000 0.000000
# 2 -0.014775 0.035712 -0.008474 0.000000 0.000000 0.000000
# 3 -0.004316 -0.008474 0.016589 0.000000 0.000000 0.000000
# 4 0.000000 0.000000 0.000000 0.048701 0.000000 0.000000
# 5 0.000000 0.000000 0.000000 0.000000 0.038167 0.000000
# 6 0.000000 0.000000 0.000000 0.000000 0.000000 0.036249
#
#
# Mechanical properties :
#
#
# Convention : Reuss Voigt Hill
#
# Bulk Modulus (GPa) = 49.43346 52.39919 50.91633
# Shear Modulus (GPa) = 19.20493 21.58881 20.39687
#
# Velocity S-wave (km/s) = 3.41940 3.62542 3.52392
# Velocity P-wave (km/s) = 6.75913 7.03040 6.89610
#
# Compressibility (1/GPa) = 0.02022921
#
# Stress axis : x y z
#
# Youngs Moduli (GPa) = 43.36775 28.00164 60.28132
#
# Poissons Ratio (x) = 0.41373 0.26019
# Poissons Ratio (y) = 0.64077 0.51081
# Poissons Ratio (z) = 0.18719 0.23728
#
# Static dielectric constant tensor:
#      x y z
#    x 1.635610 0.000000 0.000000 
#    y 0.000000 1.591470 0.000000 
#    z 0.000000 0.000000 1.535500 
# 
# From -- ./inp_files/32351.got.cif
#   From: 2010.05.17/outbox.ucp.g08.bks.cvg/sg58_17_cif.got.tgz:32351.got - 2010.06.11 16:41:41.
