data_PCOD9445139
_publ_section_title
;
Structure prediction by ZEFSAII (Michael W. Deem and Ramdas Pophale) SiO2 
 PCOD9445139
Probable space group: P N N M
;
_chemical_formula_sum "Si O2"
_cell_formula_units_Z 64
_cell_length_a 8.029739
_cell_length_b 11.173386
_cell_length_c 31.493244
_cell_angle_alpha 90.000000
_cell_angle_beta 90.000000
_cell_angle_gamma 90.000000
_cell_volume 2825.554116
_symmetry_space_group_name_H-M "P N N M"
_symmetry_group_IT_number 58
_symmetry_cell_setting 'orthorhombic'
loop_
_space_group_symop_operation_xyz
x,y,z
-x,-y,z
1/2+x,1/2-y,1/2-z
1/2-x,1/2+y,1/2-z
-x,-y,-z
x,y,-z
1/2-x,1/2+y,1/2+z
1/2+x,1/2-y,1/2+z
loop_
_atom_site_type_symbol
_atom_site_label
_atom_site_fract_x
_atom_site_fract_y
_atom_site_fract_z
Si Si1 0.866602 0.300480 0.047456
Si Si2 0.733473 0.308292 0.547358
Si Si3 0.429152 0.203654 0.699934
Si Si4 0.179176 0.443339 0.568207
Si Si5 0.213287 0.680012 0.706486
Si Si6 0.180150 0.950238 0.840994
Si Si7 0.910170 0.190493 0.626747
Si Si8 0.235084 0.557707 0.127313
O O1 0.843421 0.399843 0.083221
O O2 0.054004 0.252024 0.052346
O O3 0.741505 0.186430 0.053127
O O4 0.843090 0.348406 0.000000
O O5 0.798526 0.280247 0.500000
O O6 0.704599 0.450108 0.551374
O O7 0.856391 0.264942 0.584990
O O8 0.622967 0.236508 0.704030
O O9 0.362077 0.181930 0.746996
O O10 0.347586 0.322947 0.680103
O O11 0.373733 0.101701 0.667068
O O12 0.198899 0.441513 0.619055
O O13 0.000000 0.500000 0.555921
O O14 0.260881 0.545819 0.693434
O O15 0.098906 0.729286 0.668731
O O16 0.000000 0.000000 0.856583
O O17 0.089577 0.129268 0.626494
O O18 0.778694 0.081424 0.629321
#
# Coordination Sequence:
#
# PCOD9445139 Si02
#       8
#     8   8   8   8   8   8   8   8
#     4  11  24  42  65  93 127 167 211 260 315 376
#     4  11  24  42  65  93 127 167 211 260 315 376
#     4  11  24  42  66  95 129 167 210 259 314 375
#     4  12  23  37  64  97 130 166 208 259 315 375
#     4  11  24  42  66  95 129 167 210 259 314 375
#     4  10  22  41  65  92 128 169 205 257 318 369
#     4  11  25  44  65  92 128 166 209 263 319 375
#     4  11  25  44  65  92 128 166 209 263 319 375
#
# _framework density 22.650426
#
# number of rings (size 3 to 8) (size 9 to 14) (size 15 to 20)
#    0.000    1.000    2.500    3.750    1.750    7.000 
#    0.000    2.500    0.000    0.000    0.000    0.000 
#    0.000    0.000    0.000    0.000    0.000    0.000 
#
# Total GULP energy -358376.268881 kJ/mol
# GULP energy per Si atom -5599.629201 kJ/mol
# Density = 2.259887 g / cm^3
# Si number density = 22.650426 Si / 1000 Ang^3
#
#
#
# Elastic Constant Matrix: (Units=GPa)
#
#
# Indices 1 2 3 4 5 6 
#
# 1 56.2389 2.2059 37.9852 0.0000 0.0000 0.0000
# 2 2.2059 74.5111 21.9105 0.0000 0.0000 0.0000
# 3 37.9852 21.9105 161.7239 0.0000 0.0000 0.0000
# 4 0.0000 0.0000 0.0000 -24.8106 0.0000 0.0000
# 5 0.0000 0.0000 0.0000 0.0000 -19.4366 0.0000
# 6 0.0000 0.0000 0.0000 0.0000 0.0000 35.7746
#
#
#
# Elastic Compliance Matrix: (Units=1/GPa)
#
#
# Indices 1 2 3 4 5 6 
#
# 1 0.021188 0.000871 -0.005095 0.000000 0.000000 0.000000
# 2 0.000871 0.014013 -0.002103 0.000000 0.000000 0.000000
# 3 -0.005095 -0.002103 0.007665 0.000000 0.000000 0.000000
# 4 0.000000 0.000000 0.000000 -0.040305 0.000000 0.000000
# 5 0.000000 0.000000 0.000000 0.000000 -0.051449 0.000000
# 6 0.000000 0.000000 0.000000 0.000000 0.000000 0.027953
#
#
# Mechanical properties :
#
#
# Convention : Reuss Voigt Hill
#
# Bulk Modulus (GPa) = 33.09856 46.29746 39.69801
# Shear Modulus (GPa) = 2794.62974 13.66364 1404.14669
#
# Velocity S-wave (km/s) = 35.16372 2.45876 24.92522
# Velocity P-wave (km/s) = 40.78351 5.34275 29.08470
#
# Compressibility (1/GPa) = 0.03021280
#
# Stress axis : x y z
#
# Youngs Moduli (GPa) = 47.19623 71.35994 130.46470
#
# Poissons Ratio (x) = -0.06214 0.66466
# Poissons Ratio (y) = -0.04110 0.27438
# Poissons Ratio (z) = 0.24045 0.15008
#
# Static dielectric constant tensor:
#      x y z
#    x 1.877000 0.000000 0.000000 
#    y 0.000000 1.814570 0.000000 
#    z 0.000000 0.000000 1.794920 
# 
# From -- ./inp_files/34756.got.cif
#   From: 2010.05.17/outbox.cif.g08.bks.cpg/sg58_18_cif.got.tgz:34756.got - 2010.06.03 14:20:14.
