data_PCOD9445298
_publ_section_title
;
Structure prediction by ZEFSAII (Michael W. Deem and Ramdas Pophale) SiO2 
 PCOD9445298
Probable space group: P N N M
;
_chemical_formula_sum "Si O2"
_cell_formula_units_Z 64
_cell_length_a 15.413748
_cell_length_b 24.147982
_cell_length_c 8.150951
_cell_angle_alpha 90.000000
_cell_angle_beta 90.000000
_cell_angle_gamma 90.000000
_cell_volume 3033.872883
_symmetry_space_group_name_H-M "P N N M"
_symmetry_group_IT_number 58
_symmetry_cell_setting 'orthorhombic'
loop_
_space_group_symop_operation_xyz
x,y,z
-x,-y,z
1/2+x,1/2-y,1/2-z
1/2-x,1/2+y,1/2-z
-x,-y,-z
x,y,-z
1/2-x,1/2+y,1/2+z
1/2+x,1/2-y,1/2+z
loop_
_atom_site_type_symbol
_atom_site_label
_atom_site_fract_x
_atom_site_fract_y
_atom_site_fract_z
Si Si1 0.559917 0.210892 0.300345
Si Si2 0.902227 0.013307 0.700693
Si Si3 0.742376 0.425916 0.805505
Si Si4 0.673023 0.112365 0.193532
Si Si5 0.871786 0.253144 0.810193
Si Si6 0.303683 0.696724 0.690627
Si Si7 0.143600 0.863982 0.689136
Si Si8 0.400640 0.005642 0.197204
O O1 0.565542 0.208275 0.500000
O O2 0.595483 0.154717 0.223548
O O3 0.459910 0.218158 0.254909
O O4 0.619869 0.262937 0.244920
O O5 0.899443 0.012488 0.500000
O O6 0.882973 0.075889 0.752389
O O7 0.829456 0.969912 0.759293
O O8 0.000000 0.000000 0.750982
O O9 0.711509 0.363750 0.766952
O O10 0.838568 0.443253 0.745149
O O11 0.744909 0.431959 0.000000
O O12 0.752718 0.135476 0.296950
O O13 0.648668 0.050629 0.247650
O O14 0.695458 0.111758 0.000000
O O15 0.786795 0.270565 0.711870
O O16 0.888439 0.187867 0.791490
O O17 0.854919 0.266972 0.000000
O O18 0.322117 0.687622 0.500000
O O19 0.116095 0.857771 0.500000
O O20 0.500000 0.000000 0.258846
O O21 0.405427 0.005636 0.000000
#
# Coordination Sequence:
#
# PCOD9445298 Si02
#       8
#     8   8   8   8   8   8   8   8
#     4  10  24  43  63  88 125 162 200 251 309 366
#     4   9  20  38  60  89 123 159 201 245 295 358
#     4  11  23  40  63  91 123 161 202 251 301 357
#     4  11  22  38  64  91 120 158 206 257 303 358
#     4  11  24  42  63  93 124 158 204 255 305 365
#     4  11  24  43  63  87 123 166 202 246 306 367
#     4  11  21  38  64  90 121 162 203 253 309 358
#     4  10  23  42  62  89 123 161 203 250 304 365
#
# _framework density 21.095148999999999
#
# number of rings (size 3 to 8) (size 9 to 14) (size 15 to 20)
#    0.000    1.500    2.500    1.875    3.500    2.250 
#    0.000    0.000    0.000    3.000    0.000    0.000 
#    0.000    0.000    0.000    0.000    0.000    0.000 
#
# Total GULP energy -357556.387394 kJ/mol
# GULP energy per Si atom -5586.818553 kJ/mol
# Density = 2.104714 g / cm^3
# Si number density = 21.095149 Si / 1000 Ang^3
#
#
#
# Elastic Constant Matrix: (Units=GPa)
#
#
# Indices 1 2 3 4 5 6 
#
# 1 45.2829 -19.2555 -1.0225 0.0000 0.0000 0.0000
# 2 -19.2555 54.4178 -9.8569 0.0000 0.0000 0.0000
# 3 -1.0225 -9.8569 8.5134 0.0000 0.0000 0.0000
# 4 0.0000 0.0000 0.0000 22.8900 0.0000 0.0000
# 5 0.0000 0.0000 0.0000 0.0000 1.0371 0.0000
# 6 0.0000 0.0000 0.0000 0.0000 0.0000 34.3149
#
#
#
# Elastic Compliance Matrix: (Units=1/GPa)
#
#
# Indices 1 2 3 4 5 6 
#
# 1 0.028212 0.013408 0.018913 0.000000 0.000000 0.000000
# 2 0.013408 0.029626 0.035911 0.000000 0.000000 0.000000
# 3 0.018913 0.035911 0.161313 0.000000 0.000000 0.000000
# 4 0.000000 0.000000 0.000000 0.043687 0.000000 0.000000
# 5 0.000000 0.000000 0.000000 0.000000 0.964242 0.000000
# 6 0.000000 0.000000 0.000000 0.000000 0.000000 0.029142
#
#
# Mechanical properties :
#
#
# Convention : Reuss Voigt Hill
#
# Bulk Modulus (GPa) = 2.81202 5.32714 4.06958
# Shear Modulus (GPa) = 4.03781 20.87168 12.45474
#
# Velocity S-wave (km/s) = 1.38501 3.14890 2.43247
# Velocity P-wave (km/s) = 1.97321 3.96882 3.13409
#
# Compressibility (1/GPa) = 0.35561657
#
# Stress axis : x y z
#
# Youngs Moduli (GPa) = 35.44582 33.75451 6.19913
#
# Poissons Ratio (x) = -0.45260 -0.11724
# Poissons Ratio (y) = -0.47528 -0.22262
# Poissons Ratio (z) = -0.67038 -1.21217
#
# Static dielectric constant tensor:
#      x y z
#    x 1.779010 0.000000 0.000000 
#    y 0.000000 1.730790 0.000000 
#    z 0.000000 0.000000 1.742560 
# 
# From -- ./inp_files/6812.got.cif
#   From: 2010.05.17/outbox.cif.g08.bks.cpg/sg58_4_cif.got.tgz:6812.got - 2010.06.03 14:20:14.
