data_PCOD9445023
_publ_section_title
;
Structure prediction by ZEFSAII (Michael W. Deem and Ramdas Pophale) SiO2 
 PCOD9445023
Probable space group: P N N M
;
_chemical_formula_sum "Si O2"
_cell_formula_units_Z 64
_cell_length_a 18.173254
_cell_length_b 11.488890
_cell_length_c 15.635384
_cell_angle_alpha 90.000000
_cell_angle_beta 90.000000
_cell_angle_gamma 90.000000
_cell_volume 3264.519896
_symmetry_space_group_name_H-M "P N N M"
_symmetry_group_IT_number 58
_symmetry_cell_setting 'orthorhombic'
loop_
_space_group_symop_operation_xyz
x,y,z
-x,-y,z
1/2+x,1/2-y,1/2-z
1/2-x,1/2+y,1/2-z
-x,-y,-z
x,y,-z
1/2-x,1/2+y,1/2+z
1/2+x,1/2-y,1/2+z
loop_
_atom_site_type_symbol
_atom_site_label
_atom_site_fract_x
_atom_site_fract_y
_atom_site_fract_z
Si Si1 0.883288 0.281074 0.403980
Si Si2 0.191221 0.377695 0.252605
Si Si3 0.688397 0.302921 0.097985
Si Si4 0.708930 0.297450 0.599270
Si Si5 0.415155 0.481485 0.145250
Si Si6 0.071694 0.576910 0.245769
Si Si7 0.638784 0.780241 0.403176
Si Si8 0.346690 0.463972 0.322154
O O1 0.906577 0.311687 0.500000
O O2 0.797276 0.313384 0.393620
O O3 0.890056 0.143060 0.390363
O O4 0.929012 0.346334 0.331487
O O5 0.168969 0.292566 0.330739
O O6 0.188364 0.304711 0.165057
O O7 0.139202 0.487927 0.250903
O O8 0.273558 0.421767 0.271429
O O9 0.638844 0.416723 0.112355
O O10 0.776350 0.322795 0.109815
O O11 0.678965 0.261630 0.000000
O O12 0.692307 0.271569 0.500000
O O13 0.670661 0.416298 0.629963
O O14 0.500000 0.500000 0.120934
O O15 0.406770 0.479185 0.248216
O O16 0.087247 0.660283 0.166093
O O17 0.000000 0.500000 0.235615
O O18 0.617848 0.807052 0.500000
O O19 0.637408 0.641950 0.386055
#
# Coordination Sequence:
#
# PCOD9445023 Si02
#       8
#     8   8   8   8   8   8   8   8
#     4  11  24  42  62  93 129 166 209 260 316 374
#     4  11  22  39  64  90 125 163 207 263 310 376
#     4  10  22  39  64  95 123 160 208 259 315 372
#     4  11  22  39  69  99 122 159 212 271 322 370
#     4  12  24  39  65  92 129 173 210 254 316 378
#     4  12  26  42  63  89 128 175 209 249 314 380
#     4  10  22  42  68  92 120 159 211 268 316 370
#     4  11  20  41  69  91 124 162 211 262 320 371
#
# _framework density 19.60472
#
# number of rings (size 3 to 8) (size 9 to 14) (size 15 to 20)
#    0.000    1.000    5.000    2.250    1.750    3.000 
#    0.000    0.000    0.000    0.750    0.000    0.000 
#    0.000    0.000    0.000    0.000    0.000    0.000 
#
# Total GULP energy -357827.283587 kJ/mol
# GULP energy per Si atom -5591.051306 kJ/mol
# Density = 1.956010 g / cm^3
# Si number density = 19.604720 Si / 1000 Ang^3
#
#
#
# Elastic Constant Matrix: (Units=GPa)
#
#
# Indices 1 2 3 4 5 6 
#
# 1 10.5010 -6.9426 12.4455 0.0000 0.0000 0.0000
# 2 -6.9426 53.2734 24.3342 0.0000 0.0000 0.0000
# 3 12.4455 24.3342 131.2936 0.0000 0.0000 0.0000
# 4 0.0000 0.0000 0.0000 -9.0531 0.0000 0.0000
# 5 0.0000 0.0000 0.0000 0.0000 89.4373 0.0000
# 6 0.0000 0.0000 0.0000 0.0000 0.0000 13.3408
#
#
#
# Elastic Compliance Matrix: (Units=1/GPa)
#
#
# Indices 1 2 3 4 5 6 
#
# 1 0.132155 0.025067 -0.017173 0.000000 0.000000 0.000000
# 2 0.025067 0.025262 -0.007058 0.000000 0.000000 0.000000
# 3 -0.017173 -0.007058 0.010553 0.000000 0.000000 0.000000
# 4 0.000000 0.000000 0.000000 -0.110459 0.000000 0.000000
# 5 0.000000 0.000000 0.000000 0.000000 0.011181 0.000000
# 6 0.000000 0.000000 0.000000 0.000000 0.000000 0.074958
#
#
# Mechanical properties :
#
#
# Convention : Reuss Voigt Hill
#
# Bulk Modulus (GPa) = 5.89483 28.30469 17.09976
# Shear Modulus (GPa) = 25.18575 29.76038 27.47306
#
# Velocity S-wave (km/s) = 3.58813 3.90041 3.74752
# Velocity P-wave (km/s) = 4.49217 5.89519 5.24084
#
# Compressibility (1/GPa) = 0.16964027
#
# Stress axis : x y z
#
# Youngs Moduli (GPa) = 7.56687 39.58549 94.76392
#
# Poissons Ratio (x) = -0.99228 1.62738
# Poissons Ratio (y) = -0.18968 0.66886
# Poissons Ratio (z) = 0.12995 0.27940
#
# Static dielectric constant tensor:
#      x y z
#    x 1.681280 0.000000 0.000000 
#    y 0.000000 1.661480 0.000000 
#    z 0.000000 0.000000 1.692780 
# 
# From -- ./inp_files/22957.got.cif
#   From: 2010.05.17/outbox.cif.g08.bks.cpg/sg58_12_cif.got.tgz:22957.got - 2010.06.03 14:20:14.
