data_PCOD9445961
_publ_section_title
;
Structure prediction by ZEFSAII (Michael W. Deem and Ramdas Pophale) SiO2 
 PCOD9445961
Probable space group: P N N M
;
_chemical_formula_sum "Si O2"
_cell_formula_units_Z 56
_cell_length_a 21.000000
_cell_length_b 12.000000
_cell_length_c 12.000000
_cell_angle_alpha 90.000000
_cell_angle_beta 90.000000
_cell_angle_gamma 90.000000
_cell_volume 3024.000000
_symmetry_space_group_name_H-M "P N N M"
_symmetry_group_IT_number 58
_symmetry_cell_setting 'orthorhombic'
loop_
_space_group_symop_operation_xyz
x,y,z
-x,-y,z
1/2+x,1/2-y,1/2-z
1/2-x,1/2+y,1/2-z
-x,-y,-z
x,y,-z
1/2-x,1/2+y,1/2+z
1/2+x,1/2-y,1/2+z
loop_
_atom_site_type_symbol
_atom_site_label
_atom_site_fract_x
_atom_site_fract_y
_atom_site_fract_z
Si Si1 0.161834 0.940233 0.206387
Si Si2 0.933605 0.881795 0.872301
Si Si3 0.433889 0.041629 0.774555
Si Si4 0.235513 0.812119 0.366948
Si Si5 0.064191 0.767116 0.129776
Si Si6 0.291026 0.062765 0.867736
Si Si7 0.125303 0.363781 0.126146
O O1 0.109363 0.037135 0.201043
O O2 0.229485 0.986636 0.161733
O O3 0.179215 0.891264 0.326707
O O4 0.129612 0.836404 0.141723
O O5 0.900114 0.761507 0.872154
O O6 0.006508 0.853623 0.843260
O O7 0.931374 0.925494 0.000000
O O8 0.438680 0.161876 0.713297
O O9 0.364800 0.038332 0.835628
O O10 0.500000 0.000000 0.833022
O O11 0.423380 0.945381 0.683831
O O12 0.238790 0.806768 0.500000
O O13 0.224835 0.687111 0.323108
O O14 0.303397 0.859252 0.326125
O O15 0.055069 0.732864 0.000000
O O16 0.290640 0.067746 0.000000
O O17 0.131362 0.402637 0.000000
#
# Coordination Sequence:
#
# PCOD9445961 Si02
#       7
#     8   8   8   8   8   8   8
#     4  12  21  37  64  88 115 151 195 242 293 348
#     4  10  20  35  58  87 121 155 188 235 296 356
#     4  12  23  37  59  86 118 160 199 242 292 342
#     4  10  21  38  60  85 117 155 196 238 290 351
#     4  11  23  36  56  93 125 150 189 245 299 348
#     4  11  23  40  60  84 115 158 201 238 285 349
#     4  10  19  34  57  86 118 154 191 233 294 357
#
# _framework density 18.518519000000001
#
# number of rings (size 3 to 8) (size 9 to 14) (size 15 to 20)
#    0.000    1.143    5.714    2.143    0.000    2.000 
#    0.000    0.000    0.000    3.429    0.000    0.000 
#    0.000    0.000    0.000    0.000    0.000    0.000 
#
# Total GULP energy -311856.997054 kJ/mol
# GULP energy per Si atom -5568.874947 kJ/mol
# Density = 1.847637 g / cm^3
# Si number density = 18.518519 Si / 1000 Ang^3
#
#
#
# Elastic Constant Matrix: (Units=GPa)
#
#
# Indices 1 2 3 4 5 6 
#
# 1 135.9391 42.4160 28.5719 0.0000 0.0000 0.0000
# 2 42.4160 70.5472 14.5940 0.0000 0.0000 0.0000
# 3 28.5719 14.5940 20.2130 0.0000 0.0000 0.0000
# 4 0.0000 0.0000 0.0000 15.2134 0.0000 0.0000
# 5 0.0000 0.0000 0.0000 0.0000 24.0027 0.0000
# 6 0.0000 0.0000 0.0000 0.0000 0.0000 44.2945
#
#
#
# Elastic Compliance Matrix: (Units=1/GPa)
#
#
# Indices 1 2 3 4 5 6 
#
# 1 0.011410 -0.004142 -0.013138 0.000000 0.000000 0.000000
# 2 -0.004142 0.018168 -0.007262 0.000000 0.000000 0.000000
# 3 -0.013138 -0.007262 0.073287 0.000000 0.000000 0.000000
# 4 0.000000 0.000000 0.000000 0.065732 0.000000 0.000000
# 5 0.000000 0.000000 0.000000 0.000000 0.041662 0.000000
# 6 0.000000 0.000000 0.000000 0.000000 0.000000 0.022576
#
#
# Mechanical properties :
#
#
# Convention : Reuss Voigt Hill
#
# Bulk Modulus (GPa) = 18.59398 44.20700 31.40049
# Shear Modulus (GPa) = 16.67523 26.10993 21.39258
#
# Velocity S-wave (km/s) = 3.00403 3.75899 3.40251
# Velocity P-wave (km/s) = 4.70051 6.53939 5.69466
#
# Compressibility (1/GPa) = 0.05378086
#
# Stress axis : x y z
#
# Youngs Moduli (GPa) = 87.64189 55.04254 13.64497
#
# Poissons Ratio (x) = 0.22801 0.17926
# Poissons Ratio (y) = 0.36305 0.09909
# Poissons Ratio (z) = 1.15141 0.39971
#
# Static dielectric constant tensor:
#      x y z
#    x 1.688610 0.000000 0.000000 
#    y 0.000000 1.671780 0.000000 
#    z 0.000000 0.000000 1.639520 
# 
# From -- ./inp_files/14581.got.cif
#   From: 2010.05.17/outbox.ucp.g08.bks.cvg/sg58_8_cif.got.tgz:14581.got - 2010.06.11 16:41:41.
