data_PCOD9445332
_publ_section_title
;
Structure prediction by ZEFSAII (Michael W. Deem and Ramdas Pophale) SiO2 
 PCOD9445332
Probable space group: P N N M
;
_chemical_formula_sum "Si O2"
_cell_formula_units_Z 64
_cell_length_a 11.995585
_cell_length_b 8.389316
_cell_length_c 31.560391
_cell_angle_alpha 90.000000
_cell_angle_beta 90.000000
_cell_angle_gamma 90.000000
_cell_volume 3176.072158
_symmetry_space_group_name_H-M "P N N M"
_symmetry_group_IT_number 58
_symmetry_cell_setting 'orthorhombic'
loop_
_space_group_symop_operation_xyz
x,y,z
-x,-y,z
1/2+x,1/2-y,1/2-z
1/2-x,1/2+y,1/2-z
-x,-y,-z
x,y,-z
1/2-x,1/2+y,1/2+z
1/2+x,1/2-y,1/2+z
loop_
_atom_site_type_symbol
_atom_site_label
_atom_site_fract_x
_atom_site_fract_y
_atom_site_fract_z
Si Si1 0.891744 0.293576 0.626851
Si Si2 0.801718 0.308259 0.048100
Si Si3 0.532965 0.182523 0.332829
Si Si4 0.240976 0.820749 0.546101
Si Si5 0.245590 0.208901 0.208795
Si Si6 0.648244 0.173958 0.877239
Si Si7 0.538320 0.318129 0.576050
Si Si8 0.692249 0.665987 0.299868
O O1 0.835409 0.213032 0.586338
O O2 0.834072 0.251602 0.671636
O O3 0.868427 0.482989 0.621917
O O4 0.023328 0.258963 0.625866
O O5 0.780058 0.496635 0.048694
O O6 0.719361 0.227618 0.082050
O O7 0.929905 0.277507 0.060623
O O8 0.783054 0.249606 0.000000
O O9 0.634454 0.190798 0.300332
O O10 0.570126 0.260285 0.376964
O O11 0.428789 0.285463 0.316801
O O12 0.500000 0.000000 0.339900
O O13 0.186432 0.795032 0.500000
O O14 0.351689 0.712761 0.549048
O O15 0.289851 0.249254 0.255072
O O16 0.210324 0.023443 0.205366
O O17 0.719159 0.218387 0.835630
O O18 0.500000 0.500000 0.576633
#
# Coordination Sequence:
#
# PCOD9445332 Si02
#       8
#     8   8   8   8   8   8   8   8
#     4  10  23  43  65  90 125 168 213 261 313 373
#     4  11  24  41  63  93 127 165 210 260 317 379
#     4  12  24  41  67  96 130 169 211 263 320 375
#     4  11  24  41  63  93 127 165 210 260 317 379
#     4  11  24  42  66  97 130 167 213 262 316 377
#     4  10  23  43  65  90 125 168 213 261 313 373
#     4  12  23  39  64  95 128 164 208 261 321 381
#     4  11  24  42  66  97 130 167 213 262 316 377
#
# _framework density 20.150675
#
# number of rings (size 3 to 8) (size 9 to 14) (size 15 to 20)
#    0.000    1.000    2.500    4.125    1.750    5.500 
#    0.000    2.500    0.000    0.000    0.000    0.000 
#    0.000    0.000    0.000    0.000    0.000    0.000 
#
# Total GULP energy -358001.793127 kJ/mol
# GULP energy per Si atom -5593.778018 kJ/mol
# Density = 2.010481 g / cm^3
# Si number density = 20.150675 Si / 1000 Ang^3
#
#
#
# Elastic Constant Matrix: (Units=GPa)
#
#
# Indices 1 2 3 4 5 6 
#
# 1 56.9164 -16.5980 9.9523 0.0000 0.0000 0.0000
# 2 -16.5980 22.5989 4.2875 0.0000 0.0000 0.0000
# 3 9.9523 4.2875 121.9102 0.0000 0.0000 0.0000
# 4 0.0000 0.0000 0.0000 -0.3761 0.0000 0.0000
# 5 0.0000 0.0000 0.0000 0.0000 3.9284 0.0000
# 6 0.0000 0.0000 0.0000 0.0000 0.0000 22.2510
#
#
#
# Elastic Compliance Matrix: (Units=1/GPa)
#
#
# Indices 1 2 3 4 5 6 
#
# 1 0.023090 0.017433 -0.002498 0.000000 0.000000 0.000000
# 2 0.017433 0.057709 -0.003453 0.000000 0.000000 0.000000
# 3 -0.002498 -0.003453 0.008528 0.000000 0.000000 0.000000
# 4 0.000000 0.000000 0.000000 -2.658520 0.000000 0.000000
# 5 0.000000 0.000000 0.000000 0.000000 0.254554 0.000000
# 6 0.000000 0.000000 0.000000 0.000000 0.000000 0.044942
#
#
# Mechanical properties :
#
#
# Convention : Reuss Voigt Hill
#
# Bulk Modulus (GPa) = 8.90545 21.85655 15.38100
# Shear Modulus (GPa) = -2.21707 18.74625 8.26459
#
# Velocity S-wave (km/s) = -1.05006 3.05340 2.02739
# Velocity P-wave (km/s) = 1.72013 4.82712 3.62353
#
# Compressibility (1/GPa) = 0.11229076
#
# Stress axis : x y z
#
# Youngs Moduli (GPa) = 43.30844 17.32846 117.25912
#
# Poissons Ratio (x) = -0.30208 0.29292
# Poissons Ratio (y) = -0.75498 0.40486
# Poissons Ratio (z) = 0.10819 0.05983
#
# Static dielectric constant tensor:
#      x y z
#    x 1.686000 0.000000 0.000000 
#    y 0.000000 1.707740 0.000000 
#    z 0.000000 0.000000 1.693740 
# 
# From -- ./inp_files/34968.got.cif
#   From: 2010.05.17/outbox.cif.g08.bks.cpg/sg58_18_cif.got.tgz:34968.got - 2010.06.03 14:20:14.
