data_PCOD9445227
_publ_section_title
;
Structure prediction by ZEFSAII (Michael W. Deem and Ramdas Pophale) SiO2 
 PCOD9445227
Probable space group: P N N M
;
_chemical_formula_sum "Si O2"
_cell_formula_units_Z 36
_cell_length_a 4.846650
_cell_length_b 11.084725
_cell_length_c 23.834438
_cell_angle_alpha 90.000000
_cell_angle_beta 90.000000
_cell_angle_gamma 90.000000
_cell_volume 1280.476161
_symmetry_space_group_name_H-M "P N N M"
_symmetry_group_IT_number 58
_symmetry_cell_setting 'orthorhombic'
loop_
_space_group_symop_operation_xyz
x,y,z
-x,-y,z
1/2+x,1/2-y,1/2-z
1/2-x,1/2+y,1/2-z
-x,-y,-z
x,y,-z
1/2-x,1/2+y,1/2+z
1/2+x,1/2-y,1/2+z
loop_
_atom_site_type_symbol
_atom_site_label
_atom_site_fract_x
_atom_site_fract_y
_atom_site_fract_z
Si Si1 0.000000 0.500000 0.849282
Si Si2 0.662474 0.652136 0.937045
Si Si3 0.159750 0.819139 0.062634
Si Si4 0.686474 0.114400 0.181265
Si Si5 0.394872 0.630825 0.780706
O O1 0.782985 0.561091 0.892151
O O2 0.909840 0.391021 0.807175
O O3 0.350403 0.698776 0.931736
O O4 0.847713 0.773271 0.933220
O O5 0.703442 0.604146 0.000000
O O6 0.235407 0.896852 0.116358
O O7 0.209296 0.869187 0.000000
O O8 0.525322 0.240027 0.193237
O O9 0.958673 0.128830 0.219854
O O10 0.500000 0.000000 0.197181
O O11 0.500000 0.500000 0.800964
#
# Coordination Sequence:
#
# PCOD9445227 Si02
#       5
#     4   8   8   8   8
#     4  12  25  46  74 114 163 212 270 344 408 504
#     4  10  22  43  77 118 159 210 270 340 417 492
#     4  10  23  48  79 116 160 211 273 341 414 492
#     4  12  28  53  81 118 163 215 280 337 413 497
#     4  12  29  50  77 114 160 216 270 339 409 491
#
# _framework density 28.114543999999999
#
# number of rings (size 3 to 8) (size 9 to 14) (size 15 to 20)
#    0.000    0.889    2.222    3.000    4.667    4.000 
#    0.000    3.333    0.000    4.667    0.000    0.778 
#    0.000    0.000    0.000    0.000    0.000    0.000 
#
# Total GULP energy -201463.208802 kJ/mol
# GULP energy per Si atom -5596.200244 kJ/mol
# Density = 2.805055 g / cm^3
# Si number density = 28.114544 Si / 1000 Ang^3
#
#
#
# Elastic Constant Matrix: (Units=GPa)
#
#
# Indices 1 2 3 4 5 6 
#
# 1 107.1313 38.8048 39.3508 0.0000 0.0000 0.0000
# 2 38.8048 167.1305 50.1531 0.0000 0.0000 0.0000
# 3 39.3508 50.1531 267.2833 0.0000 0.0000 0.0000
# 4 0.0000 0.0000 0.0000 30.3846 0.0000 0.0000
# 5 0.0000 0.0000 0.0000 0.0000 31.5795 0.0000
# 6 0.0000 0.0000 0.0000 0.0000 0.0000 53.5387
#
#
#
# Elastic Compliance Matrix: (Units=1/GPa)
#
#
# Indices 1 2 3 4 5 6 
#
# 1 0.010518 -0.002095 -0.001155 0.000000 0.000000 0.000000
# 2 -0.002095 0.006758 -0.000960 0.000000 0.000000 0.000000
# 3 -0.001155 -0.000960 0.004091 0.000000 0.000000 0.000000
# 4 0.000000 0.000000 0.000000 0.032911 0.000000 0.000000
# 5 0.000000 0.000000 0.000000 0.000000 0.031666 0.000000
# 6 0.000000 0.000000 0.000000 0.000000 0.000000 0.018678
#
#
# Mechanical properties :
#
#
# Convention : Reuss Voigt Hill
#
# Bulk Modulus (GPa) = 77.24042 88.68471 82.96257
# Shear Modulus (GPa) = 42.60453 50.64966 46.62710
#
# Velocity S-wave (km/s) = 3.89703 4.24907 4.07685
# Velocity P-wave (km/s) = 6.91247 7.46226 7.19262
#
# Compressibility (1/GPa) = 0.01294659
#
# Stress axis : x y z
#
# Youngs Moduli (GPa) = 95.07820 147.97739 244.40991
#
# Poissons Ratio (x) = 0.31006 0.28237
# Poissons Ratio (y) = 0.19922 0.23452
# Poissons Ratio (z) = 0.10984 0.14199
#
# Static dielectric constant tensor:
#      x y z
#    x 3.284090 0.000000 0.000000 
#    y 0.000000 2.229500 0.000000 
#    z 0.000000 0.000000 2.181260 
# 
# From -- ./inp_files/30805.got.cif
#   From: 2010.05.17/outbox.cif.g08.bks.cpg/sg58_16_cif.got.tgz:30805.got - 2010.06.03 14:20:14.
