data_PCOD9445369
_publ_section_title
;
Structure prediction by ZEFSAII (Michael W. Deem and Ramdas Pophale) SiO2 
 PCOD9445369
Probable space group: P N N M
;
_chemical_formula_sum "Si O2"
_cell_formula_units_Z 38
_cell_length_a 16.330082
_cell_length_b 10.729490
_cell_length_c 10.120498
_cell_angle_alpha 90.000000
_cell_angle_beta 90.000000
_cell_angle_gamma 90.000000
_cell_volume 1773.247386
_symmetry_space_group_name_H-M "P N N M"
_symmetry_group_IT_number 58
_symmetry_cell_setting 'orthorhombic'
loop_
_space_group_symop_operation_xyz
x,y,z
-x,-y,z
1/2+x,1/2-y,1/2-z
1/2-x,1/2+y,1/2-z
-x,-y,-z
x,y,-z
1/2-x,1/2+y,1/2+z
1/2+x,1/2-y,1/2+z
loop_
_atom_site_type_symbol
_atom_site_label
_atom_site_fract_x
_atom_site_fract_y
_atom_site_fract_z
Si Si1 0.193716 0.502739 0.000000
Si Si2 0.038306 0.300735 0.500000
Si Si3 0.500000 0.000000 0.500000
Si Si4 0.134027 0.565419 0.500000
Si Si5 0.434579 0.604459 0.230005
Si Si6 0.489763 0.298868 0.500000
Si Si7 0.200474 0.796969 0.000000
Si Si8 0.743517 0.514545 0.281703
O O1 0.214209 0.650434 0.000000
O O2 0.225873 0.450170 0.862930
O O3 0.098139 0.486160 0.000000
O O4 0.087801 0.430950 0.500000
O O5 0.062148 0.218117 0.373231
O O6 0.940913 0.335798 0.500000
O O7 0.509380 0.848579 0.500000
O O8 0.192049 0.568396 0.368944
O O9 0.500000 0.500000 0.181987
O O10 0.467867 0.649961 0.370131
O O11 0.344107 0.550390 0.256346
O O12 0.394673 0.333902 0.500000
O O13 0.235661 0.862819 0.870871
#
# Coordination Sequence:
#
# PCOD9445369 Si02
#       8
#     4   4   2   4   8   4   4   8
#     4  11  27  44  74 107 139 189 244 301 354 435
#     4  11  28  47  74 105 152 189 245 302 379 437
#     4  10  28  42  68 102 136 178 240 284 360 404
#     4  10  27  49  72 107 149 199 233 310 380 429
#     4  12  25  46  73 107 143 193 239 295 362 439
#     4  11  23  44  73  95 138 187 238 278 351 437
#     4  10  23  47  68 102 150 186 224 310 356 426
#     4  11  25  44  74 106 143 186 249 290 372 426
#
# _framework density 21.429608999999999
#
# number of rings (size 3 to 8) (size 9 to 14) (size 15 to 20)
#    0.000    1.053    2.105    2.526   14.737    0.000 
#    0.000    4.211    0.000    0.000    0.000    0.000 
#    0.000    0.000    0.000    0.000    0.000    0.000 
#
# Total GULP energy -212067.741067 kJ/mol
# GULP energy per Si atom -5580.730028 kJ/mol
# Density = 2.138083 g / cm^3
# Si number density = 21.429609 Si / 1000 Ang^3
#
#
#
# Elastic Constant Matrix: (Units=GPa)
#
#
# Indices 1 2 3 4 5 6 
#
# 1 142.8987 21.7145 50.3519 0.0000 0.0000 0.0000
# 2 21.7145 114.3148 26.5208 0.0000 0.0000 0.0000
# 3 50.3519 26.5208 179.1522 0.0000 0.0000 0.0000
# 4 0.0000 0.0000 0.0000 24.2408 0.0000 0.0000
# 5 0.0000 0.0000 0.0000 0.0000 64.1484 0.0000
# 6 0.0000 0.0000 0.0000 0.0000 0.0000 33.8228
#
#
#
# Elastic Compliance Matrix: (Units=1/GPa)
#
#
# Indices 1 2 3 4 5 6 
#
# 1 0.007880 -0.001018 -0.002064 0.000000 0.000000 0.000000
# 2 -0.001018 0.009190 -0.001074 0.000000 0.000000 0.000000
# 3 -0.002064 -0.001074 0.006321 0.000000 0.000000 0.000000
# 4 0.000000 0.000000 0.000000 0.041253 0.000000 0.000000
# 5 0.000000 0.000000 0.000000 0.000000 0.015589 0.000000
# 6 0.000000 0.000000 0.000000 0.000000 0.000000 0.029566
#
#
# Mechanical properties :
#
#
# Convention : Reuss Voigt Hill
#
# Bulk Modulus (GPa) = 66.31931 70.39337 68.35634
# Shear Modulus (GPa) = 40.60491 46.96095 43.78293
#
# Velocity S-wave (km/s) = 4.35766 4.68632 4.52498
# Velocity P-wave (km/s) = 7.50557 7.88683 7.69856
#
# Compressibility (1/GPa) = 0.01507857
#
# Stress axis : x y z
#
# Youngs Moduli (GPa) = 126.90465 108.80922 158.20289
#
# Poissons Ratio (x) = 0.11077 0.32653
# Poissons Ratio (y) = 0.12919 0.16997
# Poissons Ratio (z) = 0.26193 0.11690
#
# Static dielectric constant tensor:
#      x y z
#    x 1.794740 0.000000 0.000000 
#    y 0.000000 1.769780 0.000000 
#    z 0.000000 0.000000 1.765010 
# 
# From -- ./inp_files/7498.got.cif
#   From: 2010.05.17/outbox.cif.g08.bks.cpg/sg58_4_cif.got.tgz:7498.got - 2010.06.03 14:20:14.
