data_PCOD9445175
_publ_section_title
;
Structure prediction by ZEFSAII (Michael W. Deem and Ramdas Pophale) SiO2 
 PCOD9445175
Probable space group: P N N M
;
_chemical_formula_sum "Si O2"
_cell_formula_units_Z 64
_cell_length_a 5.650709
_cell_length_b 19.602685
_cell_length_c 29.102330
_cell_angle_alpha 90.000000
_cell_angle_beta 90.000000
_cell_angle_gamma 90.000000
_cell_volume 3223.637987
_symmetry_space_group_name_H-M "P N N M"
_symmetry_group_IT_number 58
_symmetry_cell_setting 'orthorhombic'
loop_
_space_group_symop_operation_xyz
x,y,z
-x,-y,z
1/2+x,1/2-y,1/2-z
1/2-x,1/2+y,1/2-z
-x,-y,-z
x,y,-z
1/2-x,1/2+y,1/2+z
1/2+x,1/2-y,1/2+z
loop_
_atom_site_type_symbol
_atom_site_label
_atom_site_fract_x
_atom_site_fract_y
_atom_site_fract_z
Si Si1 0.546937 0.419800 0.285345
Si Si2 0.048419 0.287679 0.806832
Si Si3 0.330082 0.810632 0.205798
Si Si4 0.258618 0.538322 0.895159
Si Si5 0.785707 0.334805 0.357903
Si Si6 0.237251 0.741107 0.445197
Si Si7 0.378466 0.071270 0.298457
Si Si8 0.763501 0.317479 0.945045
O O1 0.500000 0.500000 0.284475
O O2 0.333745 0.369903 0.272745
O O3 0.619628 0.391387 0.335202
O O4 0.747050 0.404843 0.247351
O O5 0.054471 0.279447 0.751540
O O6 0.229233 0.238844 0.833220
O O7 0.801132 0.251929 0.819016
O O8 0.046265 0.367676 0.816289
O O9 0.464773 0.849258 0.165261
O O10 0.500000 0.500000 0.910554
O O11 0.290540 0.555243 0.841163
O O12 0.236909 0.609045 0.921782
O O13 0.000000 0.500000 0.899080
O O14 0.769272 0.323952 0.411609
O O15 0.239252 0.727803 0.500000
O O16 0.486598 0.779506 0.433619
O O17 0.988898 0.780484 0.434480
O O18 0.500000 0.000000 0.287159
O O19 0.766659 0.325326 0.000000
#
# Coordination Sequence:
#
# PCOD9445175 Si02
#       8
#     8   8   8   8   8   8   8   8
#     4  11  24  38  58  85 121 162 207 248 299 380
#     4  11  20  36  55  85 121 157 206 257 298 367
#     4  11  21  36  56  88 118 155 207 246 312 356
#     4  11  24  39  56  87 123 168 219 262 308 367
#     4  11  24  37  63  88 120 161 198 260 315 367
#     4  10  23  42  66  95 123 154 203 260 325 386
#     4  11  23  39  55  81 124 175 215 253 305 359
#     4  10  22  42  66  91 120 160 206 265 325 376
#
# _framework density 19.853345000000001
#
# number of rings (size 3 to 8) (size 9 to 14) (size 15 to 20)
#    0.000    1.250    2.500    3.375    5.250    2.500 
#    0.000    0.000    0.000    0.375    0.000    0.875 
#    0.000    0.000    0.000    0.000    0.000    0.000 
#
# Total GULP energy -356700.211704 kJ/mol
# GULP energy per Si atom -5573.440808 kJ/mol
# Density = 1.980816 g / cm^3
# Si number density = 19.853345 Si / 1000 Ang^3
#
#
#
# Elastic Constant Matrix: (Units=GPa)
#
#
# Indices 1 2 3 4 5 6 
#
# 1 80.7263 16.9058 22.0343 0.0000 0.0000 0.0000
# 2 16.9058 76.8429 9.7749 0.0000 0.0000 0.0000
# 3 22.0343 9.7749 50.3232 0.0000 0.0000 0.0000
# 4 0.0000 0.0000 0.0000 28.0233 0.0000 0.0000
# 5 0.0000 0.0000 0.0000 0.0000 16.5609 0.0000
# 6 0.0000 0.0000 0.0000 0.0000 0.0000 22.8480
#
#
#
# Elastic Compliance Matrix: (Units=1/GPa)
#
#
# Indices 1 2 3 4 5 6 
#
# 1 0.014503 -0.002443 -0.005876 0.000000 0.000000 0.000000
# 2 -0.002443 0.013755 -0.001602 0.000000 0.000000 0.000000
# 3 -0.005876 -0.001602 0.022755 0.000000 0.000000 0.000000
# 4 0.000000 0.000000 0.000000 0.035685 0.000000 0.000000
# 5 0.000000 0.000000 0.000000 0.000000 0.060383 0.000000
# 6 0.000000 0.000000 0.000000 0.000000 0.000000 0.043767
#
#
# Mechanical properties :
#
#
# Convention : Reuss Voigt Hill
#
# Bulk Modulus (GPa) = 32.08063 33.92472 33.00267
# Shear Modulus (GPa) = 22.61618 24.09828 23.35723
#
# Velocity S-wave (km/s) = 3.37881 3.48776 3.43372
# Velocity P-wave (km/s) = 5.60497 5.77443 5.69033
#
# Compressibility (1/GPa) = 0.03117146
#
# Stress axis : x y z
#
# Youngs Moduli (GPa) = 68.95134 72.70142 43.94558
#
# Poissons Ratio (x) = 0.17763 0.25821
# Poissons Ratio (y) = 0.16847 0.07040
# Poissons Ratio (z) = 0.40513 0.11647
#
# Static dielectric constant tensor:
#      x y z
#    x 1.857090 0.000000 0.000000 
#    y 0.000000 1.676950 0.000000 
#    z 0.000000 0.000000 1.696680 
# 
# From -- ./inp_files/34280.got.cif
#   From: 2010.05.17/outbox.cif.g08.bks.cpg/sg58_18_cif.got.tgz:34280.got - 2010.06.03 14:20:14.
