data_PCOD9445895
_publ_section_title
;
Structure prediction by ZEFSAII (Michael W. Deem and Ramdas Pophale) SiO2 
 PCOD9445895
Probable space group: P N N M
;
_chemical_formula_sum "Si O2"
_cell_formula_units_Z 40
_cell_length_a 14.035250
_cell_length_b 18.710321
_cell_length_c 7.525419
_cell_angle_alpha 90.000000
_cell_angle_beta 90.000000
_cell_angle_gamma 90.000000
_cell_volume 1976.205378
_symmetry_space_group_name_H-M "P N N M"
_symmetry_group_IT_number 58
_symmetry_cell_setting 'orthorhombic'
loop_
_space_group_symop_operation_xyz
x,y,z
-x,-y,z
1/2+x,1/2-y,1/2-z
1/2-x,1/2+y,1/2-z
-x,-y,-z
x,y,-z
1/2-x,1/2+y,1/2+z
1/2+x,1/2-y,1/2+z
loop_
_atom_site_type_symbol
_atom_site_label
_atom_site_fract_x
_atom_site_fract_y
_atom_site_fract_z
Si Si1 0.097906 0.966879 0.212533
Si Si2 0.910721 0.332849 0.781815
Si Si3 0.676641 0.683865 0.287276
Si Si4 0.879706 0.625010 0.787069
Si Si5 0.699210 0.973761 0.713360
O O1 0.125285 0.888022 0.282400
O O2 0.189603 0.016518 0.244949
O O3 0.087476 0.959915 0.000000
O O4 0.000000 0.000000 0.282791
O O5 0.867344 0.257705 0.720816
O O6 0.847849 0.400593 0.723515
O O7 0.019468 0.345400 0.723577
O O8 0.909778 0.332096 0.000000
O O9 0.664858 0.683751 0.500000
O O10 0.788807 0.674329 0.251983
O O11 0.854117 0.545337 0.719451
O O12 0.887247 0.619370 0.000000
O O13 0.689851 0.974166 0.500000
#
# Coordination Sequence:
#
# PCOD9445895 Si02
#       5
#     8   8   8   8   8
#     4   9  18  32  48  66  92 126 157 184 221 271
#     4   9  17  30  49  70  92 121 153 186 229 275
#     4   9  18  32  47  66  94 123 151 186 227 269
#     4   9  17  31  50  69  91 119 151 188 228 270
#     4   9  17  30  49  71  91 115 153 194 227 266
#
# _framework density 20.240808999999999
#
# number of rings (size 3 to 8) (size 9 to 14) (size 15 to 20)
#    0.000    3.000    0.000    0.600    0.000    4.400 
#    0.000    5.000    0.000    4.800    0.000    0.000 
#    0.000    0.000    0.000    0.000    0.000    0.000 
#
# Total GULP energy -223182.829286 kJ/mol
# GULP energy per Si atom -5579.570732 kJ/mol
# Density = 2.019474 g / cm^3
# Si number density = 20.240809 Si / 1000 Ang^3
#
#
#
# Elastic Constant Matrix: (Units=GPa)
#
#
# Indices 1 2 3 4 5 6 
#
# 1 217.2519 156.4623 -0.8210 0.0000 0.0000 0.0000
# 2 156.4623 163.6443 6.9575 0.0000 0.0000 0.0000
# 3 -0.8210 6.9575 50.5117 0.0000 0.0000 0.0000
# 4 0.0000 0.0000 0.0000 8.3929 0.0000 0.0000
# 5 0.0000 0.0000 0.0000 0.0000 21.0457 0.0000
# 6 0.0000 0.0000 0.0000 0.0000 0.0000 17.7160
#
#
#
# Elastic Compliance Matrix: (Units=1/GPa)
#
#
# Indices 1 2 3 4 5 6 
#
# 1 0.015028 -0.014463 0.002236 0.000000 0.000000 0.000000
# 2 -0.014463 0.020067 -0.002999 0.000000 0.000000 0.000000
# 3 0.002236 -0.002999 0.020247 0.000000 0.000000 0.000000
# 4 0.000000 0.000000 0.000000 0.119149 0.000000 0.000000
# 5 0.000000 0.000000 0.000000 0.000000 0.047516 0.000000
# 6 0.000000 0.000000 0.000000 0.000000 0.000000 0.056446
#
#
# Mechanical properties :
#
#
# Convention : Reuss Voigt Hill
#
# Bulk Modulus (GPa) = 40.17757 84.06729 62.12243
# Shear Modulus (GPa) = 15.76294 27.35152 21.55723
#
# Velocity S-wave (km/s) = 2.79367 3.68000 3.26703
# Velocity P-wave (km/s) = 5.50445 7.72530 6.70743
#
# Compressibility (1/GPa) = 0.02488951
#
# Stress axis : x y z
#
# Youngs Moduli (GPa) = 66.54417 49.83369 49.39045
#
# Poissons Ratio (x) = 0.72075 -0.11046
# Poissons Ratio (y) = 0.96244 0.14813
# Poissons Ratio (z) = -0.14882 0.14946
#
# Static dielectric constant tensor:
#      x y z
#    x 1.682240 0.000000 0.000000 
#    y 0.000000 1.704350 0.000000 
#    z 0.000000 0.000000 1.771530 
# 
# From -- ./inp_files/3787.got.cif
#   From: 2010.05.17/outbox.cif.g08.bks.cpg/sg58_2_cif.got.tgz:3787.got - 2010.06.03 14:20:14.
