data_PCOD9445797
_publ_section_title
;
Structure prediction by ZEFSAII (Michael W. Deem and Ramdas Pophale) SiO2 
 PCOD9445797
Probable space group: P N N M
;
_chemical_formula_sum "Si O2"
_cell_formula_units_Z 32
_cell_length_a 14.087578
_cell_length_b 9.296010
_cell_length_c 10.051100
_cell_angle_alpha 90.000000
_cell_angle_beta 90.000000
_cell_angle_gamma 90.000000
_cell_volume 1316.274627
_symmetry_space_group_name_H-M "P N N M"
_symmetry_group_IT_number 58
_symmetry_cell_setting 'orthorhombic'
loop_
_space_group_symop_operation_xyz
x,y,z
-x,-y,z
1/2+x,1/2-y,1/2-z
1/2-x,1/2+y,1/2-z
-x,-y,-z
x,y,-z
1/2-x,1/2+y,1/2+z
1/2+x,1/2-y,1/2+z
loop_
_atom_site_type_symbol
_atom_site_label
_atom_site_fract_x
_atom_site_fract_y
_atom_site_fract_z
Si Si1 0.658614 0.458343 0.150947
Si Si2 0.951986 0.761633 0.154253
Si Si3 0.830015 0.271630 0.767621
Si Si4 0.890422 0.541277 0.640505
O O1 0.580382 0.390896 0.249870
O O2 0.746049 0.345099 0.149485
O O3 0.687364 0.612095 0.213503
O O4 0.624501 0.479828 0.000000
O O5 0.893875 0.631162 0.223042
O O6 0.065047 0.733068 0.166248
O O7 0.927676 0.783231 0.000000
O O8 0.836755 0.391168 0.652132
O O9 0.864351 0.614581 0.500000
O O10 0.000000 0.500000 0.629270
#
# Coordination Sequence:
#
# PCOD9445797 Si02
#       4
#     8   8   8   8
#     4  12  27  46  71 102 137 182 233 286 347 415
#     4  11  25  45  71 103 139 182 232 288 349 411
#     4  11  25  44  71 103 142 182 230 286 345 414
#     4   9  19  38  66  98 132 173 220 272 331 397
#
# _framework density 24.311036999999999
#
# number of rings (size 3 to 8) (size 9 to 14) (size 15 to 20)
#    0.000    1.250    0.000    4.500    0.000   16.500 
#    0.000    0.000    0.000    0.000    0.000    0.000 
#    0.000    0.000    0.000    0.000    0.000    0.000 
#
# Total GULP energy -178661.982638 kJ/mol
# GULP energy per Si atom -5583.186957 kJ/mol
# Density = 2.425570 g / cm^3
# Si number density = 24.311037 Si / 1000 Ang^3
#
#
#
# Elastic Constant Matrix: (Units=GPa)
#
#
# Indices 1 2 3 4 5 6 
#
# 1 100.2187 41.2768 28.5816 0.0000 0.0000 0.0000
# 2 41.2768 162.5042 55.1233 0.0000 0.0000 0.0000
# 3 28.5816 55.1233 184.7034 0.0000 0.0000 0.0000
# 4 0.0000 0.0000 0.0000 48.1141 0.0000 0.0000
# 5 0.0000 0.0000 0.0000 0.0000 283.9722 0.0000
# 6 0.0000 0.0000 0.0000 0.0000 0.0000 49.0760
#
#
#
# Elastic Compliance Matrix: (Units=1/GPa)
#
#
# Indices 1 2 3 4 5 6 
#
# 1 0.011305 -0.002535 -0.000993 0.000000 0.000000 0.000000
# 2 -0.002535 0.007415 -0.001821 0.000000 0.000000 0.000000
# 3 -0.000993 -0.001821 0.006111 0.000000 0.000000 0.000000
# 4 0.000000 0.000000 0.000000 0.020784 0.000000 0.000000
# 5 0.000000 0.000000 0.000000 0.000000 0.003521 0.000000
# 6 0.000000 0.000000 0.000000 0.000000 0.000000 0.020377
#
#
# Mechanical properties :
#
#
# Convention : Reuss Voigt Hill
#
# Bulk Modulus (GPa) = 70.74807 77.48777 74.11792
# Shear Modulus (GPa) = 58.87747 97.72876 78.30312
#
# Velocity S-wave (km/s) = 4.92656 6.34717 5.68144
# Velocity P-wave (km/s) = 7.84383 9.25517 8.57857
#
# Compressibility (1/GPa) = 0.01413466
#
# Stress axis : x y z
#
# Youngs Moduli (GPa) = 88.45365 134.85888 163.63599
#
# Poissons Ratio (x) = 0.34184 0.16248
# Poissons Ratio (y) = 0.22421 0.29794
# Poissons Ratio (z) = 0.08783 0.24554
#
# Static dielectric constant tensor:
#      x y z
#    x 1.986670 0.000000 0.000000 
#    y 0.000000 1.979860 0.000000 
#    z 0.000000 0.000000 1.894530 
# 
# From -- ./inp_files/5059.got.cif
#   From: 2010.05.17/outbox.cif.g08.bks.cpg/sg58_3_cif.got.tgz:5059.got - 2010.06.03 14:20:14.
