data_PCOD9445226
_publ_section_title
;
Structure prediction by ZEFSAII (Michael W. Deem and Ramdas Pophale) SiO2 
 PCOD9445226
Probable space group: P N N M
;
_chemical_formula_sum "Si O2"
_cell_formula_units_Z 64
_cell_length_a 8.809181
_cell_length_b 11.820081
_cell_length_c 30.922867
_cell_angle_alpha 90.000000
_cell_angle_beta 90.000000
_cell_angle_gamma 90.000000
_cell_volume 3219.850730
_symmetry_space_group_name_H-M "P N N M"
_symmetry_group_IT_number 58
_symmetry_cell_setting 'orthorhombic'
loop_
_space_group_symop_operation_xyz
x,y,z
-x,-y,z
1/2+x,1/2-y,1/2-z
1/2-x,1/2+y,1/2-z
-x,-y,-z
x,y,-z
1/2-x,1/2+y,1/2+z
1/2+x,1/2-y,1/2+z
loop_
_atom_site_type_symbol
_atom_site_label
_atom_site_fract_x
_atom_site_fract_y
_atom_site_fract_z
Si Si1 0.180982 0.411540 0.235853
Si Si2 0.265865 0.575835 0.690072
Si Si3 0.236649 0.220876 0.359842
Si Si4 0.640427 0.913765 0.048891
Si Si5 0.337924 0.444473 0.392426
Si Si6 0.948487 0.215170 0.777983
Si Si7 0.173944 0.474923 0.864163
Si Si8 0.381039 0.256189 0.871321
O O1 0.186377 0.515185 0.269559
O O2 0.339705 0.346892 0.244237
O O3 0.169279 0.458158 0.187671
O O4 0.050329 0.316900 0.240431
O O5 0.254727 0.482846 0.651839
O O6 0.432392 0.621749 0.703856
O O7 0.196042 0.684404 0.666854
O O8 0.313579 0.310753 0.392678
O O9 0.336862 0.239303 0.316113
O O10 0.056336 0.236969 0.356894
O O11 0.247805 0.092460 0.374772
O O12 0.621972 0.815854 0.084286
O O13 0.500000 0.000000 0.050538
O O14 0.775229 0.992960 0.065793
O O15 0.659996 0.872667 0.000000
O O16 0.500000 0.500000 0.385739
O O17 0.276937 0.367984 0.878485
O O18 0.000000 0.500000 0.878508
#
# Coordination Sequence:
#
# PCOD9445226 Si02
#       8
#     8   8   8   8   8   8   8   8
#     4  12  27  42  60  87 129 182 235 296 351 382
#     4  11  23  43  64  91 125 175 230 288 342 401
#     4  12  24  44  64  96 126 175 234 277 334 415
#     4  10  22  43  74 114 144 162 205 275 349 422
#     4  11  21  40  71 100 136 175 217 272 340 409
#     4  12  26  45  59  87 130 176 234 301 346 401
#     4  12  27  45  65  89 132 183 234 285 332 393
#     4  11  25  45  72  99 131 184 224 278 350 424
#
# _framework density 19.876697
#
# number of rings (size 3 to 8) (size 9 to 14) (size 15 to 20)
#    0.000    0.625    6.250    0.750    5.250    2.250 
#    2.250    0.000    0.000    2.625    0.000    0.000 
#    0.000    0.000    0.000    0.000    0.000    0.000 
#
# Total GULP energy -357379.727830 kJ/mol
# GULP energy per Si atom -5584.058247 kJ/mol
# Density = 1.983146 g / cm^3
# Si number density = 19.876697 Si / 1000 Ang^3
#
#
#
# Elastic Constant Matrix: (Units=GPa)
#
#
# Indices 1 2 3 4 5 6 
#
# 1 111.0553 63.3647 32.0304 0.0000 0.0000 0.0000
# 2 63.3647 159.2609 38.7686 0.0000 0.0000 0.0000
# 3 32.0304 38.7686 74.1679 0.0000 0.0000 0.0000
# 4 0.0000 0.0000 0.0000 10.5841 0.0000 0.0000
# 5 0.0000 0.0000 0.0000 0.0000 16.1137 0.0000
# 6 0.0000 0.0000 0.0000 0.0000 0.0000 27.3594
#
#
#
# Elastic Compliance Matrix: (Units=1/GPa)
#
#
# Indices 1 2 3 4 5 6 
#
# 1 0.012257 -0.004111 -0.003144 0.000000 0.000000 0.000000
# 2 -0.004111 0.008573 -0.002706 0.000000 0.000000 0.000000
# 3 -0.003144 -0.002706 0.016255 0.000000 0.000000 0.000000
# 4 0.000000 0.000000 0.000000 0.094482 0.000000 0.000000
# 5 0.000000 0.000000 0.000000 0.000000 0.062059 0.000000
# 6 0.000000 0.000000 0.000000 0.000000 0.000000 0.036550
#
#
# Mechanical properties :
#
#
# Convention : Reuss Voigt Hill
#
# Bulk Modulus (GPa) = 58.26601 68.09018 63.17809
# Shear Modulus (GPa) = 19.54489 24.83279 22.18884
#
# Velocity S-wave (km/s) = 3.13917 3.53844 3.34477
# Velocity P-wave (km/s) = 6.52047 7.14316 6.83891
#
# Compressibility (1/GPa) = 0.01716267
#
# Stress axis : x y z
#
# Youngs Moduli (GPa) = 81.58468 116.63897 61.51834
#
# Poissons Ratio (x) = 0.47954 0.19344
# Poissons Ratio (y) = 0.33542 0.16647
# Poissons Ratio (z) = 0.25654 0.31562
#
# Static dielectric constant tensor:
#      x y z
#    x 1.728790 0.000000 0.000000 
#    y 0.000000 1.759530 0.000000 
#    z 0.000000 0.000000 1.688280 
# 
# From -- ./inp_files/34766.got.cif
#   From: 2010.05.17/outbox.cif.g08.bks.cpg/sg58_18_cif.got.tgz:34766.got - 2010.06.03 14:20:14.
