data_PCOD9445302
_publ_section_title
;
Structure prediction by ZEFSAII (Michael W. Deem and Ramdas Pophale) SiO2 
 PCOD9445302
Probable space group: P N N M
;
_chemical_formula_sum "Si O2"
_cell_formula_units_Z 64
_cell_length_a 26.841254
_cell_length_b 13.088336
_cell_length_c 8.455913
_cell_angle_alpha 90.000000
_cell_angle_beta 90.000000
_cell_angle_gamma 90.000000
_cell_volume 2970.624396
_symmetry_space_group_name_H-M "P N N M"
_symmetry_group_IT_number 58
_symmetry_cell_setting 'orthorhombic'
loop_
_space_group_symop_operation_xyz
x,y,z
-x,-y,z
1/2+x,1/2-y,1/2-z
1/2-x,1/2+y,1/2-z
-x,-y,-z
x,y,-z
1/2-x,1/2+y,1/2+z
1/2+x,1/2-y,1/2+z
loop_
_atom_site_type_symbol
_atom_site_label
_atom_site_fract_x
_atom_site_fract_y
_atom_site_fract_z
Si Si1 0.446941 0.266577 0.690629
Si Si2 0.446497 0.676760 0.188155
Si Si3 0.717590 0.809140 0.178586
Si Si4 0.203922 0.059339 0.677375
Si Si5 0.376001 0.078424 0.312329
Si Si6 0.757084 0.620828 0.680294
Si Si7 0.600693 0.518041 0.687052
Si Si8 0.873303 0.643654 0.311929
O O1 0.453283 0.269448 0.500000
O O2 0.500446 0.274466 0.771402
O O3 0.417304 0.163232 0.730302
O O4 0.416183 0.368627 0.736038
O O5 0.440279 0.568094 0.273909
O O6 0.403593 0.756573 0.241112
O O7 0.441615 0.660597 0.000000
O O8 0.674278 0.887930 0.222826
O O9 0.719326 0.714719 0.298159
O O10 0.771023 0.862180 0.202534
O O11 0.711150 0.773618 0.000000
O O12 0.204134 0.102227 0.500000
O O13 0.240048 0.962321 0.693981
O O14 0.149737 0.020902 0.723956
O O15 0.367173 0.084988 0.500000
O O16 0.389473 0.962633 0.267781
O O17 0.753958 0.581244 0.500000
O O18 0.813906 0.653069 0.710500
O O19 0.610568 0.520190 0.500000
O O20 0.881914 0.633885 0.500000
#
# Coordination Sequence:
#
# PCOD9445302 Si02
#       8
#     8   8   8   8   8   8   8   8
#     4  10  24  44  65  93 127 168 213 268 333 391
#     4  11  24  42  66  96 128 167 216 273 331 388
#     4  12  24  39  61  91 128 169 212 259 316 380
#     4  12  24  39  61  93 128 164 210 255 312 383
#     4  11  23  41  66  93 127 169 219 271 322 387
#     4  11  22  39  62  89 126 168 211 261 313 376
#     4  11  23  42  67  94 130 170 214 268 331 395
#     4  10  23  42  63  90 129 170 212 266 325 384
#
# _framework density 21.544293
#
# number of rings (size 3 to 8) (size 9 to 14) (size 15 to 20)
#    0.000    1.000    1.250    5.625    0.000    7.500 
#    0.000    2.500    0.000    0.000    0.000    0.000 
#    0.000    0.000    0.000    0.000    0.000    0.000 
#
# Total GULP energy -358032.045520 kJ/mol
# GULP energy per Si atom -5594.250711 kJ/mol
# Density = 2.149526 g / cm^3
# Si number density = 21.544293 Si / 1000 Ang^3
#
#
#
# Elastic Constant Matrix: (Units=GPa)
#
#
# Indices 1 2 3 4 5 6 
#
# 1 61.1029 -1.3760 16.4598 0.0000 0.0000 0.0000
# 2 -1.3760 79.2314 8.7810 0.0000 0.0000 0.0000
# 3 16.4598 8.7810 51.6112 0.0000 0.0000 0.0000
# 4 0.0000 0.0000 0.0000 31.1966 0.0000 0.0000
# 5 0.0000 0.0000 0.0000 0.0000 31.0321 0.0000
# 6 0.0000 0.0000 0.0000 0.0000 0.0000 33.9995
#
#
#
# Elastic Compliance Matrix: (Units=1/GPa)
#
#
# Indices 1 2 3 4 5 6 
#
# 1 0.017976 0.000966 -0.005897 0.000000 0.000000 0.000000
# 2 0.000966 0.012916 -0.002505 0.000000 0.000000 0.000000
# 3 -0.005897 -0.002505 0.021683 0.000000 0.000000 0.000000
# 4 0.000000 0.000000 0.000000 0.032055 0.000000 0.000000
# 5 0.000000 0.000000 0.000000 0.000000 0.032225 0.000000
# 6 0.000000 0.000000 0.000000 0.000000 0.000000 0.029412
#
#
# Mechanical properties :
#
#
# Convention : Reuss Voigt Hill
#
# Bulk Modulus (GPa) = 26.52472 26.63056 26.57764
# Shear Modulus (GPa) = 28.78409 30.45100 29.61754
#
# Velocity S-wave (km/s) = 3.65916 3.76362 3.71175
# Velocity P-wave (km/s) = 5.49464 5.59233 5.54370
#
# Compressibility (1/GPa) = 0.03770068
#
# Stress axis : x y z
#
# Youngs Moduli (GPa) = 55.62915 77.42513 46.11980
#
# Poissons Ratio (x) = -0.07477 0.27198
# Poissons Ratio (y) = -0.05372 0.11555
# Poissons Ratio (z) = 0.32806 0.19398
#
# Static dielectric constant tensor:
#      x y z
#    x 1.771640 0.000000 0.000000 
#    y 0.000000 1.797820 0.000000 
#    z 0.000000 0.000000 1.730860 
# 
# From -- ./inp_files/10018.got.cif
#   From: 2010.05.17/outbox.cif.g08.bks.cpg/sg58_6_cif.got.tgz:10018.got - 2010.06.03 14:20:14.
