data_PCOD9445909
_publ_section_title
;
Structure prediction by ZEFSAII (Michael W. Deem and Ramdas Pophale) SiO2 
 PCOD9445909
Probable space group: P N N M
;
_chemical_formula_sum "Si O2"
_cell_formula_units_Z 64
_cell_length_a 30.000000
_cell_length_b 15.000000
_cell_length_c 9.000000
_cell_angle_alpha 90.000000
_cell_angle_beta 90.000000
_cell_angle_gamma 90.000000
_cell_volume 4050.000000
_symmetry_space_group_name_H-M "P N N M"
_symmetry_group_IT_number 58
_symmetry_cell_setting 'orthorhombic'
loop_
_space_group_symop_operation_xyz
x,y,z
-x,-y,z
1/2+x,1/2-y,1/2-z
1/2-x,1/2+y,1/2-z
-x,-y,-z
x,y,-z
1/2-x,1/2+y,1/2+z
1/2+x,1/2-y,1/2+z
loop_
_atom_site_type_symbol
_atom_site_label
_atom_site_fract_x
_atom_site_fract_y
_atom_site_fract_z
Si Si1 0.311928 0.535447 0.827989
Si Si2 0.721755 0.758169 0.324121
Si Si3 0.692958 0.140710 0.818361
Si Si4 0.870787 0.790257 0.325833
Si Si5 0.547375 0.598684 0.678998
Si Si6 0.358296 0.376975 0.323988
Si Si7 0.220605 0.550094 0.675605
Si Si8 0.950610 0.891128 0.821217
O O1 0.332894 0.633327 0.813283
O O2 0.346560 0.460960 0.777474
O O3 0.271214 0.524969 0.716102
O O4 0.298474 0.523339 0.000000
O O5 0.728995 0.773136 0.500000
O O6 0.763566 0.698042 0.270107
O O7 0.678125 0.698515 0.302928
O O8 0.714724 0.853971 0.250366
O O9 0.650246 0.197884 0.771713
O O10 0.693816 0.037620 0.770983
O O11 0.694517 0.140178 0.000000
O O12 0.881140 0.781785 0.500000
O O13 0.913158 0.828052 0.242562
O O14 0.543355 0.596234 0.500000
O O15 0.591715 0.652116 0.714590
O O16 0.500149 0.633908 0.732639
O O17 0.554371 0.495237 0.723244
O O18 0.357382 0.402885 0.500000
O O19 0.214437 0.559022 0.500000
O O20 0.947958 0.888452 0.000000
#
# Coordination Sequence:
#
# PCOD9445909 Si02
#       8
#     8   8   8   8   8   8   8   8
#     4  11  20  29  45  69  98 126 156 198 232 263
#     4  10  19  33  49  68  95 124 154 193 233 274
#     4   9  18  33  48  64  91 125 156 187 230 278
#     4  10  19  31  45  64  93 128 156 184 231 277
#     4   8  15  27  45  69  94 122 152 187 228 274
#     4  10  18  31  50  68  93 131 163 183 226 288
#     4  11  21  34  50  67  90 126 165 196 230 279
#     4   9  16  28  46  68  94 119 153 194 225 267
#
# _framework density 15.802469
#
# number of rings (size 3 to 8) (size 9 to 14) (size 15 to 20)
#    0.000    2.250    3.750    1.500    0.000    1.000 
#    0.000    3.125    0.000    0.000    0.000    0.875 
#    0.000    7.000    0.000    0.000    0.000    0.000 
#
# Total GULP energy -356298.135533 kJ/mol
# GULP energy per Si atom -5567.158368 kJ/mol
# Density = 1.576650 g / cm^3
# Si number density = 15.802469 Si / 1000 Ang^3
#
#
#
# Elastic Constant Matrix: (Units=GPa)
#
#
# Indices 1 2 3 4 5 6 
#
# 1 40.6718 -17.5420 0.9043 0.0000 0.0000 0.0000
# 2 -17.5420 33.7174 8.8705 0.0000 0.0000 0.0000
# 3 0.9043 8.8705 3.7270 0.0000 0.0000 0.0000
# 4 0.0000 0.0000 0.0000 6.0801 0.0000 0.0000
# 5 0.0000 0.0000 0.0000 0.0000 7.3110 0.0000
# 6 0.0000 0.0000 0.0000 0.0000 0.0000 13.8978
#
#
#
# Elastic Compliance Matrix: (Units=1/GPa)
#
#
# Indices 1 2 3 4 5 6 
#
# 1 0.103289 0.161380 -0.409157 0.000000 0.000000 0.000000
# 2 0.161380 0.331475 -0.828088 0.000000 0.000000 0.000000
# 3 -0.409157 -0.828088 2.338490 0.000000 0.000000 0.000000
# 4 0.000000 0.000000 0.000000 0.164471 0.000000 0.000000
# 5 0.000000 0.000000 0.000000 0.000000 0.136780 0.000000
# 6 0.000000 0.000000 0.000000 0.000000 0.000000 0.071954
#
#
# Mechanical properties :
#
#
# Convention : Reuss Voigt Hill
#
# Bulk Modulus (GPa) = 1.60895 6.95354 4.28124
# Shear Modulus (GPa) = 0.90821 11.18335 6.04578
#
# Velocity S-wave (km/s) = 0.75893 2.66314 1.95810
# Velocity P-wave (km/s) = 1.33729 3.72374 2.79773
#
# Compressibility (1/GPa) = 0.62152429
#
# Stress axis : x y z
#
# Youngs Moduli (GPa) = 9.68156 3.01682 0.42763
#
# Poissons Ratio (x) = -0.48685 0.17497
# Poissons Ratio (y) = -1.56241 0.35411
# Poissons Ratio (z) = 3.96128 2.49819
#
# Static dielectric constant tensor:
#      x y z
#    x 1.572100 0.000000 0.000000 
#    y 0.000000 1.531180 0.000000 
#    z 0.000000 0.000000 1.536480 
# 
# From -- ./inp_files/7152.got.cif
#   From: 2010.05.17/outbox.ucp.g08.bks.cvg/sg58_4_cif.got.tgz:7152.got - 2010.06.11 16:41:41.
