data_PCOD9445771
_publ_section_title
;
Structure prediction by ZEFSAII (Michael W. Deem and Ramdas Pophale) SiO2 
 PCOD9445771
Probable space group: P N N M
;
_chemical_formula_sum "Si O2"
_cell_formula_units_Z 28
_cell_length_a 6.780495
_cell_length_b 9.792760
_cell_length_c 22.227924
_cell_angle_alpha 90.000000
_cell_angle_beta 90.000000
_cell_angle_gamma 90.000000
_cell_volume 1475.928824
_symmetry_space_group_name_H-M "P N N M"
_symmetry_group_IT_number 58
_symmetry_cell_setting 'orthorhombic'
loop_
_space_group_symop_operation_xyz
x,y,z
-x,-y,z
1/2+x,1/2-y,1/2-z
1/2-x,1/2+y,1/2-z
-x,-y,-z
x,y,-z
1/2-x,1/2+y,1/2+z
1/2+x,1/2-y,1/2+z
loop_
_atom_site_type_symbol
_atom_site_label
_atom_site_fract_x
_atom_site_fract_y
_atom_site_fract_z
Si Si1 0.661880 0.379541 0.070995
Si Si2 0.927517 0.653177 0.660671
Si Si3 0.157949 0.877139 0.266565
Si Si4 0.000000 0.500000 0.847908
O O1 0.500000 0.500000 0.081239
O O2 0.585280 0.239126 0.099679
O O3 0.857836 0.414735 0.108297
O O4 0.697465 0.370997 0.000000
O O5 0.723927 0.647107 0.698172
O O6 0.000000 0.500000 0.652129
O O7 0.070371 0.741470 0.703787
O O8 0.350399 0.919408 0.304633
O O9 0.000000 0.000000 0.270679
#
# Coordination Sequence:
#
# PCOD9445771 Si02
#       4
#     8   8   8   4
#     4  11  24  44  68  92 128 180 229 262 308 393
#     4  12  23  39  65  96 135 167 206 275 335 380
#     4  12  23  43  65 100 132 173 218 265 333 403
#     4  12  19  44  72  92 125 170 228 268 310 390
#
# _framework density 18.971102999999999
#
# number of rings (size 3 to 8) (size 9 to 14) (size 15 to 20)
#    0.000    0.286    7.143    3.857    0.000    0.571 
#    0.000    0.000    0.000    2.571    0.000    0.000 
#    0.000    0.000    0.000    0.000    0.000    0.000 
#
# Total GULP energy -156574.504640 kJ/mol
# GULP energy per Si atom -5591.946594 kJ/mol
# Density = 1.892792 g / cm^3
# Si number density = 18.971103 Si / 1000 Ang^3
#
#
#
# Elastic Constant Matrix: (Units=GPa)
#
#
# Indices 1 2 3 4 5 6 
#
# 1 96.6723 53.0342 34.9617 0.0000 0.0000 0.0000
# 2 53.0342 161.1166 49.9539 0.0000 0.0000 0.0000
# 3 34.9617 49.9539 113.9457 0.0000 0.0000 0.0000
# 4 0.0000 0.0000 0.0000 22.9216 0.0000 0.0000
# 5 0.0000 0.0000 0.0000 0.0000 63.5111 0.0000
# 6 0.0000 0.0000 0.0000 0.0000 0.0000 19.7277
#
#
#
# Elastic Compliance Matrix: (Units=1/GPa)
#
#
# Indices 1 2 3 4 5 6 
#
# 1 0.013204 -0.003576 -0.002484 0.000000 0.000000 0.000000
# 2 -0.003576 0.008152 -0.002476 0.000000 0.000000 0.000000
# 3 -0.002484 -0.002476 0.010624 0.000000 0.000000 0.000000
# 4 0.000000 0.000000 0.000000 0.043627 0.000000 0.000000
# 5 0.000000 0.000000 0.000000 0.000000 0.015745 0.000000
# 6 0.000000 0.000000 0.000000 0.000000 0.000000 0.050690
#
#
# Mechanical properties :
#
#
# Convention : Reuss Voigt Hill
#
# Bulk Modulus (GPa) = 67.08178 71.95936 69.52057
# Shear Modulus (GPa) = 30.47215 36.81774 33.64494
#
# Velocity S-wave (km/s) = 4.01214 4.41015 4.21584
# Velocity P-wave (km/s) = 7.54319 7.99662 7.77321
#
# Compressibility (1/GPa) = 0.01490718
#
# Stress axis : x y z
#
# Youngs Moduli (GPa) = 75.73217 122.67350 94.12845
#
# Poissons Ratio (x) = 0.43873 0.23377
# Poissons Ratio (y) = 0.27085 0.23310
# Poissons Ratio (z) = 0.18809 0.30379
#
# Static dielectric constant tensor:
#      x y z
#    x 1.680240 0.000000 0.000000 
#    y 0.000000 1.660970 0.000000 
#    z 0.000000 0.000000 1.640500 
# 
# From -- ./inp_files/32578.got.cif
#   From: 2010.05.17/outbox.cif.g08.bks.cpg/sg58_17_cif.got.tgz:32578.got - 2010.06.03 14:20:14.
