data_PCOD9445377
_publ_section_title
;
Structure prediction by ZEFSAII (Michael W. Deem and Ramdas Pophale) SiO2 
 PCOD9445377
Probable space group: P N N M
;
_chemical_formula_sum "Si O2"
_cell_formula_units_Z 56
_cell_length_a 14.564300
_cell_length_b 8.804583
_cell_length_c 17.865123
_cell_angle_alpha 90.000000
_cell_angle_beta 90.000000
_cell_angle_gamma 90.000000
_cell_volume 2290.890961
_symmetry_space_group_name_H-M "P N N M"
_symmetry_group_IT_number 58
_symmetry_cell_setting 'orthorhombic'
loop_
_space_group_symop_operation_xyz
x,y,z
-x,-y,z
1/2+x,1/2-y,1/2-z
1/2-x,1/2+y,1/2-z
-x,-y,-z
x,y,-z
1/2-x,1/2+y,1/2+z
1/2+x,1/2-y,1/2+z
loop_
_atom_site_type_symbol
_atom_site_label
_atom_site_fract_x
_atom_site_fract_y
_atom_site_fract_z
Si Si1 0.781792 0.895897 0.685781
Si Si2 0.144449 0.816662 0.760416
Si Si3 0.890367 0.332816 0.388984
Si Si4 0.594179 0.087962 0.300685
Si Si5 0.591866 0.600110 0.581145
Si Si6 0.409043 0.821320 0.123884
Si Si7 0.184443 0.205955 0.917543
O O1 0.746686 0.749108 0.731164
O O2 0.836354 0.815966 0.618108
O O3 0.848717 0.012961 0.728142
O O4 0.685154 0.985022 0.679934
O O5 0.104000 0.705302 0.699084
O O6 0.098354 0.813318 0.841081
O O7 0.883266 0.511635 0.405978
O O8 0.793266 0.257730 0.410696
O O9 0.992156 0.281078 0.411806
O O10 0.583960 0.142436 0.213996
O O11 0.616482 0.226847 0.356191
O O12 0.500000 0.000000 0.319748
O O13 0.500000 0.500000 0.579887
O O14 0.598636 0.679776 0.500000
O O15 0.673636 0.476105 0.586285
O O16 0.153641 0.254894 0.000000
#
# Coordination Sequence:
#
# PCOD9445377 Si02
#       7
#     8   8   8   8   8   8   8
#     4  12  22  36  62  99 129 168 219 269 336 378
#     4  12  21  37  65  91 130 171 211 275 323 390
#     4  11  22  43  67 100 129 171 223 284 333 384
#     4  12  23  38  62  95 132 169 219 269 330 395
#     4  10  24  39  58  91 130 173 218 265 324 400
#     4  11  22  39  67 102 135 160 219 291 331 393
#     4  11  25  46  65  89 135 184 224 268 336 408
#
# _framework density 24.444637
#
# number of rings (size 3 to 8) (size 9 to 14) (size 15 to 20)
#    0.000    0.714    5.714    2.571    6.000    0.286 
#    0.000    2.143    0.000    3.429    0.000    0.000 
#    0.000    0.000    0.000    0.000    0.000    0.000 
#
# Total GULP energy -312367.440865 kJ/mol
# GULP energy per Si atom -5577.990015 kJ/mol
# Density = 2.438900 g / cm^3
# Si number density = 24.444637 Si / 1000 Ang^3
#
#
#
# Elastic Constant Matrix: (Units=GPa)
#
#
# Indices 1 2 3 4 5 6 
#
# 1 147.3365 14.9269 6.5014 0.0000 0.0000 0.0000
# 2 14.9269 50.0316 7.5042 0.0000 0.0000 0.0000
# 3 6.5014 7.5042 101.0190 0.0000 0.0000 0.0000
# 4 0.0000 0.0000 0.0000 24.5210 0.0000 0.0000
# 5 0.0000 0.0000 0.0000 0.0000 -23.7263 0.0000
# 6 0.0000 0.0000 0.0000 0.0000 0.0000 39.6135
#
#
#
# Elastic Compliance Matrix: (Units=1/GPa)
#
#
# Indices 1 2 3 4 5 6 
#
# 1 0.007008 -0.002046 -0.000299 0.000000 0.000000 0.000000
# 2 -0.002046 0.020810 -0.001414 0.000000 0.000000 0.000000
# 3 -0.000299 -0.001414 0.010023 0.000000 0.000000 0.000000
# 4 0.000000 0.000000 0.000000 0.040781 0.000000 0.000000
# 5 0.000000 0.000000 0.000000 0.000000 -0.042147 0.000000
# 6 0.000000 0.000000 0.000000 0.000000 0.000000 0.025244
#
#
# Mechanical properties :
#
#
# Convention : Reuss Voigt Hill
#
# Bulk Modulus (GPa) = 32.97852 39.58356 36.28104
# Shear Modulus (GPa) = 63.01617 26.04528 44.53072
#
# Velocity S-wave (km/s) = 5.08282 3.26771 4.27276
# Velocity P-wave (km/s) = 6.92584 5.51956 6.26230
#
# Compressibility (1/GPa) = 0.03032277
#
# Stress axis : x y z
#
# Youngs Moduli (GPa) = 142.70122 48.05410 99.76624
#
# Poissons Ratio (x) = 0.09831 0.02983
# Poissons Ratio (y) = 0.29195 0.14109
# Poissons Ratio (z) = 0.04267 0.06796
#
# Static dielectric constant tensor:
#      x y z
#    x 2.018050 0.000000 0.000000 
#    y 0.000000 1.992010 0.000000 
#    z 0.000000 0.000000 2.009050 
# 
# From -- ./inp_files/29992.got.cif
#   From: 2010.05.17/outbox.cif.g08.bks.cpg/sg58_15_cif.got.tgz:29992.got - 2010.06.03 14:20:14.
