data_PCOD9445878
_publ_section_title
;
Structure prediction by ZEFSAII (Michael W. Deem and Ramdas Pophale) SiO2 
 PCOD9445878
Probable space group: P N N M
;
_chemical_formula_sum "Si O2"
_cell_formula_units_Z 48
_cell_length_a 24.896050
_cell_length_b 14.276251
_cell_length_c 7.687082
_cell_angle_alpha 90.000000
_cell_angle_beta 90.000000
_cell_angle_gamma 90.000000
_cell_volume 2732.160047
_symmetry_space_group_name_H-M "P N N M"
_symmetry_group_IT_number 58
_symmetry_cell_setting 'orthorhombic'
loop_
_space_group_symop_operation_xyz
x,y,z
-x,-y,z
1/2+x,1/2-y,1/2-z
1/2-x,1/2+y,1/2-z
-x,-y,-z
x,y,-z
1/2-x,1/2+y,1/2+z
1/2+x,1/2-y,1/2+z
loop_
_atom_site_type_symbol
_atom_site_label
_atom_site_fract_x
_atom_site_fract_y
_atom_site_fract_z
Si Si1 0.272209 0.894514 0.708256
Si Si2 0.833553 0.209885 0.709177
Si Si3 0.833770 0.786536 0.212793
Si Si4 0.273298 0.108889 0.208473
Si Si5 0.061070 0.108846 0.787029
Si Si6 0.440958 0.394994 0.707698
O O1 0.270842 0.886321 0.500000
O O2 0.284041 0.001704 0.748340
O O3 0.213288 0.861166 0.772235
O O4 0.315186 0.816998 0.769491
O O5 0.830954 0.210812 0.500000
O O6 0.815954 0.313304 0.771347
O O7 0.892336 0.174085 0.754318
O O8 0.785714 0.856588 0.267382
O O9 0.891213 0.823922 0.272965
O O10 0.834797 0.786728 0.000000
O O11 0.272558 0.115319 0.000000
O O12 0.000483 0.133407 0.729924
O O13 0.071127 0.001132 0.731354
O O14 0.062022 0.110544 0.000000
O O15 0.445210 0.401795 0.500000
#
# Coordination Sequence:
#
# PCOD9445878 Si02
#       6
#     8   8   8   8   8   8
#     4   9  17  28  43  63  84 108 139 171 203 244
#     4   9  18  30  42  61  90 116 135 163 209 257
#     4   8  14  26  43  61  84 112 135 163 211 255
#     4   9  17  29  45  63  84 112 140 167 207 252
#     4   8  14  25  42  65  88 107 135 176 212 242
#     4   9  16  26  44  67  85 107 142 176 203 240
#
# _framework density 17.568517
#
# number of rings (size 3 to 8) (size 9 to 14) (size 15 to 20)
#    0.000    3.333    0.000    4.000    0.000    2.667 
#    0.000    4.167    0.000    4.000    0.000    7.000 
#    0.000    0.000    0.000    0.000    0.000    0.000 
#
# Total GULP energy -267362.912947 kJ/mol
# GULP energy per Si atom -5570.060686 kJ/mol
# Density = 1.752853 g / cm^3
# Si number density = 17.568517 Si / 1000 Ang^3
#
#
#
# Elastic Constant Matrix: (Units=GPa)
#
#
# Indices 1 2 3 4 5 6 
#
# 1 172.0035 110.0371 6.5057 0.0000 0.0000 0.0000
# 2 110.0371 152.1565 2.8915 0.0000 0.0000 0.0000
# 3 6.5057 2.8915 23.6367 0.0000 0.0000 0.0000
# 4 0.0000 0.0000 0.0000 18.1793 0.0000 0.0000
# 5 0.0000 0.0000 0.0000 0.0000 15.2856 0.0000
# 6 0.0000 0.0000 0.0000 0.0000 0.0000 25.7739
#
#
#
# Elastic Compliance Matrix: (Units=1/GPa)
#
#
# Indices 1 2 3 4 5 6 
#
# 1 0.010917 -0.007856 -0.002044 0.000000 0.000000 0.000000
# 2 -0.007856 0.012241 0.000665 0.000000 0.000000 0.000000
# 3 -0.002044 0.000665 0.042788 0.000000 0.000000 0.000000
# 4 0.000000 0.000000 0.000000 0.055008 0.000000 0.000000
# 5 0.000000 0.000000 0.000000 0.000000 0.065421 0.000000
# 6 0.000000 0.000000 0.000000 0.000000 0.000000 0.038799
#
#
# Mechanical properties :
#
#
# Convention : Reuss Voigt Hill
#
# Bulk Modulus (GPa) = 21.06319 65.18505 43.12412
# Shear Modulus (GPa) = 19.27009 27.07191 23.17100
#
# Velocity S-wave (km/s) = 3.31547 3.92973 3.63560
# Velocity P-wave (km/s) = 5.16446 7.60094 6.49792
#
# Compressibility (1/GPa) = 0.04747618
#
# Stress axis : x y z
#
# Youngs Moduli (GPa) = 91.59998 81.69257 23.37091
#
# Poissons Ratio (x) = 0.64179 0.04776
# Poissons Ratio (y) = 0.71963 -0.01554
# Poissons Ratio (z) = 0.18720 -0.05431
#
# Static dielectric constant tensor:
#      x y z
#    x 1.603880 0.000000 0.000000 
#    y 0.000000 1.597120 0.000000 
#    z 0.000000 0.000000 1.662800 
# 
# From -- ./inp_files/4230.got.cif
#   From: 2010.05.17/outbox.cif.g08.bks.cpg/sg58_3_cif.got.tgz:4230.got - 2010.06.03 14:20:14.
