data_PCOD9445053
_publ_section_title
;
Structure prediction by ZEFSAII (Michael W. Deem and Ramdas Pophale) SiO2 
 PCOD9445053
Probable space group: P N N M
;
_chemical_formula_sum "Si O2"
_cell_formula_units_Z 48
_cell_length_a 12.330036
_cell_length_b 22.409063
_cell_length_c 7.650902
_cell_angle_alpha 90.000000
_cell_angle_beta 90.000000
_cell_angle_gamma 90.000000
_cell_volume 2113.979061
_symmetry_space_group_name_H-M "P N N M"
_symmetry_group_IT_number 58
_symmetry_cell_setting 'orthorhombic'
loop_
_space_group_symop_operation_xyz
x,y,z
-x,-y,z
1/2+x,1/2-y,1/2-z
1/2-x,1/2+y,1/2-z
-x,-y,-z
x,y,-z
1/2-x,1/2+y,1/2+z
1/2+x,1/2-y,1/2+z
loop_
_atom_site_type_symbol
_atom_site_label
_atom_site_fract_x
_atom_site_fract_y
_atom_site_fract_z
Si Si1 0.725820 0.606196 0.799642
Si Si2 0.505911 0.433761 0.299547
Si Si3 0.363317 0.132301 0.291626
Si Si4 0.377212 0.999710 0.797611
Si Si5 0.586305 0.192272 0.285690
Si Si6 0.137259 0.177275 0.790689
O O1 0.614652 0.593414 0.701483
O O2 0.798607 0.546387 0.795186
O O3 0.804811 0.657902 0.730086
O O4 0.697274 0.620191 0.000000
O O5 0.500000 0.500000 0.218391
O O6 0.544042 0.442934 0.500000
O O7 0.583177 0.383273 0.218943
O O8 0.369492 0.125410 0.500000
O O9 0.478968 0.157047 0.228732
O O10 0.264810 0.175673 0.246462
O O11 0.338209 0.067545 0.213402
O O12 0.500000 0.000000 0.725763
O O13 0.382278 0.980810 0.000000
O O14 0.586497 0.191097 0.500000
O O15 0.586881 0.260722 0.227079
O O16 0.120746 0.176425 0.000000
#
# Coordination Sequence:
#
# PCOD9445053 Si02
#       6
#     8   8   8   8   8   8
#     4  11  22  38  62  89 123 159 200 253 306 362
#     4  10  22  40  62  88 121 160 205 254 307 365
#     4  11  22  39  63  90 122 156 201 251 303 358
#     4  11  22  37  59  89 121 156 199 243 299 363
#     4   9  21  39  58  86 123 163 197 245 310 359
#     4  10  22  41  62  85 123 167 206 250 303 361
#
# _framework density 22.705998000000001
#
# number of rings (size 3 to 8) (size 9 to 14) (size 15 to 20)
#    0.000    1.667    1.667    2.500    2.333    3.000 
#    0.000    2.500    0.000    0.000    0.000    0.000 
#    0.000    0.000    0.000    0.000    0.000    0.000 
#
# Total GULP energy -268385.815928 kJ/mol
# GULP energy per Si atom -5591.371165 kJ/mol
# Density = 2.265432 g / cm^3
# Si number density = 22.705998 Si / 1000 Ang^3
#
#
#
# Elastic Constant Matrix: (Units=GPa)
#
#
# Indices 1 2 3 4 5 6 
#
# 1 84.3312 28.9684 -11.5743 0.0000 0.0000 0.0000
# 2 28.9684 126.5440 7.3369 0.0000 0.0000 0.0000
# 3 -11.5743 7.3369 47.5066 0.0000 0.0000 0.0000
# 4 0.0000 0.0000 0.0000 -8.2251 0.0000 0.0000
# 5 0.0000 0.0000 0.0000 0.0000 3.8291 0.0000
# 6 0.0000 0.0000 0.0000 0.0000 0.0000 23.5485
#
#
#
# Elastic Compliance Matrix: (Units=1/GPa)
#
#
# Indices 1 2 3 4 5 6 
#
# 1 0.013519 -0.003315 0.003806 0.000000 0.000000 0.000000
# 2 -0.003315 0.008787 -0.002165 0.000000 0.000000 0.000000
# 3 0.003806 -0.002165 0.022311 0.000000 0.000000 0.000000
# 4 0.000000 0.000000 0.000000 -0.121580 0.000000 0.000000
# 5 0.000000 0.000000 0.000000 0.000000 0.261157 0.000000
# 6 0.000000 0.000000 0.000000 0.000000 0.000000 0.042466
#
#
# Mechanical properties :
#
#
# Convention : Reuss Voigt Hill
#
# Bulk Modulus (GPa) = 24.23160 34.20487 29.21823
# Shear Modulus (GPa) = 20.51154 19.40724 19.95939
#
# Velocity S-wave (km/s) = 3.00884 2.92673 2.96807
# Velocity P-wave (km/s) = 4.77136 5.14956 4.96406
#
# Compressibility (1/GPa) = 0.04126843
#
# Stress axis : x y z
#
# Youngs Moduli (GPa) = 73.96868 113.80603 44.82043
#
# Poissons Ratio (x) = 0.37732 -0.17058
# Poissons Ratio (y) = 0.24524 0.09703
# Poissons Ratio (z) = -0.28151 0.24637
#
# Static dielectric constant tensor:
#      x y z
#    x 1.817260 0.000000 0.000000 
#    y 0.000000 1.838840 0.000000 
#    z 0.000000 0.000000 1.854520 
# 
# From -- ./inp_files/4247.got.cif
#   From: 2010.05.17/outbox.cif.g08.bks.cpg/sg58_3_cif.got.tgz:4247.got - 2010.06.03 14:20:14.
