data_PCOD9445482
_publ_section_title
;
Structure prediction by ZEFSAII (Michael W. Deem and Ramdas Pophale) SiO2 
 PCOD9445482
Probable space group: P N N M
;
_chemical_formula_sum "Si O2"
_cell_formula_units_Z 32
_cell_length_a 5.481102
_cell_length_b 9.299821
_cell_length_c 26.358747
_cell_angle_alpha 90.000000
_cell_angle_beta 90.000000
_cell_angle_gamma 90.000000
_cell_volume 1343.591461
_symmetry_space_group_name_H-M "P N N M"
_symmetry_group_IT_number 58
_symmetry_cell_setting 'orthorhombic'
loop_
_space_group_symop_operation_xyz
x,y,z
-x,-y,z
1/2+x,1/2-y,1/2-z
1/2-x,1/2+y,1/2-z
-x,-y,-z
x,y,-z
1/2-x,1/2+y,1/2+z
1/2+x,1/2-y,1/2+z
loop_
_atom_site_type_symbol
_atom_site_label
_atom_site_fract_x
_atom_site_fract_y
_atom_site_fract_z
Si Si1 0.986189 0.663472 0.374876
Si Si2 0.363463 0.860091 0.674684
Si Si3 0.252160 0.595192 0.941865
Si Si4 0.177287 0.880088 0.780828
O O1 0.793115 0.767853 0.403969
O O2 0.909369 0.635236 0.316589
O O3 0.000000 0.500000 0.397067
O O4 0.228501 0.761169 0.366635
O O5 0.197888 0.909854 0.721637
O O6 0.548599 0.768816 0.708260
O O7 0.500000 0.000000 0.654719
O O8 0.500000 0.500000 0.933168
O O9 0.000000 0.500000 0.941616
O O10 0.269128 0.649708 0.000000
O O11 0.000000 0.000000 0.803991
#
# Coordination Sequence:
#
# PCOD9445482 Si02
#       4
#     8   8   8   8
#     4  12  27  45  71 108 151 196 244 315 382 450
#     4  12  26  42  67 101 148 206 260 304 365 444
#     4  10  26  52  81 113 148 191 252 320 386 465
#     4  12  24  43  64  97 151 200 249 309 367 436
#
# _framework density 23.816763000000002
#
# number of rings (size 3 to 8) (size 9 to 14) (size 15 to 20)
#    0.000    0.500    5.000    2.250    7.000    0.500 
#    0.000    0.000    0.000    5.250    0.000    0.000 
#    0.000    0.000    0.000    0.000    0.000    0.000 
#
# Total GULP energy -178413.915752 kJ/mol
# GULP energy per Si atom -5575.434867 kJ/mol
# Density = 2.376256 g / cm^3
# Si number density = 23.816763 Si / 1000 Ang^3
#
#
#
# Elastic Constant Matrix: (Units=GPa)
#
#
# Indices 1 2 3 4 5 6 
#
# 1 119.8802 78.0830 10.7016 0.0000 0.0000 0.0000
# 2 78.0830 191.9114 51.1744 0.0000 0.0000 0.0000
# 3 10.7016 51.1744 113.0396 0.0000 0.0000 0.0000
# 4 0.0000 0.0000 0.0000 17.7433 0.0000 0.0000
# 5 0.0000 0.0000 0.0000 0.0000 22.7017 0.0000
# 6 0.0000 0.0000 0.0000 0.0000 0.0000 69.9116
#
#
#
# Elastic Compliance Matrix: (Units=1/GPa)
#
#
# Indices 1 2 3 4 5 6 
#
# 1 0.011484 -0.004984 0.001169 0.000000 0.000000 0.000000
# 2 -0.004984 0.008089 -0.003190 0.000000 0.000000 0.000000
# 3 0.001169 -0.003190 0.010180 0.000000 0.000000 0.000000
# 4 0.000000 0.000000 0.000000 0.056359 0.000000 0.000000
# 5 0.000000 0.000000 0.000000 0.000000 0.044050 0.000000
# 6 0.000000 0.000000 0.000000 0.000000 0.000000 0.014304
#
#
# Mechanical properties :
#
#
# Convention : Reuss Voigt Hill
#
# Bulk Modulus (GPa) = 63.52184 78.30544 70.91364
# Shear Modulus (GPa) = 30.53928 41.06281 35.80105
#
# Velocity S-wave (km/s) = 3.58475 4.15675 3.88130
# Velocity P-wave (km/s) = 6.62291 7.48250 7.06578
#
# Compressibility (1/GPa) = 0.01574262
#
# Stress axis : x y z
#
# Youngs Moduli (GPa) = 87.08024 123.61946 98.23138
#
# Poissons Ratio (x) = 0.61614 -0.11485
# Poissons Ratio (y) = 0.43402 0.31339
# Poissons Ratio (z) = -0.10181 0.39438
#
# Static dielectric constant tensor:
#      x y z
#    x 2.294270 0.000000 0.000000 
#    y 0.000000 1.959290 0.000000 
#    z 0.000000 0.000000 1.920460 
# 
# From -- ./inp_files/33939.got.cif
#   From: 2010.05.17/outbox.cif.g08.bks.cpg/sg58_17_cif.got.tgz:33939.got - 2010.06.03 14:20:14.
