data_PCOD9445648
_publ_section_title
;
Structure prediction by ZEFSAII (Michael W. Deem and Ramdas Pophale) SiO2 
 PCOD9445648
Probable space group: P N N M
;
_chemical_formula_sum "Si O2"
_cell_formula_units_Z 44
_cell_length_a 12.852046
_cell_length_b 13.388745
_cell_length_c 11.542077
_cell_angle_alpha 90.000000
_cell_angle_beta 90.000000
_cell_angle_gamma 90.000000
_cell_volume 1986.077122
_symmetry_space_group_name_H-M "P N N M"
_symmetry_group_IT_number 58
_symmetry_cell_setting 'orthorhombic'
loop_
_space_group_symop_operation_xyz
x,y,z
-x,-y,z
1/2+x,1/2-y,1/2-z
1/2-x,1/2+y,1/2-z
-x,-y,-z
x,y,-z
1/2-x,1/2+y,1/2+z
1/2+x,1/2-y,1/2+z
loop_
_atom_site_type_symbol
_atom_site_label
_atom_site_fract_x
_atom_site_fract_y
_atom_site_fract_z
Si Si1 0.608038 0.886095 0.628611
Si Si2 0.506038 0.237199 0.199143
Si Si3 0.239021 0.304054 0.626406
Si Si4 0.714332 0.521636 0.199056
Si Si5 0.904460 0.129167 0.500000
Si Si6 0.922823 0.905271 0.868223
O O1 0.558238 0.886358 0.500000
O O2 0.535735 0.862676 0.738573
O O3 0.690852 0.794596 0.630134
O O4 0.677827 0.984237 0.644721
O O5 0.618671 0.222920 0.142088
O O6 0.520802 0.313419 0.306702
O O7 0.435129 0.289308 0.102479
O O8 0.256772 0.351789 0.500000
O O9 0.267973 0.379718 0.726518
O O10 0.671966 0.437759 0.286648
O O11 0.630744 0.546875 0.100586
O O12 0.892958 0.881517 0.000000
O O13 0.000000 0.000000 0.869549
#
# Coordination Sequence:
#
# PCOD9445648 Si02
#       6
#     8   8   8   8   4   8
#     4  11  24  45  68  97 138 178 220 282 345 398
#     4  12  24  44  68 101 134 174 230 279 339 404
#     4  11  24  45  68  97 138 178 220 282 345 398
#     4  12  24  44  68 101 134 174 230 279 339 404
#     4  12  24  43  72 104 134 177 238 284 332 405
#     4  11  22  39  66  97 127 171 225 280 331 390
#
# _framework density 22.154226000000001
#
# number of rings (size 3 to 8) (size 9 to 14) (size 15 to 20)
#    0.000    0.545    7.273    1.091    0.000    5.091 
#    9.818    1.818    0.000    0.000    0.000    0.000 
#    0.000    0.000    0.000    0.000    0.000    0.000 
#
# Total GULP energy -245085.869580 kJ/mol
# GULP energy per Si atom -5570.133400 kJ/mol
# Density = 2.210380 g / cm^3
# Si number density = 22.154226 Si / 1000 Ang^3
#
#
#
# Elastic Constant Matrix: (Units=GPa)
#
#
# Indices 1 2 3 4 5 6 
#
# 1 32.6920 2.5967 10.6880 0.0000 0.0000 0.0000
# 2 2.5967 43.2585 32.6502 0.0000 0.0000 0.0000
# 3 10.6880 32.6502 182.5239 0.0000 0.0000 0.0000
# 4 0.0000 0.0000 0.0000 7.8790 0.0000 0.0000
# 5 0.0000 0.0000 0.0000 0.0000 7.8862 0.0000
# 6 0.0000 0.0000 0.0000 0.0000 0.0000 32.0170
#
#
#
# Elastic Compliance Matrix: (Units=1/GPa)
#
#
# Indices 1 2 3 4 5 6 
#
# 1 0.031198 -0.000571 -0.001725 0.000000 0.000000 0.000000
# 2 -0.000571 0.026736 -0.004749 0.000000 0.000000 0.000000
# 3 -0.001725 -0.004749 0.006429 0.000000 0.000000 0.000000
# 4 0.000000 0.000000 0.000000 0.126919 0.000000 0.000000
# 5 0.000000 0.000000 0.000000 0.000000 0.126803 0.000000
# 6 0.000000 0.000000 0.000000 0.000000 0.000000 0.031233
#
#
# Mechanical properties :
#
#
# Convention : Reuss Voigt Hill
#
# Bulk Modulus (GPa) = 19.89139 38.92714 29.40927
# Shear Modulus (GPa) = 13.15216 23.72575 18.43895
#
# Velocity S-wave (km/s) = 2.43916 3.27607 2.88809
# Velocity P-wave (km/s) = 4.11470 5.64971 4.94217
#
# Compressibility (1/GPa) = 0.05027300
#
# Stress axis : x y z
#
# Youngs Moduli (GPa) = 32.05365 37.40331 155.53912
#
# Poissons Ratio (x) = 0.02136 0.26826
# Poissons Ratio (y) = 0.01830 0.73867
# Poissons Ratio (z) = 0.05528 0.17763
#
# Static dielectric constant tensor:
#      x y z
#    x 1.881450 0.000000 0.000000 
#    y 0.000000 1.822260 0.000000 
#    z 0.000000 0.000000 1.786170 
# 
# From -- ./inp_files/5665.got.cif
#   From: 2010.05.17/outbox.cif.g08.bks.cpg/sg58_3_cif.got.tgz:5665.got - 2010.06.03 14:20:14.
