data_PCOD9445263
_publ_section_title
;
Structure prediction by ZEFSAII (Michael W. Deem and Ramdas Pophale) SiO2 
 PCOD9445263
Probable space group: P N N M
;
_chemical_formula_sum "Si O2"
_cell_formula_units_Z 56
_cell_length_a 5.299121
_cell_length_b 14.025030
_cell_length_c 30.581114
_cell_angle_alpha 90.000000
_cell_angle_beta 90.000000
_cell_angle_gamma 90.000000
_cell_volume 2272.798515
_symmetry_space_group_name_H-M "P N N M"
_symmetry_group_IT_number 58
_symmetry_cell_setting 'orthorhombic'
loop_
_space_group_symop_operation_xyz
x,y,z
-x,-y,z
1/2+x,1/2-y,1/2-z
1/2-x,1/2+y,1/2-z
-x,-y,-z
x,y,-z
1/2-x,1/2+y,1/2+z
1/2+x,1/2-y,1/2+z
loop_
_atom_site_type_symbol
_atom_site_label
_atom_site_fract_x
_atom_site_fract_y
_atom_site_fract_z
Si Si1 0.562248 0.361966 0.759799
Si Si2 0.261612 0.443194 0.677962
Si Si3 0.533948 0.740016 0.048967
Si Si4 0.244273 0.452478 0.052005
Si Si5 0.576218 0.168962 0.702667
Si Si6 0.908366 0.891303 0.950705
Si Si7 0.172981 0.767348 0.122443
O O1 0.393184 0.415053 0.723460
O O2 0.601744 0.260290 0.735496
O O3 0.842440 0.390136 0.775931
O O4 0.364486 0.365168 0.799580
O O5 0.500000 0.500000 0.656049
O O6 0.193171 0.345118 0.653782
O O7 0.000000 0.500000 0.681425
O O8 0.756035 0.662257 0.053957
O O9 0.359006 0.716446 0.089451
O O10 0.619740 0.851293 0.050793
O O11 0.430958 0.722090 0.000000
O O12 0.500000 0.500000 0.069279
O O13 0.000000 0.500000 0.072451
O O14 0.243512 0.475126 0.000000
O O15 0.484853 0.203572 0.655460
O O16 0.018898 0.833370 0.910756
O O17 0.988531 0.861412 0.000000
O O18 0.000000 0.000000 0.947247
#
# Coordination Sequence:
#
# PCOD9445263 Si02
#       7
#     8   8   8   8   8   8   8
#     4   9  18  37  58  86 116 150 196 260 331 403
#     4  11  24  39  63  96 132 175 226 281 334 395
#     4  10  23  40  63  94 133 187 240 290 357 422
#     4   9  19  37  64  94 119 152 213 291 356 411
#     4   9  19  34  60  86 115 149 201 265 327 393
#     4  10  23  41  60  88 137 196 245 290 342 400
#     4  11  24  35  62  92 134 173 237 291 339 396
#
# _framework density 24.639226000000001
#
# number of rings (size 3 to 8) (size 9 to 14) (size 15 to 20)
#    0.000    2.143    0.000    1.714    8.000    2.286 
#    0.000    2.143    0.000    3.429    0.000    0.000 
#    0.000    0.000    0.000    0.000    0.000    0.000 
#
# Total GULP energy -312250.078725 kJ/mol
# GULP energy per Si atom -5575.894263 kJ/mol
# Density = 2.458315 g / cm^3
# Si number density = 24.639226 Si / 1000 Ang^3
#
#
#
# Elastic Constant Matrix: (Units=GPa)
#
#
# Indices 1 2 3 4 5 6 
#
# 1 100.0899 22.9440 3.7731 0.0000 0.0000 0.0000
# 2 22.9440 59.1833 11.3690 0.0000 0.0000 0.0000
# 3 3.7731 11.3690 101.9384 0.0000 0.0000 0.0000
# 4 0.0000 0.0000 0.0000 20.3060 0.0000 0.0000
# 5 0.0000 0.0000 0.0000 0.0000 28.9814 0.0000
# 6 0.0000 0.0000 0.0000 0.0000 0.0000 35.3171
#
#
#
# Elastic Compliance Matrix: (Units=1/GPa)
#
#
# Indices 1 2 3 4 5 6 
#
# 1 0.010966 -0.004265 0.000070 0.000000 0.000000 0.000000
# 2 -0.004265 0.018925 -0.001953 0.000000 0.000000 0.000000
# 3 0.000070 -0.001953 0.010025 0.000000 0.000000 0.000000
# 4 0.000000 0.000000 0.000000 0.049247 0.000000 0.000000
# 5 0.000000 0.000000 0.000000 0.000000 0.034505 0.000000
# 6 0.000000 0.000000 0.000000 0.000000 0.000000 0.028315
#
#
# Mechanical properties :
#
#
# Convention : Reuss Voigt Hill
#
# Bulk Modulus (GPa) = 36.20480 37.48710 36.84595
# Shear Modulus (GPa) = 28.82093 31.79592 30.30842
#
# Velocity S-wave (km/s) = 3.42382 3.59619 3.51107
# Velocity P-wave (km/s) = 5.50962 5.70008 5.60566
#
# Compressibility (1/GPa) = 0.02762065
#
# Stress axis : x y z
#
# Youngs Moduli (GPa) = 91.19098 52.83985 99.75001
#
# Poissons Ratio (x) = 0.22534 -0.00696
# Poissons Ratio (y) = 0.38890 0.19480
# Poissons Ratio (z) = -0.00636 0.10319
#
# Static dielectric constant tensor:
#      x y z
#    x 2.174310 0.000000 0.000000 
#    y 0.000000 2.113050 0.000000 
#    z 0.000000 0.000000 1.951220 
# 
# From -- ./inp_files/34176.got.cif
#   From: 2010.05.17/outbox.cif.g08.bks.cpg/sg58_18_cif.got.tgz:34176.got - 2010.06.03 14:20:14.
