data_PCOD9445111
_publ_section_title
;
Structure prediction by ZEFSAII (Michael W. Deem and Ramdas Pophale) SiO2 
 PCOD9445111
Probable space group: P N N M
;
_chemical_formula_sum "Si O2"
_cell_formula_units_Z 56
_cell_length_a 21.151115
_cell_length_b 14.651729
_cell_length_c 9.098921
_cell_angle_alpha 90.000000
_cell_angle_beta 90.000000
_cell_angle_gamma 90.000000
_cell_volume 2819.759303
_symmetry_space_group_name_H-M "P N N M"
_symmetry_group_IT_number 58
_symmetry_cell_setting 'orthorhombic'
loop_
_space_group_symop_operation_xyz
x,y,z
-x,-y,z
1/2+x,1/2-y,1/2-z
1/2-x,1/2+y,1/2-z
-x,-y,-z
x,y,-z
1/2-x,1/2+y,1/2+z
1/2+x,1/2-y,1/2+z
loop_
_atom_site_type_symbol
_atom_site_label
_atom_site_fract_x
_atom_site_fract_y
_atom_site_fract_z
Si Si1 0.991961 0.778226 0.826256
Si Si2 0.330209 0.923453 0.323979
Si Si3 0.087382 0.917048 0.326939
Si Si4 0.373868 0.600980 0.673905
Si Si5 0.534663 0.095402 0.825221
Si Si6 0.712473 0.704043 0.172240
Si Si7 0.262226 0.115175 0.674767
O O1 0.919761 0.812544 0.805897
O O2 0.999438 0.679679 0.753964
O O3 0.036392 0.851829 0.748098
O O4 0.004935 0.775788 0.000000
O O5 0.342072 0.918189 0.500000
O O6 0.394466 0.909800 0.236776
O O7 0.277281 0.847782 0.288033
O O8 0.300279 0.022689 0.291572
O O9 0.074193 0.928979 0.500000
O O10 0.155167 0.866857 0.312392
O O11 0.092516 0.013810 0.247043
O O12 0.366481 0.585863 0.500000
O O13 0.305966 0.612933 0.747776
O O14 0.500000 0.000000 0.794328
O O15 0.534940 0.110347 0.000000
O O16 0.703369 0.794272 0.267609
O O17 0.716355 0.729896 0.000000
O O18 0.253313 0.118539 0.500000
#
# Coordination Sequence:
#
# PCOD9445111 Si02
#       7
#     8   8   8   8   8   8   8
#     4  11  25  43  64  92 127 169 213 261 316 378
#     4  10  22  43  65  90 126 165 205 254 313 373
#     4  11  23  41  65  94 129 167 209 263 319 376
#     4  11  23  41  64  94 130 168 210 258 316 377
#     4  11  26  45  65  93 126 164 214 266 316 375
#     4  10  22  41  62  90 128 164 203 257 315 371
#     4  11  23  39  63  95 126 162 209 256 309 375
#
# _framework density 19.859850999999999
#
# number of rings (size 3 to 8) (size 9 to 14) (size 15 to 20)
#    0.000    1.286    1.429    3.429    2.000   11.429 
#    0.000    0.000    0.000    0.000    0.000    0.000 
#    0.000    0.000    0.000    0.000    0.000    0.000 
#
# Total GULP energy -313361.925287 kJ/mol
# GULP energy per Si atom -5595.748666 kJ/mol
# Density = 1.981465 g / cm^3
# Si number density = 19.859851 Si / 1000 Ang^3
#
#
#
# Elastic Constant Matrix: (Units=GPa)
#
#
# Indices 1 2 3 4 5 6 
#
# 1 47.8240 -6.1358 20.1835 0.0000 0.0000 0.0000
# 2 -6.1358 99.0863 45.4049 0.0000 0.0000 0.0000
# 3 20.1835 45.4049 65.3070 0.0000 0.0000 0.0000
# 4 0.0000 0.0000 0.0000 48.8939 0.0000 0.0000
# 5 0.0000 0.0000 0.0000 0.0000-5592.0688 0.0000
# 6 0.0000 0.0000 0.0000 0.0000 0.0000 15.6301
#
#
#
# Elastic Compliance Matrix: (Units=1/GPa)
#
#
# Indices 1 2 3 4 5 6 
#
# 1 0.028120 0.008400 -0.014531 0.000000 0.000000 0.000000
# 2 0.008400 0.017320 -0.014638 0.000000 0.000000 0.000000
# 3 -0.014531 -0.014638 0.029980 0.000000 0.000000 0.000000
# 4 0.000000 0.000000 0.000000 0.020452 0.000000 0.000000
# 5 0.000000 0.000000 0.000000 0.000000 -0.000179 0.000000
# 6 0.000000 0.000000 0.000000 0.000000 0.000000 0.063979
#
#
# Mechanical properties :
#
#
# Convention : Reuss Voigt Hill
#
# Bulk Modulus (GPa) = 29.51343 36.79138 33.15241
# Shear Modulus (GPa) = 23.52894 -1095.32464 -535.89785
#
# Velocity S-wave (km/s) = 3.44575 -23.51009 -16.44462
# Velocity P-wave (km/s) = 5.54293 26.80299 18.54287
#
# Compressibility (1/GPa) = 0.03388288
#
# Stress axis : x y z
#
# Youngs Moduli (GPa) = 35.56165 57.73707 33.35557
#
# Poissons Ratio (x) = -0.48498 0.48468
# Poissons Ratio (y) = -0.29871 0.48825
# Poissons Ratio (z) = 0.51673 0.84514
#
# Static dielectric constant tensor:
#      x y z
#    x 1.689130 0.000000 0.000000 
#    y 0.000000 1.682710 0.000000 
#    z 0.000000 0.000000 1.658180 
# 
# From -- ./inp_files/9056.got.cif
#   From: 2010.05.17/outbox.cif.g08.bks.cpg/sg58_5_cif.got.tgz:9056.got - 2010.06.03 14:20:14.
