data_PCOD9445627
_publ_section_title
;
Structure prediction by ZEFSAII (Michael W. Deem and Ramdas Pophale) SiO2 
 PCOD9445627
Probable space group: P N N M
;
_chemical_formula_sum "Si O2"
_cell_formula_units_Z 40
_cell_length_a 4.890848
_cell_length_b 23.573201
_cell_length_c 16.213361
_cell_angle_alpha 90.000000
_cell_angle_beta 90.000000
_cell_angle_gamma 90.000000
_cell_volume 1869.286105
_symmetry_space_group_name_H-M "P N N M"
_symmetry_group_IT_number 58
_symmetry_cell_setting 'orthorhombic'
loop_
_space_group_symop_operation_xyz
x,y,z
-x,-y,z
1/2+x,1/2-y,1/2-z
1/2-x,1/2+y,1/2-z
-x,-y,-z
x,y,-z
1/2-x,1/2+y,1/2+z
1/2+x,1/2-y,1/2+z
loop_
_atom_site_type_symbol
_atom_site_label
_atom_site_fract_x
_atom_site_fract_y
_atom_site_fract_z
Si Si1 0.570507 0.063465 0.139182
Si Si2 0.496727 0.566808 0.094213
Si Si3 0.798986 0.213923 0.236785
Si Si4 0.056038 0.137541 0.093283
Si Si5 0.013330 0.392713 0.816974
O O1 0.352306 0.111868 0.113634
O O2 0.574720 0.067282 0.238459
O O3 0.856439 0.083703 0.103133
O O4 0.500000 0.000000 0.112898
O O5 0.500000 0.500000 0.113238
O O6 0.803958 0.587315 0.107204
O O7 0.299962 0.600267 0.157095
O O8 0.408108 0.574658 0.000000
O O9 0.555437 0.258004 0.215545
O O10 0.629040 0.167914 0.289365
O O11 0.941092 0.182935 0.158836
O O12 0.049697 0.159316 0.000000
#
# Coordination Sequence:
#
# PCOD9445627 Si02
#       5
#     8   8   8   8   8
#     4  11  22  37  62  92 123 163 200 237 295 370
#     4  11  22  37  59  89 127 163 194 243 310 368
#     4  11  23  43  66  86 115 161 213 262 310 354
#     4  11  24  41  61  90 126 158 198 251 304 361
#     4  11  22  39  61  87 119 157 209 254 294 366
#
# _framework density 21.398546
#
# number of rings (size 3 to 8) (size 9 to 14) (size 15 to 20)
#    0.000    1.000    0.000    9.600    0.000    4.000 
#    0.000    6.000    0.000    0.000    0.000    0.000 
#    0.000    0.000    0.000    0.000    0.000    0.000 
#
# Total GULP energy -223572.262283 kJ/mol
# GULP energy per Si atom -5589.306557 kJ/mol
# Density = 2.134984 g / cm^3
# Si number density = 21.398546 Si / 1000 Ang^3
#
#
#
# Elastic Constant Matrix: (Units=GPa)
#
#
# Indices 1 2 3 4 5 6 
#
# 1 58.2194 -16.8593 0.9966 0.0000 0.0000 0.0000
# 2 -16.8593 63.8334 17.9741 0.0000 0.0000 0.0000
# 3 0.9966 17.9741 79.2039 0.0000 0.0000 0.0000
# 4 0.0000 0.0000 0.0000 17.3173 0.0000 0.0000
# 5 0.0000 0.0000 0.0000 0.0000 33.2566 0.0000
# 6 0.0000 0.0000 0.0000 0.0000 0.0000 29.4633
#
#
#
# Elastic Compliance Matrix: (Units=1/GPa)
#
#
# Indices 1 2 3 4 5 6 
#
# 1 0.018754 0.005362 -0.001453 0.000000 0.000000 0.000000
# 2 0.005362 0.018268 -0.004213 0.000000 0.000000 0.000000
# 3 -0.001453 -0.004213 0.013600 0.000000 0.000000 0.000000
# 4 0.000000 0.000000 0.000000 0.057746 0.000000 0.000000
# 5 0.000000 0.000000 0.000000 0.000000 0.030069 0.000000
# 6 0.000000 0.000000 0.000000 0.000000 0.000000 0.033941
#
#
# Mechanical properties :
#
#
# Convention : Reuss Voigt Hill
#
# Bulk Modulus (GPa) = 19.99400 22.83106 21.41253
# Shear Modulus (GPa) = 26.36336 29.28379 27.82358
#
# Velocity S-wave (km/s) = 3.51382 3.70333 3.60982
# Velocity P-wave (km/s) = 5.08197 5.38320 5.23475
#
# Compressibility (1/GPa) = 0.05001500
#
# Stress axis : x y z
#
# Youngs Moduli (GPa) = 53.32171 54.73937 73.52913
#
# Poissons Ratio (x) = -0.29353 0.10683
# Poissons Ratio (y) = -0.28593 0.30979
# Poissons Ratio (z) = 0.07747 0.23063
#
# Static dielectric constant tensor:
#      x y z
#    x 1.732270 0.000000 0.000000 
#    y 0.000000 1.803870 0.000000 
#    z 0.000000 0.000000 1.765360 
# 
# From -- ./inp_files/18484.got.cif
#   From: 2010.05.17/outbox.cif.g08.bks.cpg/sg58_10_cif.got.tgz:18484.got - 2010.06.03 14:20:14.
