data_PCOD9445952
_publ_section_title
;
Structure prediction by ZEFSAII (Michael W. Deem and Ramdas Pophale) SiO2 
 PCOD9445952
Probable space group: P N N M
;
_chemical_formula_sum "Si O2"
_cell_formula_units_Z 64
_cell_length_a 21.000000
_cell_length_b 18.000000
_cell_length_c 9.000000
_cell_angle_alpha 90.000000
_cell_angle_beta 90.000000
_cell_angle_gamma 90.000000
_cell_volume 3402.000000
_symmetry_space_group_name_H-M "P N N M"
_symmetry_group_IT_number 58
_symmetry_cell_setting 'orthorhombic'
loop_
_space_group_symop_operation_xyz
x,y,z
-x,-y,z
1/2+x,1/2-y,1/2-z
1/2-x,1/2+y,1/2-z
-x,-y,-z
x,y,-z
1/2-x,1/2+y,1/2+z
1/2+x,1/2-y,1/2+z
loop_
_atom_site_type_symbol
_atom_site_label
_atom_site_fract_x
_atom_site_fract_y
_atom_site_fract_z
Si Si1 0.058736 0.055689 0.177924
Si Si2 0.339449 0.300809 0.820803
Si Si3 0.698268 0.217336 0.679533
Si Si4 0.455070 0.203055 0.181086
Si Si5 0.690853 0.053806 0.820143
Si Si6 0.065384 0.536971 0.319202
Si Si7 0.578039 0.289467 0.178663
Si Si8 0.178009 0.973734 0.320668
O O1 0.049561 0.134369 0.257876
O O2 0.123203 0.022628 0.247691
O O3 0.064646 0.064599 0.000000
O O4 0.000000 0.000000 0.207319
O O5 0.271669 0.264680 0.778650
O O6 0.402246 0.260804 0.763321
O O7 0.337724 0.387634 0.783927
O O8 0.341581 0.297122 0.000000
O O9 0.693703 0.215019 0.500000
O O10 0.686885 0.135571 0.748208
O O11 0.645706 0.271611 0.747374
O O12 0.435158 0.121708 0.231121
O O13 0.526782 0.225913 0.219529
O O14 0.453568 0.204043 0.000000
O O15 0.753072 0.014145 0.752490
O O16 0.627733 0.008672 0.778665
O O17 0.695466 0.059346 0.000000
O O18 0.064155 0.537388 0.500000
O O19 0.000000 0.500000 0.268019
O O20 0.584081 0.292806 0.000000
O O21 0.179924 0.982186 0.500000
#
# Coordination Sequence:
#
# PCOD9445952 Si02
#       8
#     8   8   8   8   8   8   8   8
#     4  11  24  40  58  82 113 147 185 232 284 337
#     4   8  16  31  52  77 104 140 182 223 267 320
#     4  10  20  35  55  79 111 147 184 229 280 336
#     4   9  17  31  52  77 103 134 178 225 269 321
#     4  10  19  33  56  84 113 146 187 232 279 331
#     4   9  17  29  48  77 110 142 181 229 274 326
#     4  11  22  36  58  84 110 143 183 230 281 336
#     4  10  20  36  57  81 112 147 186 230 278 336
#
# _framework density 18.812463000000001
#
# number of rings (size 3 to 8) (size 9 to 14) (size 15 to 20)
#    0.000    2.250    0.000    4.125    0.000    5.000 
#    0.000    2.500    0.000   10.500    0.000    0.000 
#    0.000    0.000    0.000    0.000    0.000    0.000 
#
# Total GULP energy -357081.111523 kJ/mol
# GULP energy per Si atom -5579.392368 kJ/mol
# Density = 1.876965 g / cm^3
# Si number density = 18.812463 Si / 1000 Ang^3
#
#
#
# Elastic Constant Matrix: (Units=GPa)
#
#
# Indices 1 2 3 4 5 6 
#
# 1 77.7906 9.8749 14.5607 0.0000 0.0000 0.0000
# 2 9.8749 29.3710 5.9490 0.0000 0.0000 0.0000
# 3 14.5607 5.9490 57.4879 0.0000 0.0000 0.0000
# 4 0.0000 0.0000 0.0000 22.6947 0.0000 0.0000
# 5 0.0000 0.0000 0.0000 0.0000 22.2587 0.0000
# 6 0.0000 0.0000 0.0000 0.0000 0.0000 39.0172
#
#
#
# Elastic Compliance Matrix: (Units=1/GPa)
#
#
# Indices 1 2 3 4 5 6 
#
# 1 0.013953 -0.004061 -0.003114 0.000000 0.000000 0.000000
# 2 -0.004061 0.035958 -0.002693 0.000000 0.000000 0.000000
# 3 -0.003114 -0.002693 0.018462 0.000000 0.000000 0.000000
# 4 0.000000 0.000000 0.000000 0.044063 0.000000 0.000000
# 5 0.000000 0.000000 0.000000 0.000000 0.044926 0.000000
# 6 0.000000 0.000000 0.000000 0.000000 0.000000 0.025630
#
#
# Mechanical properties :
#
#
# Convention : Reuss Voigt Hill
#
# Bulk Modulus (GPa) = 20.55951 25.04652 22.80302
# Shear Modulus (GPa) = 22.83734 25.74511 24.29123
#
# Velocity S-wave (km/s) = 3.48795 3.70336 3.59727
# Velocity P-wave (km/s) = 5.21282 5.62398 5.42230
#
# Compressibility (1/GPa) = 0.04863929
#
# Stress axis : x y z
#
# Youngs Moduli (GPa) = 71.66738 27.81042 54.16440
#
# Poissons Ratio (x) = 0.11293 0.16866
# Poissons Ratio (y) = 0.29101 0.14584
# Poissons Ratio (z) = 0.22317 0.07488
#
# Static dielectric constant tensor:
#      x y z
#    x 1.652880 0.000000 0.000000 
#    y 0.000000 1.652390 0.000000 
#    z 0.000000 0.000000 1.627400 
# 
# From -- ./inp_files/9286.got.cif
#   From: 2010.05.17/outbox.ucp.g08.bks.cvg/sg58_5_cif.got.tgz:9286.got - 2010.06.11 16:41:41.
