data_PCOD9445027
_publ_section_title
;
Structure prediction by ZEFSAII (Michael W. Deem and Ramdas Pophale) SiO2 
 PCOD9445027
Probable space group: P N N M
;
_chemical_formula_sum "Si O2"
_cell_formula_units_Z 58
_cell_length_a 11.257587
_cell_length_b 15.483828
_cell_length_c 16.783710
_cell_angle_alpha 90.000000
_cell_angle_beta 90.000000
_cell_angle_gamma 90.000000
_cell_volume 2925.577567
_symmetry_space_group_name_H-M "P N N M"
_symmetry_group_IT_number 58
_symmetry_cell_setting 'orthorhombic'
loop_
_space_group_symop_operation_xyz
x,y,z
-x,-y,z
1/2+x,1/2-y,1/2-z
1/2-x,1/2+y,1/2-z
-x,-y,-z
x,y,-z
1/2-x,1/2+y,1/2+z
1/2+x,1/2-y,1/2+z
loop_
_atom_site_type_symbol
_atom_site_label
_atom_site_fract_x
_atom_site_fract_y
_atom_site_fract_z
Si Si1 0.627494 0.296768 0.092020
Si Si2 0.000000 0.500000 0.500000
Si Si3 0.126764 0.967537 0.195225
Si Si4 0.802728 0.646888 0.906770
Si Si5 0.508674 0.873238 0.288801
Si Si6 0.853346 0.602290 0.367810
Si Si7 0.898886 0.205635 0.703624
Si Si8 0.240702 0.541057 0.157079
O O1 0.677178 0.201633 0.112142
O O2 0.512899 0.308037 0.147704
O O3 0.716284 0.375210 0.109504
O O4 0.591877 0.298633 0.000000
O O5 0.945014 0.564202 0.430649
O O6 0.234985 0.955839 0.134189
O O7 0.112472 0.874021 0.236241
O O8 0.173525 0.028328 0.266849
O O9 0.000000 0.000000 0.164759
O O10 0.715075 0.705831 0.854065
O O11 0.758266 0.547941 0.892534
O O12 0.931476 0.651889 0.865782
O O13 0.802298 0.667203 0.000000
O O14 0.415350 0.897954 0.219154
O O15 0.581188 0.792833 0.252241
O O16 0.607457 0.942220 0.312969
#
# Coordination Sequence:
#
# PCOD9445027 Si02
#       8
#     8   2   8   8   8   8   8   8
#     4  11  22  39  61  96 131 174 217 277 339 401
#     4  12  24  44  70  96 126 178 242 294 326 388
#     4  11  21  40  65  98 127 170 221 276 345 410
#     4  11  24  41  64 100 137 174 220 289 350 422
#     4  11  23  40  68  93 133 183 226 273 343 417
#     4  11  23  42  67  95 131 176 234 286 333 401
#     4  10  22  39  65  92 129 175 223 270 331 411
#     4  11  22  36  64  99 133 172 218 271 339 426
#
# _framework density 19.825147000000001
#
# number of rings (size 3 to 8) (size 9 to 14) (size 15 to 20)
#    0.000    1.103    4.828    2.897    1.931    1.655 
#    0.000    2.414    0.000    0.000    0.000    0.000 
#    0.000    0.000    0.000    0.000    0.000    0.000 
#
# Total GULP energy -323639.939710 kJ/mol
# GULP energy per Si atom -5579.998961 kJ/mol
# Density = 1.978002 g / cm^3
# Si number density = 19.825147 Si / 1000 Ang^3
#
#
#
# Elastic Constant Matrix: (Units=GPa)
#
#
# Indices 1 2 3 4 5 6 
#
# 1 56.3226 15.1326 -8.6892 0.0000 0.0000 0.0000
# 2 15.1326 59.5196 19.0313 0.0000 0.0000 0.0000
# 3 -8.6892 19.0313 43.3347 0.0000 0.0000 0.0000
# 4 0.0000 0.0000 0.0000 14.8997 0.0000 0.0000
# 5 0.0000 0.0000 0.0000 0.0000 12.2972 0.0000
# 6 0.0000 0.0000 0.0000 0.0000 0.0000 38.5043
#
#
#
# Elastic Compliance Matrix: (Units=1/GPa)
#
#
# Indices 1 2 3 4 5 6 
#
# 1 0.021025 -0.007787 0.007636 0.000000 0.000000 0.000000
# 2 -0.007787 0.022430 -0.011412 0.000000 0.000000 0.000000
# 3 0.007636 -0.011412 0.029619 0.000000 0.000000 0.000000
# 4 0.000000 0.000000 0.000000 0.067115 0.000000 0.000000
# 5 0.000000 0.000000 0.000000 0.000000 0.081319 0.000000
# 6 0.000000 0.000000 0.000000 0.000000 0.000000 0.025971
#
#
# Mechanical properties :
#
#
# Convention : Reuss Voigt Hill
#
# Bulk Modulus (GPa) = 20.02110 23.34739 21.68425
# Shear Modulus (GPa) = 17.40609 22.05372 19.72991
#
# Velocity S-wave (km/s) = 2.96629 3.33890 3.15810
# Velocity P-wave (km/s) = 4.67467 5.16397 4.92540
#
# Compressibility (1/GPa) = 0.04994730
#
# Stress axis : x y z
#
# Youngs Moduli (GPa) = 47.56234 44.58323 33.76207
#
# Poissons Ratio (x) = 0.34717 -0.25779
# Poissons Ratio (y) = 0.37037 0.38529
# Poissons Ratio (z) = -0.36317 0.50878
#
# Static dielectric constant tensor:
#      x y z
#    x 1.720650 0.000000 0.000000 
#    y 0.000000 1.713080 0.000000 
#    z 0.000000 0.000000 1.635510 
# 
# From -- ./inp_files/26327.got.cif
#   From: 2010.05.17/outbox.cif.g08.bks.cpg/sg58_14_cif.got.tgz:26327.got - 2010.06.03 14:20:14.
