data_PCOD9445070
_publ_section_title
;
Structure prediction by ZEFSAII (Michael W. Deem and Ramdas Pophale) SiO2 
 PCOD9445070
Probable space group: P N N M
;
_chemical_formula_sum "Si O2"
_cell_formula_units_Z 34
_cell_length_a 12.643720
_cell_length_b 12.262030
_cell_length_c 10.244176
_cell_angle_alpha 90.000000
_cell_angle_beta 90.000000
_cell_angle_gamma 90.000000
_cell_volume 1588.233219
_symmetry_space_group_name_H-M "P N N M"
_symmetry_group_IT_number 58
_symmetry_cell_setting 'orthorhombic'
loop_
_space_group_symop_operation_xyz
x,y,z
-x,-y,z
1/2+x,1/2-y,1/2-z
1/2-x,1/2+y,1/2-z
-x,-y,-z
x,y,-z
1/2-x,1/2+y,1/2+z
1/2+x,1/2-y,1/2+z
loop_
_atom_site_type_symbol
_atom_site_label
_atom_site_fract_x
_atom_site_fract_y
_atom_site_fract_z
Si Si1 0.622405 0.710480 0.856767
Si Si2 0.818822 0.395098 0.844756
Si Si3 0.917062 0.865389 0.749968
Si Si4 0.139382 0.368082 0.851845
Si Si5 0.500000 0.500000 0.500000
O O1 0.633858 0.797484 0.740524
O O2 0.524324 0.630534 0.833320
O O3 0.733882 0.648559 0.856582
O O4 0.611404 0.763337 0.000000
O O5 0.693407 0.400891 0.813432
O O6 0.873833 0.508667 0.805142
O O7 0.831939 0.378663 0.000000
O O8 0.902920 0.734992 0.774155
O O9 0.939107 0.928207 0.884635
O O10 0.098064 0.361114 0.000000
#
# Coordination Sequence:
#
# PCOD9445070 Si02
#       5
#     8   8   8   8   2
#     4  10  22  40  63  92 132 169 216 272 325 389
#     4  10  22  40  65  92 126 177 214 262 333 393
#     4  11  22  39  62  96 128 166 218 273 319 389
#     4   9  19  39  59  86 128 165 207 262 324 378
#     4  12  24  36  66  98 124 164 226 270 336 384
#
# _framework density 21.407436000000001
#
# number of rings (size 3 to 8) (size 9 to 14) (size 15 to 20)
#    0.000    1.882    1.176    2.118    3.294    0.941 
#    0.000   10.588    0.000    0.000    0.000    0.000 
#    0.000    0.000    0.000    0.000    0.000    0.000 
#
# Total GULP energy -189313.242785 kJ/mol
# GULP energy per Si atom -5568.036553 kJ/mol
# Density = 2.135871 g / cm^3
# Si number density = 21.407436 Si / 1000 Ang^3
#
#
#
# Elastic Constant Matrix: (Units=GPa)
#
#
# Indices 1 2 3 4 5 6 
#
# 1 131.8980 7.8872 23.4129 0.0000 0.0000 0.0000
# 2 7.8872 90.4536 44.6952 0.0000 0.0000 0.0000
# 3 23.4129 44.6952 109.1734 0.0000 0.0000 0.0000
# 4 0.0000 0.0000 0.0000 26.4135 0.0000 0.0000
# 5 0.0000 0.0000 0.0000 0.0000 -6.3001 0.0000
# 6 0.0000 0.0000 0.0000 0.0000 0.0000 10.5876
#
#
#
# Elastic Compliance Matrix: (Units=1/GPa)
#
#
# Indices 1 2 3 4 5 6 
#
# 1 0.007884 0.000186 -0.001767 0.000000 0.000000 0.000000
# 2 0.000186 0.013863 -0.005715 0.000000 0.000000 0.000000
# 3 -0.001767 -0.005715 0.011878 0.000000 0.000000 0.000000
# 4 0.000000 0.000000 0.000000 0.037859 0.000000 0.000000
# 5 0.000000 0.000000 0.000000 0.000000 -0.158728 0.000000
# 6 0.000000 0.000000 0.000000 0.000000 0.000000 0.094450
#
#
# Mechanical properties :
#
#
# Convention : Reuss Voigt Hill
#
# Bulk Modulus (GPa) = 52.54106 53.72394 53.13250
# Shear Modulus (GPa) = 177.65311 23.17552 100.41432
#
# Velocity S-wave (km/s) = 9.11958 3.29385 6.85625
# Velocity P-wave (km/s) = 11.63983 6.29415 9.35687
#
# Compressibility (1/GPa) = 0.01903273
#
# Stress axis : x y z
#
# Youngs Moduli (GPa) = 126.83697 72.13280 84.18583
#
# Poissons Ratio (x) = -0.01338 0.14874
# Poissons Ratio (y) = -0.02353 0.48115
# Poissons Ratio (z) = 0.22409 0.41227
#
# Static dielectric constant tensor:
#      x y z
#    x 1.800140 0.000000 0.000000 
#    y 0.000000 1.788270 0.000000 
#    z 0.000000 0.000000 1.743750 
# 
# From -- ./inp_files/13854.got.cif
#   From: 2010.05.17/outbox.cif.g08.bks.cpg/sg58_7_cif.got.tgz:13854.got - 2010.06.03 14:20:14.
