data_PCOD9445325
_publ_section_title
;
Structure prediction by ZEFSAII (Michael W. Deem and Ramdas Pophale) SiO2 
 PCOD9445325
Probable space group: P N N M
;
_chemical_formula_sum "Si O2"
_cell_formula_units_Z 32
_cell_length_a 5.385708
_cell_length_b 8.878160
_cell_length_c 27.810007
_cell_angle_alpha 90.000000
_cell_angle_beta 90.000000
_cell_angle_gamma 90.000000
_cell_volume 1329.740416
_symmetry_space_group_name_H-M "P N N M"
_symmetry_group_IT_number 58
_symmetry_cell_setting 'orthorhombic'
loop_
_space_group_symop_operation_xyz
x,y,z
-x,-y,z
1/2+x,1/2-y,1/2-z
1/2-x,1/2+y,1/2-z
-x,-y,-z
x,y,-z
1/2-x,1/2+y,1/2+z
1/2+x,1/2-y,1/2+z
loop_
_atom_site_type_symbol
_atom_site_label
_atom_site_fract_x
_atom_site_fract_y
_atom_site_fract_z
Si Si1 0.429067 0.823907 0.270450
Si Si2 0.000000 0.500000 0.384138
Si Si3 0.661029 0.746210 0.362324
Si Si4 0.696158 0.252832 0.443253
Si Si5 0.500000 0.500000 0.892864
O O1 0.163459 0.772213 0.250170
O O2 0.435986 0.781203 0.327150
O O3 0.500000 0.000000 0.264458
O O4 0.194319 0.407175 0.352315
O O5 0.141842 0.617339 0.418134
O O6 0.568682 0.736672 0.417156
O O7 0.847004 0.885495 0.360103
O O8 0.683613 0.268038 0.500000
O O9 0.817889 0.096055 0.426705
#
# Coordination Sequence:
#
# PCOD9445325 Si02
#       5
#     8   4   8   8   4
#     4  12  30  51  82 116 154 199 256 316 385 458
#     4  10  25  42  68  98 144 186 240 300 367 438
#     4  11  26  46  71 101 143 188 240 303 370 443
#     4  11  23  41  67 101 142 188 241 297 368 440
#     4  10  23  42  68  98 144 184 242 296 369 436
#
# _framework density 24.064845999999999
#
# number of rings (size 3 to 8) (size 9 to 14) (size 15 to 20)
#    0.000    1.000    0.000    4.500   12.250   10.000 
#    0.000    0.000    0.000    0.000    0.000    0.000 
#    0.000    0.000    0.000    0.000    0.000    0.000 
#
# Total GULP energy -179408.162317 kJ/mol
# GULP energy per Si atom -5606.505072 kJ/mol
# Density = 2.401007 g / cm^3
# Si number density = 24.064846 Si / 1000 Ang^3
#
#
#
# Elastic Constant Matrix: (Units=GPa)
#
#
# Indices 1 2 3 4 5 6 
#
# 1 86.5908 24.6816 6.1896 0.0000 0.0000 0.0000
# 2 24.6816 131.8502 9.0193 0.0000 0.0000 0.0000
# 3 6.1896 9.0193 93.2634 0.0000 0.0000 0.0000
# 4 0.0000 0.0000 0.0000 8.9058 0.0000 0.0000
# 5 0.0000 0.0000 0.0000 0.0000 28.8286 0.0000
# 6 0.0000 0.0000 0.0000 0.0000 0.0000 28.7262
#
#
#
# Elastic Compliance Matrix: (Units=1/GPa)
#
#
# Indices 1 2 3 4 5 6 
#
# 1 0.012232 -0.002249 -0.000594 0.000000 0.000000 0.000000
# 2 -0.002249 0.008048 -0.000629 0.000000 0.000000 0.000000
# 3 -0.000594 -0.000629 0.010823 0.000000 0.000000 0.000000
# 4 0.000000 0.000000 0.000000 0.112286 0.000000 0.000000
# 5 0.000000 0.000000 0.000000 0.000000 0.034688 0.000000
# 6 0.000000 0.000000 0.000000 0.000000 0.000000 0.034811
#
#
# Mechanical properties :
#
#
# Convention : Reuss Voigt Hill
#
# Bulk Modulus (GPa) = 41.39390 43.49837 42.44614
# Shear Modulus (GPa) = 21.94076 31.41304 26.67690
#
# Velocity S-wave (km/s) = 3.02277 3.61688 3.33309
# Velocity P-wave (km/s) = 5.42413 5.96298 5.69993
#
# Compressibility (1/GPa) = 0.02415815
#
# Stress axis : x y z
#
# Youngs Moduli (GPa) = 81.75181 124.24794 92.39922
#
# Poissons Ratio (x) = 0.27945 0.05491
# Poissons Ratio (y) = 0.18387 0.05813
# Poissons Ratio (z) = 0.04858 0.07816
#
# Static dielectric constant tensor:
#      x y z
#    x 1.929200 0.000000 0.000000 
#    y 0.000000 1.913010 0.000000 
#    z 0.000000 0.000000 1.891660 
# 
# From -- ./inp_files/34021.got.cif
#   From: 2010.05.17/outbox.cif.g08.bks.cpg/sg58_18_cif.got.tgz:34021.got - 2010.06.03 14:20:14.
