data_PCOD9445062
_publ_section_title
;
Structure prediction by ZEFSAII (Michael W. Deem and Ramdas Pophale) SiO2 
 PCOD9445062
Probable space group: P N N M
;
_chemical_formula_sum "Si O2"
_cell_formula_units_Z 60
_cell_length_a 22.596526
_cell_length_b 6.263605
_cell_length_c 20.616825
_cell_angle_alpha 90.000000
_cell_angle_beta 90.000000
_cell_angle_gamma 90.000000
_cell_volume 2918.017031
_symmetry_space_group_name_H-M "P N N M"
_symmetry_group_IT_number 58
_symmetry_cell_setting 'orthorhombic'
loop_
_space_group_symop_operation_xyz
x,y,z
-x,-y,z
1/2+x,1/2-y,1/2-z
1/2-x,1/2+y,1/2-z
-x,-y,-z
x,y,-z
1/2-x,1/2+y,1/2+z
1/2+x,1/2-y,1/2+z
loop_
_atom_site_type_symbol
_atom_site_label
_atom_site_fract_x
_atom_site_fract_y
_atom_site_fract_z
Si Si1 0.437701 0.604067 0.311335
Si Si2 0.174184 0.801120 0.785512
Si Si3 0.939331 0.625506 0.681453
Si Si4 0.765570 0.967313 0.105600
Si Si5 0.651306 0.791463 0.149342
Si Si6 0.673003 0.780796 0.500000
Si Si7 0.929588 0.957478 0.574324
Si Si8 0.646877 0.074912 0.379876
O O1 0.500000 0.500000 0.332048
O O2 0.387364 0.424052 0.302795
O O3 0.446134 0.712724 0.240901
O O4 0.410505 0.787010 0.358044
O O5 0.184711 0.823275 0.708699
O O6 0.168489 0.569661 0.819358
O O7 0.224545 0.929745 0.823739
O O8 0.888174 0.455030 0.690638
O O9 0.000000 0.500000 0.672788
O O10 0.921739 0.746858 0.616293
O O11 0.697320 0.903360 0.101544
O O12 0.803940 0.751296 0.101306
O O13 0.791584 0.137933 0.055806
O O14 0.607412 0.640816 0.109786
O O15 0.640686 0.921498 0.441818
O O16 0.911162 0.936688 0.500000
O O17 0.000000 0.000000 0.576359
#
# Coordination Sequence:
#
# PCOD9445062 Si02
#       8
#     8   8   8   8   8   4   8   8
#     4  11  22  38  66 104 132 166 222 273 334 413
#     4  10  22  40  62  97 132 169 211 275 342 389
#     4  12  23  40  65  92 132 176 216 278 339 389
#     4  10  25  40  66  96 129 169 227 274 325 412
#     4  12  24  40  65  94 129 173 229 274 339 402
#     4  10  22  48  67  91 135 181 221 270 343 401
#     4  11  25  44  63  90 134 181 225 282 333 396
#     4  10  22  43  69  93 133 177 210 276 339 391
#
# _framework density 20.561910000000001
#
# number of rings (size 3 to 8) (size 9 to 14) (size 15 to 20)
#    0.000    1.200    4.000    1.600    2.800    2.933 
#    2.400    0.333    0.000    7.200    0.000    0.000 
#    0.000    0.000    0.000    0.000    0.000    0.000 
#
# Total GULP energy -334052.175859 kJ/mol
# GULP energy per Si atom -5567.536264 kJ/mol
# Density = 2.051511 g / cm^3
# Si number density = 20.561910 Si / 1000 Ang^3
#
#
#
# Elastic Constant Matrix: (Units=GPa)
#
#
# Indices 1 2 3 4 5 6 
#
# 1 73.3648 34.2517 24.6907 0.0000 0.0000 0.0000
# 2 34.2517 61.2396 34.9049 0.0000 0.0000 0.0000
# 3 24.6907 34.9049 130.6172 0.0000 0.0000 0.0000
# 4 0.0000 0.0000 0.0000 -0.5797 0.0000 0.0000
# 5 0.0000 0.0000 0.0000 0.0000 10.5966 0.0000
# 6 0.0000 0.0000 0.0000 0.0000 0.0000 19.5278
#
#
#
# Elastic Compliance Matrix: (Units=1/GPa)
#
#
# Indices 1 2 3 4 5 6 
#
# 1 0.018530 -0.009871 -0.000865 0.000000 0.000000 0.000000
# 2 -0.009871 0.024522 -0.004687 0.000000 0.000000 0.000000
# 3 -0.000865 -0.004687 0.009072 0.000000 0.000000 0.000000
# 4 0.000000 0.000000 0.000000 -1.725168 0.000000 0.000000
# 5 0.000000 0.000000 0.000000 0.000000 0.094369 0.000000
# 6 0.000000 0.000000 0.000000 0.000000 0.000000 0.051209
#
#
# Mechanical properties :
#
#
# Convention : Reuss Voigt Hill
#
# Bulk Modulus (GPa) = 46.99728 50.32405 48.66067
# Shear Modulus (GPa) = -3.35677 17.33391 6.98857
#
# Velocity S-wave (km/s) = -1.27909 2.90661 1.84558
# Velocity P-wave (km/s) = 4.55244 5.98265 5.31586
#
# Compressibility (1/GPa) = 0.02127783
#
# Stress axis : x y z
#
# Youngs Moduli (GPa) = 53.96633 40.78016 110.22959
#
# Poissons Ratio (x) = 0.40254 0.09534
# Poissons Ratio (y) = 0.53270 0.51665
# Poissons Ratio (z) = 0.04668 0.19114
#
# Static dielectric constant tensor:
#      x y z
#    x 1.664810 0.000000 0.000000 
#    y 0.000000 1.752840 0.000000 
#    z 0.000000 0.000000 1.719280 
# 
# From -- ./inp_files/30557.got.cif
#   From: 2010.05.17/outbox.cif.g08.bks.cpg/sg58_16_cif.got.tgz:30557.got - 2010.06.03 14:20:14.
