data_PCOD9445573
_publ_section_title
;
Structure prediction by ZEFSAII (Michael W. Deem and Ramdas Pophale) SiO2 
 PCOD9445573
Probable space group: P N N M
;
_chemical_formula_sum "Si O2"
_cell_formula_units_Z 36
_cell_length_a 20.862645
_cell_length_b 9.330247
_cell_length_c 9.713652
_cell_angle_alpha 90.000000
_cell_angle_beta 90.000000
_cell_angle_gamma 90.000000
_cell_volume 1890.797631
_symmetry_space_group_name_H-M "P N N M"
_symmetry_group_IT_number 58
_symmetry_cell_setting 'orthorhombic'
loop_
_space_group_symop_operation_xyz
x,y,z
-x,-y,z
1/2+x,1/2-y,1/2-z
1/2-x,1/2+y,1/2-z
-x,-y,-z
x,y,-z
1/2-x,1/2+y,1/2+z
1/2+x,1/2-y,1/2+z
loop_
_atom_site_type_symbol
_atom_site_label
_atom_site_fract_x
_atom_site_fract_y
_atom_site_fract_z
Si Si1 0.315669 0.060358 0.500000
Si Si2 0.578377 0.006457 0.000000
Si Si3 0.444572 0.877912 0.500000
Si Si4 0.998802 0.838480 0.210343
Si Si5 0.677562 0.582782 0.000000
Si Si6 0.070763 0.166383 0.500000
Si Si7 0.867040 0.297548 0.267429
O O1 0.324194 0.149730 0.359034
O O2 0.376093 0.952343 0.500000
O O3 0.247919 0.982520 0.500000
O O4 0.606283 0.924799 0.866232
O O5 0.500000 0.000000 0.000000
O O6 0.598059 0.172311 0.000000
O O7 0.454903 0.773345 0.370831
O O8 0.500000 0.000000 0.500000
O O9 0.973589 0.845814 0.366003
O O10 0.069911 0.776186 0.205299
O O11 0.000000 0.000000 0.155904
O O12 0.624350 0.456682 0.000000
O O13 0.666432 0.683201 0.132686
#
# Coordination Sequence:
#
# PCOD9445573 Si02
#       7
#     4   4   4   8   4   4   8
#     4  12  27  45  71  98 141 182 231 276 338 413
#     4  11  21  35  69 105 137 175 224 281 339 400
#     4  12  25  41  65  99 133 172 220 284 343 393
#     4  12  22  39  68 102 134 168 225 286 345 388
#     4  11  27  49  65  95 144 187 226 271 333 420
#     4  12  22  37  70 100 129 175 231 275 329 397
#     4  11  23  44  69  99 137 181 225 286 340 394
#
# _framework density 19.039583
#
# number of rings (size 3 to 8) (size 9 to 14) (size 15 to 20)
#    0.000    0.444    6.667    2.667    0.000    3.556 
#    0.000    1.111    0.000    0.000    0.000    0.000 
#    0.000    0.000    0.000    0.000    0.000    0.000 
#
# Total GULP energy -201360.993648 kJ/mol
# GULP energy per Si atom -5593.360935 kJ/mol
# Density = 1.899625 g / cm^3
# Si number density = 19.039583 Si / 1000 Ang^3
#
#
#
# Elastic Constant Matrix: (Units=GPa)
#
#
# Indices 1 2 3 4 5 6 
#
# 1 85.4422 24.8856 16.5421 0.0000 0.0000 0.0000
# 2 24.8856 137.8147 38.7469 0.0000 0.0000 0.0000
# 3 16.5421 38.7469 106.1223 0.0000 0.0000 0.0000
# 4 0.0000 0.0000 0.0000 9.2385 0.0000 0.0000
# 5 0.0000 0.0000 0.0000 0.0000 8.7085 0.0000
# 6 0.0000 0.0000 0.0000 0.0000 0.0000 36.3350
#
#
#
# Elastic Compliance Matrix: (Units=1/GPa)
#
#
# Indices 1 2 3 4 5 6 
#
# 1 0.012501 -0.001905 -0.001253 0.000000 0.000000 0.000000
# 2 -0.001905 0.008377 -0.002761 0.000000 0.000000 0.000000
# 3 -0.001253 -0.002761 0.010627 0.000000 0.000000 0.000000
# 4 0.000000 0.000000 0.000000 0.108242 0.000000 0.000000
# 5 0.000000 0.000000 0.000000 0.000000 0.114831 0.000000
# 6 0.000000 0.000000 0.000000 0.000000 0.000000 0.027522
#
#
# Mechanical properties :
#
#
# Convention : Reuss Voigt Hill
#
# Bulk Modulus (GPa) = 50.85114 54.41425 52.63269
# Shear Modulus (GPa) = 16.63930 27.47004 22.05467
#
# Velocity S-wave (km/s) = 2.95944 3.80252 3.40716
# Velocity P-wave (km/s) = 6.20031 6.92246 6.57131
#
# Compressibility (1/GPa) = 0.01966524
#
# Stress axis : x y z
#
# Youngs Moduli (GPa) = 79.99175 119.38142 94.10287
#
# Poissons Ratio (x) = 0.22743 0.11792
# Poissons Ratio (y) = 0.15239 0.25986
# Poissons Ratio (z) = 0.10024 0.32966
#
# Static dielectric constant tensor:
#      x y z
#    x 1.607420 0.000000 0.000000 
#    y 0.000000 1.677990 0.000000 
#    z 0.000000 0.000000 1.673760 
# 
# From -- ./inp_files/8699.got.cif
#   From: 2010.05.17/outbox.cif.g08.bks.cpg/sg58_5_cif.got.tgz:8699.got - 2010.06.03 14:20:14.
