data_PCOD9445943
_publ_section_title
;
Structure prediction by ZEFSAII (Michael W. Deem and Ramdas Pophale) SiO2 
 PCOD9445943
Probable space group: P N N M
;
_chemical_formula_sum "Si O2"
_cell_formula_units_Z 64
_cell_length_a 30.000000
_cell_length_b 12.000000
_cell_length_c 9.000000
_cell_angle_alpha 90.000000
_cell_angle_beta 90.000000
_cell_angle_gamma 90.000000
_cell_volume 3240.000000
_symmetry_space_group_name_H-M "P N N M"
_symmetry_group_IT_number 58
_symmetry_cell_setting 'orthorhombic'
loop_
_space_group_symop_operation_xyz
x,y,z
-x,-y,z
1/2+x,1/2-y,1/2-z
1/2-x,1/2+y,1/2-z
-x,-y,-z
x,y,-z
1/2-x,1/2+y,1/2+z
1/2+x,1/2-y,1/2+z
loop_
_atom_site_type_symbol
_atom_site_label
_atom_site_fract_x
_atom_site_fract_y
_atom_site_fract_z
Si Si1 0.400653 0.888343 0.821295
Si Si2 0.836242 0.318550 0.168245
Si Si3 0.289573 0.371857 0.179318
Si Si4 0.425936 0.135520 0.176039
Si Si5 0.190124 0.424534 0.168612
Si Si6 0.115014 0.964536 0.325952
Si Si7 0.033961 0.834585 0.824840
Si Si8 0.554947 0.333177 0.825406
O O1 0.350360 0.875297 0.763044
O O2 0.431479 0.788195 0.770339
O O3 0.421381 0.007143 0.776971
O O4 0.399185 0.887078 0.000000
O O5 0.798237 0.242693 0.236301
O O6 0.877936 0.313741 0.279276
O O7 0.820344 0.444692 0.162941
O O8 0.848934 0.284280 0.000000
O O9 0.240650 0.412790 0.223284
O O10 0.333800 0.443776 0.218476
O O11 0.289874 0.360360 0.000000
O O12 0.461402 0.208771 0.262626
O O13 0.433464 0.142239 0.000000
O O14 0.187758 0.379931 0.000000
O O15 0.110864 0.932614 0.500000
O O16 0.098686 0.090934 0.312084
O O17 0.077296 0.897829 0.237099
O O18 0.987361 0.878584 0.761679
O O19 0.034143 0.837625 0.000000
O O20 0.542841 0.329479 0.000000
#
# Coordination Sequence:
#
# PCOD9445943 Si02
#       8
#     8   8   8   8   8   8   8   8
#     4   9  20  38  60  85 113 149 193 238 282 338
#     4  10  19  33  54  81 111 144 184 236 284 329
#     4  10  20  35  56  82 111 149 191 230 279 342
#     4  10  19  35  59  83 111 147 188 234 282 336
#     4   9  20  36  55  82 116 150 186 229 288 345
#     4  10  21  38  60  82 111 152 196 236 281 340
#     4  12  24  37  57  86 116 148 191 240 292 341
#     4  10  22  40  60  83 114 153 194 233 285 347
#
# _framework density 19.753086
#
# number of rings (size 3 to 8) (size 9 to 14) (size 15 to 20)
#    0.000    2.000    1.250    2.250    0.000    5.500 
#    0.000    5.000    0.000    0.000    0.000    0.000 
#    0.000    0.000    0.000    0.000    0.000    0.000 
#
# Total GULP energy -356882.946387 kJ/mol
# GULP energy per Si atom -5576.296037 kJ/mol
# Density = 1.970813 g / cm^3
# Si number density = 19.753086 Si / 1000 Ang^3
#
#
#
# Elastic Constant Matrix: (Units=GPa)
#
#
# Indices 1 2 3 4 5 6 
#
# 1 81.3541 25.7578 12.6985 0.0000 0.0000 0.0000
# 2 25.7578 40.2080 14.3697 0.0000 0.0000 0.0000
# 3 12.6985 14.3697 17.5989 0.0000 0.0000 0.0000
# 4 0.0000 0.0000 0.0000 16.2190 0.0000 0.0000
# 5 0.0000 0.0000 0.0000 0.0000 21.7196 0.0000
# 6 0.0000 0.0000 0.0000 0.0000 0.0000 18.9948
#
#
#
# Elastic Compliance Matrix: (Units=1/GPa)
#
#
# Indices 1 2 3 4 5 6 
#
# 1 0.015656 -0.008461 -0.004388 0.000000 0.000000 0.000000
# 2 -0.008461 0.039691 -0.026303 0.000000 0.000000 0.000000
# 3 -0.004388 -0.026303 0.081464 0.000000 0.000000 0.000000
# 4 0.000000 0.000000 0.000000 0.061656 0.000000 0.000000
# 5 0.000000 0.000000 0.000000 0.000000 0.046041 0.000000
# 6 0.000000 0.000000 0.000000 0.000000 0.000000 0.052646
#
#
# Mechanical properties :
#
#
# Convention : Reuss Voigt Hill
#
# Bulk Modulus (GPa) = 17.09187 27.20143 22.14665
# Shear Modulus (GPa) = 12.65945 17.14234 14.90090
#
# Velocity S-wave (km/s) = 2.53432 2.94909 2.74954
# Velocity P-wave (km/s) = 4.15153 5.03953 4.61693
#
# Compressibility (1/GPa) = 0.05850735
#
# Stress axis : x y z
#
# Youngs Moduli (GPa) = 63.87429 25.19442 12.27529
#
# Poissons Ratio (x) = 0.21317 0.05386
# Poissons Ratio (y) = 0.54045 0.32288
# Poissons Ratio (z) = 0.28027 0.66269
#
# Static dielectric constant tensor:
#      x y z
#    x 1.676200 0.000000 0.000000 
#    y 0.000000 1.758500 0.000000 
#    z 0.000000 0.000000 1.680970 
# 
# From -- ./inp_files/4774.got.cif
#   From: 2010.05.17/outbox.ucp.g08.bks.cvg/sg58_3_cif.got.tgz:4774.got - 2010.06.11 16:41:41.
