data_PCOD9445220
_publ_section_title
;
Structure prediction by ZEFSAII (Michael W. Deem and Ramdas Pophale) SiO2 
 PCOD9445220
Probable space group: P N N M
;
_chemical_formula_sum "Si O2"
_cell_formula_units_Z 36
_cell_length_a 9.100578
_cell_length_b 9.389121
_cell_length_c 20.505156
_cell_angle_alpha 90.000000
_cell_angle_beta 90.000000
_cell_angle_gamma 90.000000
_cell_volume 1752.092336
_symmetry_space_group_name_H-M "P N N M"
_symmetry_group_IT_number 58
_symmetry_cell_setting 'orthorhombic'
loop_
_space_group_symop_operation_xyz
x,y,z
-x,-y,z
1/2+x,1/2-y,1/2-z
1/2-x,1/2+y,1/2-z
-x,-y,-z
x,y,-z
1/2-x,1/2+y,1/2+z
1/2+x,1/2-y,1/2+z
loop_
_atom_site_type_symbol
_atom_site_label
_atom_site_fract_x
_atom_site_fract_y
_atom_site_fract_z
Si Si1 0.240576 0.804817 0.425716
Si Si2 0.956611 0.152084 0.696599
Si Si3 0.673686 0.520881 0.427486
Si Si4 0.211590 0.736780 0.180610
Si Si5 0.500000 0.000000 0.380646
O O1 0.188678 0.823122 0.500000
O O2 0.128874 0.862077 0.371548
O O3 0.261038 0.635699 0.413068
O O4 0.395636 0.888219 0.418620
O O5 0.852935 0.226423 0.748757
O O6 0.114059 0.221579 0.686071
O O7 0.000000 0.000000 0.725449
O O8 0.500000 0.500000 0.432120
O O9 0.727663 0.566138 0.500000
O O10 0.694048 0.638048 0.372266
O O11 0.117336 0.598638 0.158083
#
# Coordination Sequence:
#
# PCOD9445220 Si02
#       5
#     8   8   8   8   4
#     4  11  25  45  70 105 141 179 234 284 342 415
#     4  12  28  47  69 103 138 184 227 290 348 404
#     4  10  22  43  72 102 135 180 225 277 338 407
#     4  12  27  45  72  99 141 177 238 279 346 413
#     4  12  23  44  72 106 133 188 226 288 347 406
#
# _framework density 20.546862999999998
#
# number of rings (size 3 to 8) (size 9 to 14) (size 15 to 20)
#    0.000    0.667    4.444    2.333    3.111    3.111 
#    0.000    2.222    0.000    0.000    0.000    0.000 
#    0.000    0.000    0.000    0.000    0.000    0.000 
#
# Total GULP energy -201070.658351 kJ/mol
# GULP energy per Si atom -5585.296065 kJ/mol
# Density = 2.050010 g / cm^3
# Si number density = 20.546863 Si / 1000 Ang^3
#
#
#
# Elastic Constant Matrix: (Units=GPa)
#
#
# Indices 1 2 3 4 5 6 
#
# 1 122.9539 20.2765 52.2372 0.0000 0.0000 0.0000
# 2 20.2765 71.9502 43.6001 0.0000 0.0000 0.0000
# 3 52.2372 43.6001 113.6676 0.0000 0.0000 0.0000
# 4 0.0000 0.0000 0.0000 -68.4643 0.0000 0.0000
# 5 0.0000 0.0000 0.0000 0.0000 48.4476 0.0000
# 6 0.0000 0.0000 0.0000 0.0000 0.0000 26.7149
#
#
#
# Elastic Compliance Matrix: (Units=1/GPa)
#
#
# Indices 1 2 3 4 5 6 
#
# 1 0.010106 -0.000044 -0.004628 0.000000 0.000000 0.000000
# 2 -0.000044 0.018108 -0.006925 0.000000 0.000000 0.000000
# 3 -0.004628 -0.006925 0.013581 0.000000 0.000000 0.000000
# 4 0.000000 0.000000 0.000000 -0.014606 0.000000 0.000000
# 5 0.000000 0.000000 0.000000 0.000000 0.020641 0.000000
# 6 0.000000 0.000000 0.000000 0.000000 0.000000 0.037432
#
#
# Mechanical properties :
#
#
# Convention : Reuss Voigt Hill
#
# Bulk Modulus (GPa) = 53.76147 60.08882 56.92514
# Shear Modulus (GPa) = 43.60871 14.17017 28.88944
#
# Velocity S-wave (km/s) = 4.61195 2.62897 3.75377
# Velocity P-wave (km/s) = 7.38798 6.20674 6.82297
#
# Compressibility (1/GPa) = 0.01860068
#
# Stress axis : x y z
#
# Youngs Moduli (GPa) = 98.94673 55.22564 73.63371
#
# Poissons Ratio (x) = 0.00242 0.34076
# Poissons Ratio (y) = 0.00434 0.50995
# Poissons Ratio (z) = 0.45790 0.38246
#
# Static dielectric constant tensor:
#      x y z
#    x 1.675970 0.000000 0.000000 
#    y 0.000000 1.728260 0.000000 
#    z 0.000000 0.000000 1.719990 
# 
# From -- ./inp_files/28547.got.cif
#   From: 2010.05.17/outbox.cif.g08.bks.cpg/sg58_15_cif.got.tgz:28547.got - 2010.06.03 14:20:14.
