data_PCOD9445177
_publ_section_title
;
Structure prediction by ZEFSAII (Michael W. Deem and Ramdas Pophale) SiO2 
 PCOD9445177
Probable space group: P N N M
;
_chemical_formula_sum "Si O2"
_cell_formula_units_Z 28
_cell_length_a 7.901604
_cell_length_b 5.427736
_cell_length_c 33.738836
_cell_angle_alpha 90.000000
_cell_angle_beta 90.000000
_cell_angle_gamma 90.000000
_cell_volume 1446.985142
_symmetry_space_group_name_H-M "P N N M"
_symmetry_group_IT_number 58
_symmetry_cell_setting 'orthorhombic'
loop_
_space_group_symop_operation_xyz
x,y,z
-x,-y,z
1/2+x,1/2-y,1/2-z
1/2-x,1/2+y,1/2-z
-x,-y,-z
x,y,-z
1/2-x,1/2+y,1/2+z
1/2+x,1/2-y,1/2+z
loop_
_atom_site_type_symbol
_atom_site_label
_atom_site_fract_x
_atom_site_fract_y
_atom_site_fract_z
Si Si1 0.109271 0.750058 0.455623
Si Si2 0.500000 0.500000 0.768425
Si Si3 0.343299 0.809371 0.302304
Si Si4 0.398021 0.740461 0.391093
O O1 0.187589 0.739079 0.500000
O O2 0.241338 0.765502 0.420279
O O3 0.000000 0.500000 0.451238
O O4 0.000000 0.000000 0.454336
O O5 0.605299 0.333636 0.737494
O O6 0.349542 0.393056 0.795186
O O7 0.346268 0.684604 0.345403
O O8 0.500000 0.000000 0.304967
O O9 0.500000 0.500000 0.404723
O O10 0.500000 0.000000 0.392085
#
# Coordination Sequence:
#
# PCOD9445177 Si02
#       4
#     8   4   8   8
#     4  10  22  42  66  95 129 165 209 256 313 387
#     4  12  22  42  62  86 122 172 210 270 320 374
#     4  11  24  40  62  91 126 164 218 266 318 379
#     4  11  24  42  64  94 130 163 211 266 314 379
#
# _framework density 19.350579
#
# number of rings (size 3 to 8) (size 9 to 14) (size 15 to 20)
#    0.000    1.143    4.286    1.714    2.000    1.143 
#    5.143    0.000    0.000    0.000    0.000    0.000 
#    0.000    0.000    0.000    0.000    0.000    0.000 
#
# Total GULP energy -156005.748431 kJ/mol
# GULP energy per Si atom -5571.633873 kJ/mol
# Density = 1.930654 g / cm^3
# Si number density = 19.350579 Si / 1000 Ang^3
#
#
#
# Elastic Constant Matrix: (Units=GPa)
#
#
# Indices 1 2 3 4 5 6 
#
# 1 122.0738 32.1411 48.3357 0.0000 0.0000 0.0000
# 2 32.1411 90.8280 18.4116 0.0000 0.0000 0.0000
# 3 48.3357 18.4116 107.2944 0.0000 0.0000 0.0000
# 4 0.0000 0.0000 0.0000 36.6413 0.0000 0.0000
# 5 0.0000 0.0000 0.0000 0.0000 35.2410 0.0000
# 6 0.0000 0.0000 0.0000 0.0000 0.0000 31.3953
#
#
#
# Elastic Compliance Matrix: (Units=1/GPa)
#
#
# Indices 1 2 3 4 5 6 
#
# 1 0.010660 -0.002900 -0.004305 0.000000 0.000000 0.000000
# 2 -0.002900 0.012195 -0.000786 0.000000 0.000000 0.000000
# 3 -0.004305 -0.000786 0.011394 0.000000 0.000000 0.000000
# 4 0.000000 0.000000 0.000000 0.027292 0.000000 0.000000
# 5 0.000000 0.000000 0.000000 0.000000 0.028376 0.000000
# 6 0.000000 0.000000 0.000000 0.000000 0.000000 0.031852
#
#
# Mechanical properties :
#
#
# Convention : Reuss Voigt Hill
#
# Bulk Modulus (GPa) = 54.74027 57.55256 56.14642
# Shear Modulus (GPa) = 34.76103 35.40936 35.08520
#
# Velocity S-wave (km/s) = 4.24297 4.28236 4.26271
# Velocity P-wave (km/s) = 7.23560 7.36601 7.30109
#
# Compressibility (1/GPa) = 0.01826809
#
# Stress axis : x y z
#
# Youngs Moduli (GPa) = 93.81223 81.99890 87.76326
#
# Poissons Ratio (x) = 0.23776 0.37778
# Poissons Ratio (y) = 0.27201 0.06902
# Poissons Ratio (z) = 0.40382 0.06449
#
# Static dielectric constant tensor:
#      x y z
#    x 4.738300 0.000000 0.000000 
#    y 0.000000 1.715570 0.000000 
#    z 0.000000 0.000000 1.656390 
# 
# From -- ./inp_files/33061.got.cif
#   From: 2010.05.17/outbox.cif.g08.bks.cpg/sg58_17_cif.got.tgz:33061.got - 2010.06.03 14:20:14.
