data_PCOD9445195
_publ_section_title
;
Structure prediction by ZEFSAII (Michael W. Deem and Ramdas Pophale) SiO2 
 PCOD9445195
Probable space group: P N N M
;
_chemical_formula_sum "Si O2"
_cell_formula_units_Z 40
_cell_length_a 4.909851
_cell_length_b 17.579706
_cell_length_c 18.198280
_cell_angle_alpha 90.000000
_cell_angle_beta 90.000000
_cell_angle_gamma 90.000000
_cell_volume 1570.761555
_symmetry_space_group_name_H-M "P N N M"
_symmetry_group_IT_number 58
_symmetry_cell_setting 'orthorhombic'
loop_
_space_group_symop_operation_xyz
x,y,z
-x,-y,z
1/2+x,1/2-y,1/2-z
1/2-x,1/2+y,1/2-z
-x,-y,-z
x,y,-z
1/2-x,1/2+y,1/2+z
1/2+x,1/2-y,1/2+z
loop_
_atom_site_type_symbol
_atom_site_label
_atom_site_fract_x
_atom_site_fract_y
_atom_site_fract_z
Si Si1 0.140667 0.795541 0.724103
Si Si2 0.562521 0.374539 0.584525
Si Si3 0.267390 0.552019 0.915315
Si Si4 0.035996 0.300223 0.085651
Si Si5 0.591471 0.080484 0.825794
O O1 0.839175 0.771321 0.745388
O O2 0.204606 0.804137 0.638460
O O3 0.254274 0.868996 0.765977
O O4 0.639022 0.386652 0.500000
O O5 0.445283 0.287757 0.590431
O O6 0.826433 0.383011 0.635893
O O7 0.318298 0.428254 0.610687
O O8 0.500000 0.500000 0.878864
O O9 0.167596 0.633855 0.887668
O O10 0.000000 0.500000 0.916671
O O11 0.357384 0.566511 0.000000
O O12 0.098489 0.315430 0.000000
O O13 0.500000 0.000000 0.794379
#
# Coordination Sequence:
#
# PCOD9445195 Si02
#       5
#     8   8   8   8   8
#     4  12  24  46  68  95 135 182 223 278 338 406
#     4  11  24  43  70 104 138 181 231 282 342 414
#     4   9  19  35  56  88 128 165 207 265 321 371
#     4  10  22  42  71 100 133 178 231 278 335 411
#     4  12  25  44  69 102 138 181 228 280 348 414
#
# _framework density 25.465354999999999
#
# number of rings (size 3 to 8) (size 9 to 14) (size 15 to 20)
#    0.000    1.200    4.000    1.200    0.000    6.400 
#    0.000   11.000    0.000    0.000    0.000    0.000 
#    0.000    0.000    0.000    0.000    0.000    0.000 
#
# Total GULP energy -224073.327695 kJ/mol
# GULP energy per Si atom -5601.833192 kJ/mol
# Density = 2.540739 g / cm^3
# Si number density = 25.465355 Si / 1000 Ang^3
#
#
#
# Elastic Constant Matrix: (Units=GPa)
#
#
# Indices 1 2 3 4 5 6 
#
# 1 100.0383 20.9961 -1.1767 0.0000 0.0000 0.0000
# 2 20.9961 120.1087 17.2418 0.0000 0.0000 0.0000
# 3 -1.1767 17.2418 82.2172 0.0000 0.0000 0.0000
# 4 0.0000 0.0000 0.0000 24.7726 0.0000 0.0000
# 5 0.0000 0.0000 0.0000 0.0000 21.5909 0.0000
# 6 0.0000 0.0000 0.0000 0.0000 0.0000 41.7675
#
#
#
# Elastic Compliance Matrix: (Units=1/GPa)
#
#
# Indices 1 2 3 4 5 6 
#
# 1 0.010401 -0.001897 0.000547 0.000000 0.000000 0.000000
# 2 -0.001897 0.008930 -0.001900 0.000000 0.000000 0.000000
# 3 0.000547 -0.001900 0.012569 0.000000 0.000000 0.000000
# 4 0.000000 0.000000 0.000000 0.040367 0.000000 0.000000
# 5 0.000000 0.000000 0.000000 0.000000 0.046316 0.000000
# 6 0.000000 0.000000 0.000000 0.000000 0.000000 0.023942
#
#
# Mechanical properties :
#
#
# Convention : Reuss Voigt Hill
#
# Bulk Modulus (GPa) = 39.36989 41.83183 40.60086
# Shear Modulus (GPa) = 31.74777 35.31307 33.53042
#
# Velocity S-wave (km/s) = 3.53470 3.72790 3.63258
# Velocity P-wave (km/s) = 5.67032 5.91542 5.79417
#
# Compressibility (1/GPa) = 0.02540012
#
# Stress axis : x y z
#
# Youngs Moduli (GPa) = 96.14772 111.98130 79.55993
#
# Poissons Ratio (x) = 0.21238 -0.04349
# Poissons Ratio (y) = 0.18235 0.15115
# Poissons Ratio (z) = -0.05255 0.21275
#
# Static dielectric constant tensor:
#      x y z
#    x 1.947810 0.000000 0.000000 
#    y 0.000000 2.069580 0.000000 
#    z 0.000000 0.000000 2.000590 
# 
# From -- ./inp_files/24159.got.cif
#   From: 2010.05.17/outbox.cif.g08.bks.cpg/sg58_13_cif.got.tgz:24159.got - 2010.06.03 14:20:14.
