data_PCOD9445247
_publ_section_title
;
Structure prediction by ZEFSAII (Michael W. Deem and Ramdas Pophale) SiO2 
 PCOD9445247
Probable space group: P N N M
;
_chemical_formula_sum "Si O2"
_cell_formula_units_Z 46
_cell_length_a 8.866684
_cell_length_b 22.926707
_cell_length_c 12.310863
_cell_angle_alpha 90.000000
_cell_angle_beta 90.000000
_cell_angle_gamma 90.000000
_cell_volume 2502.599826
_symmetry_space_group_name_H-M "P N N M"
_symmetry_group_IT_number 58
_symmetry_cell_setting 'orthorhombic'
loop_
_space_group_symop_operation_xyz
x,y,z
-x,-y,z
1/2+x,1/2-y,1/2-z
1/2-x,1/2+y,1/2-z
-x,-y,-z
x,y,-z
1/2-x,1/2+y,1/2+z
1/2+x,1/2-y,1/2+z
loop_
_atom_site_type_symbol
_atom_site_label
_atom_site_fract_x
_atom_site_fract_y
_atom_site_fract_z
Si Si1 0.958800 0.912315 0.310103
Si Si2 0.262499 0.081025 0.127853
Si Si3 0.500000 0.000000 0.247336
Si Si4 0.794676 0.590666 0.125499
Si Si5 0.239302 0.191521 0.260898
Si Si6 0.500000 0.500000 0.000000
Si Si7 0.451928 0.783159 0.624801
O O1 0.137661 0.903750 0.311336
O O2 0.889752 0.932822 0.195577
O O3 0.873147 0.850763 0.328568
O O4 0.925324 0.958365 0.403959
O O5 0.391217 0.038885 0.173161
O O6 0.300119 0.146755 0.168386
O O7 0.244881 0.077486 0.000000
O O8 0.600541 0.041779 0.322738
O O9 0.882701 0.651682 0.126166
O O10 0.751269 0.574937 0.000000
O O11 0.377737 0.213975 0.331589
O O12 0.146260 0.241942 0.202162
O O13 0.447106 0.762313 0.500000
#
# Coordination Sequence:
#
# PCOD9445247 Si02
#       7
#     8   8   4   8   8   2   8
#     4  10  23  38  68  93 139 168 219 273 341 396
#     4  10  23  43  66  93 131 178 219 275 335 405
#     4  12  22  42  64  98 130 173 219 278 330 408
#     4  11  22  39  64 100 132 169 214 277 340 395
#     4  10  23  43  67  95 134 169 221 273 330 397
#     4  12  20  40  62 106 128 176 208 286 326 408
#     4  11  23  42  69  96 131 171 224 275 334 397
#
# _framework density 18.380884999999999
#
# number of rings (size 3 to 8) (size 9 to 14) (size 15 to 20)
#    1.043    0.348    2.609    3.130    1.217    0.000 
#    4.696    6.522    0.000    0.000    0.000    0.000 
#    0.000    0.000    0.000    0.000    0.000    0.000 
#
# Total GULP energy -256160.406273 kJ/mol
# GULP energy per Si atom -5568.704484 kJ/mol
# Density = 1.833905 g / cm^3
# Si number density = 18.380885 Si / 1000 Ang^3
#
#
#
# Elastic Constant Matrix: (Units=GPa)
#
#
# Indices 1 2 3 4 5 6 
#
# 1 109.5618 17.4812 23.0097 0.0000 0.0000 0.0000
# 2 17.4812 55.0504 -5.6411 0.0000 0.0000 0.0000
# 3 23.0097 -5.6411 64.2085 0.0000 0.0000 0.0000
# 4 0.0000 0.0000 0.0000 -54.8700 0.0000 0.0000
# 5 0.0000 0.0000 0.0000 0.0000 23.8601 0.0000
# 6 0.0000 0.0000 0.0000 0.0000 0.0000 42.2817
#
#
#
# Elastic Compliance Matrix: (Units=1/GPa)
#
#
# Indices 1 2 3 4 5 6 
#
# 1 0.010599 -0.003789 -0.004131 0.000000 0.000000 0.000000
# 2 -0.003789 0.019685 0.003087 0.000000 0.000000 0.000000
# 3 -0.004131 0.003087 0.017326 0.000000 0.000000 0.000000
# 4 0.000000 0.000000 0.000000 -0.018225 0.000000 0.000000
# 5 0.000000 0.000000 0.000000 0.000000 0.041911 0.000000
# 6 0.000000 0.000000 0.000000 0.000000 0.000000 0.023651
#
#
# Mechanical properties :
#
#
# Convention : Reuss Voigt Hill
#
# Bulk Modulus (GPa) = 26.35473 33.16893 29.76183
# Shear Modulus (GPa) = 42.63971 15.18577 28.91274
#
# Velocity S-wave (km/s) = 4.82164 2.87744 3.97038
# Velocity P-wave (km/s) = 6.73549 5.39667 6.10291
#
# Compressibility (1/GPa) = 0.03794385
#
# Stress axis : x y z
#
# Youngs Moduli (GPa) = 94.34409 50.80068 57.71674
#
# Poissons Ratio (x) = 0.19249 0.23845
# Poissons Ratio (y) = 0.35749 -0.17819
# Poissons Ratio (z) = 0.38977 -0.15684
#
# Static dielectric constant tensor:
#      x y z
#    x 1.342200 0.000000 0.000000 
#    y 0.000000 1.710960 0.000000 
#    z 0.000000 0.000000 1.594730 
# 
# From -- ./inp_files/13088.got.cif
#   From: 2010.05.17/outbox.cif.g08.bks.cpg/sg58_7_cif.got.tgz:13088.got - 2010.06.03 14:20:14.
