data_PCOD9445372
_publ_section_title
;
Structure prediction by ZEFSAII (Michael W. Deem and Ramdas Pophale) SiO2 
 PCOD9445372
Probable space group: P N N M
;
_chemical_formula_sum "Si O2"
_cell_formula_units_Z 36
_cell_length_a 6.730739
_cell_length_b 8.393228
_cell_length_c 23.377842
_cell_angle_alpha 90.000000
_cell_angle_beta 90.000000
_cell_angle_gamma 90.000000
_cell_volume 1320.675709
_symmetry_space_group_name_H-M "P N N M"
_symmetry_group_IT_number 58
_symmetry_cell_setting 'orthorhombic'
loop_
_space_group_symop_operation_xyz
x,y,z
-x,-y,z
1/2+x,1/2-y,1/2-z
1/2-x,1/2+y,1/2-z
-x,-y,-z
x,y,-z
1/2-x,1/2+y,1/2+z
1/2+x,1/2-y,1/2+z
loop_
_atom_site_type_symbol
_atom_site_label
_atom_site_fract_x
_atom_site_fract_y
_atom_site_fract_z
Si Si1 0.203821 0.638718 0.438836
Si Si2 0.329354 0.798343 0.000000
Si Si3 0.127935 0.874701 0.792492
Si Si4 0.911695 0.326131 0.093563
Si Si5 0.121566 0.629039 0.307671
O O1 0.088371 0.696142 0.500000
O O2 0.207438 0.451159 0.450598
O O3 0.417025 0.719894 0.437821
O O4 0.123057 0.666758 0.375964
O O5 0.273327 0.670584 0.948487
O O6 0.127526 0.750946 0.845363
O O7 0.124722 0.787174 0.731401
O O8 0.872916 0.919618 0.798023
O O9 0.377017 0.920238 0.797275
O O10 0.000000 0.500000 0.101944
#
# Coordination Sequence:
#
# PCOD9445372 Si02
#       5
#     8   4   8   8   8
#     4  10  25  48  75 117 151 202 261 323 386 467
#     4  10  23  47  75 112 154 208 257 322 381 466
#     4  12  27  49  77 112 150 205 255 324 398 464
#     4  12  25  47  77 112 157 206 259 321 393 462
#     4  12  26  50  76 114 152 200 262 320 395 467
#
# _framework density 27.258772
#
# number of rings (size 3 to 8) (size 9 to 14) (size 15 to 20)
#    0.667    0.000    3.333    3.667    3.111    2.222 
#    2.000    1.667    0.000    0.000    0.000    0.000 
#    0.000    0.000    0.000    0.000    0.000    0.000 
#
# Total GULP energy -201013.783256 kJ/mol
# GULP energy per Si atom -5583.716202 kJ/mol
# Density = 2.719673 g / cm^3
# Si number density = 27.258772 Si / 1000 Ang^3
#
#
#
# Elastic Constant Matrix: (Units=GPa)
#
#
# Indices 1 2 3 4 5 6 
#
# 1 234.5804 73.9393 62.8218 0.0000 0.0000 0.0000
# 2 73.9393 126.7480 94.6688 0.0000 0.0000 0.0000
# 3 62.8218 94.6688 276.1325 0.0000 0.0000 0.0000
# 4 0.0000 0.0000 0.0000 8.0736 0.0000 0.0000
# 5 0.0000 0.0000 0.0000 0.0000 52.4947 0.0000
# 6 0.0000 0.0000 0.0000 0.0000 0.0000 64.9422
#
#
#
# Elastic Compliance Matrix: (Units=1/GPa)
#
#
# Indices 1 2 3 4 5 6 
#
# 1 0.005231 -0.002907 -0.000193 0.000000 0.000000 0.000000
# 2 -0.002907 0.012221 -0.003528 0.000000 0.000000 0.000000
# 3 -0.000193 -0.003528 0.004875 0.000000 0.000000 0.000000
# 4 0.000000 0.000000 0.000000 0.123861 0.000000 0.000000
# 5 0.000000 0.000000 0.000000 0.000000 0.019050 0.000000
# 6 0.000000 0.000000 0.000000 0.000000 0.000000 0.015398
#
#
# Mechanical properties :
#
#
# Convention : Reuss Voigt Hill
#
# Bulk Modulus (GPa) = 110.26300 122.25787 116.26044
# Shear Modulus (GPa) = 25.39142 52.17083 38.78113
#
# Velocity S-wave (km/s) = 3.05535 4.37957 3.77597
# Velocity P-wave (km/s) = 7.27909 8.39776 7.85836
#
# Compressibility (1/GPa) = 0.00906923
#
# Stress axis : x y z
#
# Youngs Moduli (GPa) = 191.16659 81.82682 205.12253
#
# Poissons Ratio (x) = 0.23788 0.03968
# Poissons Ratio (y) = 0.55574 0.72376
# Poissons Ratio (z) = 0.03698 0.28872
#
# Static dielectric constant tensor:
#      x y z
#    x 2.374880 0.000000 0.000000 
#    y 0.000000 1.967340 0.000000 
#    z 0.000000 0.000000 2.011500 
# 
# From -- ./inp_files/31830.got.cif
#   From: 2010.05.17/outbox.cif.g08.bks.cpg/sg58_16_cif.got.tgz:31830.got - 2010.06.03 14:20:14.
