data_PCOD9445588
_publ_section_title
;
Structure prediction by ZEFSAII (Michael W. Deem and Ramdas Pophale) SiO2 
 PCOD9445588
Probable space group: P N N M
;
_chemical_formula_sum "Si O2"
_cell_formula_units_Z 40
_cell_length_a 6.005779
_cell_length_b 19.124974
_cell_length_c 18.320083
_cell_angle_alpha 90.000000
_cell_angle_beta 90.000000
_cell_angle_gamma 90.000000
_cell_volume 2104.251461
_symmetry_space_group_name_H-M "P N N M"
_symmetry_group_IT_number 58
_symmetry_cell_setting 'orthorhombic'
loop_
_space_group_symop_operation_xyz
x,y,z
-x,-y,z
1/2+x,1/2-y,1/2-z
1/2-x,1/2+y,1/2-z
-x,-y,-z
x,y,-z
1/2-x,1/2+y,1/2+z
1/2+x,1/2-y,1/2+z
loop_
_atom_site_type_symbol
_atom_site_label
_atom_site_fract_x
_atom_site_fract_y
_atom_site_fract_z
Si Si1 0.173064 0.195378 0.149752
Si Si2 0.182304 0.826938 0.257948
Si Si3 0.757953 0.851045 0.500000
Si Si4 0.375724 0.571177 0.146042
Si Si5 0.762603 0.725049 0.000000
Si Si6 0.078295 0.571797 0.715974
O O1 0.266810 0.252100 0.207436
O O2 0.218929 0.227752 0.071904
O O3 0.280811 0.120111 0.162242
O O4 0.922140 0.186069 0.178145
O O5 0.388916 0.877218 0.245925
O O6 0.024919 0.868995 0.314502
O O7 0.766204 0.895516 0.425369
O O8 0.506206 0.816219 0.500000
O O9 0.010578 0.811796 0.500000
O O10 0.500000 0.500000 0.124296
O O11 0.214728 0.549993 0.212153
O O12 0.000000 0.500000 0.680513
#
# Coordination Sequence:
#
# PCOD9445588 Si02
#       6
#     8   8   4   8   4   8
#     4  11  24  39  69  95 131 176 233 282 345 405
#     4  11  21  39  65  97 125 176 226 284 333 411
#     4  12  27  42  66  98 146 186 228 268 350 418
#     4  11  23  40  62  98 140 181 223 276 345 420
#     4  12  28  46  66 103 141 181 230 300 337 408
#     4  11  23  41  68  98 132 171 232 292 343 405
#
# _framework density 19.009134
#
# number of rings (size 3 to 8) (size 9 to 14) (size 15 to 20)
#    0.000    0.800    6.000    1.500    5.600    0.000 
#    0.000    2.000    0.000    1.200    0.000    0.000 
#    0.000    0.000    0.000    0.000    0.000    0.000 
#
# Total GULP energy -222899.176022 kJ/mol
# GULP energy per Si atom -5572.479401 kJ/mol
# Density = 1.896587 g / cm^3
# Si number density = 19.009134 Si / 1000 Ang^3
#
#
#
# Elastic Constant Matrix: (Units=GPa)
#
#
# Indices 1 2 3 4 5 6 
#
# 1 53.4509 26.4530 14.4496 0.0000 0.0000 0.0000
# 2 26.4530 108.9584 31.9484 0.0000 0.0000 0.0000
# 3 14.4496 31.9484 45.5478 0.0000 0.0000 0.0000
# 4 0.0000 0.0000 0.0000 14.0079 0.0000 0.0000
# 5 0.0000 0.0000 0.0000 0.0000 19.6380 0.0000
# 6 0.0000 0.0000 0.0000 0.0000 0.0000 -16.0396
#
#
#
# Elastic Compliance Matrix: (Units=1/GPa)
#
#
# Indices 1 2 3 4 5 6 
#
# 1 0.021839 -0.004117 -0.004040 0.000000 0.000000 0.000000
# 2 -0.004117 0.012330 -0.007343 0.000000 0.000000 0.000000
# 3 -0.004040 -0.007343 0.028387 0.000000 0.000000 0.000000
# 4 0.000000 0.000000 0.000000 0.071388 0.000000 0.000000
# 5 0.000000 0.000000 0.000000 0.000000 0.050922 0.000000
# 6 0.000000 0.000000 0.000000 0.000000 0.000000 -0.062346
#
#
# Mechanical properties :
#
#
# Convention : Reuss Voigt Hill
#
# Bulk Modulus (GPa) = 31.68993 39.29548 35.49270
# Shear Modulus (GPa) = 30.48059 12.52835 21.50447
#
# Velocity S-wave (km/s) = 4.00868 2.57002 3.36708
# Velocity P-wave (km/s) = 6.17520 5.43355 5.81621
#
# Compressibility (1/GPa) = 0.03155577
#
# Stress axis : x y z
#
# Youngs Moduli (GPa) = 45.79037 81.10015 35.22745
#
# Poissons Ratio (x) = 0.33392 0.14232
# Poissons Ratio (y) = 0.18854 0.25866
# Poissons Ratio (z) = 0.18500 0.59549
#
# Static dielectric constant tensor:
#      x y z
#    x 1.772160 0.000000 0.000000 
#    y 0.000000 1.559860 0.000000 
#    z 0.000000 0.000000 1.616800 
# 
# From -- ./inp_files/24204.got.cif
#   From: 2010.05.17/outbox.cif.g08.bks.cpg/sg58_13_cif.got.tgz:24204.got - 2010.06.03 14:20:14.
