data_PCOD9445826
_publ_section_title
;
Structure prediction by ZEFSAII (Michael W. Deem and Ramdas Pophale) SiO2 
 PCOD9445826
Probable space group: P N N M
;
_chemical_formula_sum "Si O2"
_cell_formula_units_Z 34
_cell_length_a 4.911477
_cell_length_b 25.704483
_cell_length_c 14.236859
_cell_angle_alpha 90.000000
_cell_angle_beta 90.000000
_cell_angle_gamma 90.000000
_cell_volume 1797.360411
_symmetry_space_group_name_H-M "P N N M"
_symmetry_group_IT_number 58
_symmetry_cell_setting 'orthorhombic'
loop_
_space_group_symop_operation_xyz
x,y,z
-x,-y,z
1/2+x,1/2-y,1/2-z
1/2-x,1/2+y,1/2-z
-x,-y,-z
x,y,-z
1/2-x,1/2+y,1/2+z
1/2+x,1/2-y,1/2+z
loop_
_atom_site_type_symbol
_atom_site_label
_atom_site_fract_x
_atom_site_fract_y
_atom_site_fract_z
Si Si1 0.652246 0.614821 0.807266
Si Si2 0.578647 0.668837 0.000000
Si Si3 0.940559 0.221198 0.793105
Si Si4 0.419471 0.242113 0.500000
Si Si5 0.174069 0.546226 0.820265
Si Si6 0.000000 0.000000 0.500000
O O1 0.538488 0.634693 0.907655
O O2 0.656663 0.664799 0.740682
O O3 0.438410 0.571623 0.772009
O O4 0.947242 0.591240 0.828933
O O5 0.381535 0.718235 0.000000
O O6 0.880453 0.692496 0.000000
O O7 0.722079 0.263448 0.756750
O O8 0.967778 0.226569 0.904585
O O9 0.000000 0.500000 0.773022
O O10 0.293359 0.522447 0.916903
#
# Coordination Sequence:
#
# PCOD9445826 Si02
#       6
#     8   4   8   4   8   2
#     4  12  23  38  60  86 122 165 207 241 303 372
#     4  12  22  35  58  90 119 167 209 235 303 372
#     4  12  23  42  60  91 125 162 212 255 303 370
#     4  12  22  41  61  85 128 166 201 258 302 353
#     4  12  24  39  54  84 120 163 199 252 301 362
#     4  12  22  40  58  84 134 150 206 250 304 382
#
# _framework density 18.916629
#
# number of rings (size 3 to 8) (size 9 to 14) (size 15 to 20)
#    0.000    0.000    7.059    4.588    0.000    0.000 
#    0.000    0.000    0.000    0.000    0.000    4.941 
#    0.000    0.000    0.000    0.000    0.000    0.000 
#
# Total GULP energy -189453.546590 kJ/mol
# GULP energy per Si atom -5572.163135 kJ/mol
# Density = 1.887357 g / cm^3
# Si number density = 18.916629 Si / 1000 Ang^3
#
#
#
# Elastic Constant Matrix: (Units=GPa)
#
#
# Indices 1 2 3 4 5 6 
#
# 1 92.3387 32.0775 19.7918 0.0000 0.0000 0.0000
# 2 32.0775 67.6051 27.2756 0.0000 0.0000 0.0000
# 3 19.7918 27.2756 93.5316 0.0000 0.0000 0.0000
# 4 0.0000 0.0000 0.0000 -16.3168 0.0000 0.0000
# 5 0.0000 0.0000 0.0000 0.0000 -11.4669 0.0000
# 6 0.0000 0.0000 0.0000 0.0000 0.0000 48.3228
#
#
#
# Elastic Compliance Matrix: (Units=1/GPa)
#
#
# Indices 1 2 3 4 5 6 
#
# 1 0.013063 -0.005761 -0.001084 0.000000 0.000000 0.000000
# 2 -0.005761 0.019305 -0.004411 0.000000 0.000000 0.000000
# 3 -0.001084 -0.004411 0.012207 0.000000 0.000000 0.000000
# 4 0.000000 0.000000 0.000000 -0.061287 0.000000 0.000000
# 5 0.000000 0.000000 0.000000 0.000000 -0.087208 0.000000
# 6 0.000000 0.000000 0.000000 0.000000 0.000000 0.020694
#
#
# Mechanical properties :
#
#
# Convention : Reuss Voigt Hill
#
# Bulk Modulus (GPa) = 45.32319 45.75170 45.53744
# Shear Modulus (GPa) = -93.70559 15.72986 -38.98786
#
# Velocity S-wave (km/s) = -7.04582 2.88677 -4.54479
# Velocity P-wave (km/s) = 6.49462 5.94556 1.84802
#
# Compressibility (1/GPa) = 0.02206376
#
# Stress axis : x y z
#
# Youngs Moduli (GPa) = 76.54991 51.80083 81.91870
#
# Poissons Ratio (x) = 0.29842 0.08882
# Poissons Ratio (y) = 0.44100 0.36131
# Poissons Ratio (z) = 0.08300 0.22847
#
# Static dielectric constant tensor:
#      x y z
#    x 1.688350 0.000000 0.000000 
#    y 0.000000 1.727560 0.000000 
#    z 0.000000 0.000000 1.604670 
# 
# From -- ./inp_files/18467.got.cif
#   From: 2010.05.17/outbox.cif.g08.bks.cpg/sg58_10_cif.got.tgz:18467.got - 2010.06.03 14:20:14.
