data_PCOD9445799
_publ_section_title
;
Structure prediction by ZEFSAII (Michael W. Deem and Ramdas Pophale) SiO2 
 PCOD9445799
Probable space group: P N N M
;
_chemical_formula_sum "Si O2"
_cell_formula_units_Z 36
_cell_length_a 12.039133
_cell_length_b 9.365268
_cell_length_c 12.603092
_cell_angle_alpha 90.000000
_cell_angle_beta 90.000000
_cell_angle_gamma 90.000000
_cell_volume 1420.994931
_symmetry_space_group_name_H-M "P N N M"
_symmetry_group_IT_number 58
_symmetry_cell_setting 'orthorhombic'
loop_
_space_group_symop_operation_xyz
x,y,z
-x,-y,z
1/2+x,1/2-y,1/2-z
1/2-x,1/2+y,1/2-z
-x,-y,-z
x,y,-z
1/2-x,1/2+y,1/2+z
1/2+x,1/2-y,1/2+z
loop_
_atom_site_type_symbol
_atom_site_label
_atom_site_fract_x
_atom_site_fract_y
_atom_site_fract_z
Si Si1 0.510193 0.332580 0.343897
Si Si2 0.604392 0.317324 0.114394
Si Si3 0.872767 0.505003 0.647843
Si Si4 0.211120 0.175684 0.000000
Si Si5 0.343622 0.080124 0.382919
O O1 0.500000 0.500000 0.373221
O O2 0.527648 0.326232 0.216867
O O3 0.619281 0.283962 0.406884
O O4 0.406250 0.233520 0.374135
O O5 0.709565 0.420605 0.121240
O O6 0.663641 0.163054 0.116768
O O7 0.547365 0.335404 0.000000
O O8 0.797152 0.387519 0.592553
O O9 0.875659 0.496040 0.774759
O O10 0.000000 0.500000 0.612822
O O11 0.372373 0.023410 0.500000
#
# Coordination Sequence:
#
# PCOD9445799 Si02
#       5
#     8   8   8   4   8
#     4  12  25  44  73 101 133 183 236 278 337 414
#     4  11  25  45  69  99 142 178 224 289 344 407
#     4  12  24  43  71 101 136 180 226 281 347 407
#     4  12  24  44  70  99 132 179 241 278 326 412
#     4  11  25  45  69 100 139 179 225 289 345 401
#
# _framework density 25.334361999999999
#
# number of rings (size 3 to 8) (size 9 to 14) (size 15 to 20)
#    0.000    0.444    6.667    2.000    3.111    0.889 
#    2.000    0.000    0.000    0.000    0.000    0.000 
#    0.000    0.000    0.000    0.000    0.000    0.000 
#
# Total GULP energy -200467.870197 kJ/mol
# GULP energy per Si atom -5568.551950 kJ/mol
# Density = 2.527670 g / cm^3
# Si number density = 25.334362 Si / 1000 Ang^3
#
#
#
# Elastic Constant Matrix: (Units=GPa)
#
#
# Indices 1 2 3 4 5 6 
#
# 1 70.8369 1.3913 27.8378 0.0000 0.0000 0.0000
# 2 1.3913 58.0194 26.7967 0.0000 0.0000 0.0000
# 3 27.8378 26.7967 268.8061 0.0000 0.0000 0.0000
# 4 0.0000 0.0000 0.0000 11.8311 0.0000 0.0000
# 5 0.0000 0.0000 0.0000 0.0000 22.8428 0.0000
# 6 0.0000 0.0000 0.0000 0.0000 0.0000 25.0662
#
#
#
# Elastic Compliance Matrix: (Units=1/GPa)
#
#
# Indices 1 2 3 4 5 6 
#
# 1 0.014723 0.000368 -0.001561 0.000000 0.000000 0.000000
# 2 0.000368 0.018077 -0.001840 0.000000 0.000000 0.000000
# 3 -0.001561 -0.001840 0.004065 0.000000 0.000000 0.000000
# 4 0.000000 0.000000 0.000000 0.084523 0.000000 0.000000
# 5 0.000000 0.000000 0.000000 0.000000 0.043777 0.000000
# 6 0.000000 0.000000 0.000000 0.000000 0.000000 0.039894
#
#
# Mechanical properties :
#
#
# Convention : Reuss Voigt Hill
#
# Bulk Modulus (GPa) = 32.46928 56.63488 44.55208
# Shear Modulus (GPa) = 22.58428 34.72380 28.65404
#
# Velocity S-wave (km/s) = 2.98895 3.70621 3.36673
# Velocity P-wave (km/s) = 4.97553 6.38107 5.72163
#
# Compressibility (1/GPa) = 0.03079834
#
# Stress axis : x y z
#
# Youngs Moduli (GPa) = 67.91934 55.31989 245.98429
#
# Poissons Ratio (x) = -0.02036 0.38410
# Poissons Ratio (y) = -0.02500 0.45265
# Poissons Ratio (z) = 0.10605 0.10180
#
# Static dielectric constant tensor:
#      x y z
#    x 1.887040 0.000000 0.000000 
#    y 0.000000 2.161750 0.000000 
#    z 0.000000 0.000000 1.992100 
# 
# From -- ./inp_files/13850.got.cif
#   From: 2010.05.17/outbox.cif.g08.bks.cpg/sg58_7_cif.got.tgz:13850.got - 2010.06.03 14:20:14.
