data_PCOD9445509
_publ_section_title
;
Structure prediction by ZEFSAII (Michael W. Deem and Ramdas Pophale) SiO2 
 PCOD9445509
Probable space group: P N N M
;
_chemical_formula_sum "Si O2"
_cell_formula_units_Z 56
_cell_length_a 6.698085
_cell_length_b 20.023882
_cell_length_c 17.486155
_cell_angle_alpha 90.000000
_cell_angle_beta 90.000000
_cell_angle_gamma 90.000000
_cell_volume 2345.272200
_symmetry_space_group_name_H-M "P N N M"
_symmetry_group_IT_number 58
_symmetry_cell_setting 'orthorhombic'
loop_
_space_group_symop_operation_xyz
x,y,z
-x,-y,z
1/2+x,1/2-y,1/2-z
1/2-x,1/2+y,1/2-z
-x,-y,-z
x,y,-z
1/2-x,1/2+y,1/2+z
1/2+x,1/2-y,1/2+z
loop_
_atom_site_type_symbol
_atom_site_label
_atom_site_fract_x
_atom_site_fract_y
_atom_site_fract_z
Si Si1 0.131716 0.799250 0.406836
Si Si2 0.385399 0.792505 0.839890
Si Si3 0.613155 0.936019 0.357768
Si Si4 0.120921 0.220582 0.820272
Si Si5 0.126715 0.711946 0.914573
Si Si6 0.499759 0.594232 0.782121
Si Si7 0.116754 0.436036 0.301492
O O1 0.129205 0.808785 0.500000
O O2 0.378074 0.782511 0.395521
O O3 0.110966 0.862994 0.348905
O O4 0.881290 0.775856 0.397118
O O5 0.122268 0.779811 0.851728
O O6 0.382811 0.772612 0.750722
O O7 0.389198 0.871475 0.854657
O O8 0.641095 0.779586 0.853657
O O9 0.630181 0.868971 0.406193
O O10 0.495853 0.921953 0.278683
O O11 0.836431 0.948630 0.327489
O O12 0.500000 0.000000 0.392545
O O13 0.111829 0.149318 0.772477
O O14 0.126385 0.738858 0.000000
O O15 0.655061 0.558303 0.725881
O O16 0.000000 0.500000 0.333512
#
# Coordination Sequence:
#
# PCOD9445509 Si02
#       7
#     8   8   8   8   8   8   8
#     4  11  21  34  62 101 136 171 223 289 356 410
#     4  11  19  37  62  94 129 173 230 287 345 408
#     4  11  24  39  62  95 141 186 235 274 341 428
#     4  11  19  36  65  95 129 173 225 289 352 400
#     4  12  22  36  62  98 137 175 222 288 352 408
#     4  11  22  41  67  96 137 183 230 292 346 412
#     4  11  23  40  65  98 133 179 238 287 346 418
#
# _framework density 23.877824
#
# number of rings (size 3 to 8) (size 9 to 14) (size 15 to 20)
#    0.000    0.857    7.143    2.571    0.000    2.571 
#    0.000    0.000    0.000    3.000    0.000   12.000 
#    0.000    1.714    0.000    0.000    0.000    0.000 
#
# Total GULP energy -312295.234393 kJ/mol
# GULP energy per Si atom -5576.700614 kJ/mol
# Density = 2.382348 g / cm^3
# Si number density = 23.877824 Si / 1000 Ang^3
#
#
#
# Elastic Constant Matrix: (Units=GPa)
#
#
# Indices 1 2 3 4 5 6 
#
# 1 227.5248 85.3244 34.8105 0.0000 0.0000 0.0000
# 2 85.3244 174.2397 44.9575 0.0000 0.0000 0.0000
# 3 34.8105 44.9575 96.5849 0.0000 0.0000 0.0000
# 4 0.0000 0.0000 0.0000 15.0451 0.0000 0.0000
# 5 0.0000 0.0000 0.0000 0.0000 60.9867 0.0000
# 6 0.0000 0.0000 0.0000 0.0000 0.0000 58.0715
#
#
#
# Elastic Compliance Matrix: (Units=1/GPa)
#
#
# Indices 1 2 3 4 5 6 
#
# 1 0.005440 -0.002453 -0.000819 0.000000 0.000000 0.000000
# 2 -0.002453 0.007628 -0.002667 0.000000 0.000000 0.000000
# 3 -0.000819 -0.002667 0.011890 0.000000 0.000000 0.000000
# 4 0.000000 0.000000 0.000000 0.066467 0.000000 0.000000
# 5 0.000000 0.000000 0.000000 0.000000 0.016397 0.000000
# 6 0.000000 0.000000 0.000000 0.000000 0.000000 0.017220
#
#
# Mechanical properties :
#
#
# Convention : Reuss Voigt Hill
#
# Bulk Modulus (GPa) = 76.44350 92.05936 84.25143
# Shear Modulus (GPa) = 35.39055 49.03779 42.21417
#
# Velocity S-wave (km/s) = 3.85405 4.53669 4.20923
# Velocity P-wave (km/s) = 7.20339 8.12897 7.68013
#
# Compressibility (1/GPa) = 0.01308156
#
# Stress axis : x y z
#
# Youngs Moduli (GPa) = 183.81541 131.08908 84.10357
#
# Poissons Ratio (x) = 0.32153 0.06889
# Poissons Ratio (y) = 0.45085 0.22429
# Poissons Ratio (z) = 0.15056 0.34959
#
# Static dielectric constant tensor:
#      x y z
#    x 2.148640 0.000000 0.000000 
#    y 0.000000 1.957260 0.000000 
#    z 0.000000 0.000000 1.783240 
# 
# From -- ./inp_files/31076.got.cif
#   From: 2010.05.17/outbox.cif.g08.bks.cpg/sg58_16_cif.got.tgz:31076.got - 2010.06.03 14:20:14.
