data_PCOD9445007
_publ_section_title
;
Structure prediction by ZEFSAII (Michael W. Deem and Ramdas Pophale) SiO2 
 PCOD9445007
Probable space group: P N N M
;
_chemical_formula_sum "Si O2"
_cell_formula_units_Z 56
_cell_length_a 6.561077
_cell_length_b 14.113740
_cell_length_c 31.578017
_cell_angle_alpha 90.000000
_cell_angle_beta 90.000000
_cell_angle_gamma 90.000000
_cell_volume 2924.166528
_symmetry_space_group_name_H-M "P N N M"
_symmetry_group_IT_number 58
_symmetry_cell_setting 'orthorhombic'
loop_
_space_group_symop_operation_xyz
x,y,z
-x,-y,z
1/2+x,1/2-y,1/2-z
1/2-x,1/2+y,1/2-z
-x,-y,-z
x,y,-z
1/2-x,1/2+y,1/2+z
1/2+x,1/2-y,1/2+z
loop_
_atom_site_type_symbol
_atom_site_label
_atom_site_fract_x
_atom_site_fract_y
_atom_site_fract_z
Si Si1 0.507878 0.603452 0.741626
Si Si2 0.594008 0.596717 0.418991
Si Si3 0.773357 0.747514 0.106320
Si Si4 0.338567 0.228143 0.199039
Si Si5 0.976699 0.388010 0.048075
Si Si6 0.164670 0.416598 0.668330
Si Si7 0.387400 0.748651 0.952592
O O1 0.500000 0.500000 0.763785
O O2 0.606658 0.684551 0.770818
O O3 0.299091 0.650569 0.723894
O O4 0.653579 0.581122 0.701906
O O5 0.500000 0.500000 0.436794
O O6 0.403075 0.658972 0.403728
O O7 0.734646 0.577485 0.377868
O O8 0.730468 0.663478 0.448690
O O9 0.773092 0.736287 0.156686
O O10 0.885683 0.662362 0.082683
O O11 0.554317 0.756240 0.083973
O O12 0.539405 0.177778 0.180148
O O13 0.000000 0.500000 0.051488
O O14 0.749185 0.345886 0.053080
O O15 0.039001 0.360591 0.000000
O O16 0.000000 0.500000 0.672707
O O17 0.477267 0.748011 0.000000
#
# Coordination Sequence:
#
# PCOD9445007 Si02
#       7
#     8   8   8   8   8   8   8
#     4  12  25  43  63  95 124 165 217 258 320 388
#     4  11  23  38  62  92 125 161 216 260 309 374
#     4  11  22  40  62  93 124 163 206 262 312 376
#     4  12  24  41  64  90 129 164 203 268 321 373
#     4   9  20  41  65  90 124 165 211 259 307 371
#     4  12  22  39  68  91 118 164 215 260 309 381
#     4  10  22  39  62  91 126 168 211 258 318 375
#
# _framework density 19.150753999999999
#
# number of rings (size 3 to 8) (size 9 to 14) (size 15 to 20)
#    0.000    1.000    5.714    1.714    0.000    1.429 
#    2.571    3.571    0.000    0.000    0.000    0.000 
#    0.000    0.000    0.000    0.000    0.000    0.000 
#
# Total GULP energy -312621.223804 kJ/mol
# GULP energy per Si atom -5582.521854 kJ/mol
# Density = 1.910717 g / cm^3
# Si number density = 19.150754 Si / 1000 Ang^3
#
#
#
# Elastic Constant Matrix: (Units=GPa)
#
#
# Indices 1 2 3 4 5 6 
#
# 1 70.6554 33.4722 18.0884 0.0000 0.0000 0.0000
# 2 33.4722 106.1242 29.5123 0.0000 0.0000 0.0000
# 3 18.0884 29.5123 63.1999 0.0000 0.0000 0.0000
# 4 0.0000 0.0000 0.0000 13.0609 0.0000 0.0000
# 5 0.0000 0.0000 0.0000 0.0000 34.9211 0.0000
# 6 0.0000 0.0000 0.0000 0.0000 0.0000 22.8393
#
#
#
# Elastic Compliance Matrix: (Units=1/GPa)
#
#
# Indices 1 2 3 4 5 6 
#
# 1 0.017037 -0.004617 -0.002720 0.000000 0.000000 0.000000
# 2 -0.004617 0.012080 -0.004320 0.000000 0.000000 0.000000
# 3 -0.002720 -0.004320 0.018618 0.000000 0.000000 0.000000
# 4 0.000000 0.000000 0.000000 0.076564 0.000000 0.000000
# 5 0.000000 0.000000 0.000000 0.000000 0.028636 0.000000
# 6 0.000000 0.000000 0.000000 0.000000 0.000000 0.043784
#
#
# Mechanical properties :
#
#
# Convention : Reuss Voigt Hill
#
# Bulk Modulus (GPa) = 40.94665 44.68059 42.81362
# Shear Modulus (GPa) = 21.91302 24.75803 23.33553
#
# Velocity S-wave (km/s) = 3.38633 3.59945 3.49451
# Velocity P-wave (km/s) = 6.05948 6.37623 6.21987
#
# Compressibility (1/GPa) = 0.02442202
#
# Stress axis : x y z
#
# Youngs Moduli (GPa) = 58.69622 82.77832 53.71008
#
# Poissons Ratio (x) = 0.38220 0.14610
# Poissons Ratio (y) = 0.27101 0.23201
# Poissons Ratio (z) = 0.15966 0.35758
#
# Static dielectric constant tensor:
#      x y z
#    x 1.681010 0.000000 0.000000 
#    y 0.000000 1.675630 0.000000 
#    z 0.000000 0.000000 1.654760 
# 
# From -- ./inp_files/34184.got.cif
#   From: 2010.05.17/outbox.cif.g08.bks.cpg/sg58_18_cif.got.tgz:34184.got - 2010.06.03 14:20:14.
