data_PCOD9445025
_publ_section_title
;
Structure prediction by ZEFSAII (Michael W. Deem and Ramdas Pophale) SiO2 
 PCOD9445025
Probable space group: P N N M
;
_chemical_formula_sum "Si O2"
_cell_formula_units_Z 56
_cell_length_a 8.082304
_cell_length_b 22.744972
_cell_length_c 15.069747
_cell_angle_alpha 90.000000
_cell_angle_beta 90.000000
_cell_angle_gamma 90.000000
_cell_volume 2770.298388
_symmetry_space_group_name_H-M "P N N M"
_symmetry_group_IT_number 58
_symmetry_cell_setting 'orthorhombic'
loop_
_space_group_symop_operation_xyz
x,y,z
-x,-y,z
1/2+x,1/2-y,1/2-z
1/2-x,1/2+y,1/2-z
-x,-y,-z
x,y,-z
1/2-x,1/2+y,1/2+z
1/2+x,1/2-y,1/2+z
loop_
_atom_site_type_symbol
_atom_site_label
_atom_site_fract_x
_atom_site_fract_y
_atom_site_fract_z
Si Si1 0.343128 0.888389 0.777601
Si Si2 0.345762 0.112013 0.100682
Si Si3 0.190505 0.015380 0.230639
Si Si4 0.557791 0.680305 0.208984
Si Si5 0.997407 0.340929 0.902724
Si Si6 0.325828 0.728821 0.350680
Si Si7 0.653356 0.405717 0.101114
O O1 0.479658 0.874411 0.851370
O O2 0.175364 0.850389 0.782475
O O3 0.416587 0.871332 0.681267
O O4 0.297790 0.956730 0.778181
O O5 0.257895 0.063911 0.162756
O O6 0.232944 0.170260 0.101333
O O7 0.369509 0.091556 0.000000
O O8 0.195461 0.042677 0.329696
O O9 0.000000 0.000000 0.211447
O O10 0.400118 0.708215 0.256738
O O11 0.665793 0.730254 0.162702
O O12 0.501092 0.629785 0.141428
O O13 0.807070 0.360201 0.898734
O O14 0.037003 0.271733 0.893044
O O15 0.060939 0.359866 0.000000
O O16 0.626891 0.425310 0.000000
#
# Coordination Sequence:
#
# PCOD9445025 Si02
#       7
#     8   8   8   8   8   8   8
#     4  11  23  42  68  90 132 172 220 277 330 392
#     4  12  26  44  68  98 130 173 227 277 333 394
#     4  12  24  46  66  94 131 175 221 276 331 385
#     4  11  21  40  66  95 131 178 216 268 331 390
#     4  10  22  39  64  99 132 170 215 264 326 395
#     4  11  21  40  66  97 136 176 216 269 323 395
#     4  11  23  41  65 100 136 172 220 268 328 399
#
# _framework density 20.214428000000002
#
# number of rings (size 3 to 8) (size 9 to 14) (size 15 to 20)
#    0.000    0.857    4.286    3.429    0.000    5.143 
#    0.000    5.714    0.000    0.000    0.000    0.000 
#    0.000    0.000    0.000    0.000    0.000    0.000 
#
# Total GULP energy -312907.798107 kJ/mol
# GULP energy per Si atom -5587.639252 kJ/mol
# Density = 2.016842 g / cm^3
# Si number density = 20.214428 Si / 1000 Ang^3
#
#
#
# Elastic Constant Matrix: (Units=GPa)
#
#
# Indices 1 2 3 4 5 6 
#
# 1 51.6019 9.2328 1.6250 0.0000 0.0000 0.0000
# 2 9.2328 83.9362 -1.6270 0.0000 0.0000 0.0000
# 3 1.6250 -1.6270 73.2603 0.0000 0.0000 0.0000
# 4 0.0000 0.0000 0.0000 -4.5343 0.0000 0.0000
# 5 0.0000 0.0000 0.0000 0.0000 14.1697 0.0000
# 6 0.0000 0.0000 0.0000 0.0000 0.0000 38.6151
#
#
#
# Elastic Compliance Matrix: (Units=1/GPa)
#
#
# Indices 1 2 3 4 5 6 
#
# 1 0.019786 -0.002186 -0.000487 0.000000 0.000000 0.000000
# 2 -0.002186 0.012160 0.000319 0.000000 0.000000 0.000000
# 3 -0.000487 0.000319 0.013668 0.000000 0.000000 0.000000
# 4 0.000000 0.000000 0.000000 -0.220539 0.000000 0.000000
# 5 0.000000 0.000000 0.000000 0.000000 0.070573 0.000000
# 6 0.000000 0.000000 0.000000 0.000000 0.000000 0.025897
#
#
# Mechanical properties :
#
#
# Convention : Reuss Voigt Hill
#
# Bulk Modulus (GPa) = 24.44722 25.25112 24.84917
# Shear Modulus (GPa) = -83.17872 22.95458 -30.11207
#
# Velocity S-wave (km/s) = -6.42164 3.37345 -3.86376
# Velocity P-wave (km/s) = 6.54700 5.26235 2.75416
#
# Compressibility (1/GPa) = 0.04090445
#
# Stress axis : x y z
#
# Youngs Moduli (GPa) = 50.54188 82.23399 73.16442
#
# Poissons Ratio (x) = 0.17975 0.03566
# Poissons Ratio (y) = 0.11048 -0.02331
# Poissons Ratio (z) = 0.02464 -0.02620
#
# Static dielectric constant tensor:
#      x y z
#    x 1.736620 0.000000 0.000000 
#    y 0.000000 1.710400 0.000000 
#    z 0.000000 0.000000 1.715630 
# 
# From -- ./inp_files/20147.got.cif
#   From: 2010.05.17/outbox.cif.g08.bks.cpg/sg58_11_cif.got.tgz:20147.got - 2010.06.03 14:20:14.
