data_PCOD9445694
_publ_section_title
;
Structure prediction by ZEFSAII (Michael W. Deem and Ramdas Pophale) SiO2 
 PCOD9445694
Probable space group: P N N M
;
_chemical_formula_sum "Si O2"
_cell_formula_units_Z 36
_cell_length_a 5.329589
_cell_length_b 13.860317
_cell_length_c 22.969080
_cell_angle_alpha 90.000000
_cell_angle_beta 90.000000
_cell_angle_gamma 90.000000
_cell_volume 1696.721185
_symmetry_space_group_name_H-M "P N N M"
_symmetry_group_IT_number 58
_symmetry_cell_setting 'orthorhombic'
loop_
_space_group_symop_operation_xyz
x,y,z
-x,-y,z
1/2+x,1/2-y,1/2-z
1/2-x,1/2+y,1/2-z
-x,-y,-z
x,y,-z
1/2-x,1/2+y,1/2+z
1/2+x,1/2-y,1/2+z
loop_
_atom_site_type_symbol
_atom_site_label
_atom_site_fract_x
_atom_site_fract_y
_atom_site_fract_z
Si Si1 0.849256 0.147237 0.173606
Si Si2 0.660788 0.348371 0.218541
Si Si3 0.500000 0.000000 0.763919
Si Si4 0.941612 0.109418 0.397433
Si Si5 0.441455 0.227704 0.432347
O O1 0.701297 0.240006 0.198422
O O2 0.696811 0.053024 0.192788
O O3 0.090401 0.148426 0.214310
O O4 0.924197 0.177337 0.108631
O O5 0.459116 0.388609 0.173049
O O6 0.895789 0.418842 0.219805
O O7 0.181377 0.170768 0.419992
O O8 0.681110 0.159770 0.416238
O O9 0.000000 0.000000 0.416868
O O10 0.459482 0.251928 0.500000
#
# Coordination Sequence:
#
# PCOD9445694 Si02
#       5
#     8   8   4   8   8
#     4  11  23  41  68  96 143 178 229 283 348 412
#     4  11  23  40  67 103 137 175 219 284 355 423
#     4  12  24  40  69 104 137 182 226 278 360 426
#     4  11  24  40  69 100 136 176 226 284 353 419
#     4  11  26  44  66  95 136 187 236 285 334 396
#
# _framework density 21.217396000000001
#
# number of rings (size 3 to 8) (size 9 to 14) (size 15 to 20)
#    0.000    0.889    2.222    4.667   12.444    2.667 
#    0.000    0.556    0.000    2.667    0.000    0.000 
#    0.000    0.000    0.000    0.000    0.000    0.000 
#
# Total GULP energy -200938.897032 kJ/mol
# GULP energy per Si atom -5581.636029 kJ/mol
# Density = 2.116910 g / cm^3
# Si number density = 21.217396 Si / 1000 Ang^3
#
#
#
# Elastic Constant Matrix: (Units=GPa)
#
#
# Indices 1 2 3 4 5 6 
#
# 1 98.0290 16.6953 28.2095 0.0000 0.0000 0.0000
# 2 16.6953 62.5855 40.2910 0.0000 0.0000 0.0000
# 3 28.2095 40.2910 149.8451 0.0000 0.0000 0.0000
# 4 0.0000 0.0000 0.0000 10.4751 0.0000 0.0000
# 5 0.0000 0.0000 0.0000 0.0000 22.7691 0.0000
# 6 0.0000 0.0000 0.0000 0.0000 0.0000 33.2503
#
#
#
# Elastic Compliance Matrix: (Units=1/GPa)
#
#
# Indices 1 2 3 4 5 6 
#
# 1 0.010975 -0.001932 -0.001547 0.000000 0.000000 0.000000
# 2 -0.001932 0.019663 -0.004923 0.000000 0.000000 0.000000
# 3 -0.001547 -0.004923 0.008289 0.000000 0.000000 0.000000
# 4 0.000000 0.000000 0.000000 0.095464 0.000000 0.000000
# 5 0.000000 0.000000 0.000000 0.000000 0.043919 0.000000
# 6 0.000000 0.000000 0.000000 0.000000 0.000000 0.030075
#
#
# Mechanical properties :
#
#
# Convention : Reuss Voigt Hill
#
# Bulk Modulus (GPa) = 45.20249 53.42789 49.31519
# Shear Modulus (GPa) = 21.49950 28.31648 24.90799
#
# Velocity S-wave (km/s) = 3.18668 3.65716 3.43000
# Velocity P-wave (km/s) = 5.90683 6.56270 6.24338
#
# Compressibility (1/GPa) = 0.02212267
#
# Stress axis : x y z
#
# Youngs Moduli (GPa) = 91.11461 50.85670 120.64829
#
# Poissons Ratio (x) = 0.09826 0.18660
# Poissons Ratio (y) = 0.17604 0.59400
# Poissons Ratio (z) = 0.14092 0.25039
#
# Static dielectric constant tensor:
#      x y z
#    x 2.028910 0.000000 0.000000 
#    y 0.000000 1.862680 0.000000 
#    z 0.000000 0.000000 1.783540 
# 
# From -- ./inp_files/28016.got.cif
#   From: 2010.05.17/outbox.cif.g08.bks.cpg/sg58_15_cif.got.tgz:28016.got - 2010.06.03 14:20:14.
