data_PCOD9445416
_publ_section_title
;
Structure prediction by ZEFSAII (Michael W. Deem and Ramdas Pophale) SiO2 
 PCOD9445416
Probable space group: P N N M
;
_chemical_formula_sum "Si O2"
_cell_formula_units_Z 26
_cell_length_a 7.892244
_cell_length_b 9.848535
_cell_length_c 14.789071
_cell_angle_alpha 90.000000
_cell_angle_beta 90.000000
_cell_angle_gamma 90.000000
_cell_volume 1149.510732
_symmetry_space_group_name_H-M "P N N M"
_symmetry_group_IT_number 58
_symmetry_cell_setting 'orthorhombic'
loop_
_space_group_symop_operation_xyz
x,y,z
-x,-y,z
1/2+x,1/2-y,1/2-z
1/2-x,1/2+y,1/2-z
-x,-y,-z
x,y,-z
1/2-x,1/2+y,1/2+z
1/2+x,1/2-y,1/2+z
loop_
_atom_site_type_symbol
_atom_site_label
_atom_site_fract_x
_atom_site_fract_y
_atom_site_fract_z
Si Si1 0.000000 0.000000 0.000000
Si Si2 0.091882 0.792176 0.500000
Si Si3 0.719276 0.935916 0.500000
Si Si4 0.027185 0.343562 0.676104
Si Si5 0.411134 0.269114 0.361983
O O1 0.005631 0.120329 0.077931
O O2 0.086787 0.703044 0.590817
O O3 0.908256 0.868451 0.500000
O O4 0.238691 0.904984 0.500000
O O5 0.620587 0.872951 0.414628
O O6 0.989670 0.254896 0.764208
O O7 0.000000 0.500000 0.696957
O O8 0.221290 0.326318 0.648382
#
# Coordination Sequence:
#
# PCOD9445416 Si02
#       5
#     2   4   4   8   8
#     4  10  24  48  76  98 138 192 232 288 366 412
#     4   9  19  39  69  90 135 183 220 286 338 407
#     4   8  18  40  64  96 127 178 231 273 343 408
#     4  11  25  42  66 106 136 181 236 285 347 427
#     4  10  24  44  69 100 141 180 233 291 344 420
#
# _framework density 22.618319
#
# number of rings (size 3 to 8) (size 9 to 14) (size 15 to 20)
#    0.000    2.154    0.000    1.385    8.615    2.462 
#    0.000    3.077    0.000    0.000    0.000    0.000 
#    0.000    0.000    0.000    0.000    0.000    0.000 
#
# Total GULP energy -144931.241512 kJ/mol
# GULP energy per Si atom -5574.278520 kJ/mol
# Density = 2.256684 g / cm^3
# Si number density = 22.618319 Si / 1000 Ang^3
#
#
#
# Elastic Constant Matrix: (Units=GPa)
#
#
# Indices 1 2 3 4 5 6 
#
# 1 57.0295 14.1728 4.6694 0.0000 0.0000 0.0000
# 2 14.1728 128.9012 57.2790 0.0000 0.0000 0.0000
# 3 4.6694 57.2790 181.8384 0.0000 0.0000 0.0000
# 4 0.0000 0.0000 0.0000 22.0311 0.0000 0.0000
# 5 0.0000 0.0000 0.0000 0.0000 -3.7002 0.0000
# 6 0.0000 0.0000 0.0000 0.0000 0.0000 27.4225
#
#
#
# Elastic Compliance Matrix: (Units=1/GPa)
#
#
# Indices 1 2 3 4 5 6 
#
# 1 0.018033 -0.002066 0.000188 0.000000 0.000000 0.000000
# 2 -0.002066 0.009257 -0.002863 0.000000 0.000000 0.000000
# 3 0.000188 -0.002863 0.006396 0.000000 0.000000 0.000000
# 4 0.000000 0.000000 0.000000 0.045390 0.000000 0.000000
# 5 0.000000 0.000000 0.000000 0.000000 -0.270255 0.000000
# 6 0.000000 0.000000 0.000000 0.000000 0.000000 0.036466
#
#
# Mechanical properties :
#
#
# Convention : Reuss Voigt Hill
#
# Bulk Modulus (GPa) = 41.31581 57.77906 49.54744
# Shear Modulus (GPa) = -36.45363 28.59387 -3.92988
#
# Velocity S-wave (km/s) = -4.01894 3.55940 -1.31956
# Velocity P-wave (km/s) = 1.79711 6.51868 4.43078
#
# Compressibility (1/GPa) = 0.02420381
#
# Stress axis : x y z
#
# Youngs Moduli (GPa) = 55.45423 108.02331 156.33790
#
# Poissons Ratio (x) = 0.22320 -0.02936
# Poissons Ratio (y) = 0.11458 0.44759
# Poissons Ratio (z) = -0.01041 0.30927
#
# Static dielectric constant tensor:
#      x y z
#    x 1.890640 0.000000 0.000000 
#    y 0.000000 1.757820 0.000000 
#    z 0.000000 0.000000 1.821490 
# 
# From -- ./inp_files/24677.got.cif
#   From: 2010.05.17/outbox.cif.g08.bks.cpg/sg58_13_cif.got.tgz:24677.got - 2010.06.03 14:20:14.
