data_PCOD9445314
_publ_section_title
;
Structure prediction by ZEFSAII (Michael W. Deem and Ramdas Pophale) SiO2 
 PCOD9445314
Probable space group: P N N M
;
_chemical_formula_sum "Si O2"
_cell_formula_units_Z 48
_cell_length_a 18.856707
_cell_length_b 14.800052
_cell_length_c 8.650133
_cell_angle_alpha 90.000000
_cell_angle_beta 90.000000
_cell_angle_gamma 90.000000
_cell_volume 2414.081230
_symmetry_space_group_name_H-M "P N N M"
_symmetry_group_IT_number 58
_symmetry_cell_setting 'orthorhombic'
loop_
_space_group_symop_operation_xyz
x,y,z
-x,-y,z
1/2+x,1/2-y,1/2-z
1/2-x,1/2+y,1/2-z
-x,-y,-z
x,y,-z
1/2-x,1/2+y,1/2+z
1/2+x,1/2-y,1/2+z
loop_
_atom_site_type_symbol
_atom_site_label
_atom_site_fract_x
_atom_site_fract_y
_atom_site_fract_z
Si Si1 0.691424 0.590883 0.683227
Si Si2 0.914428 0.760695 0.683800
Si Si3 0.707851 0.945103 0.318707
Si Si4 0.573739 0.049130 0.814997
Si Si5 0.473334 0.399588 0.685700
Si Si6 0.261894 0.733359 0.681213
O O1 0.695754 0.572153 0.500000
O O2 0.725417 0.507469 0.773667
O O3 0.609630 0.607403 0.724749
O O4 0.736468 0.679495 0.724119
O O5 0.902900 0.767717 0.500000
O O6 0.929312 0.655549 0.721390
O O7 0.978716 0.824455 0.733885
O O8 0.842523 0.788157 0.770947
O O9 0.707833 0.925369 0.500000
O O10 0.714086 0.852219 0.225181
O O11 0.638394 0.001179 0.271247
O O12 0.500000 0.000000 0.777656
O O13 0.585795 0.040734 0.000000
O O14 0.500000 0.500000 0.726477
O O15 0.480494 0.389331 0.500000
O O16 0.257713 0.753169 0.500000
#
# Coordination Sequence:
#
# PCOD9445314 Si02
#       6
#     8   8   8   8   8   8
#     4  11  23  42  66  97 133 168 214 267 318 386
#     4  11  23  41  67  97 132 169 214 267 321 385
#     4  12  25  42  67  98 129 168 216 268 325 385
#     4  10  23  43  65  93 131 173 214 264 326 387
#     4  10  23  42  65  93 129 172 213 259 323 385
#     4  12  25  42  66  93 128 172 216 266 324 382
#
# _framework density 19.883341000000001
#
# number of rings (size 3 to 8) (size 9 to 14) (size 15 to 20)
#    0.000    1.000    1.667    5.000    2.333    4.000 
#    0.000    0.000    0.000    0.000    0.000    0.000 
#    0.000    0.000    0.000    0.000    0.000    0.000 
#
# Total GULP energy -268647.404868 kJ/mol
# GULP energy per Si atom -5596.820935 kJ/mol
# Density = 1.983809 g / cm^3
# Si number density = 19.883341 Si / 1000 Ang^3
#
#
#
# Elastic Constant Matrix: (Units=GPa)
#
#
# Indices 1 2 3 4 5 6 
#
# 1 80.4340 -6.5737 25.7397 0.0000 0.0000 0.0000
# 2 -6.5737 49.9582 -2.5218 0.0000 0.0000 0.0000
# 3 25.7397 -2.5218 41.3358 0.0000 0.0000 0.0000
# 4 0.0000 0.0000 0.0000 7.8611 0.0000 0.0000
# 5 0.0000 0.0000 0.0000 0.0000 29.5210 0.0000
# 6 0.0000 0.0000 0.0000 0.0000 0.0000 38.6642
#
#
#
# Elastic Compliance Matrix: (Units=1/GPa)
#
#
# Indices 1 2 3 4 5 6 
#
# 1 0.015649 0.001572 -0.009648 0.000000 0.000000 0.000000
# 2 0.001572 0.020237 0.000256 0.000000 0.000000 0.000000
# 3 -0.009648 0.000256 0.030216 0.000000 0.000000 0.000000
# 4 0.000000 0.000000 0.000000 0.127208 0.000000 0.000000
# 5 0.000000 0.000000 0.000000 0.000000 0.033874 0.000000
# 6 0.000000 0.000000 0.000000 0.000000 0.000000 0.025864
#
#
# Mechanical properties :
#
#
# Convention : Reuss Voigt Hill
#
# Bulk Modulus (GPa) = 19.81789 22.77959 21.29874
# Shear Modulus (GPa) = 17.51263 25.54818 21.53041
#
# Velocity S-wave (km/s) = 2.97099 3.58844 3.29422
# Velocity P-wave (km/s) = 4.66453 5.35264 5.02039
#
# Compressibility (1/GPa) = 0.05045947
#
# Stress axis : x y z
#
# Youngs Moduli (GPa) = 63.90337 49.41564 33.09534
#
# Poissons Ratio (x) = -0.07769 0.31932
# Poissons Ratio (y) = -0.10046 -0.00846
# Poissons Ratio (z) = 0.61657 -0.01263
#
# Static dielectric constant tensor:
#      x y z
#    x 1.680920 0.000000 0.000000 
#    y 0.000000 1.673500 0.000000 
#    z 0.000000 0.000000 1.665920 
# 
# From -- ./inp_files/7728.got.cif
#   From: 2010.05.17/outbox.cif.g08.bks.cpg/sg58_4_cif.got.tgz:7728.got - 2010.06.03 14:20:14.
