data_PCOD9445268
_publ_section_title
;
Structure prediction by ZEFSAII (Michael W. Deem and Ramdas Pophale) SiO2 
 PCOD9445268
Probable space group: P N N M
;
_chemical_formula_sum "Si O2"
_cell_formula_units_Z 64
_cell_length_a 11.809112
_cell_length_b 15.288332
_cell_length_c 18.770333
_cell_angle_alpha 90.000000
_cell_angle_beta 90.000000
_cell_angle_gamma 90.000000
_cell_volume 3388.826419
_symmetry_space_group_name_H-M "P N N M"
_symmetry_group_IT_number 58
_symmetry_cell_setting 'orthorhombic'
loop_
_space_group_symop_operation_xyz
x,y,z
-x,-y,z
1/2+x,1/2-y,1/2-z
1/2-x,1/2+y,1/2-z
-x,-y,-z
x,y,-z
1/2-x,1/2+y,1/2+z
1/2+x,1/2-y,1/2+z
loop_
_atom_site_type_symbol
_atom_site_label
_atom_site_fract_x
_atom_site_fract_y
_atom_site_fract_z
Si Si1 0.671710 0.247605 0.353628
Si Si2 0.990995 0.600841 0.796021
Si Si3 0.589772 0.734512 0.082066
Si Si4 0.766454 0.182310 0.919247
Si Si5 0.044379 0.404351 0.629131
Si Si6 0.258364 0.179988 0.705834
Si Si7 0.990255 0.103975 0.855323
Si Si8 0.522019 0.400913 0.808734
O O1 0.586764 0.165832 0.342574
O O2 0.775192 0.230950 0.406529
O O3 0.731067 0.266194 0.277288
O O4 0.598430 0.334454 0.371833
O O5 0.117650 0.639097 0.791553
O O6 0.000000 0.500000 0.820584
O O7 0.944005 0.600796 0.715009
O O8 0.542617 0.829761 0.104017
O O9 0.529388 0.666424 0.135114
O O10 0.560431 0.717441 0.000000
O O11 0.664136 0.115377 0.906619
O O12 0.748693 0.259177 0.862866
O O13 0.885128 0.138521 0.899948
O O14 0.764924 0.214055 0.000000
O O15 0.000000 0.500000 0.611070
O O16 0.156560 0.111072 0.700269
O O17 0.970555 0.116573 0.770083
O O18 0.000000 0.000000 0.866602
O O19 0.500000 0.500000 0.829863
#
# Coordination Sequence:
#
# PCOD9445268 Si02
#       8
#     8   8   8   8   8   8   8   8
#     4  11  22  41  64  88 127 160 205 261 304 363
#     4  11  23  39  70  97 121 158 211 265 311 358
#     4  12  25  41  60  89 130 168 201 244 311 374
#     4  12  24  39  62  87 126 171 205 246 301 373
#     4  11  24  40  62  94 125 161 205 254 313 374
#     4  11  21  42  64  91 121 162 206 258 310 360
#     4  10  23  41  65  93 120 158 210 257 307 361
#     4  10  23  40  69  93 119 154 206 266 308 353
#
# _framework density 18.885594999999999
#
# number of rings (size 3 to 8) (size 9 to 14) (size 15 to 20)
#    0.000    1.000    5.000    1.875    3.500    4.000 
#    0.000    0.000    0.000    0.750    0.000    0.000 
#    0.000    0.000    0.000    0.000    0.000    0.000 
#
# Total GULP energy -357693.439668 kJ/mol
# GULP energy per Si atom -5588.959995 kJ/mol
# Density = 1.884261 g / cm^3
# Si number density = 18.885595 Si / 1000 Ang^3
#
#
#
# Elastic Constant Matrix: (Units=GPa)
#
#
# Indices 1 2 3 4 5 6 
#
# 1 79.4594 4.2729 -8.6796 0.0000 0.0000 0.0000
# 2 4.2729 53.0012 -13.4505 0.0000 0.0000 0.0000
# 3 -8.6796 -13.4505 25.7504 0.0000 0.0000 0.0000
# 4 0.0000 0.0000 0.0000 5.1516 0.0000 0.0000
# 5 0.0000 0.0000 0.0000 0.0000 -100.0765 0.0000
# 6 0.0000 0.0000 0.0000 0.0000 0.0000 19.5310
#
#
#
# Elastic Compliance Matrix: (Units=1/GPa)
#
#
# Indices 1 2 3 4 5 6 
#
# 1 0.013066 0.000074 0.004443 0.000000 0.000000 0.000000
# 2 0.000074 0.021751 0.011387 0.000000 0.000000 0.000000
# 3 0.004443 0.011387 0.046279 0.000000 0.000000 0.000000
# 4 0.000000 0.000000 0.000000 0.194115 0.000000 0.000000
# 5 0.000000 0.000000 0.000000 0.000000 -0.009992 0.000000
# 6 0.000000 0.000000 0.000000 0.000000 0.000000 0.051201
#
#
# Mechanical properties :
#
#
# Convention : Reuss Voigt Hill
#
# Bulk Modulus (GPa) = 8.85707 13.61073 11.23390
# Shear Modulus (GPa) = 15.51601 -3.34091 6.08755
#
# Velocity S-wave (km/s) = 2.86943 -1.33149 1.79733
# Velocity P-wave (km/s) = 3.95957 2.20426 3.20445
#
# Compressibility (1/GPa) = 0.11290414
#
# Stress axis : x y z
#
# Youngs Moduli (GPa) = 76.53232 45.97455 21.60785
#
# Poissons Ratio (x) = -0.00341 -0.09600
# Poissons Ratio (y) = -0.00567 -0.24604
# Poissons Ratio (z) = -0.34003 -0.52349
#
# Static dielectric constant tensor:
#      x y z
#    x 1.666940 0.000000 0.000000 
#    y 0.000000 1.642850 0.000000 
#    z 0.000000 0.000000 1.640280 
# 
# From -- ./inp_files/26394.got.cif
#   From: 2010.05.17/outbox.cif.g08.bks.cpg/sg58_14_cif.got.tgz:26394.got - 2010.06.03 14:20:14.
