data_PCOD9445743
_publ_section_title
;
Structure prediction by ZEFSAII (Michael W. Deem and Ramdas Pophale) SiO2 
 PCOD9445743
Probable space group: P N N M
;
_chemical_formula_sum "Si O2"
_cell_formula_units_Z 20
_cell_length_a 4.883804
_cell_length_b 11.007416
_cell_length_c 13.710433
_cell_angle_alpha 90.000000
_cell_angle_beta 90.000000
_cell_angle_gamma 90.000000
_cell_volume 737.046311
_symmetry_space_group_name_H-M "P N N M"
_symmetry_group_IT_number 58
_symmetry_cell_setting 'orthorhombic'
loop_
_space_group_symop_operation_xyz
x,y,z
-x,-y,z
1/2+x,1/2-y,1/2-z
1/2-x,1/2+y,1/2-z
-x,-y,-z
x,y,-z
1/2-x,1/2+y,1/2+z
1/2+x,1/2-y,1/2+z
loop_
_atom_site_type_symbol
_atom_site_label
_atom_site_fract_x
_atom_site_fract_y
_atom_site_fract_z
Si Si1 0.865977 0.673144 0.213989
Si Si2 0.312639 0.118521 0.000000
Si Si3 0.500000 0.500000 0.664994
Si Si4 0.681309 0.621705 0.000000
O O1 0.657955 0.780284 0.249817
O O2 0.849957 0.633790 0.100593
O O3 0.236214 0.940518 0.228576
O O4 0.500000 0.000000 0.000000
O O5 0.117284 0.102120 0.092441
O O6 0.471566 0.245859 0.000000
O O7 0.500000 0.500000 0.000000
#
# Coordination Sequence:
#
# PCOD9445743 Si02
#       4
#     8   4   4   4
#     4  12  27  48  75 110 155 200 255 317 387 455
#     4  11  23  46  78 103 146 201 265 307 384 469
#     4  11  24  43  74 108 146 205 258 315 382 472
#     4  12  25  48  77 114 153 200 253 320 388 456
#
# _framework density 27.135339999999999
#
# number of rings (size 3 to 8) (size 9 to 14) (size 15 to 20)
#    0.000    0.400    6.000    2.400    0.000    3.200 
#    0.000    2.000    0.000    0.000    0.000    0.000 
#    0.000    0.000    0.000    0.000    0.000    0.000 
#
# Total GULP energy -112175.305737 kJ/mol
# GULP energy per Si atom -5608.765287 kJ/mol
# Density = 2.707358 g / cm^3
# Si number density = 27.135340 Si / 1000 Ang^3
#
#
#
# Elastic Constant Matrix: (Units=GPa)
#
#
# Indices 1 2 3 4 5 6 
#
# 1 78.2712 22.4309 39.3250 0.0000 0.0000 0.0000
# 2 22.4309 205.5751 34.1741 0.0000 0.0000 0.0000
# 3 39.3250 34.1741 269.5683 0.0000 0.0000 0.0000
# 4 0.0000 0.0000 0.0000 31.8424 0.0000 0.0000
# 5 0.0000 0.0000 0.0000 0.0000 -8.2989 0.0000
# 6 0.0000 0.0000 0.0000 0.0000 0.0000 61.2631
#
#
#
# Elastic Compliance Matrix: (Units=1/GPa)
#
#
# Indices 1 2 3 4 5 6 
#
# 1 0.014080 -0.001221 -0.001899 0.000000 0.000000 0.000000
# 2 -0.001221 0.005075 -0.000465 0.000000 0.000000 0.000000
# 3 -0.001899 -0.000465 0.004046 0.000000 0.000000 0.000000
# 4 0.000000 0.000000 0.000000 0.031405 0.000000 0.000000
# 5 0.000000 0.000000 0.000000 0.000000 -0.120498 0.000000
# 6 0.000000 0.000000 0.000000 0.000000 0.000000 0.016323
#
#
# Mechanical properties :
#
#
# Convention : Reuss Voigt Hill
#
# Bulk Modulus (GPa) = 62.38154 82.80829 72.59492
# Shear Modulus (GPa) = -134.93067 47.46028 -43.73519
#
# Velocity S-wave (km/s) = -7.05925 4.18667 -4.01901
# Velocity P-wave (km/s) = 6.58825 7.34533 2.29661
#
# Compressibility (1/GPa) = 0.01603038
#
# Stress axis : x y z
#
# Youngs Moduli (GPa) = 71.02208 197.04682 247.17635
#
# Poissons Ratio (x) = 0.24051 0.46946
# Poissons Ratio (y) = 0.08669 0.11501
# Poissons Ratio (z) = 0.13489 0.09169
#
# Static dielectric constant tensor:
#      x y z
#    x 2.031180 0.000000 0.000000 
#    y 0.000000 2.269750 0.000000 
#    z 0.000000 0.000000 2.135610 
# 
# From -- ./inp_files/23948.got.cif
#   From: 2010.05.17/outbox.cif.g08.bks.cpg/sg58_12_cif.got.tgz:23948.got - 2010.06.03 14:20:14.
