data_PCOD9445882
_publ_section_title
;
Structure prediction by ZEFSAII (Michael W. Deem and Ramdas Pophale) SiO2 
 PCOD9445882
Probable space group: P N N M
;
_chemical_formula_sum "Si O2"
_cell_formula_units_Z 32
_cell_length_a 11.535518
_cell_length_b 12.105946
_cell_length_c 10.779121
_cell_angle_alpha 90.000000
_cell_angle_beta 90.000000
_cell_angle_gamma 90.000000
_cell_volume 1505.286548
_symmetry_space_group_name_H-M "P N N M"
_symmetry_group_IT_number 58
_symmetry_cell_setting 'orthorhombic'
loop_
_space_group_symop_operation_xyz
x,y,z
-x,-y,z
1/2+x,1/2-y,1/2-z
1/2-x,1/2+y,1/2-z
-x,-y,-z
x,y,-z
1/2-x,1/2+y,1/2+z
1/2+x,1/2-y,1/2+z
loop_
_atom_site_type_symbol
_atom_site_label
_atom_site_fract_x
_atom_site_fract_y
_atom_site_fract_z
Si Si1 0.157794 0.014865 0.138757
Si Si2 0.240145 0.406526 0.862711
Si Si3 0.533887 0.262306 0.644444
Si Si4 0.603662 0.921326 0.770900
O O1 0.173541 0.927040 0.248691
O O2 0.064449 0.109908 0.165819
O O3 0.284488 0.075277 0.141917
O O4 0.141137 0.970676 0.000000
O O5 0.155822 0.303488 0.841638
O O6 0.153907 0.512832 0.849334
O O7 0.291538 0.401807 0.000000
O O8 0.499807 0.248752 0.500000
O O9 0.446308 0.196565 0.732882
O O10 0.500000 0.000000 0.819337
#
# Coordination Sequence:
#
# PCOD9445882 Si02
#       4
#     8   8   8   8
#     4   9  18  28  43  69  96 114 142 182 230 262
#     4   8  15  28  46  65  86 111 150 182 210 257
#     4   9  15  28  47  66  88 122 148 177 219 268
#     4   8  15  27  46  66  87 110 150 181 216 252
#
# _framework density 21.258412
#
# number of rings (size 3 to 8) (size 9 to 14) (size 15 to 20)
#    1.500    2.000    0.000    0.750    0.000    3.500 
#    0.000    2.500    0.000    1.500    0.000    8.750 
#    0.000    0.000    0.000    0.000    0.000    0.000 
#
# Total GULP energy -178164.457129 kJ/mol
# GULP energy per Si atom -5567.639285 kJ/mol
# Density = 2.121003 g / cm^3
# Si number density = 21.258412 Si / 1000 Ang^3
#
#
#
# Elastic Constant Matrix: (Units=GPa)
#
#
# Indices 1 2 3 4 5 6 
#
# 1 100.1486 22.1470 35.5019 0.0000 0.0000 0.0000
# 2 22.1470 105.1712 39.3074 0.0000 0.0000 0.0000
# 3 35.5019 39.3074 104.3119 0.0000 0.0000 0.0000
# 4 0.0000 0.0000 0.0000 8.5030 0.0000 0.0000
# 5 0.0000 0.0000 0.0000 0.0000 13.8467 0.0000
# 6 0.0000 0.0000 0.0000 0.0000 0.0000 34.7370
#
#
#
# Elastic Compliance Matrix: (Units=1/GPa)
#
#
# Indices 1 2 3 4 5 6 
#
# 1 0.011466 -0.001113 -0.003483 0.000000 0.000000 0.000000
# 2 -0.001113 0.011175 -0.003832 0.000000 0.000000 0.000000
# 3 -0.003483 -0.003832 0.012216 0.000000 0.000000 0.000000
# 4 0.000000 0.000000 0.000000 0.117606 0.000000 0.000000
# 5 0.000000 0.000000 0.000000 0.000000 0.072220 0.000000
# 6 0.000000 0.000000 0.000000 0.000000 0.000000 0.028788
#
#
# Mechanical properties :
#
#
# Convention : Reuss Voigt Hill
#
# Bulk Modulus (GPa) = 55.55278 55.94939 55.75109
# Shear Modulus (GPa) = 18.09453 25.59569 21.84511
#
# Velocity S-wave (km/s) = 2.92065 3.47367 3.20910
# Velocity P-wave (km/s) = 6.12882 6.51647 6.32562
#
# Compressibility (1/GPa) = 0.01800090
#
# Stress axis : x y z
#
# Youngs Moduli (GPa) = 87.21474 89.48604 81.85867
#
# Poissons Ratio (x) = 0.09957 0.28512
# Poissons Ratio (y) = 0.09705 0.31371
# Poissons Ratio (z) = 0.30377 0.34294
#
# Static dielectric constant tensor:
#      x y z
#    x 1.824610 0.000000 0.000000 
#    y 0.000000 1.784580 0.000000 
#    z 0.000000 0.000000 1.706100 
# 
# From -- ./inp_files/3509.got.cif
#   From: 2010.05.17/outbox.cif.g08.bks.cpg/sg58_2_cif.got.tgz:3509.got - 2010.06.03 14:20:14.
