data_PCOD9445806
_publ_section_title
;
Structure prediction by ZEFSAII (Michael W. Deem and Ramdas Pophale) SiO2 
 PCOD9445806
Probable space group: P N N M
;
_chemical_formula_sum "Si O2"
_cell_formula_units_Z 24
_cell_length_a 4.818524
_cell_length_b 8.072761
_cell_length_c 26.131441
_cell_angle_alpha 90.000000
_cell_angle_beta 90.000000
_cell_angle_gamma 90.000000
_cell_volume 1016.481504
_symmetry_space_group_name_H-M "P N N M"
_symmetry_group_IT_number 58
_symmetry_cell_setting 'orthorhombic'
loop_
_space_group_symop_operation_xyz
x,y,z
-x,-y,z
1/2+x,1/2-y,1/2-z
1/2-x,1/2+y,1/2-z
-x,-y,-z
x,y,-z
1/2-x,1/2+y,1/2+z
1/2+x,1/2-y,1/2+z
loop_
_atom_site_type_symbol
_atom_site_label
_atom_site_fract_x
_atom_site_fract_y
_atom_site_fract_z
Si Si1 0.629844 0.181010 0.383729
Si Si2 0.902741 0.311739 0.719924
Si Si3 0.876924 0.684423 0.441580
O O1 0.762403 0.244397 0.331263
O O2 0.380089 0.294978 0.403737
O O3 0.877143 0.192973 0.424855
O O4 0.500000 0.000000 0.378208
O O5 0.669663 0.294916 0.763787
O O6 0.000000 0.500000 0.714040
O O7 0.787348 0.714017 0.500000
O O8 0.000000 0.500000 0.437972
#
# Coordination Sequence:
#
# PCOD9445806 Si02
#       3
#     8   8   8
#     4  12  26  46  72 105 145 187 237 295 356 422
#     4  12  27  49  74 104 143 186 236 292 355 425
#     4  11  25  46  72 104 144 191 241 293 353 421
#
# _framework density 23.610859999999999
#
# number of rings (size 3 to 8) (size 9 to 14) (size 15 to 20)
#    0.000    0.333    0.000    8.000    0.000   12.000 
#    0.000    1.667    0.000    0.000    0.000    0.000 
#    0.000    0.000    0.000    0.000    0.000    0.000 
#
# Total GULP energy -134754.017175 kJ/mol
# GULP energy per Si atom -5614.750716 kJ/mol
# Density = 2.355712 g / cm^3
# Si number density = 23.610860 Si / 1000 Ang^3
#
#
#
# Elastic Constant Matrix: (Units=GPa)
#
#
# Indices 1 2 3 4 5 6 
#
# 1 133.0342 51.9204 38.4625 0.0000 0.0000 0.0000
# 2 51.9204 147.8132 72.5407 0.0000 0.0000 0.0000
# 3 38.4625 72.5407 109.2414 0.0000 0.0000 0.0000
# 4 0.0000 0.0000 0.0000 22.0631 0.0000 0.0000
# 5 0.0000 0.0000 0.0000 0.0000 90.9246 0.0000
# 6 0.0000 0.0000 0.0000 0.0000 0.0000 51.3335
#
#
#
# Elastic Compliance Matrix: (Units=1/GPa)
#
#
# Indices 1 2 3 4 5 6 
#
# 1 0.008888 -0.002353 -0.001567 0.000000 0.000000 0.000000
# 2 -0.002353 0.010659 -0.006249 0.000000 0.000000 0.000000
# 3 -0.001567 -0.006249 0.013856 0.000000 0.000000 0.000000
# 4 0.000000 0.000000 0.000000 0.045324 0.000000 0.000000
# 5 0.000000 0.000000 0.000000 0.000000 0.010998 0.000000
# 6 0.000000 0.000000 0.000000 0.000000 0.000000 0.019480
#
#
# Mechanical properties :
#
#
# Convention : Reuss Voigt Hill
#
# Bulk Modulus (GPa) = 76.54696 79.54846 78.04771
# Shear Modulus (GPa) = 37.34160 48.00859 42.67509
#
# Velocity S-wave (km/s) = 3.98118 4.51413 4.25601
# Velocity P-wave (km/s) = 7.32282 7.80605 7.56829
#
# Compressibility (1/GPa) = 0.01306388
#
# Stress axis : x y z
#
# Youngs Moduli (GPa) = 112.50825 93.81954 72.17324
#
# Poissons Ratio (x) = 0.22077 0.11309
# Poissons Ratio (y) = 0.26474 0.45104
# Poissons Ratio (z) = 0.17629 0.58631
#
# Static dielectric constant tensor:
#      x y z
#    x 1.868660 0.000000 0.000000 
#    y 0.000000 1.870750 0.000000 
#    z 0.000000 0.000000 1.888950 
# 
# From -- ./inp_files/30681.got.cif
#   From: 2010.05.17/outbox.cif.g08.bks.cpg/sg58_16_cif.got.tgz:30681.got - 2010.06.03 14:20:14.
