data_PCOD9445637
_publ_section_title
;
Structure prediction by ZEFSAII (Michael W. Deem and Ramdas Pophale) SiO2 
 PCOD9445637
Probable space group: P N N M
;
_chemical_formula_sum "Si O2"
_cell_formula_units_Z 40
_cell_length_a 14.650579
_cell_length_b 13.988644
_cell_length_c 7.654914
_cell_angle_alpha 90.000000
_cell_angle_beta 90.000000
_cell_angle_gamma 90.000000
_cell_volume 1568.811349
_symmetry_space_group_name_H-M "P N N M"
_symmetry_group_IT_number 58
_symmetry_cell_setting 'orthorhombic'
loop_
_space_group_symop_operation_xyz
x,y,z
-x,-y,z
1/2+x,1/2-y,1/2-z
1/2-x,1/2+y,1/2-z
-x,-y,-z
x,y,-z
1/2-x,1/2+y,1/2+z
1/2+x,1/2-y,1/2+z
loop_
_atom_site_type_symbol
_atom_site_label
_atom_site_fract_x
_atom_site_fract_y
_atom_site_fract_z
Si Si1 0.946358 0.407931 0.288146
Si Si2 0.110138 0.097103 0.700997
Si Si3 0.277629 0.980421 0.798763
Si Si4 0.561728 0.700218 0.214458
Si Si5 0.769422 0.724856 0.800528
O O1 0.953939 0.405555 0.500000
O O2 0.841402 0.431129 0.243455
O O3 0.976386 0.303958 0.230088
O O4 0.000000 0.500000 0.224512
O O5 0.099749 0.068669 0.500000
O O6 0.174369 0.016332 0.781727
O O7 0.166686 0.197433 0.709553
O O8 0.009938 0.120687 0.774601
O O9 0.304678 0.883932 0.701231
O O10 0.298313 0.960125 0.000000
O O11 0.666922 0.706127 0.271558
O O12 0.563265 0.694046 0.000000
O O13 0.760175 0.759963 0.000000
#
# Coordination Sequence:
#
# PCOD9445637 Si02
#       5
#     8   8   8   8   8
#     4   9  16  31  58  86 110 146 200 246 286 349
#     4  11  22  39  63  90 120 157 204 250 301 362
#     4  11  22  38  61  88 122 160 201 250 302 354
#     4   9  19  36  59  85 116 161 203 239 294 372
#     4  11  22  40  62  87 122 161 204 250 301 359
#
# _framework density 25.497011000000001
#
# number of rings (size 3 to 8) (size 9 to 14) (size 15 to 20)
#    0.000    1.800    2.000    3.000    0.000    4.000 
#    0.000    8.000    0.000    2.400    0.000    0.000 
#    0.000    0.000    0.000    0.000    0.000    0.000 
#
# Total GULP energy -223632.992748 kJ/mol
# GULP energy per Si atom -5590.824819 kJ/mol
# Density = 2.543898 g / cm^3
# Si number density = 25.497011 Si / 1000 Ang^3
#
#
#
# Elastic Constant Matrix: (Units=GPa)
#
#
# Indices 1 2 3 4 5 6 
#
# 1 97.9448 -0.2827 -1.1806 0.0000 0.0000 0.0000
# 2 -0.2827 87.5280 -5.0544 0.0000 0.0000 0.0000
# 3 -1.1806 -5.0544 50.6680 0.0000 0.0000 0.0000
# 4 0.0000 0.0000 0.0000 32.4494 0.0000 0.0000
# 5 0.0000 0.0000 0.0000 0.0000 1.9855 0.0000
# 6 0.0000 0.0000 0.0000 0.0000 0.0000 46.0785
#
#
#
# Elastic Compliance Matrix: (Units=1/GPa)
#
#
# Indices 1 2 3 4 5 6 
#
# 1 0.010213 0.000047 0.000243 0.000000 0.000000 0.000000
# 2 0.000047 0.011491 0.001147 0.000000 0.000000 0.000000
# 3 0.000243 0.001147 0.019856 0.000000 0.000000 0.000000
# 4 0.000000 0.000000 0.000000 0.030817 0.000000 0.000000
# 5 0.000000 0.000000 0.000000 0.000000 0.503660 0.000000
# 6 0.000000 0.000000 0.000000 0.000000 0.000000 0.021702
#
#
# Mechanical properties :
#
#
# Convention : Reuss Voigt Hill
#
# Bulk Modulus (GPa) = 22.50489 24.78950 23.64719
# Shear Modulus (GPa) = 8.20106 32.27991 20.24048
#
# Velocity S-wave (km/s) = 1.79540 3.56199 2.82057
# Velocity P-wave (km/s) = 3.62541 5.16339 4.46118
#
# Compressibility (1/GPa) = 0.04443478
#
# Stress axis : x y z
#
# Youngs Moduli (GPa) = 97.91544 87.02217 50.36152
#
# Poissons Ratio (x) = -0.00409 -0.01222
# Poissons Ratio (y) = -0.00460 -0.05779
# Poissons Ratio (z) = -0.02376 -0.09985
#
# Static dielectric constant tensor:
#      x y z
#    x 2.080920 0.000000 0.000000 
#    y 0.000000 1.977820 0.000000 
#    z 0.000000 0.000000 1.929660 
# 
# From -- ./inp_files/5362.got.cif
#   From: 2010.05.17/outbox.cif.g08.bks.cpg/sg58_3_cif.got.tgz:5362.got - 2010.06.03 14:20:14.
