data_PCOD9445163
_publ_section_title
;
Structure prediction by ZEFSAII (Michael W. Deem and Ramdas Pophale) SiO2 
 PCOD9445163
Probable space group: P N N M
;
_chemical_formula_sum "Si O2"
_cell_formula_units_Z 40
_cell_length_a 15.220502
_cell_length_b 13.660649
_cell_length_c 9.886473
_cell_angle_alpha 90.000000
_cell_angle_beta 90.000000
_cell_angle_gamma 90.000000
_cell_volume 2055.614601
_symmetry_space_group_name_H-M "P N N M"
_symmetry_group_IT_number 58
_symmetry_cell_setting 'orthorhombic'
loop_
_space_group_symop_operation_xyz
x,y,z
-x,-y,z
1/2+x,1/2-y,1/2-z
1/2-x,1/2+y,1/2-z
-x,-y,-z
x,y,-z
1/2-x,1/2+y,1/2+z
1/2+x,1/2-y,1/2+z
loop_
_atom_site_type_symbol
_atom_site_label
_atom_site_fract_x
_atom_site_fract_y
_atom_site_fract_z
Si Si1 0.763482 0.593941 0.000000
Si Si2 0.097821 0.773959 0.500000
Si Si3 0.995310 0.119284 0.000000
Si Si4 0.549649 0.299341 0.788195
Si Si5 0.814965 0.882303 0.500000
Si Si6 0.660540 0.108352 0.209393
Si Si7 0.295462 0.303361 0.500000
Si Si8 0.097934 0.541305 0.500000
O O1 0.694143 0.681851 0.000000
O O2 0.820184 0.596468 0.865405
O O3 0.709568 0.494053 0.000000
O O4 0.102185 0.656973 0.500000
O O5 0.041500 0.808438 0.630203
O O6 0.039829 0.162015 0.863779
O O7 0.000000 0.000000 0.000000
O O8 0.895237 0.160806 0.000000
O O9 0.581383 0.186594 0.802719
O O10 0.624673 0.357102 0.870606
O O11 0.729180 0.811918 0.500000
O O12 0.743799 0.154163 0.130293
O O13 0.641167 0.007888 0.132042
O O14 0.000000 0.500000 0.500000
#
# Coordination Sequence:
#
# PCOD9445163 Si02
#       8
#     4   4   4   8   4   8   4   4
#     4  12  25  37  61 102 127 167 215 278 327 390
#     4  11  23  41  71  94 126 177 228 261 331 417
#     4  12  26  37  65 102 138 166 220 283 341 388
#     4  10  22  42  63  91 129 173 211 279 319 395
#     4   9  23  43  65  81 132 178 214 254 335 395
#     4  10  22  42  65  89 132 164 222 272 320 393
#     4   9  21  45  60  85 126 179 206 260 333 395
#     4  11  20  44  72  94 120 181 226 264 332 392
#
# _framework density 19.458901000000001
#
# number of rings (size 3 to 8) (size 9 to 14) (size 15 to 20)
#    0.000    1.600    2.000    3.000    5.600    5.600 
#    3.600    0.500    0.000    0.000    0.000    0.000 
#    0.000    0.000    0.000    0.000    0.000    0.000 
#
# Total GULP energy -223453.662800 kJ/mol
# GULP energy per Si atom -5586.341570 kJ/mol
# Density = 1.941461 g / cm^3
# Si number density = 19.458901 Si / 1000 Ang^3
#
#
#
# Elastic Constant Matrix: (Units=GPa)
#
#
# Indices 1 2 3 4 5 6 
#
# 1 65.3605 8.6583 24.5265 0.0000 0.0000 0.0000
# 2 8.6583 84.7364 11.4986 0.0000 0.0000 0.0000
# 3 24.5265 11.4986 157.1785 0.0000 0.0000 0.0000
# 4 0.0000 0.0000 0.0000 9.4216 0.0000 0.0000
# 5 0.0000 0.0000 0.0000 0.0000 5.4839 0.0000
# 6 0.0000 0.0000 0.0000 0.0000 0.0000 21.7020
#
#
#
# Elastic Compliance Matrix: (Units=1/GPa)
#
#
# Indices 1 2 3 4 5 6 
#
# 1 0.016401 -0.001342 -0.002461 0.000000 0.000000 0.000000
# 2 -0.001342 0.012029 -0.000671 0.000000 0.000000 0.000000
# 3 -0.002461 -0.000671 0.006795 0.000000 0.000000 0.000000
# 4 0.000000 0.000000 0.000000 0.106139 0.000000 0.000000
# 5 0.000000 0.000000 0.000000 0.000000 0.182351 0.000000
# 6 0.000000 0.000000 0.000000 0.000000 0.000000 0.046079
#
#
# Mechanical properties :
#
#
# Convention : Reuss Voigt Hill
#
# Bulk Modulus (GPa) = 38.05387 44.07136 41.06262
# Shear Modulus (GPa) = 12.90319 24.82764 18.86542
#
# Velocity S-wave (km/s) = 2.57787 3.57585 3.11706
# Velocity P-wave (km/s) = 5.33470 6.30449 5.83976
#
# Compressibility (1/GPa) = 0.02627853
#
# Stress axis : x y z
#
# Youngs Moduli (GPa) = 60.97174 83.12949 147.16082
#
# Poissons Ratio (x) = 0.11155 0.36218
# Poissons Ratio (y) = 0.08182 0.09869
# Poissons Ratio (z) = 0.15006 0.05575
#
# Static dielectric constant tensor:
#      x y z
#    x 1.678740 0.000000 0.000000 
#    y 0.000000 1.667870 0.000000 
#    z 0.000000 0.000000 1.703470 
# 
# From -- ./inp_files/5458.got.cif
#   From: 2010.05.17/outbox.cif.g08.bks.cpg/sg58_3_cif.got.tgz:5458.got - 2010.06.03 14:20:14.
