data_PCOD9445519
_publ_section_title
;
Structure prediction by ZEFSAII (Michael W. Deem and Ramdas Pophale) SiO2 
 PCOD9445519
Probable space group: P N N M
;
_chemical_formula_sum "Si O2"
_cell_formula_units_Z 56
_cell_length_a 20.375858
_cell_length_b 10.780901
_cell_length_c 14.034520
_cell_angle_alpha 90.000000
_cell_angle_beta 90.000000
_cell_angle_gamma 90.000000
_cell_volume 3082.964523
_symmetry_space_group_name_H-M "P N N M"
_symmetry_group_IT_number 58
_symmetry_cell_setting 'orthorhombic'
loop_
_space_group_symop_operation_xyz
x,y,z
-x,-y,z
1/2+x,1/2-y,1/2-z
1/2-x,1/2+y,1/2-z
-x,-y,-z
x,y,-z
1/2-x,1/2+y,1/2+z
1/2+x,1/2-y,1/2+z
loop_
_atom_site_type_symbol
_atom_site_label
_atom_site_fract_x
_atom_site_fract_y
_atom_site_fract_z
Si Si1 0.687001 0.313626 0.607765
Si Si2 0.978490 0.855243 0.608077
Si Si3 0.877073 0.972168 0.261577
Si Si4 0.053483 0.346665 0.893014
Si Si5 0.136201 0.586897 0.114930
Si Si6 0.059869 0.779608 0.228483
Si Si7 0.264526 0.423001 0.113758
O O1 0.701725 0.356075 0.500000
O O2 0.671389 0.419297 0.682294
O O3 0.619686 0.234420 0.603498
O O4 0.741003 0.214750 0.640778
O O5 0.964337 0.813928 0.500000
O O6 0.035677 0.777852 0.661212
O O7 0.916993 0.866509 0.680715
O O8 0.000000 0.000000 0.602106
O O9 0.924994 0.074381 0.214667
O O10 0.831982 0.041846 0.337733
O O11 0.079490 0.483329 0.866390
O O12 0.001256 0.276713 0.829023
O O13 0.026426 0.353346 0.000000
O O14 0.120055 0.700752 0.184955
O O15 0.205733 0.520202 0.135580
O O16 0.135125 0.615156 0.000000
O O17 0.271213 0.423813 0.000000
#
# Coordination Sequence:
#
# PCOD9445519 Si02
#       7
#     8   8   8   8   8   8   8
#     4   9  19  35  54  80 109 138 172 219 277 325
#     4   9  19  35  51  75 107 137 179 222 257 309
#     4  11  21  33  57  79 107 143 177 221 275 317
#     4   9  17  33  55  79 111 144 172 211 263 323
#     4   9  19  35  56  82 109 141 183 222 260 320
#     4  11  20  30  52  88 107 137 177 218 273 316
#     4   9  20  38  58  76 100 142 191 224 255 314
#
# _framework density 18.164335000000001
#
# number of rings (size 3 to 8) (size 9 to 14) (size 15 to 20)
#    0.000    2.429    1.429    3.000    2.000    2.857 
#    0.000    1.429    0.000    1.714    0.000    0.000 
#    0.000    0.000    0.000    0.000    0.000    0.000 
#
# Total GULP energy -311848.503199 kJ/mol
# GULP energy per Si atom -5568.723271 kJ/mol
# Density = 1.812299 g / cm^3
# Si number density = 18.164335 Si / 1000 Ang^3
#
#
#
# Elastic Constant Matrix: (Units=GPa)
#
#
# Indices 1 2 3 4 5 6 
#
# 1 50.2512 11.4618 13.8194 0.0000 0.0000 0.0000
# 2 11.4618 51.2544 35.4559 0.0000 0.0000 0.0000
# 3 13.8194 35.4559 66.4846 0.0000 0.0000 0.0000
# 4 0.0000 0.0000 0.0000 14.9426 0.0000 0.0000
# 5 0.0000 0.0000 0.0000 0.0000 29.7225 0.0000
# 6 0.0000 0.0000 0.0000 0.0000 0.0000 25.4609
#
#
#
# Elastic Compliance Matrix: (Units=1/GPa)
#
#
# Indices 1 2 3 4 5 6 
#
# 1 0.021340 -0.002700 -0.002996 0.000000 0.000000 0.000000
# 2 -0.002700 0.031257 -0.016108 0.000000 0.000000 0.000000
# 3 -0.002996 -0.016108 0.024254 0.000000 0.000000 0.000000
# 4 0.000000 0.000000 0.000000 0.066923 0.000000 0.000000
# 5 0.000000 0.000000 0.000000 0.000000 0.033645 0.000000
# 6 0.000000 0.000000 0.000000 0.000000 0.000000 0.039276
#
#
# Mechanical properties :
#
#
# Convention : Reuss Voigt Hill
#
# Bulk Modulus (GPa) = 30.08091 32.16270 31.12180
# Shear Modulus (GPa) = 18.42414 21.17541 19.79977
#
# Velocity S-wave (km/s) = 3.18827 3.41804 3.30515
# Velocity P-wave (km/s) = 5.49088 5.77254 5.63347
#
# Compressibility (1/GPa) = 0.03324368
#
# Stress axis : x y z
#
# Youngs Moduli (GPa) = 46.86103 31.99257 41.22993
#
# Poissons Ratio (x) = 0.08637 0.12352
# Poissons Ratio (y) = 0.12651 0.66414
# Poissons Ratio (z) = 0.14039 0.51534
#
# Static dielectric constant tensor:
#      x y z
#    x 1.658490 0.000000 0.000000 
#    y 0.000000 1.644050 0.000000 
#    z 0.000000 0.000000 1.632430 
# 
# From -- ./inp_files/17473.got.cif
#   From: 2010.05.17/outbox.cif.g08.bks.cpg/sg58_9_cif.got.tgz:17473.got - 2010.06.03 14:20:14.
