data_PCOD9445091
_publ_section_title
;
Structure prediction by ZEFSAII (Michael W. Deem and Ramdas Pophale) SiO2 
 PCOD9445091
Probable space group: P N N M
;
_chemical_formula_sum "Si O2"
_cell_formula_units_Z 48
_cell_length_a 7.726611
_cell_length_b 9.333695
_cell_length_c 28.080241
_cell_angle_alpha 90.000000
_cell_angle_beta 90.000000
_cell_angle_gamma 90.000000
_cell_volume 2025.086060
_symmetry_space_group_name_H-M "P N N M"
_symmetry_group_IT_number 58
_symmetry_cell_setting 'orthorhombic'
loop_
_space_group_symop_operation_xyz
x,y,z
-x,-y,z
1/2+x,1/2-y,1/2-z
1/2-x,1/2+y,1/2-z
-x,-y,-z
x,y,-z
1/2-x,1/2+y,1/2+z
1/2+x,1/2-y,1/2+z
loop_
_atom_site_type_symbol
_atom_site_label
_atom_site_fract_x
_atom_site_fract_y
_atom_site_fract_z
Si Si1 0.546413 0.344633 0.056926
Si Si2 0.870632 0.885830 0.144262
Si Si3 0.601165 0.869532 0.603657
Si Si4 0.618269 0.725797 0.217199
Si Si5 0.819480 0.416790 0.446396
Si Si6 0.250461 0.584435 0.795921
O O1 0.500000 0.500000 0.076467
O O2 0.736492 0.306473 0.075051
O O3 0.386970 0.241200 0.067485
O O4 0.556633 0.348868 0.000000
O O5 0.725755 0.820658 0.179153
O O6 0.790548 0.966588 0.098323
O O7 0.976383 0.755086 0.121412
O O8 0.000000 0.000000 0.168844
O O9 0.681414 0.937396 0.651357
O O10 0.500000 0.000000 0.578035
O O11 0.710688 0.572255 0.224937
O O12 0.426160 0.679142 0.201847
O O13 0.619357 0.822067 0.264505
O O14 0.741780 0.418965 0.500000
O O15 0.000000 0.500000 0.449288
#
# Coordination Sequence:
#
# PCOD9445091 Si02
#       6
#     8   8   8   8   8   8
#     4  10  22  40  66  96 129 173 222 267 323 394
#     4  12  26  42  65 102 136 171 222 276 329 394
#     4  12  24  41  66  95 137 173 217 275 332 391
#     4  11  26  46  72  98 133 173 223 274 334 397
#     4  10  22  44  68  93 130 177 225 271 328 395
#     4  11  26  46  71  98 131 177 219 275 333 398
#
# _framework density 23.702694999999999
#
# number of rings (size 3 to 8) (size 9 to 14) (size 15 to 20)
#    0.000    1.000    1.667    4.000    7.000    1.333 
#    0.000    0.000    0.000    0.000    0.000    0.000 
#    0.000    0.000    0.000    0.000    0.000    0.000 
#
# Total GULP energy -268643.134924 kJ/mol
# GULP energy per Si atom -5596.731978 kJ/mol
# Density = 2.364875 g / cm^3
# Si number density = 23.702695 Si / 1000 Ang^3
#
#
#
# Elastic Constant Matrix: (Units=GPa)
#
#
# Indices 1 2 3 4 5 6 
#
# 1 89.8996 12.6042 23.9650 0.0000 0.0000 0.0000
# 2 12.6042 82.2099 6.7710 0.0000 0.0000 0.0000
# 3 23.9650 6.7710 60.3163 0.0000 0.0000 0.0000
# 4 0.0000 0.0000 0.0000 23.5903 0.0000 0.0000
# 5 0.0000 0.0000 0.0000 0.0000 17.9907 0.0000
# 6 0.0000 0.0000 0.0000 0.0000 0.0000 38.7104
#
#
#
# Elastic Compliance Matrix: (Units=1/GPa)
#
#
# Indices 1 2 3 4 5 6 
#
# 1 0.012631 -0.001537 -0.004846 0.000000 0.000000 0.000000
# 2 -0.001537 0.012465 -0.000788 0.000000 0.000000 0.000000
# 3 -0.004846 -0.000788 0.018593 0.000000 0.000000 0.000000
# 4 0.000000 0.000000 0.000000 0.042390 0.000000 0.000000
# 5 0.000000 0.000000 0.000000 0.000000 0.055584 0.000000
# 6 0.000000 0.000000 0.000000 0.000000 0.000000 0.025833
#
#
# Mechanical properties :
#
#
# Convention : Reuss Voigt Hill
#
# Bulk Modulus (GPa) = 34.07719 35.45626 34.76673
# Shear Modulus (GPa) = 26.09311 28.66398 27.37854
#
# Velocity S-wave (km/s) = 3.32151 3.48129 3.40234
# Velocity P-wave (km/s) = 5.39611 5.58125 5.48946
#
# Compressibility (1/GPa) = 0.02934515
#
# Stress axis : x y z
#
# Youngs Moduli (GPa) = 79.17101 80.22699 53.78316
#
# Poissons Ratio (x) = 0.12334 0.26063
# Poissons Ratio (y) = 0.12172 0.04240
# Poissons Ratio (z) = 0.38366 0.06325
#
# Static dielectric constant tensor:
#      x y z
#    x 1.988400 0.000000 0.000000 
#    y 0.000000 2.242200 0.000000 
#    z 0.000000 0.000000 1.885240 
# 
# From -- ./inp_files/34609.got.cif
#   From: 2010.05.17/outbox.cif.g08.bks.cpg/sg58_18_cif.got.tgz:34609.got - 2010.06.03 14:20:14.
