data_PCOD9445794
_publ_section_title
;
Structure prediction by ZEFSAII (Michael W. Deem and Ramdas Pophale) SiO2 
 PCOD9445794
Probable space group: P N N M
;
_chemical_formula_sum "Si O2"
_cell_formula_units_Z 32
_cell_length_a 10.044121
_cell_length_b 10.016722
_cell_length_c 15.379765
_cell_angle_alpha 90.000000
_cell_angle_beta 90.000000
_cell_angle_gamma 90.000000
_cell_volume 1547.345357
_symmetry_space_group_name_H-M "P N N M"
_symmetry_group_IT_number 58
_symmetry_cell_setting 'orthorhombic'
loop_
_space_group_symop_operation_xyz
x,y,z
-x,-y,z
1/2+x,1/2-y,1/2-z
1/2-x,1/2+y,1/2-z
-x,-y,-z
x,y,-z
1/2-x,1/2+y,1/2+z
1/2+x,1/2-y,1/2+z
loop_
_atom_site_type_symbol
_atom_site_label
_atom_site_fract_x
_atom_site_fract_y
_atom_site_fract_z
Si Si1 0.187760 0.914669 0.000000
Si Si2 0.148772 0.443123 0.138104
Si Si3 0.099846 0.117584 0.399976
Si Si4 0.619379 0.104846 0.835350
Si Si5 0.093132 0.220265 0.000000
O O1 0.274347 0.899326 0.912880
O O2 0.066441 0.807912 0.000000
O O3 0.144169 0.069174 0.000000
O O4 0.254279 0.552339 0.105754
O O5 0.176803 0.420884 0.239851
O O6 0.000000 0.500000 0.129866
O O7 0.145554 0.307307 0.081808
O O8 0.074669 0.158549 0.500000
O O9 0.071481 0.242575 0.339056
O O10 0.000000 0.000000 0.377678
O O11 0.500000 0.000000 0.850822
#
# Coordination Sequence:
#
# PCOD9445794 Si02
#       5
#     4   8   8   8   4
#     4  11  25  44  70  98 142 180 228 278 351 412
#     4  11  25  44  71  98 139 178 232 285 344 402
#     4  11  25  42  69 100 132 179 230 281 338 410
#     4  11  26  44  69 100 141 181 223 285 347 408
#     4  11  25  44  70 101 134 185 230 286 334 413
#
# _framework density 20.680579000000002
#
# number of rings (size 3 to 8) (size 9 to 14) (size 15 to 20)
#    0.000    1.000    2.500    2.250    7.000    4.000 
#    0.000    0.000    0.000    0.000    0.000    0.000 
#    0.000    0.000    0.000    0.000    0.000    0.000 
#
# Total GULP energy -178835.027980 kJ/mol
# GULP energy per Si atom -5588.594624 kJ/mol
# Density = 2.063351 g / cm^3
# Si number density = 20.680579 Si / 1000 Ang^3
#
#
#
# Elastic Constant Matrix: (Units=GPa)
#
#
# Indices 1 2 3 4 5 6 
#
# 1 67.0899 18.4038 14.8796 0.0000 0.0000 0.0000
# 2 18.4038 110.1740 21.9463 0.0000 0.0000 0.0000
# 3 14.8796 21.9463 79.7298 0.0000 0.0000 0.0000
# 4 0.0000 0.0000 0.0000 25.8786 0.0000 0.0000
# 5 0.0000 0.0000 0.0000 0.0000 5.1837 0.0000
# 6 0.0000 0.0000 0.0000 0.0000 0.0000 31.8083
#
#
#
# Elastic Compliance Matrix: (Units=1/GPa)
#
#
# Indices 1 2 3 4 5 6 
#
# 1 0.016039 -0.002204 -0.002387 0.000000 0.000000 0.000000
# 2 -0.002204 0.009906 -0.002315 0.000000 0.000000 0.000000
# 3 -0.002387 -0.002315 0.013625 0.000000 0.000000 0.000000
# 4 0.000000 0.000000 0.000000 0.038642 0.000000 0.000000
# 5 0.000000 0.000000 0.000000 0.000000 0.192911 0.000000
# 6 0.000000 0.000000 0.000000 0.000000 0.000000 0.031438
#
#
# Mechanical properties :
#
#
# Convention : Reuss Voigt Hill
#
# Bulk Modulus (GPa) = 38.82224 40.82812 39.82518
# Shear Modulus (GPa) = 15.38655 26.02506 20.70580
#
# Velocity S-wave (km/s) = 2.73061 3.55128 3.16764
# Velocity P-wave (km/s) = 5.36234 6.04984 5.71644
#
# Compressibility (1/GPa) = 0.02575843
#
# Stress axis : x y z
#
# Youngs Moduli (GPa) = 62.34702 100.94993 73.39391
#
# Poissons Ratio (x) = 0.22248 0.17517
# Poissons Ratio (y) = 0.13740 0.16994
# Poissons Ratio (z) = 0.14880 0.23374
#
# Static dielectric constant tensor:
#      x y z
#    x 1.762480 0.000000 0.000000 
#    y 0.000000 1.608150 0.000000 
#    z 0.000000 0.000000 1.707850 
# 
# From -- ./inp_files/19201.got.cif
#   From: 2010.05.17/outbox.cif.g08.bks.cpg/sg58_10_cif.got.tgz:19201.got - 2010.06.03 14:20:14.
