data_PCOD9445486
_publ_section_title
;
Structure prediction by ZEFSAII (Michael W. Deem and Ramdas Pophale) SiO2 
 PCOD9445486
Probable space group: P N N M
;
_chemical_formula_sum "Si O2"
_cell_formula_units_Z 28
_cell_length_a 10.906116
_cell_length_b 5.028580
_cell_length_c 20.293701
_cell_angle_alpha 90.000000
_cell_angle_beta 90.000000
_cell_angle_gamma 90.000000
_cell_volume 1112.952767
_symmetry_space_group_name_H-M "P N N M"
_symmetry_group_IT_number 58
_symmetry_cell_setting 'orthorhombic'
loop_
_space_group_symop_operation_xyz
x,y,z
-x,-y,z
1/2+x,1/2-y,1/2-z
1/2-x,1/2+y,1/2-z
-x,-y,-z
x,y,-z
1/2-x,1/2+y,1/2+z
1/2+x,1/2-y,1/2+z
loop_
_atom_site_type_symbol
_atom_site_label
_atom_site_fract_x
_atom_site_fract_y
_atom_site_fract_z
Si Si1 0.500000 0.000000 0.336157
Si Si2 0.000000 0.500000 0.620851
Si Si3 0.611713 0.302617 0.000000
Si Si4 0.123521 0.668775 0.000000
Si Si5 0.170675 0.758205 0.733962
Si Si6 0.000000 0.000000 0.895349
O O1 0.578513 0.801583 0.293010
O O2 0.573889 0.231635 0.372034
O O3 0.908801 0.644312 0.568750
O O4 0.910779 0.321658 0.669309
O O5 0.500000 0.500000 0.000000
O O6 0.742271 0.447705 0.000000
O O7 0.105288 0.853540 0.063176
O O8 0.000000 0.500000 0.000000
O O9 0.219489 0.054806 0.746169
#
# Coordination Sequence:
#
# PCOD9445486 Si02
#       6
#     4   4   4   4   8   4
#     4  11  24  42  68 110 140 191 248 328 398 451
#     4  10  28  49  70 119 150 218 264 324 414 488
#     4  11  28  50  80 110 172 221 261 337 402 495
#     4  11  26  45  75 115 150 216 274 337 383 472
#     4  11  26  45  77 107 149 200 258 325 394 483
#     4  11  24  44  70 108 148 189 266 328 388 457
#
# _framework density 25.158301999999999
#
# number of rings (size 3 to 8) (size 9 to 14) (size 15 to 20)
#    0.000    1.143    1.429    1.714   12.000    6.857 
#    0.000    0.000    0.000    0.000    0.000    0.000 
#    0.000    0.000    0.000    0.000    0.000    0.000 
#
# Total GULP energy -155894.932201 kJ/mol
# GULP energy per Si atom -5567.676150 kJ/mol
# Density = 2.510104 g / cm^3
# Si number density = 25.158302 Si / 1000 Ang^3
#
#
#
# Elastic Constant Matrix: (Units=GPa)
#
#
# Indices 1 2 3 4 5 6 
#
# 1 143.5579 13.9686 10.7699 0.0000 0.0000 0.0000
# 2 13.9686 102.1777 22.5975 0.0000 0.0000 0.0000
# 3 10.7699 22.5975 90.8374 0.0000 0.0000 0.0000
# 4 0.0000 0.0000 0.0000 21.6749 0.0000 0.0000
# 5 0.0000 0.0000 0.0000 0.0000 -11.6150 0.0000
# 6 0.0000 0.0000 0.0000 0.0000 0.0000 46.4275
#
#
#
# Elastic Compliance Matrix: (Units=1/GPa)
#
#
# Indices 1 2 3 4 5 6 
#
# 1 0.007094 -0.000829 -0.000635 0.000000 0.000000 0.000000
# 2 -0.000829 0.010454 -0.002502 0.000000 0.000000 0.000000
# 3 -0.000635 -0.002502 0.011706 0.000000 0.000000 0.000000
# 4 0.000000 0.000000 0.000000 0.046136 0.000000 0.000000
# 5 0.000000 0.000000 0.000000 0.000000 -0.086096 0.000000
# 6 0.000000 0.000000 0.000000 0.000000 0.000000 0.021539
#
#
# Mechanical properties :
#
#
# Convention : Reuss Voigt Hill
#
# Bulk Modulus (GPa) = 46.90126 47.91612 47.40869
# Shear Modulus (GPa) = 193.24539 30.57994 111.91267
#
# Velocity S-wave (km/s) = 8.77374 3.49019 6.67682
# Velocity P-wave (km/s) = 11.01458 5.94383 8.85014
#
# Compressibility (1/GPa) = 0.02132139
#
# Stress axis : x y z
#
# Youngs Moduli (GPa) = 140.96100 95.66034 85.42332
#
# Poissons Ratio (x) = 0.07935 0.05422
# Poissons Ratio (y) = 0.11692 0.21375
# Poissons Ratio (z) = 0.08948 0.23936
#
# Static dielectric constant tensor:
#      x y z
#    x 2.087360 0.000000 0.000000 
#    y 0.000000 0.465300 0.000000 
#    z 0.000000 0.000000 2.104100 
# 
# From -- ./inp_files/27908.got.cif
#   From: 2010.05.17/outbox.cif.g08.bks.cpg/sg58_14_cif.got.tgz:27908.got - 2010.06.03 14:20:14.
