data_PCOD9445965
_publ_section_title
;
Structure prediction by ZEFSAII (Michael W. Deem and Ramdas Pophale) SiO2 
 PCOD9445965
Probable space group: P N N M
;
_chemical_formula_sum "Si O2"
_cell_formula_units_Z 64
_cell_length_a 24.000000
_cell_length_b 15.000000
_cell_length_c 9.000000
_cell_angle_alpha 90.000000
_cell_angle_beta 90.000000
_cell_angle_gamma 90.000000
_cell_volume 3240.000000
_symmetry_space_group_name_H-M "P N N M"
_symmetry_group_IT_number 58
_symmetry_cell_setting 'orthorhombic'
loop_
_space_group_symop_operation_xyz
x,y,z
-x,-y,z
1/2+x,1/2-y,1/2-z
1/2-x,1/2+y,1/2-z
-x,-y,-z
x,y,-z
1/2-x,1/2+y,1/2+z
1/2+x,1/2-y,1/2+z
loop_
_atom_site_type_symbol
_atom_site_label
_atom_site_fract_x
_atom_site_fract_y
_atom_site_fract_z
Si Si1 0.447531 0.434792 0.678445
Si Si2 0.248583 0.146138 0.177731
Si Si3 0.032522 0.742469 0.675188
Si Si4 0.551937 0.941274 0.323837
Si Si5 0.357477 0.555548 0.172259
Si Si6 0.902459 0.748145 0.332368
Si Si7 0.175236 0.517050 0.823918
Si Si8 0.701532 0.171662 0.676888
O O1 0.500000 0.500000 0.717890
O O2 0.445182 0.430370 0.500000
O O3 0.454208 0.335986 0.745361
O O4 0.391978 0.479948 0.744214
O O5 0.199040 0.087149 0.248642
O O6 0.304576 0.102363 0.235184
O O7 0.240761 0.248295 0.230422
O O8 0.244268 0.144261 0.000000
O O9 0.045113 0.750027 0.500000
O O10 0.058676 0.653999 0.745411
O O11 0.966283 0.726620 0.692682
O O12 0.543238 0.925211 0.500000
O O13 0.609321 0.994901 0.306124
O O14 0.500000 0.000000 0.267958
O O15 0.395005 0.645220 0.174894
O O16 0.346966 0.531821 0.000000
O O17 0.885971 0.720594 0.500000
O O18 0.860270 0.704931 0.217386
O O19 0.206984 0.428797 0.767234
O O20 0.186232 0.529492 0.000000
O O21 0.707233 0.166386 0.500000
#
# Coordination Sequence:
#
# PCOD9445965 Si02
#       8
#     8   8   8   8   8   8   8   8
#     4  11  22  35  55  85 121 161 204 249 297 355
#     4  10  21  38  60  88 117 147 195 250 296 352
#     4  11  22  36  55  84 121 160 198 240 298 362
#     4  10  22  41  64  89 118 156 202 253 308 365
#     4  10  19  35  57  81 115 156 198 244 294 349
#     4   9  18  31  52  82 114 148 191 237 284 341
#     4  10  21  40  63  87 117 155 197 246 304 362
#     4   9  19  36  60  85 109 145 194 241 290 347
#
# _framework density 19.753086
#
# number of rings (size 3 to 8) (size 9 to 14) (size 15 to 20)
#    0.000    2.000    1.250    2.250    0.000    4.750 
#    2.250    0.000    0.000    0.000    0.000    0.000 
#    0.000    0.000    0.000    0.000    0.000    0.000 
#
# Total GULP energy -357136.358386 kJ/mol
# GULP energy per Si atom -5580.255600 kJ/mol
# Density = 1.970813 g / cm^3
# Si number density = 19.753086 Si / 1000 Ang^3
#
#
#
# Elastic Constant Matrix: (Units=GPa)
#
#
# Indices 1 2 3 4 5 6 
#
# 1 40.9774 21.8157 22.3769 0.0000 0.0000 0.0000
# 2 21.8157 122.5265 36.2659 0.0000 0.0000 0.0000
# 3 22.3769 36.2659 37.2638 0.0000 0.0000 0.0000
# 4 0.0000 0.0000 0.0000 21.8123 0.0000 0.0000
# 5 0.0000 0.0000 0.0000 0.0000 24.2132 0.0000
# 6 0.0000 0.0000 0.0000 0.0000 0.0000 26.5784
#
#
#
# Elastic Compliance Matrix: (Units=1/GPa)
#
#
# Indices 1 2 3 4 5 6 
#
# 1 0.036311 -0.000016 -0.021789 0.000000 0.000000 0.000000
# 2 -0.000016 0.011464 -0.011147 0.000000 0.000000 0.000000
# 3 -0.021789 -0.011147 0.050769 0.000000 0.000000 0.000000
# 4 0.000000 0.000000 0.000000 0.045846 0.000000 0.000000
# 5 0.000000 0.000000 0.000000 0.000000 0.041300 0.000000
# 6 0.000000 0.000000 0.000000 0.000000 0.000000 0.037625
#
#
# Mechanical properties :
#
#
# Convention : Reuss Voigt Hill
#
# Bulk Modulus (GPa) = 30.63840 40.18720 35.41280
# Shear Modulus (GPa) = 16.66123 22.54139 19.60131
#
# Velocity S-wave (km/s) = 2.90741 3.38177 3.15352
# Velocity P-wave (km/s) = 5.17833 5.96971 5.58805
#
# Compressibility (1/GPa) = 0.03263878
#
# Stress axis : x y z
#
# Youngs Moduli (GPa) = 27.54000 87.23166 19.69705
#
# Poissons Ratio (x) = 0.00138 0.42919
# Poissons Ratio (y) = 0.00044 0.21957
# Poissons Ratio (z) = 0.60008 0.97239
#
# Static dielectric constant tensor:
#      x y z
#    x 1.709080 0.000000 0.000000 
#    y 0.000000 1.703160 0.000000 
#    z 0.000000 0.000000 1.670700 
# 
# From -- ./inp_files/10077.got.cif
#   From: 2010.05.17/outbox.ucp.g08.bks.cvg/sg58_6_cif.got.tgz:10077.got - 2010.06.11 16:41:41.
