data_PCOD9445841
_publ_section_title
;
Structure prediction by ZEFSAII (Michael W. Deem and Ramdas Pophale) SiO2 
 PCOD9445841
Probable space group: P N N M
;
_chemical_formula_sum "Si O2"
_cell_formula_units_Z 42
_cell_length_a 21.784329
_cell_length_b 9.537386
_cell_length_c 7.637250
_cell_angle_alpha 90.000000
_cell_angle_beta 90.000000
_cell_angle_gamma 90.000000
_cell_volume 1586.757481
_symmetry_space_group_name_H-M "P N N M"
_symmetry_group_IT_number 58
_symmetry_cell_setting 'orthorhombic'
loop_
_space_group_symop_operation_xyz
x,y,z
-x,-y,z
1/2+x,1/2-y,1/2-z
1/2-x,1/2+y,1/2-z
-x,-y,-z
x,y,-z
1/2-x,1/2+y,1/2+z
1/2+x,1/2-y,1/2+z
loop_
_atom_site_type_symbol
_atom_site_label
_atom_site_fract_x
_atom_site_fract_y
_atom_site_fract_z
Si Si1 0.944862 0.308777 0.212674
Si Si2 0.500000 0.500000 0.500000
Si Si3 0.631376 0.079951 0.709530
Si Si4 0.324354 0.351266 0.291875
Si Si5 0.749560 0.902059 0.710057
Si Si6 0.434366 0.652510 0.189922
O O1 0.924017 0.468570 0.239524
O O2 0.887130 0.215888 0.273112
O O3 0.005595 0.254077 0.301206
O O4 0.954467 0.284444 0.000000
O O5 0.450086 0.547544 0.346720
O O6 0.634648 0.095974 0.500000
O O7 0.692259 0.999424 0.770370
O O8 0.619058 0.231847 0.787147
O O9 0.326645 0.331528 0.500000
O O10 0.309662 0.512019 0.259287
O O11 0.268747 0.251740 0.223633
O O12 0.748953 0.898591 0.500000
O O13 0.429644 0.584260 0.000000
#
# Coordination Sequence:
#
# PCOD9445841 Si02
#       6
#     8   2   8   8   8   8
#     4   9  18  37  63  86 116 156 198 253 315 361
#     4  12  26  48  58  78 136 164 198 246 300 372
#     4   9  18  37  63  86 116 156 198 253 315 361
#     4   9  19  36  57  84 118 158 202 248 301 361
#     4   9  19  36  57  84 118 158 202 248 301 361
#     4  12  24  40  64  91 117 160 204 250 301 361
#
# _framework density 26.469073000000002
#
# number of rings (size 3 to 8) (size 9 to 14) (size 15 to 20)
#    0.000    2.286    1.905    3.143    0.000    5.333 
#    3.429    3.810    0.000    0.000    0.000    0.000 
#    0.000    0.000    0.000    0.000    0.000    0.000 
#
# Total GULP energy -234733.561463 kJ/mol
# GULP energy per Si atom -5588.894321 kJ/mol
# Density = 2.640883 g / cm^3
# Si number density = 26.469073 Si / 1000 Ang^3
#
#
#
# Elastic Constant Matrix: (Units=GPa)
#
#
# Indices 1 2 3 4 5 6 
#
# 1 43.6414 40.1834 -7.0992 0.0000 0.0000 0.0000
# 2 40.1834 112.7574 18.9632 0.0000 0.0000 0.0000
# 3 -7.0992 18.9632 112.2749 0.0000 0.0000 0.0000
# 4 0.0000 0.0000 0.0000 30.0597 0.0000 0.0000
# 5 0.0000 0.0000 0.0000 0.0000 58.3802 0.0000
# 6 0.0000 0.0000 0.0000 0.0000 0.0000 58.3618
#
#
#
# Elastic Compliance Matrix: (Units=1/GPa)
#
#
# Indices 1 2 3 4 5 6 
#
# 1 0.036283 -0.013705 0.004609 0.000000 0.000000 0.000000
# 2 -0.013705 0.014305 -0.003283 0.000000 0.000000 0.000000
# 3 0.004609 -0.003283 0.009753 0.000000 0.000000 0.000000
# 4 0.000000 0.000000 0.000000 0.033267 0.000000 0.000000
# 5 0.000000 0.000000 0.000000 0.000000 0.017129 0.000000
# 6 0.000000 0.000000 0.000000 0.000000 0.000000 0.017134
#
#
# Mechanical properties :
#
#
# Convention : Reuss Voigt Hill
#
# Bulk Modulus (GPa) = 28.10366 41.41871 34.76119
# Shear Modulus (GPa) = 30.39697 43.80211 37.09954
#
# Velocity S-wave (km/s) = 3.39248 4.07239 3.74788
# Velocity P-wave (km/s) = 5.09762 6.14771 5.64713
#
# Compressibility (1/GPa) = 0.03558255
#
# Stress axis : x y z
#
# Youngs Moduli (GPa) = 27.56103 69.90641 102.53690
#
# Poissons Ratio (x) = 0.95809 -0.47260
# Poissons Ratio (y) = 0.37773 0.33660
# Poissons Ratio (z) = -0.12703 0.22948
#
# Static dielectric constant tensor:
#      x y z
#    x 2.135450 0.000000 0.000000 
#    y 0.000000 2.223310 0.000000 
#    z 0.000000 0.000000 1.985740 
# 
# From -- ./inp_files/9693.got.cif
#   From: 2010.05.17/outbox.cif.g08.bks.cpg/sg58_5_cif.got.tgz:9693.got - 2010.06.03 14:20:14.
