data_PCOD9445215
_publ_section_title
;
Structure prediction by ZEFSAII (Michael W. Deem and Ramdas Pophale) SiO2 
 PCOD9445215
Probable space group: P N N M
;
_chemical_formula_sum "Si O2"
_cell_formula_units_Z 58
_cell_length_a 11.730214
_cell_length_b 28.265014
_cell_length_c 7.931376
_cell_angle_alpha 90.000000
_cell_angle_beta 90.000000
_cell_angle_gamma 90.000000
_cell_volume 2629.684696
_symmetry_space_group_name_H-M "P N N M"
_symmetry_group_IT_number 58
_symmetry_cell_setting 'orthorhombic'
loop_
_space_group_symop_operation_xyz
x,y,z
-x,-y,z
1/2+x,1/2-y,1/2-z
1/2-x,1/2+y,1/2-z
-x,-y,-z
x,y,-z
1/2-x,1/2+y,1/2+z
1/2+x,1/2-y,1/2+z
loop_
_atom_site_type_symbol
_atom_site_label
_atom_site_fract_x
_atom_site_fract_y
_atom_site_fract_z
Si Si1 0.492320 0.651367 0.199190
Si Si2 0.662279 0.430825 0.798313
Si Si3 0.631072 0.858828 0.702105
Si Si4 0.500000 0.000000 0.500000
Si Si5 0.740206 0.674717 0.311005
Si Si6 0.334242 0.002739 0.813006
Si Si7 0.605655 0.096653 0.692158
Si Si8 0.789078 0.779744 0.196652
O O1 0.446108 0.599952 0.258650
O O2 0.605327 0.668676 0.289507
O O3 0.389782 0.688798 0.223730
O O4 0.515567 0.647965 0.000000
O O5 0.769143 0.396089 0.760553
O O6 0.705235 0.479276 0.717303
O O7 0.652728 0.436702 0.000000
O O8 0.625316 0.852491 0.500000
O O9 0.510452 0.879777 0.755956
O O10 0.672591 0.809572 0.779420
O O11 0.411176 0.018810 0.653887
O O12 0.774558 0.661677 0.500000
O O13 0.803452 0.638427 0.188519
O O14 0.775929 0.728368 0.275830
O O15 0.346646 0.946339 0.799332
O O16 0.371311 0.018524 0.000000
O O17 0.585157 0.075744 0.500000
O O18 0.813580 0.774549 0.000000
#
# Coordination Sequence:
#
# PCOD9445215 Si02
#       8
#     8   8   8   2   8   8   8   8
#     4  10  22  43  69  93 123 166 216 267 328 384
#     4   9  18  38  66  93 129 166 208 267 325 389
#     4   9  20  37  62  91 126 166 207 259 322 381
#     4  12  22  40  60  94 138 176 214 280 320 392
#     4  12  26  43  64  91 129 169 219 269 320 392
#     4  12  24  38  64  96 133 178 223 267 334 398
#     4  11  23  42  65  91 135 175 214 270 330 391
#     4  11  23  40  64  93 126 165 210 266 326 388
#
# _framework density 22.055875
#
# number of rings (size 3 to 8) (size 9 to 14) (size 15 to 20)
#    0.000    1.379    1.379    5.172    3.862    3.862 
#    0.000    0.690    0.000    4.138    0.000    0.000 
#    0.000    0.000    0.000    0.000    0.000    0.000 
#
# Total GULP energy -323826.961397 kJ/mol
# GULP energy per Si atom -5583.223472 kJ/mol
# Density = 2.200568 g / cm^3
# Si number density = 22.055875 Si / 1000 Ang^3
#
#
#
# Elastic Constant Matrix: (Units=GPa)
#
#
# Indices 1 2 3 4 5 6 
#
# 1 37.7784 15.1748 -12.0598 0.0000 0.0000 0.0000
# 2 15.1748 66.2270 15.3836 0.0000 0.0000 0.0000
# 3 -12.0598 15.3836 94.9513 0.0000 0.0000 0.0000
# 4 0.0000 0.0000 0.0000 14.4873 0.0000 0.0000
# 5 0.0000 0.0000 0.0000 0.0000 18.0896 0.0000
# 6 0.0000 0.0000 0.0000 0.0000 0.0000 16.0904
#
#
#
# Elastic Compliance Matrix: (Units=1/GPa)
#
#
# Indices 1 2 3 4 5 6 
#
# 1 0.031602 -0.008493 0.005390 0.000000 0.000000 0.000000
# 2 -0.008493 0.017973 -0.003991 0.000000 0.000000 0.000000
# 3 0.005390 -0.003991 0.011863 0.000000 0.000000 0.000000
# 4 0.000000 0.000000 0.000000 0.069026 0.000000 0.000000
# 5 0.000000 0.000000 0.000000 0.000000 0.055280 0.000000
# 6 0.000000 0.000000 0.000000 0.000000 0.000000 0.062149
#
#
# Mechanical properties :
#
#
# Convention : Reuss Voigt Hill
#
# Bulk Modulus (GPa) = 21.16407 26.21712 23.69059
# Shear Modulus (GPa) = 17.99658 21.76399 19.88029
#
# Velocity S-wave (km/s) = 2.85959 3.14469 3.00552
# Velocity P-wave (km/s) = 4.52985 5.00978 4.77585
#
# Compressibility (1/GPa) = 0.04724990
#
# Stress axis : x y z
#
# Youngs Moduli (GPa) = 31.64339 55.64028 84.29710
#
# Poissons Ratio (x) = 0.47256 -0.45435
# Poissons Ratio (y) = 0.26875 0.33639
# Poissons Ratio (z) = -0.17055 0.22204
#
# Static dielectric constant tensor:
#      x y z
#    x 1.778210 0.000000 0.000000 
#    y 0.000000 1.733670 0.000000 
#    z 0.000000 0.000000 1.813070 
# 
# From -- ./inp_files/4445.got.cif
#   From: 2010.05.17/outbox.cif.g08.bks.cpg/sg58_3_cif.got.tgz:4445.got - 2010.06.03 14:20:14.
