data_PCOD9445560
_publ_section_title
;
Structure prediction by ZEFSAII (Michael W. Deem and Ramdas Pophale) SiO2 
 PCOD9445560
Probable space group: P N N M
;
_chemical_formula_sum "Si O2"
_cell_formula_units_Z 48
_cell_length_a 8.470203
_cell_length_b 8.793809
_cell_length_c 30.529262
_cell_angle_alpha 90.000000
_cell_angle_beta 90.000000
_cell_angle_gamma 90.000000
_cell_volume 2273.982685
_symmetry_space_group_name_H-M "P N N M"
_symmetry_group_IT_number 58
_symmetry_cell_setting 'orthorhombic'
loop_
_space_group_symop_operation_xyz
x,y,z
-x,-y,z
1/2+x,1/2-y,1/2-z
1/2-x,1/2+y,1/2-z
-x,-y,-z
x,y,-z
1/2-x,1/2+y,1/2+z
1/2+x,1/2-y,1/2+z
loop_
_atom_site_type_symbol
_atom_site_label
_atom_site_fract_x
_atom_site_fract_y
_atom_site_fract_z
Si Si1 0.338418 0.424384 0.641486
Si Si2 0.836981 0.587004 0.788905
Si Si3 0.753168 0.096856 0.047002
Si Si4 0.405404 0.235854 0.952328
Si Si5 0.840194 0.265458 0.355661
Si Si6 0.652973 0.288907 0.202016
O O1 0.500000 0.500000 0.656717
O O2 0.352932 0.378003 0.590507
O O3 0.201526 0.554763 0.642945
O O4 0.285513 0.284532 0.670703
O O5 0.804338 0.684861 0.831841
O O6 0.698884 0.460842 0.786734
O O7 0.843215 0.693312 0.746525
O O8 0.000000 0.500000 0.791013
O O9 0.590626 0.192256 0.049810
O O10 0.692755 0.922285 0.046346
O O11 0.831003 0.129205 0.000000
O O12 0.364663 0.300334 0.904543
O O13 0.377847 0.312760 0.000000
O O14 0.991446 0.234632 0.324979
#
# Coordination Sequence:
#
# PCOD9445560 Si02
#       6
#     8   8   8   8   8   8
#     4  11  21  34  57  88 124 157 193 246 299 345
#     4  12  26  42  62  87 118 151 194 250 301 353
#     4   8  14  27  50  84 120 154 192 239 290 343
#     4   8  14  29  57  88 116 152 200 244 285 343
#     4  11  22  40  64  89 119 161 203 243 293 355
#     4  12  24  42  62  85 115 156 200 242 293 360
#
# _framework density 21.108339000000001
#
# number of rings (size 3 to 8) (size 9 to 14) (size 15 to 20)
#    0.000    1.667    1.667    6.000    0.000    1.667 
#    0.000    0.000    0.000    3.500    0.000    0.000 
#    0.000    0.000    0.000    0.000    0.000    0.000 
#
# Total GULP energy -268105.456722 kJ/mol
# GULP energy per Si atom -5585.530348 kJ/mol
# Density = 2.106030 g / cm^3
# Si number density = 21.108339 Si / 1000 Ang^3
#
#
#
# Elastic Constant Matrix: (Units=GPa)
#
#
# Indices 1 2 3 4 5 6 
#
# 1 38.9476 2.1948 13.6029 0.0000 0.0000 0.0000
# 2 2.1948 45.9266 44.3416 0.0000 0.0000 0.0000
# 3 13.6029 44.3416 164.0720 0.0000 0.0000 0.0000
# 4 0.0000 0.0000 0.0000 15.4276 0.0000 0.0000
# 5 0.0000 0.0000 0.0000 0.0000 -37.6773 0.0000
# 6 0.0000 0.0000 0.0000 0.0000 0.0000 17.5774
#
#
#
# Elastic Compliance Matrix: (Units=1/GPa)
#
#
# Indices 1 2 3 4 5 6 
#
# 1 0.026486 0.001156 -0.002508 0.000000 0.000000 0.000000
# 2 0.001156 0.029512 -0.008072 0.000000 0.000000 0.000000
# 3 -0.002508 -0.008072 0.008484 0.000000 0.000000 0.000000
# 4 0.000000 0.000000 0.000000 0.064819 0.000000 0.000000
# 5 0.000000 0.000000 0.000000 0.000000 -0.026541 0.000000
# 6 0.000000 0.000000 0.000000 0.000000 0.000000 0.056891
#
#
# Mechanical properties :
#
#
# Convention : Reuss Voigt Hill
#
# Bulk Modulus (GPa) = 21.91324 41.02498 31.46911
# Shear Modulus (GPa) = 25.81168 11.65266 18.73217
#
# Velocity S-wave (km/s) = 3.50068 2.35210 2.98221
# Velocity P-wave (km/s) = 5.17141 5.18210 5.17676
#
# Compressibility (1/GPa) = 0.04563451
#
# Stress axis : x y z
#
# Youngs Moduli (GPa) = 37.75518 33.88488 117.86539
#
# Poissons Ratio (x) = -0.03917 0.29565
# Poissons Ratio (y) = -0.04365 0.95136
# Poissons Ratio (z) = 0.09470 0.27350
#
# Static dielectric constant tensor:
#      x y z
#    x 1.772160 0.000000 0.000000 
#    y 0.000000 1.760400 0.000000 
#    z 0.000000 0.000000 1.813490 
# 
# From -- ./inp_files/34555.got.cif
#   From: 2010.05.17/outbox.cif.g08.bks.cpg/sg58_18_cif.got.tgz:34555.got - 2010.06.03 14:20:14.
