data_PCOD9445937
_publ_section_title
;
Structure prediction by ZEFSAII (Michael W. Deem and Ramdas Pophale) SiO2 
 PCOD9445937
Probable space group: P N N M
;
_chemical_formula_sum "Si O2"
_cell_formula_units_Z 56
_cell_length_a 15.000000
_cell_length_b 21.000000
_cell_length_c 9.000000
_cell_angle_alpha 90.000000
_cell_angle_beta 90.000000
_cell_angle_gamma 90.000000
_cell_volume 2835.000000
_symmetry_space_group_name_H-M "P N N M"
_symmetry_group_IT_number 58
_symmetry_cell_setting 'orthorhombic'
loop_
_space_group_symop_operation_xyz
x,y,z
-x,-y,z
1/2+x,1/2-y,1/2-z
1/2-x,1/2+y,1/2-z
-x,-y,-z
x,y,-z
1/2-x,1/2+y,1/2+z
1/2+x,1/2-y,1/2+z
loop_
_atom_site_type_symbol
_atom_site_label
_atom_site_fract_x
_atom_site_fract_y
_atom_site_fract_z
Si Si1 0.730254 0.977679 0.676519
Si Si2 0.509048 0.777429 0.327768
Si Si3 0.234523 0.887073 0.677018
Si Si4 0.060455 0.863534 0.168026
Si Si5 0.085855 0.045842 0.828148
Si Si6 0.192522 0.251340 0.181546
Si Si7 0.838745 0.353265 0.677487
O O1 0.717480 0.973245 0.500000
O O2 0.833593 0.965700 0.718844
O O3 0.676422 0.923153 0.758461
O O4 0.712817 0.050316 0.727777
O O5 0.501288 0.798845 0.500000
O O6 0.563697 0.711779 0.325162
O O7 0.410604 0.758206 0.273191
O O8 0.567348 0.826042 0.234209
O O9 0.240940 0.885948 0.500000
O O10 0.131820 0.893256 0.723218
O O11 0.266015 0.818651 0.731782
O O12 0.959544 0.885676 0.194584
O O13 0.082375 0.884712 0.000000
O O14 0.117182 0.041414 0.000000
O O15 0.000000 0.000000 0.811146
O O16 0.256526 0.193119 0.228899
O O17 0.192204 0.248486 0.000000
O O18 0.836762 0.353826 0.500000
#
# Coordination Sequence:
#
# PCOD9445937 Si02
#       7
#     8   8   8   8   8   8   8
#     4  11  23  36  54  82 117 152 192 243 291 339
#     4  10  20  36  59  85 112 143 189 242 287 335
#     4  10  20  36  57  81 111 149 193 235 280 337
#     4  10  19  32  53  81 113 147 181 229 287 344
#     4  10  19  32  52  79 113 152 189 224 281 355
#     4   9  19  38  62  84 111 151 194 235 284 344
#     4  11  22  39  62  85 116 154 191 235 291 350
#
# _framework density 19.753086
#
# number of rings (size 3 to 8) (size 9 to 14) (size 15 to 20)
#    0.000    1.857    2.857    1.714    0.000    3.714 
#    0.000    4.286    0.000    4.286    0.000    0.000 
#    0.000    0.000    0.000    0.000    0.000    0.000 
#
# Total GULP energy -312172.159004 kJ/mol
# GULP energy per Si atom -5574.502839 kJ/mol
# Density = 1.970813 g / cm^3
# Si number density = 19.753086 Si / 1000 Ang^3
#
#
#
# Elastic Constant Matrix: (Units=GPa)
#
#
# Indices 1 2 3 4 5 6 
#
# 1 43.5798 -0.9563 3.5205 0.0000 0.0000 0.0000
# 2 -0.9563 66.6757 14.8690 0.0000 0.0000 0.0000
# 3 3.5205 14.8690 16.8630 0.0000 0.0000 0.0000
# 4 0.0000 0.0000 0.0000 23.8476 0.0000 0.0000
# 5 0.0000 0.0000 0.0000 0.0000 23.4024 0.0000
# 6 0.0000 0.0000 0.0000 0.0000 0.0000 26.2247
#
#
#
# Elastic Compliance Matrix: (Units=1/GPa)
#
#
# Indices 1 2 3 4 5 6 
#
# 1 0.023509 0.001782 -0.006479 0.000000 0.000000 0.000000
# 2 0.001782 0.018804 -0.016953 0.000000 0.000000 0.000000
# 3 -0.006479 -0.016953 0.075602 0.000000 0.000000 0.000000
# 4 0.000000 0.000000 0.000000 0.041933 0.000000 0.000000
# 5 0.000000 0.000000 0.000000 0.000000 0.042731 0.000000
# 6 0.000000 0.000000 0.000000 0.000000 0.000000 0.038132
#
#
# Mechanical properties :
#
#
# Convention : Reuss Voigt Hill
#
# Bulk Modulus (GPa) = 13.40202 17.99830 15.70016
# Shear Modulus (GPa) = 16.18740 22.00731 19.09735
#
# Velocity S-wave (km/s) = 2.86577 3.34147 3.11272
# Velocity P-wave (km/s) = 4.21304 4.90088 4.56992
#
# Compressibility (1/GPa) = 0.07461564
#
# Stress axis : x y z
#
# Youngs Moduli (GPa) = 42.53699 53.18005 13.22711
#
# Poissons Ratio (x) = -0.09477 0.08570
# Poissons Ratio (y) = -0.07581 0.22423
# Poissons Ratio (z) = 0.27561 0.90154
#
# Static dielectric constant tensor:
#      x y z
#    x 1.698140 0.000000 0.000000 
#    y 0.000000 1.788760 0.000000 
#    z 0.000000 0.000000 1.672190 
# 
# From -- ./inp_files/6300.got.cif
#   From: 2010.05.17/outbox.ucp.g08.bks.cvg/sg58_4_cif.got.tgz:6300.got - 2010.06.11 16:41:41.
