data_PCOD9445781
_publ_section_title
;
Structure prediction by ZEFSAII (Michael W. Deem and Ramdas Pophale) SiO2 
 PCOD9445781
Probable space group: P N N M
;
_chemical_formula_sum "Si O2"
_cell_formula_units_Z 28
_cell_length_a 6.950133
_cell_length_b 7.266394
_cell_length_c 26.651716
_cell_angle_alpha 90.000000
_cell_angle_beta 90.000000
_cell_angle_gamma 90.000000
_cell_volume 1345.975748
_symmetry_space_group_name_H-M "P N N M"
_symmetry_group_IT_number 58
_symmetry_cell_setting 'orthorhombic'
loop_
_space_group_symop_operation_xyz
x,y,z
-x,-y,z
1/2+x,1/2-y,1/2-z
1/2-x,1/2+y,1/2-z
-x,-y,-z
x,y,-z
1/2-x,1/2+y,1/2+z
1/2+x,1/2-y,1/2+z
loop_
_atom_site_type_symbol
_atom_site_label
_atom_site_fract_x
_atom_site_fract_y
_atom_site_fract_z
Si Si1 0.737123 0.702814 0.316109
Si Si2 0.500000 0.500000 0.400281
Si Si3 0.000000 0.500000 0.240290
Si Si4 0.000000 0.000000 0.633449
Si Si5 0.179269 0.360843 0.056889
O O1 0.655528 0.595332 0.363825
O O2 0.823973 0.564538 0.275222
O O3 0.905145 0.841481 0.333061
O O4 0.568831 0.829216 0.293189
O O5 0.600411 0.342673 0.432741
O O6 0.836633 0.085349 0.597855
O O7 0.000000 0.500000 0.062088
O O8 0.254163 0.376183 0.000000
#
# Coordination Sequence:
#
# PCOD9445781 Si02
#       5
#     8   4   4   4   8
#     4  12  24  41  67  94 138 170 232 266 338 392
#     4  12  23  45  68 102 130 184 216 281 327 404
#     4  12  24  42  60 100 130 180 212 288 322 392
#     4  12  23  45  68 102 130 184 216 281 327 404
#     4  11  24  45  69 101 139 173 220 277 336 395
#
# _framework density 20.80275
#
# number of rings (size 3 to 8) (size 9 to 14) (size 15 to 20)
#    0.000    0.286    2.857    7.714    0.000    0.000 
#    0.000    1.429    0.000    0.000    0.000    0.000 
#    0.000    0.000    0.000    0.000    0.000    0.000 
#
# Total GULP energy -156897.476550 kJ/mol
# GULP energy per Si atom -5603.481305 kJ/mol
# Density = 2.075540 g / cm^3
# Si number density = 20.802750 Si / 1000 Ang^3
#
#
#
# Elastic Constant Matrix: (Units=GPa)
#
#
# Indices 1 2 3 4 5 6 
#
# 1 33.5133 0.7697 -0.3167 0.0000 0.0000 0.0000
# 2 0.7697 82.9389 3.7870 0.0000 0.0000 0.0000
# 3 -0.3167 3.7870 53.9079 0.0000 0.0000 0.0000
# 4 0.0000 0.0000 0.0000 14.8893 0.0000 0.0000
# 5 0.0000 0.0000 0.0000 0.0000 -6.2752 0.0000
# 6 0.0000 0.0000 0.0000 0.0000 0.0000 57.7382
#
#
#
# Elastic Compliance Matrix: (Units=1/GPa)
#
#
# Indices 1 2 3 4 5 6 
#
# 1 0.029847 -0.000286 0.000195 0.000000 0.000000 0.000000
# 2 -0.000286 0.012099 -0.000852 0.000000 0.000000 0.000000
# 3 0.000195 -0.000852 0.018611 0.000000 0.000000 0.000000
# 4 0.000000 0.000000 0.000000 0.067162 0.000000 0.000000
# 5 0.000000 0.000000 0.000000 0.000000 -0.159357 0.000000
# 6 0.000000 0.000000 0.000000 0.000000 0.000000 0.017320
#
#
# Mechanical properties :
#
#
# Convention : Reuss Voigt Hill
#
# Bulk Modulus (GPa) = 17.04363 19.87111 18.45737
# Shear Modulus (GPa) = 701.93117 24.34514 363.13815
#
# Velocity S-wave (km/s) = 18.38899 3.42465 13.22655
# Velocity P-wave (km/s) = 21.42624 5.02101 15.56108
#
# Compressibility (1/GPa) = 0.05867295
#
# Stress axis : x y z
#
# Youngs Moduli (GPa) = 33.50382 82.65416 53.73124
#
# Poissons Ratio (x) = 0.02363 -0.01050
# Poissons Ratio (y) = 0.00958 0.04576
# Poissons Ratio (z) = -0.00655 0.07039
#
# Static dielectric constant tensor:
#      x y z
#    x 1.703660 0.000000 0.000000 
#    y 0.000000 1.694090 0.000000 
#    z 0.000000 0.000000 1.699630 
# 
# From -- ./inp_files/32605.got.cif
#   From: 2010.05.17/outbox.cif.g08.bks.cpg/sg58_17_cif.got.tgz:32605.got - 2010.06.03 14:20:14.
