data_PCOD9445312
_publ_section_title
;
Structure prediction by ZEFSAII (Michael W. Deem and Ramdas Pophale) SiO2 
 PCOD9445312
Probable space group: P N N M
;
_chemical_formula_sum "Si O2"
_cell_formula_units_Z 64
_cell_length_a 29.019881
_cell_length_b 12.705763
_cell_length_c 8.910358
_cell_angle_alpha 90.000000
_cell_angle_beta 90.000000
_cell_angle_gamma 90.000000
_cell_volume 3285.424798
_symmetry_space_group_name_H-M "P N N M"
_symmetry_group_IT_number 58
_symmetry_cell_setting 'orthorhombic'
loop_
_space_group_symop_operation_xyz
x,y,z
-x,-y,z
1/2+x,1/2-y,1/2-z
1/2-x,1/2+y,1/2-z
-x,-y,-z
x,y,-z
1/2-x,1/2+y,1/2+z
1/2+x,1/2-y,1/2+z
loop_
_atom_site_type_symbol
_atom_site_label
_atom_site_fract_x
_atom_site_fract_y
_atom_site_fract_z
Si Si1 0.554022 0.523777 0.326236
Si Si2 0.064061 0.750478 0.321439
Si Si3 0.617852 0.147117 0.819806
Si Si4 0.517741 0.119529 0.676170
Si Si5 0.198626 0.945488 0.180231
Si Si6 0.129657 0.112074 0.321006
Si Si7 0.301186 0.012168 0.180475
Si Si8 0.660174 0.784668 0.679670
O O1 0.500000 0.500000 0.320862
O O2 0.567768 0.539869 0.500000
O O3 0.564074 0.629262 0.234424
O O4 0.582970 0.429205 0.255873
O O5 0.065894 0.744671 0.500000
O O6 0.109768 0.699031 0.250942
O O7 0.018220 0.694501 0.260910
O O8 0.568943 0.129431 0.741418
O O9 0.635674 0.264907 0.786951
O O10 0.656156 0.062165 0.774889
O O11 0.611324 0.139467 0.000000
O O12 0.517694 0.146987 0.500000
O O13 0.500000 0.000000 0.692570
O O14 0.252425 0.958556 0.216650
O O15 0.178859 0.831034 0.222670
O O16 0.169640 0.037368 0.258335
O O17 0.193499 0.955482 0.000000
O O18 0.126278 0.099931 0.500000
O O19 0.306906 0.124060 0.259753
O O20 0.303113 0.026067 0.000000
O O21 0.656923 0.789090 0.500000
#
# Coordination Sequence:
#
# PCOD9445312 Si02
#       8
#     8   8   8   8   8   8   8   8
#     4  11  23  39  60  88 124 164 205 255 315 374
#     4  12  24  39  63  92 124 164 211 261 313 375
#     4  10  23  42  64  93 129 169 212 262 317 376
#     4  11  24  41  63  92 128 168 214 262 314 379
#     4  10  23  42  65  91 125 168 209 261 326 383
#     4  11  23  39  63  92 125 164 212 262 313 378
#     4  10  23  43  66  93 127 168 214 263 322 384
#     4  11  23  41  66  95 129 165 210 265 321 378
#
# _framework density 19.479977000000002
#
# number of rings (size 3 to 8) (size 9 to 14) (size 15 to 20)
#    0.000    1.250    1.250    4.125    1.750    8.500 
#    0.000    0.000    0.000    0.000    0.000    0.000 
#    0.000    0.000    0.000    0.000    0.000    0.000 
#
# Total GULP energy -358020.329348 kJ/mol
# GULP energy per Si atom -5594.067646 kJ/mol
# Density = 1.943564 g / cm^3
# Si number density = 19.479977 Si / 1000 Ang^3
#
#
#
# Elastic Constant Matrix: (Units=GPa)
#
#
# Indices 1 2 3 4 5 6 
#
# 1 130.1069 47.7833 48.0008 0.0000 0.0000 0.0000
# 2 47.7833 97.3804 51.3852 0.0000 0.0000 0.0000
# 3 48.0008 51.3852 69.4686 0.0000 0.0000 0.0000
# 4 0.0000 0.0000 0.0000 26.4872 0.0000 0.0000
# 5 0.0000 0.0000 0.0000 0.0000 23.2443 0.0000
# 6 0.0000 0.0000 0.0000 0.0000 0.0000 31.1593
#
#
#
# Elastic Compliance Matrix: (Units=1/GPa)
#
#
# Indices 1 2 3 4 5 6 
#
# 1 0.010593 -0.002191 -0.005699 0.000000 0.000000 0.000000
# 2 -0.002191 0.017296 -0.011280 0.000000 0.000000 0.000000
# 3 -0.005699 -0.011280 0.026677 0.000000 0.000000 0.000000
# 4 0.000000 0.000000 0.000000 0.037754 0.000000 0.000000
# 5 0.000000 0.000000 0.000000 0.000000 0.043021 0.000000
# 6 0.000000 0.000000 0.000000 0.000000 0.000000 0.032093
#
#
# Mechanical properties :
#
#
# Convention : Reuss Voigt Hill
#
# Bulk Modulus (GPa) = 61.62872 65.69939 63.66405
# Shear Modulus (GPa) = 23.67613 26.16394 24.92004
#
# Velocity S-wave (km/s) = 3.49005 3.66884 3.58056
# Velocity P-wave (km/s) = 6.92432 7.19354 7.06021
#
# Compressibility (1/GPa) = 0.01622620
#
# Stress axis : x y z
#
# Youngs Moduli (GPa) = 94.40080 57.81641 37.48577
#
# Poissons Ratio (x) = 0.12665 0.21364
# Poissons Ratio (y) = 0.20679 0.42284
# Poissons Ratio (z) = 0.53801 0.65218
#
# Static dielectric constant tensor:
#      x y z
#    x 1.661700 0.000000 0.000000 
#    y 0.000000 1.669650 0.000000 
#    z 0.000000 0.000000 1.652970 
# 
# From -- ./inp_files/10986.got.cif
#   From: 2010.05.17/outbox.cif.g08.bks.cpg/sg58_6_cif.got.tgz:10986.got - 2010.06.03 14:20:14.
