data_PCOD9445318
_publ_section_title
;
Structure prediction by ZEFSAII (Michael W. Deem and Ramdas Pophale) SiO2 
 PCOD9445318
Probable space group: P N N M
;
_chemical_formula_sum "Si O2"
_cell_formula_units_Z 64
_cell_length_a 12.170932
_cell_length_b 14.262979
_cell_length_c 16.997735
_cell_angle_alpha 90.000000
_cell_angle_beta 90.000000
_cell_angle_gamma 90.000000
_cell_volume 2950.700518
_symmetry_space_group_name_H-M "P N N M"
_symmetry_group_IT_number 58
_symmetry_cell_setting 'orthorhombic'
loop_
_space_group_symop_operation_xyz
x,y,z
-x,-y,z
1/2+x,1/2-y,1/2-z
1/2-x,1/2+y,1/2-z
-x,-y,-z
x,y,-z
1/2-x,1/2+y,1/2+z
1/2+x,1/2-y,1/2+z
loop_
_atom_site_type_symbol
_atom_site_label
_atom_site_fract_x
_atom_site_fract_y
_atom_site_fract_z
Si Si1 0.066859 0.592449 0.759969
Si Si2 0.567981 0.720067 0.662182
Si Si3 0.457460 0.671460 0.092848
Si Si4 0.840685 0.844508 0.148376
Si Si5 0.851531 0.453433 0.589852
Si Si6 0.692289 0.453939 0.195685
Si Si7 0.798842 0.667076 0.406720
Si Si8 0.679581 0.668800 0.176958
O O1 0.019658 0.682798 0.802767
O O2 0.082417 0.591170 0.664292
O O3 0.187744 0.592200 0.799024
O O4 0.000000 0.500000 0.779106
O O5 0.463056 0.675854 0.620441
O O6 0.679103 0.709358 0.612062
O O7 0.609529 0.674067 0.742984
O O8 0.395332 0.584616 0.133387
O O9 0.390613 0.761780 0.124983
O O10 0.586065 0.680365 0.110927
O O11 0.441727 0.665337 0.000000
O O12 0.761173 0.896407 0.088525
O O13 0.854113 0.918294 0.220557
O O14 0.771982 0.750047 0.173351
O O15 0.897372 0.450485 0.500000
O O16 0.822884 0.559763 0.617476
O O17 0.718676 0.562011 0.178675
O O18 0.810571 0.663592 0.500000
#
# Coordination Sequence:
#
# PCOD9445318 Si02
#       8
#     8   8   8   8   8   8   8   8
#     4  11  23  39  65  98 129 177 219 270 328 399
#     4  12  22  40  67  91 134 172 218 271 329 394
#     4  11  24  43  67  95 130 170 218 272 327 388
#     4  11  24  41  60  96 128 171 215 274 325 394
#     4  10  23  42  65  97 136 172 218 275 335 400
#     4  11  22  40  62  91 128 167 220 266 322 390
#     4  10  23  43  69  96 127 174 223 269 330 402
#     4  12  24  39  61  94 129 167 218 271 330 386
#
# _framework density 21.689765999999999
#
# number of rings (size 3 to 8) (size 9 to 14) (size 15 to 20)
#    0.000    1.000    5.000    2.625    1.750    3.750 
#    0.000    1.250    0.000    3.000    0.000    0.000 
#    0.000    0.000    0.000    0.000    0.000    0.000 
#
# Total GULP energy -356988.759534 kJ/mol
# GULP energy per Si atom -5577.949368 kJ/mol
# Density = 2.164040 g / cm^3
# Si number density = 21.689766 Si / 1000 Ang^3
#
#
#
# Elastic Constant Matrix: (Units=GPa)
#
#
# Indices 1 2 3 4 5 6 
#
# 1 85.3263 -0.2368 7.5876 0.0000 0.0000 0.0000
# 2 -0.2368 87.0875 11.3950 0.0000 0.0000 0.0000
# 3 7.5876 11.3950 37.0700 0.0000 0.0000 0.0000
# 4 0.0000 0.0000 0.0000 22.3611 0.0000 0.0000
# 5 0.0000 0.0000 0.0000 0.0000 1.1560 0.0000
# 6 0.0000 0.0000 0.0000 0.0000 0.0000 37.6373
#
#
#
# Elastic Compliance Matrix: (Units=1/GPa)
#
#
# Indices 1 2 3 4 5 6 
#
# 1 0.011948 0.000367 -0.002558 0.000000 0.000000 0.000000
# 2 0.000367 0.011975 -0.003756 0.000000 0.000000 0.000000
# 3 -0.002558 -0.003756 0.028654 0.000000 0.000000 0.000000
# 4 0.000000 0.000000 0.000000 0.044720 0.000000 0.000000
# 5 0.000000 0.000000 0.000000 0.000000 0.865063 0.000000
# 6 0.000000 0.000000 0.000000 0.000000 0.000000 0.026569
#
#
# Mechanical properties :
#
#
# Convention : Reuss Voigt Hill
#
# Bulk Modulus (GPa) = 24.58039 27.44169 26.01104
# Shear Modulus (GPa) = 4.92909 24.94676 14.93792
#
# Velocity S-wave (km/s) = 1.50913 3.39508 2.62717
# Velocity P-wave (km/s) = 3.79394 5.29605 4.60663
#
# Compressibility (1/GPa) = 0.04068283
#
# Stress axis : x y z
#
# Youngs Moduli (GPa) = 83.69426 83.50600 34.89874
#
# Poissons Ratio (x) = -0.03067 0.08929
# Poissons Ratio (y) = -0.03074 0.13109
# Poissons Ratio (z) = 0.21413 0.31367
#
# Static dielectric constant tensor:
#      x y z
#    x 2.119660 0.000000 0.000000 
#    y 0.000000 1.819340 0.000000 
#    z 0.000000 0.000000 1.788430 
# 
# From -- ./inp_files/26358.got.cif
#   From: 2010.05.17/outbox.cif.g08.bks.cpg/sg58_14_cif.got.tgz:26358.got - 2010.06.03 14:20:14.
