data_PCOD9445661
_publ_section_title
;
Structure prediction by ZEFSAII (Michael W. Deem and Ramdas Pophale) SiO2 
 PCOD9445661
Probable space group: P N N M
;
_chemical_formula_sum "Si O2"
_cell_formula_units_Z 32
_cell_length_a 6.594778
_cell_length_b 12.449549
_cell_length_c 17.931912
_cell_angle_alpha 90.000000
_cell_angle_beta 90.000000
_cell_angle_gamma 90.000000
_cell_volume 1472.246052
_symmetry_space_group_name_H-M "P N N M"
_symmetry_group_IT_number 58
_symmetry_cell_setting 'orthorhombic'
loop_
_space_group_symop_operation_xyz
x,y,z
-x,-y,z
1/2+x,1/2-y,1/2-z
1/2-x,1/2+y,1/2-z
-x,-y,-z
x,y,-z
1/2-x,1/2+y,1/2+z
1/2+x,1/2-y,1/2+z
loop_
_atom_site_type_symbol
_atom_site_label
_atom_site_fract_x
_atom_site_fract_y
_atom_site_fract_z
Si Si1 0.452691 0.826794 0.870509
Si Si2 0.668558 0.411694 0.868072
Si Si3 0.000000 0.500000 0.243933
Si Si4 0.850692 0.103573 0.000000
Si Si5 0.749374 0.784059 0.000000
Si Si6 0.473974 0.126472 0.500000
O O1 0.432130 0.702627 0.845673
O O2 0.646453 0.828708 0.926420
O O3 0.463400 0.899834 0.798463
O O4 0.283972 0.879803 0.926319
O O5 0.500000 0.500000 0.891215
O O6 0.806305 0.470069 0.806092
O O7 0.826863 0.364158 0.928133
O O8 0.000000 0.000000 0.000000
O O9 0.009263 0.200861 0.000000
O O10 0.781524 0.657898 0.000000
O O11 0.500000 0.000000 0.500000
#
# Coordination Sequence:
#
# PCOD9445661 Si02
#       6
#     8   8   4   4   4   4
#     4  11  26  47  69 110 143 181 249 288 351 436
#     4  12  27  46  72 105 140 190 234 296 359 421
#     4  12  30  46  68 102 148 196 224 288 352 438
#     4  11  22  44  77 106 137 188 235 300 353 399
#     4  11  22  43  77 101 136 182 228 311 345 400
#     4  12  21  44  75 102 135 176 238 291 354 414
#
# _framework density 21.735498
#
# number of rings (size 3 to 8) (size 9 to 14) (size 15 to 20)
#    0.000    0.500    3.750    4.125    3.500    5.000 
#    0.000    0.000    0.000    0.000    0.000    0.000 
#    0.000    0.000    0.000    0.000    0.000    0.000 
#
# Total GULP energy -178305.663005 kJ/mol
# GULP energy per Si atom -5572.051969 kJ/mol
# Density = 2.168603 g / cm^3
# Si number density = 21.735498 Si / 1000 Ang^3
#
#
#
# Elastic Constant Matrix: (Units=GPa)
#
#
# Indices 1 2 3 4 5 6 
#
# 1 118.7957 32.8206 62.9869 0.0000 0.0000 0.0000
# 2 32.8206 115.2984 37.4270 0.0000 0.0000 0.0000
# 3 62.9869 37.4270 118.8326 0.0000 0.0000 0.0000
# 4 0.0000 0.0000 0.0000 15.8891 0.0000 0.0000
# 5 0.0000 0.0000 0.0000 0.0000 25.2663 0.0000
# 6 0.0000 0.0000 0.0000 0.0000 0.0000 48.2576
#
#
#
# Elastic Compliance Matrix: (Units=1/GPa)
#
#
# Indices 1 2 3 4 5 6 
#
# 1 0.011936 -0.001497 -0.005855 0.000000 0.000000 0.000000
# 2 -0.001497 0.009849 -0.002308 0.000000 0.000000 0.000000
# 3 -0.005855 -0.002308 0.012246 0.000000 0.000000 0.000000
# 4 0.000000 0.000000 0.000000 0.062936 0.000000 0.000000
# 5 0.000000 0.000000 0.000000 0.000000 0.039578 0.000000
# 6 0.000000 0.000000 0.000000 0.000000 0.000000 0.020722
#
#
# Mechanical properties :
#
#
# Convention : Reuss Voigt Hill
#
# Bulk Modulus (GPa) = 67.98461 68.82174 68.40317
# Shear Modulus (GPa) = 27.54961 32.52876 30.03918
#
# Velocity S-wave (km/s) = 3.56405 3.87275 3.72160
# Velocity P-wave (km/s) = 6.94857 7.19233 7.07150
#
# Compressibility (1/GPa) = 0.01470921
#
# Stress axis : x y z
#
# Youngs Moduli (GPa) = 83.78139 101.53720 81.66141
#
# Poissons Ratio (x) = 0.15200 0.47813
# Poissons Ratio (y) = 0.12542 0.18851
# Poissons Ratio (z) = 0.49054 0.23439
#
# Static dielectric constant tensor:
#      x y z
#    x 4.645430 0.000000 0.000000 
#    y 0.000000 2.329950 0.000000 
#    z 0.000000 0.000000 1.718800 
# 
# From -- ./inp_files/24072.got.cif
#   From: 2010.05.17/outbox.cif.g08.bks.cpg/sg58_13_cif.got.tgz:24072.got - 2010.06.03 14:20:14.
