data_PCOD9445808
_publ_section_title
;
Structure prediction by ZEFSAII (Michael W. Deem and Ramdas Pophale) SiO2 
 PCOD9445808
Probable space group: P N N M
;
_chemical_formula_sum "Si O2"
_cell_formula_units_Z 32
_cell_length_a 5.024768
_cell_length_b 8.926564
_cell_length_c 30.918363
_cell_angle_alpha 90.000000
_cell_angle_beta 90.000000
_cell_angle_gamma 90.000000
_cell_volume 1386.809568
_symmetry_space_group_name_H-M "P N N M"
_symmetry_group_IT_number 58
_symmetry_cell_setting 'orthorhombic'
loop_
_space_group_symop_operation_xyz
x,y,z
-x,-y,z
1/2+x,1/2-y,1/2-z
1/2-x,1/2+y,1/2-z
-x,-y,-z
x,y,-z
1/2-x,1/2+y,1/2+z
1/2+x,1/2-y,1/2+z
loop_
_atom_site_type_symbol
_atom_site_label
_atom_site_fract_x
_atom_site_fract_y
_atom_site_fract_z
Si Si1 0.389647 0.170676 0.231061
Si Si2 0.911348 0.827457 0.046728
Si Si3 0.419010 0.172458 0.866057
Si Si4 0.250159 0.103686 0.589923
O O1 0.637388 0.281218 0.240466
O O2 0.296638 0.190542 0.181171
O O3 0.500000 0.000000 0.236898
O O4 0.748222 0.801220 0.090465
O O5 0.157482 0.714326 0.051863
O O6 0.779225 0.801717 0.000000
O O7 0.000000 0.000000 0.047818
O O8 0.662329 0.287451 0.871224
O O9 0.500000 0.000000 0.868659
O O10 0.500000 0.000000 0.601185
O O11 0.000000 0.000000 0.578625
#
# Coordination Sequence:
#
# PCOD9445808 Si02
#       4
#     8   8   8   8
#     4  11  27  48  76 110 145 189 241 306 367 438
#     4  11  25  46  76 109 147 199 253 294 351 442
#     4  11  25  47  77 103 150 195 247 295 363 438
#     4  12  26  45  69 109 147 192 236 302 366 418
#
# _framework density 23.074545000000001
#
# number of rings (size 3 to 8) (size 9 to 14) (size 15 to 20)
#    0.000    0.750    5.000    0.750    3.500    5.500 
#    0.000    0.000    0.000    0.000    0.000    0.000 
#    0.000    0.000    0.000    0.000    0.000    0.000 
#
# Total GULP energy -178823.040507 kJ/mol
# GULP energy per Si atom -5588.220016 kJ/mol
# Density = 2.302203 g / cm^3
# Si number density = 23.074545 Si / 1000 Ang^3
#
#
#
# Elastic Constant Matrix: (Units=GPa)
#
#
# Indices 1 2 3 4 5 6 
#
# 1 107.3691 45.0890 44.0672 0.0000 0.0000 0.0000
# 2 45.0890 147.8819 40.0843 0.0000 0.0000 0.0000
# 3 44.0672 40.0843 162.9303 0.0000 0.0000 0.0000
# 4 0.0000 0.0000 0.0000 125.0370 0.0000 0.0000
# 5 0.0000 0.0000 0.0000 0.0000 36.7907 0.0000
# 6 0.0000 0.0000 0.0000 0.0000 0.0000 19.1741
#
#
#
# Elastic Compliance Matrix: (Units=1/GPa)
#
#
# Indices 1 2 3 4 5 6 
#
# 1 0.011501 -0.002854 -0.002408 0.000000 0.000000 0.000000
# 2 -0.002854 0.007953 -0.001185 0.000000 0.000000 0.000000
# 3 -0.002408 -0.001185 0.007081 0.000000 0.000000 0.000000
# 4 0.000000 0.000000 0.000000 0.007998 0.000000 0.000000
# 5 0.000000 0.000000 0.000000 0.000000 0.027181 0.000000
# 6 0.000000 0.000000 0.000000 0.000000 0.000000 0.052154
#
#
# Mechanical properties :
#
#
# Convention : Reuss Voigt Hill
#
# Bulk Modulus (GPa) = 73.31141 75.18470 74.24806
# Shear Modulus (GPa) = 38.07861 55.46308 46.77085
#
# Velocity S-wave (km/s) = 4.06673 4.90802 4.50705
# Velocity P-wave (km/s) = 7.34109 8.04813 7.70272
#
# Compressibility (1/GPa) = 0.01364044
#
# Stress axis : x y z
#
# Youngs Moduli (GPa) = 86.95238 125.73227 141.23294
#
# Poissons Ratio (x) = 0.35880 0.34015
# Poissons Ratio (y) = 0.24813 0.16734
# Poissons Ratio (z) = 0.20942 0.14898
#
# Static dielectric constant tensor:
#      x y z
#    x 1.962910 0.000000 0.000000 
#    y 0.000000 1.898280 0.000000 
#    z 0.000000 0.000000 1.870370 
# 
# From -- ./inp_files/33953.got.cif
#   From: 2010.05.17/outbox.cif.g08.bks.cpg/sg58_17_cif.got.tgz:33953.got - 2010.06.03 14:20:14.
