data_PCOD9445479
_publ_section_title
;
Structure prediction by ZEFSAII (Michael W. Deem and Ramdas Pophale) SiO2 
 PCOD9445479
Probable space group: P N N M
;
_chemical_formula_sum "Si O2"
_cell_formula_units_Z 30
_cell_length_a 8.217327
_cell_length_b 5.018972
_cell_length_c 30.451208
_cell_angle_alpha 90.000000
_cell_angle_beta 90.000000
_cell_angle_gamma 90.000000
_cell_volume 1255.884985
_symmetry_space_group_name_H-M "P N N M"
_symmetry_group_IT_number 58
_symmetry_cell_setting 'orthorhombic'
loop_
_space_group_symop_operation_xyz
x,y,z
-x,-y,z
1/2+x,1/2-y,1/2-z
1/2-x,1/2+y,1/2-z
-x,-y,-z
x,y,-z
1/2-x,1/2+y,1/2+z
1/2+x,1/2-y,1/2+z
loop_
_atom_site_type_symbol
_atom_site_label
_atom_site_fract_x
_atom_site_fract_y
_atom_site_fract_z
Si Si1 0.345309 0.300658 0.421472
Si Si2 0.500000 0.000000 0.657197
Si Si3 0.500000 0.500000 0.161465
Si Si4 0.500000 0.000000 0.902291
Si Si5 0.500000 0.000000 0.500000
Si Si6 0.727363 0.227412 0.276836
O O1 0.500000 0.500000 0.423848
O O2 0.370694 0.139090 0.375792
O O3 0.175059 0.459394 0.425829
O O4 0.372828 0.100637 0.461461
O O5 0.426578 0.782927 0.690757
O O6 0.501919 0.747510 0.129079
O O7 0.357088 0.431987 0.194627
O O8 0.788123 0.520375 0.263877
#
# Coordination Sequence:
#
# PCOD9445479 Si02
#       6
#     8   4   4   4   2   8
#     4  11  25  48  79 108 150 194 245 307 381 466
#     4  11  24  44  68 100 145 199 250 309 375 443
#     4  12  24  46  64 107 144 188 264 305 364 454
#     4  12  26  46  78 109 147 199 247 304 375 461
#     4  10  26  50  74 124 142 188 246 312 380 468
#     4  12  25  41  65 101 144 196 253 316 371 428
#
# _framework density 23.887537999999999
#
# number of rings (size 3 to 8) (size 9 to 14) (size 15 to 20)
#    0.000    0.533    2.667    5.200    7.467    0.533 
#    0.000    1.333    0.000    0.000    0.000    0.000 
#    0.000    0.000    0.000    0.000    0.000    0.000 
#
# Total GULP energy -167149.108369 kJ/mol
# GULP energy per Si atom -5571.636946 kJ/mol
# Density = 2.383317 g / cm^3
# Si number density = 23.887538 Si / 1000 Ang^3
#
#
#
# Elastic Constant Matrix: (Units=GPa)
#
#
# Indices 1 2 3 4 5 6 
#
# 1 153.7914 24.4649 21.8256 0.0000 0.0000 0.0000
# 2 24.4649 118.8817 10.5221 0.0000 0.0000 0.0000
# 3 21.8256 10.5221 77.7618 0.0000 0.0000 0.0000
# 4 0.0000 0.0000 0.0000 -326.2117 0.0000 0.0000
# 5 0.0000 0.0000 0.0000 0.0000 34.1731 0.0000
# 6 0.0000 0.0000 0.0000 0.0000 0.0000 41.0447
#
#
#
# Elastic Compliance Matrix: (Units=1/GPa)
#
#
# Indices 1 2 3 4 5 6 
#
# 1 0.006958 -0.001274 -0.001780 0.000000 0.000000 0.000000
# 2 -0.001274 0.008747 -0.000826 0.000000 0.000000 0.000000
# 3 -0.001780 -0.000826 0.013471 0.000000 0.000000 0.000000
# 4 0.000000 0.000000 0.000000 -0.003065 0.000000 0.000000
# 5 0.000000 0.000000 0.000000 0.000000 0.029263 0.000000
# 6 0.000000 0.000000 0.000000 0.000000 0.000000 0.024364
#
#
# Mechanical properties :
#
#
# Convention : Reuss Voigt Hill
#
# Bulk Modulus (GPa) = 46.69664 51.56221 49.12942
# Shear Modulus (GPa) = 52.83377 -30.62396 11.10491
#
# Velocity S-wave (km/s) = 4.70805 -3.58439 2.15845
# Velocity P-wave (km/s) = 7.01037 2.12173 5.17914
#
# Compressibility (1/GPa) = 0.02141482
#
# Stress axis : x y z
#
# Youngs Moduli (GPa) = 143.72585 114.32417 74.23212
#
# Poissons Ratio (x) = 0.14568 0.13216
# Poissons Ratio (y) = 0.18314 0.06131
# Poissons Ratio (z) = 0.25589 0.09442
#
# Static dielectric constant tensor:
#      x y z
#    x 2.098390 0.000000 0.000000 
#    y 0.000000 1.911620 0.000000 
#    z 0.000000 0.000000 1.953590 
# 
# From -- ./inp_files/34368.got.cif
#   From: 2010.05.17/outbox.cif.g08.bks.cpg/sg58_18_cif.got.tgz:34368.got - 2010.06.03 14:20:14.
