data_PCOD9445653
_publ_section_title
;
Structure prediction by ZEFSAII (Michael W. Deem and Ramdas Pophale) SiO2 
 PCOD9445653
Probable space group: P N N M
;
_chemical_formula_sum "Si O2"
_cell_formula_units_Z 32
_cell_length_a 7.195114
_cell_length_b 13.910875
_cell_length_c 15.274272
_cell_angle_alpha 90.000000
_cell_angle_beta 90.000000
_cell_angle_gamma 90.000000
_cell_volume 1528.806947
_symmetry_space_group_name_H-M "P N N M"
_symmetry_group_IT_number 58
_symmetry_cell_setting 'orthorhombic'
loop_
_space_group_symop_operation_xyz
x,y,z
-x,-y,z
1/2+x,1/2-y,1/2-z
1/2-x,1/2+y,1/2-z
-x,-y,-z
x,y,-z
1/2-x,1/2+y,1/2+z
1/2+x,1/2-y,1/2+z
loop_
_atom_site_type_symbol
_atom_site_label
_atom_site_fract_x
_atom_site_fract_y
_atom_site_fract_z
Si Si1 0.233414 0.915011 0.500000
Si Si2 0.883219 0.212282 0.857677
Si Si3 0.825722 0.369856 0.000000
Si Si4 0.566268 0.098254 0.100163
Si Si5 0.191900 0.769194 0.654261
O O1 0.456943 0.898769 0.500000
O O2 0.165641 0.857836 0.586737
O O3 0.210077 0.030777 0.500000
O O4 0.785416 0.118068 0.896815
O O5 0.824615 0.207107 0.756390
O O6 0.104410 0.224035 0.864305
O O7 0.801966 0.302215 0.914425
O O8 0.461936 0.188447 0.140212
O O9 0.500000 0.000000 0.143761
O O10 0.503316 0.096859 0.000000
#
# Coordination Sequence:
#
# PCOD9445653 Si02
#       5
#     4   8   4   8   8
#     4   9  20  39  63  92 123 161 208 260 316 374
#     4  11  22  40  66  92 129 166 207 262 321 382
#     4   9  20  39  63  92 123 161 208 260 316 374
#     4  11  24  42  64  89 125 170 217 262 314 376
#     4  11  22  40  66  92 129 166 207 262 321 382
#
# _framework density 20.931353999999999
#
# number of rings (size 3 to 8) (size 9 to 14) (size 15 to 20)
#    0.000    1.500    5.000    0.000    0.000    3.000 
#    0.000    5.000    0.000    0.000    0.000    0.000 
#    0.000    0.000    0.000    0.000    0.000    0.000 
#
# Total GULP energy -178505.598551 kJ/mol
# GULP energy per Si atom -5578.299955 kJ/mol
# Density = 2.088371 g / cm^3
# Si number density = 20.931354 Si / 1000 Ang^3
#
#
#
# Elastic Constant Matrix: (Units=GPa)
#
#
# Indices 1 2 3 4 5 6 
#
# 1 72.1397 2.9821 -2.2265 0.0000 0.0000 0.0000
# 2 2.9821 61.4912 42.1768 0.0000 0.0000 0.0000
# 3 -2.2265 42.1768 134.4409 0.0000 0.0000 0.0000
# 4 0.0000 0.0000 0.0000 -7.4736 0.0000 0.0000
# 5 0.0000 0.0000 0.0000 0.0000 27.8083 0.0000
# 6 0.0000 0.0000 0.0000 0.0000 0.0000 22.3462
#
#
#
# Elastic Compliance Matrix: (Units=1/GPa)
#
#
# Indices 1 2 3 4 5 6 
#
# 1 0.013923 -0.001062 0.000564 0.000000 0.000000 0.000000
# 2 -0.001062 0.020802 -0.006544 0.000000 0.000000 0.000000
# 3 0.000564 -0.006544 0.009500 0.000000 0.000000 0.000000
# 4 0.000000 0.000000 0.000000 -0.133804 0.000000 0.000000
# 5 0.000000 0.000000 0.000000 0.000000 0.035960 0.000000
# 6 0.000000 0.000000 0.000000 0.000000 0.000000 0.044750
#
#
# Mechanical properties :
#
#
# Convention : Reuss Voigt Hill
#
# Bulk Modulus (GPa) = 33.17595 39.32630 36.25112
# Shear Modulus (GPa) = 327.56251 23.54546 175.55399
#
# Velocity S-wave (km/s) = 12.52332 3.35758 9.16806
# Velocity P-wave (km/s) = 14.99985 5.81894 11.37663
#
# Compressibility (1/GPa) = 0.03014232
#
# Stress axis : x y z
#
# Youngs Moduli (GPa) = 71.82210 48.07162 105.25830
#
# Poissons Ratio (x) = 0.05105 -0.05934
# Poissons Ratio (y) = 0.07627 0.68878
# Poissons Ratio (z) = -0.04049 0.31457
#
# Static dielectric constant tensor:
#      x y z
#    x 1.776710 0.000000 0.000000 
#    y 0.000000 1.970770 0.000000 
#    z 0.000000 0.000000 2.521820 
# 
# From -- ./inp_files/19108.got.cif
#   From: 2010.05.17/outbox.cif.g08.bks.cpg/sg58_10_cif.got.tgz:19108.got - 2010.06.03 14:20:14.
