data_PCOD9445148
_publ_section_title
;
Structure prediction by ZEFSAII (Michael W. Deem and Ramdas Pophale) SiO2 
 PCOD9445148
Probable space group: P N N M
;
_chemical_formula_sum "Si O2"
_cell_formula_units_Z 52
_cell_length_a 15.501920
_cell_length_b 19.751553
_cell_length_c 7.486356
_cell_angle_alpha 90.000000
_cell_angle_beta 90.000000
_cell_angle_gamma 90.000000
_cell_volume 2292.224843
_symmetry_space_group_name_H-M "P N N M"
_symmetry_group_IT_number 58
_symmetry_cell_setting 'orthorhombic'
loop_
_space_group_symop_operation_xyz
x,y,z
-x,-y,z
1/2+x,1/2-y,1/2-z
1/2-x,1/2+y,1/2-z
-x,-y,-z
x,y,-z
1/2-x,1/2+y,1/2+z
1/2+x,1/2-y,1/2+z
loop_
_atom_site_type_symbol
_atom_site_label
_atom_site_fract_x
_atom_site_fract_y
_atom_site_fract_z
Si Si1 0.634136 0.071256 0.500000
Si Si2 0.617496 0.812262 0.713971
Si Si3 0.751723 0.994245 0.206710
Si Si4 0.803051 0.844365 0.209222
Si Si5 0.984879 0.798980 0.209202
Si Si6 0.931334 0.057242 0.715023
Si Si7 0.990033 0.577703 0.294569
O O1 0.686166 0.029477 0.341874
O O2 0.576579 0.109778 0.342979
O O3 0.618529 0.811717 0.500000
O O4 0.715642 0.801755 0.772812
O O5 0.548758 0.757802 0.784745
O O6 0.581063 0.884458 0.777348
O O7 0.838432 0.039113 0.208445
O O8 0.780802 0.919830 0.276174
O O9 0.720409 0.988926 0.000000
O O10 0.888907 0.810068 0.286266
O O11 0.821270 0.854950 0.000000
O O12 0.032905 0.870554 0.226698
O O13 0.975240 0.782145 0.000000
O O14 0.924512 0.056550 0.500000
O O15 0.000000 0.000000 0.769020
O O16 0.963010 0.578100 0.500000
O O17 0.000000 0.500000 0.230127
#
# Coordination Sequence:
#
# PCOD9445148 Si02
#       7
#     4   8   8   8   8   8   8
#     4  12  23  40  63 102 134 176 217 293 335 408
#     4  11  24  43  68  98 137 183 234 287 347 417
#     4  11  23  39  66 102 139 180 229 286 351 418
#     4  10  22  41  67  95 129 179 232 281 345 421
#     4  10  23  44  67  96 136 184 232 288 354 417
#     4  11  22  39  66 100 137 177 227 288 353 413
#     4  11  24  43  68  97 134 182 229 280 350 412
#
# _framework density 22.685385
#
# number of rings (size 3 to 8) (size 9 to 14) (size 15 to 20)
#    0.000    1.231    3.077    2.538    3.231    4.923 
#    2.769    0.000    0.000    0.000    0.000    0.000 
#    0.000    0.000    0.000    0.000    0.000    0.000 
#
# Total GULP energy -289819.888313 kJ/mol
# GULP energy per Si atom -5573.459391 kJ/mol
# Density = 2.263375 g / cm^3
# Si number density = 22.685385 Si / 1000 Ang^3
#
#
#
# Elastic Constant Matrix: (Units=GPa)
#
#
# Indices 1 2 3 4 5 6 
#
# 1 159.1930 49.0057 14.8766 0.0000 0.0000 0.0000
# 2 49.0057 67.3608 -19.4870 0.0000 0.0000 0.0000
# 3 14.8766 -19.4870 96.2146 0.0000 0.0000 0.0000
# 4 0.0000 0.0000 0.0000 6.6300 0.0000 0.0000
# 5 0.0000 0.0000 0.0000 0.0000 -34.9245 0.0000
# 6 0.0000 0.0000 0.0000 0.0000 0.0000 36.1706
#
#
#
# Elastic Compliance Matrix: (Units=1/GPa)
#
#
# Indices 1 2 3 4 5 6 
#
# 1 0.008755 -0.007182 -0.002808 0.000000 0.000000 0.000000
# 2 -0.007182 0.021661 0.005497 0.000000 0.000000 0.000000
# 3 -0.002808 0.005497 0.011941 0.000000 0.000000 0.000000
# 4 0.000000 0.000000 0.000000 0.150829 0.000000 0.000000
# 5 0.000000 0.000000 0.000000 0.000000 -0.028633 0.000000
# 6 0.000000 0.000000 0.000000 0.000000 0.000000 0.027647
#
#
# Mechanical properties :
#
#
# Convention : Reuss Voigt Hill
#
# Bulk Modulus (GPa) = 29.96551 45.72878 37.84715
# Shear Modulus (GPa) = 23.55068 20.13343 21.84205
#
# Velocity S-wave (km/s) = 3.22552 2.98234 3.10631
# Velocity P-wave (km/s) = 5.20671 5.66222 5.43923
#
# Compressibility (1/GPa) = 0.03337170
#
# Stress axis : x y z
#
# Youngs Moduli (GPa) = 114.22156 46.16681 83.74449
#
# Poissons Ratio (x) = 0.33156 0.23517
# Poissons Ratio (y) = 0.82030 -0.46038
# Poissons Ratio (z) = 0.32076 -0.25380
#
# Static dielectric constant tensor:
#      x y z
#    x 1.877150 0.000000 0.000000 
#    y 0.000000 1.847900 0.000000 
#    z 0.000000 0.000000 1.833830 
# 
# From -- ./inp_files/6169.got.cif
#   From: 2010.05.17/outbox.cif.g08.bks.cpg/sg58_4_cif.got.tgz:6169.got - 2010.06.03 14:20:14.
