data_PCOD9445634
_publ_section_title
;
Structure prediction by ZEFSAII (Michael W. Deem and Ramdas Pophale) SiO2 
 PCOD9445634
Probable space group: P N N M
;
_chemical_formula_sum "Si O2"
_cell_formula_units_Z 64
_cell_length_a 7.735541
_cell_length_b 13.301317
_cell_length_c 32.069104
_cell_angle_alpha 90.000000
_cell_angle_beta 90.000000
_cell_angle_gamma 90.000000
_cell_volume 3299.682566
_symmetry_space_group_name_H-M "P N N M"
_symmetry_group_IT_number 58
_symmetry_cell_setting 'orthorhombic'
loop_
_space_group_symop_operation_xyz
x,y,z
-x,-y,z
1/2+x,1/2-y,1/2-z
1/2-x,1/2+y,1/2-z
-x,-y,-z
x,y,-z
1/2-x,1/2+y,1/2+z
1/2+x,1/2-y,1/2+z
loop_
_atom_site_type_symbol
_atom_site_label
_atom_site_fract_x
_atom_site_fract_y
_atom_site_fract_z
Si Si1 0.316739 0.621988 0.951872
Si Si2 0.331713 0.864079 0.295056
Si Si3 0.236351 0.738358 0.872070
Si Si4 0.234253 0.895896 0.548353
Si Si5 0.338665 0.750285 0.621276
Si Si6 0.829325 0.933398 0.306956
Si Si7 0.046383 0.616504 0.345284
Si Si8 0.837737 0.309397 0.254379
O O1 0.262769 0.706949 0.919910
O O2 0.525494 0.614541 0.949578
O O3 0.235583 0.513105 0.940241
O O4 0.271411 0.641451 0.000000
O O5 0.287797 0.825243 0.341077
O O6 0.204837 0.805549 0.263953
O O7 0.516309 0.825587 0.279984
O O8 0.309762 0.981824 0.295548
O O9 0.277788 0.636586 0.845724
O O10 0.377157 0.817904 0.856299
O O11 0.038512 0.774891 0.869460
O O12 0.285881 0.881903 0.500000
O O13 0.316828 0.814646 0.579148
O O14 0.204607 0.658316 0.626175
O O15 0.829243 0.861543 0.266547
O O16 0.000000 0.000000 0.314642
O O17 0.103942 0.639084 0.297510
O O18 0.000000 0.500000 0.350486
#
# Coordination Sequence:
#
# PCOD9445634 Si02
#       8
#     8   8   8   8   8   8   8   8
#     4   9  19  35  62  95 134 175 208 245 308 390
#     4  11  22  38  57  86 125 158 210 251 308 367
#     4  12  24  40  66  96 127 165 213 262 324 383
#     4   9  18  36  61  95 135 173 207 248 308 379
#     4  11  23  39  63  94 124 162 208 264 314 382
#     4  12  24  38  61  91 125 168 207 263 315 369
#     4  11  25  46  65  86 121 166 213 272 329 382
#     4  11  23  41  60  85 122 168 214 260 313 375
#
# _framework density 19.395806
#
# number of rings (size 3 to 8) (size 9 to 14) (size 15 to 20)
#    0.000    1.250    2.500    5.625    1.750    2.500 
#    4.500    1.250    0.000    1.500    0.000    1.750 
#    0.000    0.000    0.000    0.000    0.000    0.000 
#
# Total GULP energy -357378.555028 kJ/mol
# GULP energy per Si atom -5584.039922 kJ/mol
# Density = 1.935166 g / cm^3
# Si number density = 19.395806 Si / 1000 Ang^3
#
#
#
# Elastic Constant Matrix: (Units=GPa)
#
#
# Indices 1 2 3 4 5 6 
#
# 1 107.2436 32.1932 15.3728 0.0000 0.0000 0.0000
# 2 32.1932 100.7141 34.5668 0.0000 0.0000 0.0000
# 3 15.3728 34.5668 75.8136 0.0000 0.0000 0.0000
# 4 0.0000 0.0000 0.0000 23.7621 0.0000 0.0000
# 5 0.0000 0.0000 0.0000 0.0000 25.9014 0.0000
# 6 0.0000 0.0000 0.0000 0.0000 0.0000 19.8243
#
#
#
# Elastic Compliance Matrix: (Units=1/GPa)
#
#
# Indices 1 2 3 4 5 6 
#
# 1 0.010345 -0.003067 -0.000699 0.000000 0.000000 0.000000
# 2 -0.003067 0.012680 -0.005160 0.000000 0.000000 0.000000
# 3 -0.000699 -0.005160 0.015685 0.000000 0.000000 0.000000
# 4 0.000000 0.000000 0.000000 0.042084 0.000000 0.000000
# 5 0.000000 0.000000 0.000000 0.000000 0.038608 0.000000
# 6 0.000000 0.000000 0.000000 0.000000 0.000000 0.050443
#
#
# Mechanical properties :
#
#
# Convention : Reuss Voigt Hill
#
# Bulk Modulus (GPa) = 47.94219 49.78186 48.86202
# Shear Modulus (GPa) = 25.68713 27.34012 26.51363
#
# Velocity S-wave (km/s) = 3.64313 3.75852 3.70128
# Velocity P-wave (km/s) = 6.51675 6.67513 6.59641
#
# Compressibility (1/GPa) = 0.02085846
#
# Stress axis : x y z
#
# Youngs Moduli (GPa) = 96.66070 78.86254 63.75696
#
# Poissons Ratio (x) = 0.24186 0.04459
# Poissons Ratio (y) = 0.29645 0.32896
# Poissons Ratio (z) = 0.06761 0.40690
#
# Static dielectric constant tensor:
#      x y z
#    x 1.784340 0.000000 0.000000 
#    y 0.000000 1.667890 0.000000 
#    z 0.000000 0.000000 1.674120 
# 
# From -- ./inp_files/34748.got.cif
#   From: 2010.05.17/outbox.cif.g08.bks.cpg/sg58_18_cif.got.tgz:34748.got - 2010.06.03 14:20:14.
