data_PCOD9445061
_publ_section_title
;
Structure prediction by ZEFSAII (Michael W. Deem and Ramdas Pophale) SiO2 
 PCOD9445061
Probable space group: P N N M
;
_chemical_formula_sum "Si O2"
_cell_formula_units_Z 34
_cell_length_a 15.628136
_cell_length_b 10.558067
_cell_length_c 9.416243
_cell_angle_alpha 90.000000
_cell_angle_beta 90.000000
_cell_angle_gamma 90.000000
_cell_volume 1553.707468
_symmetry_space_group_name_H-M "P N N M"
_symmetry_group_IT_number 58
_symmetry_cell_setting 'orthorhombic'
loop_
_space_group_symop_operation_xyz
x,y,z
-x,-y,z
1/2+x,1/2-y,1/2-z
1/2-x,1/2+y,1/2-z
-x,-y,-z
x,y,-z
1/2-x,1/2+y,1/2+z
1/2+x,1/2-y,1/2+z
loop_
_atom_site_type_symbol
_atom_site_label
_atom_site_fract_x
_atom_site_fract_y
_atom_site_fract_z
Si Si1 0.500000 0.500000 0.500000
Si Si2 0.237873 0.788782 0.000000
Si Si3 0.000000 0.500000 0.752375
Si Si4 0.295245 0.132657 0.000000
Si Si5 0.415930 0.883372 0.000000
Si Si6 0.808932 0.083121 0.500000
Si Si7 0.864181 0.469257 0.000000
Si Si8 0.334203 0.505063 0.305809
O O1 0.425464 0.522115 0.378258
O O2 0.340048 0.783206 0.000000
O O3 0.190673 0.657441 0.000000
O O4 0.205731 0.873684 0.132385
O O5 0.029083 0.389123 0.643996
O O6 0.077537 0.528714 0.859393
O O7 0.335557 0.270368 0.000000
O O8 0.363904 0.018656 0.000000
O O9 0.233086 0.108910 0.135602
O O10 0.838045 0.010699 0.360394
O O11 0.704644 0.081653 0.500000
#
# Coordination Sequence:
#
# PCOD9445061 Si02
#       8
#     2   4   4   4   4   4   4   8
#     4   8  18  46  62  84 136 164 214 274 350 374
#     4   9  20  40  66  86 130 178 210 271 340 397
#     4  10  22  40  62  94 136 162 224 284 332 394
#     4   9  21  43  64  90 135 175 224 279 329 401
#     4   9  19  43  66  87 125 182 218 266 349 392
#     4  12  24  37  68 102 121 179 242 262 329 418
#     4  11  23  40  59 102 134 163 221 283 328 403
#     4   9  21  41  65  93 126 176 216 276 330 396
#
# _framework density 21.883141999999999
#
# number of rings (size 3 to 8) (size 9 to 14) (size 15 to 20)
#    0.000    2.824    0.000    2.824    6.588    0.471 
#   16.941    0.000    0.000    0.000    0.000    0.000 
#    0.000    0.000    0.000    0.000    0.000    0.000 
#
# Total GULP energy -189420.115813 kJ/mol
# GULP energy per Si atom -5571.179877 kJ/mol
# Density = 2.183334 g / cm^3
# Si number density = 21.883142 Si / 1000 Ang^3
#
#
#
# Elastic Constant Matrix: (Units=GPa)
#
#
# Indices 1 2 3 4 5 6 
#
# 1 95.6770 -6.0502 39.2433 0.0000 0.0000 0.0000
# 2 -6.0502 44.3803 14.2688 0.0000 0.0000 0.0000
# 3 39.2433 14.2688 210.9979 0.0000 0.0000 0.0000
# 4 0.0000 0.0000 0.0000 9.5854 0.0000 0.0000
# 5 0.0000 0.0000 0.0000 0.0000 58.1250 0.0000
# 6 0.0000 0.0000 0.0000 0.0000 0.0000 18.8999
#
#
#
# Elastic Compliance Matrix: (Units=1/GPa)
#
#
# Indices 1 2 3 4 5 6 
#
# 1 0.011543 0.002314 -0.002303 0.000000 0.000000 0.000000
# 2 0.002314 0.023497 -0.002019 0.000000 0.000000 0.000000
# 3 -0.002303 -0.002019 0.005304 0.000000 0.000000 0.000000
# 4 0.000000 0.000000 0.000000 0.104326 0.000000 0.000000
# 5 0.000000 0.000000 0.000000 0.000000 0.017204 0.000000
# 6 0.000000 0.000000 0.000000 0.000000 0.000000 0.052910
#
#
# Mechanical properties :
#
#
# Convention : Reuss Voigt Hill
#
# Bulk Modulus (GPa) = 27.52747 49.55320 38.54034
# Shear Modulus (GPa) = 21.65333 37.56162 29.60747
#
# Velocity S-wave (km/s) = 3.14904 4.14752 3.68228
# Velocity P-wave (km/s) = 5.08218 6.75496 5.97738
#
# Compressibility (1/GPa) = 0.03632734
#
# Stress axis : x y z
#
# Youngs Moduli (GPa) = 86.63312 42.55813 188.52464
#
# Poissons Ratio (x) = -0.09849 0.43424
# Poissons Ratio (y) = -0.20048 0.38071
# Poissons Ratio (z) = 0.19955 0.08594
#
# Static dielectric constant tensor:
#      x y z
#    x 1.810410 0.000000 0.000000 
#    y 0.000000 1.832700 0.000000 
#    z 0.000000 0.000000 1.821990 
# 
# From -- ./inp_files/3756.got.cif
#   From: 2010.05.17/outbox.cif.g08.bks.cpg/sg58_2_cif.got.tgz:3756.got - 2010.06.03 14:20:14.
