data_PCOD9445138
_publ_section_title
;
Structure prediction by ZEFSAII (Michael W. Deem and Ramdas Pophale) SiO2 
 PCOD9445138
Probable space group: P N N M
;
_chemical_formula_sum "Si O2"
_cell_formula_units_Z 34
_cell_length_a 9.037500
_cell_length_b 21.565118
_cell_length_c 9.093094
_cell_angle_alpha 90.000000
_cell_angle_beta 90.000000
_cell_angle_gamma 90.000000
_cell_volume 1772.196318
_symmetry_space_group_name_H-M "P N N M"
_symmetry_group_IT_number 58
_symmetry_cell_setting 'orthorhombic'
loop_
_space_group_symop_operation_xyz
x,y,z
-x,-y,z
1/2+x,1/2-y,1/2-z
1/2-x,1/2+y,1/2-z
-x,-y,-z
x,y,-z
1/2-x,1/2+y,1/2+z
1/2+x,1/2-y,1/2+z
loop_
_atom_site_type_symbol
_atom_site_label
_atom_site_fract_x
_atom_site_fract_y
_atom_site_fract_z
Si Si1 0.460034 0.294404 0.173127
Si Si2 0.000000 0.000000 0.000000
Si Si3 0.344791 0.826190 0.172851
Si Si4 0.332012 0.608212 0.337291
Si Si5 0.969106 0.427233 0.826880
O O1 0.529891 0.226265 0.189788
O O2 0.305202 0.301196 0.255856
O O3 0.573084 0.343208 0.244980
O O4 0.442170 0.306889 0.000000
O O5 0.928436 0.952914 0.874417
O O6 0.400418 0.887666 0.253375
O O7 0.320915 0.838304 0.000000
O O8 0.294981 0.635218 0.500000
O O9 0.182508 0.590489 0.254280
O O10 0.000000 0.500000 0.809147
O O11 0.959051 0.412909 0.000000
#
# Coordination Sequence:
#
# PCOD9445138 Si02
#       5
#     8   2   8   8   8
#     4  11  24  42  66  95 128 164 211 265 316 370
#     4   8  24  40  64 100 124 168 210 256 308 380
#     4  11  25  42  65  94 126 168 212 259 317 378
#     4  10  22  41  65  91 127 164 212 251 311 373
#     4  11  25  42  63  94 130 167 210 263 317 373
#
# _framework density 19.185231999999999
#
# number of rings (size 3 to 8) (size 9 to 14) (size 15 to 20)
#    0.706    0.706    0.000    4.235    3.294    9.412 
#    0.000    1.176    0.000    0.000    0.000    0.000 
#    0.000    0.000    0.000    0.000    0.000    0.000 
#
# Total GULP energy -189509.847885 kJ/mol
# GULP energy per Si atom -5573.819055 kJ/mol
# Density = 1.914157 g / cm^3
# Si number density = 19.185232 Si / 1000 Ang^3
#
#
#
# Elastic Constant Matrix: (Units=GPa)
#
#
# Indices 1 2 3 4 5 6 
#
# 1 83.1967 29.1417 65.3137 0.0000 0.0000 0.0000
# 2 29.1417 47.2220 64.0102 0.0000 0.0000 0.0000
# 3 65.3137 64.0102 156.2049 0.0000 0.0000 0.0000
# 4 0.0000 0.0000 0.0000 37.2705 0.0000 0.0000
# 5 0.0000 0.0000 0.0000 0.0000 37.7561 0.0000
# 6 0.0000 0.0000 0.0000 0.0000 0.0000 24.8797
#
#
#
# Elastic Compliance Matrix: (Units=1/GPa)
#
#
# Indices 1 2 3 4 5 6 
#
# 1 0.017980 -0.002036 -0.006683 0.000000 0.000000 0.000000
# 2 -0.002036 0.047869 -0.018764 0.000000 0.000000 0.000000
# 3 -0.006683 -0.018764 0.016886 0.000000 0.000000 0.000000
# 4 0.000000 0.000000 0.000000 0.026831 0.000000 0.000000
# 5 0.000000 0.000000 0.000000 0.000000 0.026486 0.000000
# 6 0.000000 0.000000 0.000000 0.000000 0.000000 0.040193
#
#
# Mechanical properties :
#
#
# Convention : Reuss Voigt Hill
#
# Bulk Modulus (GPa) = 36.01513 67.06162 51.53838
# Shear Modulus (GPa) = 20.79282 28.52512 24.65897
#
# Velocity S-wave (km/s) = 3.29567 3.86012 3.58901
# Velocity P-wave (km/s) = 5.77018 7.40932 6.64052
#
# Compressibility (1/GPa) = 0.02776611
#
# Stress axis : x y z
#
# Youngs Moduli (GPa) = 55.61797 20.89053 59.22155
#
# Poissons Ratio (x) = 0.04254 0.39581
# Poissons Ratio (y) = 0.11324 1.11126
# Poissons Ratio (z) = 0.37172 0.39200
#
# Static dielectric constant tensor:
#      x y z
#    x 1.646420 0.000000 0.000000 
#    y 0.000000 1.649910 0.000000 
#    z 0.000000 0.000000 1.648390 
# 
# From -- ./inp_files/2260.got.cif
#   From: 2010.05.17/outbox.cif.g08.bks.cpg/sg58_2_cif.got.tgz:2260.got - 2010.06.03 14:20:14.
