data_PCOD9445434
_publ_section_title
;
Structure prediction by ZEFSAII (Michael W. Deem and Ramdas Pophale) SiO2 
 PCOD9445434
Probable space group: P N N M
;
_chemical_formula_sum "Si O2"
_cell_formula_units_Z 24
_cell_length_a 8.931874
_cell_length_b 5.170161
_cell_length_c 23.373080
_cell_angle_alpha 90.000000
_cell_angle_beta 90.000000
_cell_angle_gamma 90.000000
_cell_volume 1079.350758
_symmetry_space_group_name_H-M "P N N M"
_symmetry_group_IT_number 58
_symmetry_cell_setting 'orthorhombic'
loop_
_space_group_symop_operation_xyz
x,y,z
-x,-y,z
1/2+x,1/2-y,1/2-z
1/2-x,1/2+y,1/2-z
-x,-y,-z
x,y,-z
1/2-x,1/2+y,1/2+z
1/2+x,1/2-y,1/2+z
loop_
_atom_site_type_symbol
_atom_site_label
_atom_site_fract_x
_atom_site_fract_y
_atom_site_fract_z
Si Si1 0.104735 0.247007 0.065679
Si Si2 0.831128 0.064820 0.657699
Si Si3 0.896901 0.246909 0.783379
O O1 0.238749 0.284336 0.110028
O O2 0.000000 0.500000 0.070438
O O3 0.159110 0.229914 0.000000
O O4 0.000000 0.000000 0.076268
O O5 0.740256 0.804360 0.674515
O O6 0.839558 0.214185 0.718441
O O7 0.000000 0.000000 0.640364
O O8 0.000000 0.500000 0.787154
O O9 0.000000 0.000000 0.795420
#
# Coordination Sequence:
#
# PCOD9445434 Si02
#       3
#     8   8   8
#     4  10  24  46  69  93 127 176 225 268 327 399
#     4  11  24  41  68 102 135 170 221 279 329 382
#     4  11  25  43  63  96 143 184 215 258 331 410
#
# _framework density 22.235589999999998
#
# number of rings (size 3 to 8) (size 9 to 14) (size 15 to 20)
#    0.000    1.333    0.000    5.000    0.000   18.000 
#    0.000    0.000    0.000    7.000    0.000    0.000 
#    0.000    0.000    0.000    0.000    0.000    0.000 
#
# Total GULP energy -134557.493308 kJ/mol
# GULP energy per Si atom -5606.562221 kJ/mol
# Density = 2.218498 g / cm^3
# Si number density = 22.235590 Si / 1000 Ang^3
#
#
#
# Elastic Constant Matrix: (Units=GPa)
#
#
# Indices 1 2 3 4 5 6 
#
# 1 201.5389 89.4023 102.8788 0.0000 0.0000 0.0000
# 2 89.4023 182.2102 53.5050 0.0000 0.0000 0.0000
# 3 102.8788 53.5050 185.8730 0.0000 0.0000 0.0000
# 4 0.0000 0.0000 0.0000 -15.9675 0.0000 0.0000
# 5 0.0000 0.0000 0.0000 0.0000 187.1873 0.0000
# 6 0.0000 0.0000 0.0000 0.0000 0.0000 24.5021
#
#
#
# Elastic Compliance Matrix: (Units=1/GPa)
#
#
# Indices 1 2 3 4 5 6 
#
# 1 0.008119 -0.002910 -0.003656 0.000000 0.000000 0.000000
# 2 -0.002910 0.007038 -0.000415 0.000000 0.000000 0.000000
# 3 -0.003656 -0.000415 0.007523 0.000000 0.000000 0.000000
# 4 0.000000 0.000000 0.000000 -0.062627 0.000000 0.000000
# 5 0.000000 0.000000 0.000000 0.000000 0.005342 0.000000
# 6 0.000000 0.000000 0.000000 0.000000 0.000000 0.040813
#
#
# Mechanical properties :
#
#
# Convention : Reuss Voigt Hill
#
# Bulk Modulus (GPa) = 114.71418 117.91046 116.31232
# Shear Modulus (GPa) = 216.66856 60.73345 138.70100
#
# Velocity S-wave (km/s) = 9.88199 5.23191 7.90654
# Velocity P-wave (km/s) = 13.48730 9.46785 11.65220
#
# Compressibility (1/GPa) = 0.00871732
#
# Stress axis : x y z
#
# Youngs Moduli (GPa) = 123.16723 142.08729 132.92253
#
# Poissons Ratio (x) = 0.41348 0.48598
# Poissons Ratio (y) = 0.35842 0.05520
# Poissons Ratio (z) = 0.45032 0.05900
#
# Static dielectric constant tensor:
#      x y z
#    x 1.826970 0.000000 0.000000 
#    y 0.000000 1.844650 0.000000 
#    z 0.000000 0.000000 1.846100 
# 
# From -- ./inp_files/30687.got.cif
#   From: 2010.05.17/outbox.cif.g08.bks.cpg/sg58_16_cif.got.tgz:30687.got - 2010.06.03 14:20:14.
