data_PCOD9445391
_publ_section_title
;
Structure prediction by ZEFSAII (Michael W. Deem and Ramdas Pophale) SiO2 
 PCOD9445391
Probable space group: P N N M
;
_chemical_formula_sum "Si O2"
_cell_formula_units_Z 56
_cell_length_a 5.163108
_cell_length_b 20.711007
_cell_length_c 21.892133
_cell_angle_alpha 90.000000
_cell_angle_beta 90.000000
_cell_angle_gamma 90.000000
_cell_volume 2340.995091
_symmetry_space_group_name_H-M "P N N M"
_symmetry_group_IT_number 58
_symmetry_cell_setting 'orthorhombic'
loop_
_space_group_symop_operation_xyz
x,y,z
-x,-y,z
1/2+x,1/2-y,1/2-z
1/2-x,1/2+y,1/2-z
-x,-y,-z
x,y,-z
1/2-x,1/2+y,1/2+z
1/2+x,1/2-y,1/2+z
loop_
_atom_site_type_symbol
_atom_site_label
_atom_site_fract_x
_atom_site_fract_y
_atom_site_fract_z
Si Si1 0.869355 0.850582 0.159844
Si Si2 0.502981 0.931126 0.104627
Si Si3 0.751223 0.702003 0.567414
Si Si4 0.310285 0.438892 0.732886
Si Si5 0.835167 0.625182 0.852661
Si Si6 0.919368 0.247157 0.286279
Si Si7 0.142978 0.150657 0.428446
O O1 0.797830 0.912799 0.120563
O O2 0.608010 0.813818 0.176824
O O3 0.037151 0.803544 0.119322
O O4 0.010633 0.876330 0.219522
O O5 0.395891 0.867351 0.071286
O O6 0.359285 0.941116 0.170705
O O7 0.500000 0.000000 0.072678
O O8 0.628920 0.705857 0.500000
O O9 0.896517 0.770696 0.574721
O O10 0.500000 0.500000 0.738621
O O11 0.157936 0.424867 0.795631
O O12 0.726870 0.690834 0.821890
O O13 0.606005 0.613339 0.901740
O O14 0.106386 0.634104 0.887183
O O15 0.716653 0.260956 0.231036
O O16 0.185827 0.135985 0.500000
#
# Coordination Sequence:
#
# PCOD9445391 Si02
#       7
#     8   8   8   8   8   8   8
#     4  11  22  38  60  86 127 166 211 270 333 390
#     4  11  23  40  63  89 131 179 226 273 335 386
#     4  10  24  41  61  91 127 176 230 281 334 397
#     4  11  24  41  64  96 132 173 216 272 335 413
#     4  12  24  41  70 100 134 176 224 271 345 419
#     4  12  23  36  60  96 136 165 206 274 339 405
#     4  11  25  46  69 100 136 174 222 284 349 408
#
# _framework density 23.921451999999999
#
# number of rings (size 3 to 8) (size 9 to 14) (size 15 to 20)
#    0.000    0.857    4.286    3.000    4.000    0.857 
#    0.000    0.714    0.000    2.571    0.000    0.000 
#    0.000    0.000    0.000    0.000    0.000    0.000 
#
# Total GULP energy -312916.359991 kJ/mol
# GULP energy per Si atom -5587.792143 kJ/mol
# Density = 2.386701 g / cm^3
# Si number density = 23.921452 Si / 1000 Ang^3
#
#
#
# Elastic Constant Matrix: (Units=GPa)
#
#
# Indices 1 2 3 4 5 6 
#
# 1 77.6940 8.8453 38.2272 0.0000 0.0000 0.0000
# 2 8.8453 47.1895 31.8221 0.0000 0.0000 0.0000
# 3 38.2272 31.8221 123.3380 0.0000 0.0000 0.0000
# 4 0.0000 0.0000 0.0000 17.2362 0.0000 0.0000
# 5 0.0000 0.0000 0.0000 0.0000 11.7383 0.0000
# 6 0.0000 0.0000 0.0000 0.0000 0.0000 40.6077
#
#
#
# Elastic Compliance Matrix: (Units=1/GPa)
#
#
# Indices 1 2 3 4 5 6 
#
# 1 0.015193 0.000397 -0.004811 0.000000 0.000000 0.000000
# 2 0.000397 0.025665 -0.006745 0.000000 0.000000 0.000000
# 3 -0.004811 -0.006745 0.011339 0.000000 0.000000 0.000000
# 4 0.000000 0.000000 0.000000 0.058017 0.000000 0.000000
# 5 0.000000 0.000000 0.000000 0.000000 0.085191 0.000000
# 6 0.000000 0.000000 0.000000 0.000000 0.000000 0.024626
#
#
# Mechanical properties :
#
#
# Convention : Reuss Voigt Hill
#
# Bulk Modulus (GPa) = 33.46865 45.11229 39.29047
# Shear Modulus (GPa) = 19.81690 25.20491 22.51090
#
# Velocity S-wave (km/s) = 2.88134 3.24952 3.07096
# Velocity P-wave (km/s) = 5.00909 5.74270 5.38840
#
# Compressibility (1/GPa) = 0.02987871
#
# Stress axis : x y z
#
# Youngs Moduli (GPa) = 65.81938 38.96343 88.18978
#
# Poissons Ratio (x) = -0.01545 0.42430
# Poissons Ratio (y) = -0.02611 0.59482
# Poissons Ratio (z) = 0.31667 0.26280
#
# Static dielectric constant tensor:
#      x y z
#    x 1.924350 0.000000 0.000000 
#    y 0.000000 1.936690 0.000000 
#    z 0.000000 0.000000 1.984970 
# 
# From -- ./inp_files/28238.got.cif
#   From: 2010.05.17/outbox.cif.g08.bks.cpg/sg58_15_cif.got.tgz:28238.got - 2010.06.03 14:20:14.
