data_PCOD9445367
_publ_section_title
;
Structure prediction by ZEFSAII (Michael W. Deem and Ramdas Pophale) SiO2 
 PCOD9445367
Probable space group: P N N M
;
_chemical_formula_sum "Si O2"
_cell_formula_units_Z 58
_cell_length_a 26.211879
_cell_length_b 11.951013
_cell_length_c 9.184439
_cell_angle_alpha 90.000000
_cell_angle_beta 90.000000
_cell_angle_gamma 90.000000
_cell_volume 2877.103646
_symmetry_space_group_name_H-M "P N N M"
_symmetry_group_IT_number 58
_symmetry_cell_setting 'orthorhombic'
loop_
_space_group_symop_operation_xyz
x,y,z
-x,-y,z
1/2+x,1/2-y,1/2-z
1/2-x,1/2+y,1/2-z
-x,-y,-z
x,y,-z
1/2-x,1/2+y,1/2+z
1/2+x,1/2-y,1/2+z
loop_
_atom_site_type_symbol
_atom_site_label
_atom_site_fract_x
_atom_site_fract_y
_atom_site_fract_z
Si Si1 0.050798 0.849814 0.336519
Si Si2 0.321657 0.849667 0.329441
Si Si3 0.500000 0.000000 0.000000
Si Si4 0.161377 0.102541 0.167126
Si Si5 0.291039 0.394624 0.826586
Si Si6 0.107107 0.501237 0.339851
Si Si7 0.936133 0.881623 0.336770
Si Si8 0.636802 0.775699 0.672210
O O1 0.064510 0.807398 0.500000
O O2 0.087764 0.798682 0.218300
O O3 0.991114 0.825798 0.313533
O O4 0.055972 0.983874 0.339471
O O5 0.333779 0.868037 0.500000
O O6 0.309017 0.718332 0.313403
O O7 0.268673 0.910553 0.293005
O O8 0.368152 0.891555 0.231581
O O9 0.546519 0.002617 0.874666
O O10 0.104205 0.137212 0.211553
O O11 0.179239 0.003835 0.271179
O O12 0.164316 0.065292 0.000000
O O13 0.315930 0.288022 0.747262
O O14 0.296891 0.381822 0.000000
O O15 0.130950 0.517603 0.500000
O O16 0.124439 0.603540 0.238890
O O17 0.918173 0.849132 0.500000
O O18 0.643594 0.780566 0.500000
#
# Coordination Sequence:
#
# PCOD9445367 Si02
#       8
#     8   8   2   8   8   8   8   8
#     4   9  18  34  56  87 126 170 216 263 322 394
#     4  10  25  46  67  98 135 176 226 286 346 405
#     4   8  24  48  74 104 130 184 238 288 338 422
#     4  11  23  40  62  95 134 168 215 279 348 403
#     4  11  24  43  66  95 136 181 230 281 341 416
#     4  10  23  46  73  98 132 175 233 283 337 415
#     4   9  18  34  57  85 122 168 214 263 322 395
#     4  12  24  39  64 100 137 176 225 281 345 403
#
# _framework density 20.159161999999998
#
# number of rings (size 3 to 8) (size 9 to 14) (size 15 to 20)
#    0.414    1.379    1.379    3.310    1.931    3.862 
#    2.483    4.138    0.000    0.000    0.000    0.000 
#    0.000    0.000    0.000    0.000    0.000    0.000 
#
# Total GULP energy -323168.203342 kJ/mol
# GULP energy per Si atom -5571.865575 kJ/mol
# Density = 2.011328 g / cm^3
# Si number density = 20.159162 Si / 1000 Ang^3
#
#
#
# Elastic Constant Matrix: (Units=GPa)
#
#
# Indices 1 2 3 4 5 6 
#
# 1 86.5905 18.7898 46.5182 0.0000 0.0000 0.0000
# 2 18.7898 44.9330 31.3778 0.0000 0.0000 0.0000
# 3 46.5182 31.3778 106.3067 0.0000 0.0000 0.0000
# 4 0.0000 0.0000 0.0000 26.0177 0.0000 0.0000
# 5 0.0000 0.0000 0.0000 0.0000 29.4669 0.0000
# 6 0.0000 0.0000 0.0000 0.0000 0.0000 11.1643
#
#
#
# Elastic Compliance Matrix: (Units=1/GPa)
#
#
# Indices 1 2 3 4 5 6 
#
# 1 0.015263 -0.002165 -0.006040 0.000000 0.000000 0.000000
# 2 -0.002165 0.028341 -0.007418 0.000000 0.000000 0.000000
# 3 -0.006040 -0.007418 0.014239 0.000000 0.000000 0.000000
# 4 0.000000 0.000000 0.000000 0.038435 0.000000 0.000000
# 5 0.000000 0.000000 0.000000 0.000000 0.033936 0.000000
# 6 0.000000 0.000000 0.000000 0.000000 0.000000 0.089571
#
#
# Mechanical properties :
#
#
# Convention : Reuss Voigt Hill
#
# Bulk Modulus (GPa) = 37.59701 47.91129 42.75415
# Shear Modulus (GPa) = 19.23840 22.73941 20.98890
#
# Velocity S-wave (km/s) = 3.09257 3.36221 3.23020
# Velocity P-wave (km/s) = 5.60736 6.23624 5.93014
#
# Compressibility (1/GPa) = 0.02659786
#
# Stress axis : x y z
#
# Youngs Moduli (GPa) = 65.51728 35.28504 70.22870
#
# Poissons Ratio (x) = 0.07638 0.42418
# Poissons Ratio (y) = 0.14183 0.52094
# Poissons Ratio (z) = 0.39572 0.26174
#
# Static dielectric constant tensor:
#      x y z
#    x 1.746810 0.000000 0.000000 
#    y 0.000000 1.794230 0.000000 
#    z 0.000000 0.000000 1.680440 
# 
# From -- ./inp_files/10450.got.cif
#   From: 2010.05.17/outbox.cif.g08.bks.cpg/sg58_6_cif.got.tgz:10450.got - 2010.06.03 14:20:14.
