data_PCOD9445455
_publ_section_title
;
Structure prediction by ZEFSAII (Michael W. Deem and Ramdas Pophale) SiO2 
 PCOD9445455
Probable space group: P N N M
;
_chemical_formula_sum "Si O2"
_cell_formula_units_Z 40
_cell_length_a 13.822502
_cell_length_b 5.928915
_cell_length_c 22.593309
_cell_angle_alpha 90.000000
_cell_angle_beta 90.000000
_cell_angle_gamma 90.000000
_cell_volume 1851.576788
_symmetry_space_group_name_H-M "P N N M"
_symmetry_group_IT_number 58
_symmetry_cell_setting 'orthorhombic'
loop_
_space_group_symop_operation_xyz
x,y,z
-x,-y,z
1/2+x,1/2-y,1/2-z
1/2-x,1/2+y,1/2-z
-x,-y,-z
x,y,-z
1/2-x,1/2+y,1/2+z
1/2+x,1/2-y,1/2+z
loop_
_atom_site_type_symbol
_atom_site_label
_atom_site_fract_x
_atom_site_fract_y
_atom_site_fract_z
Si Si1 0.237817 0.764780 0.175151
Si Si2 0.250291 0.100463 0.066699
Si Si3 0.902008 0.621611 0.870025
Si Si4 0.964463 0.248565 0.569975
Si Si5 0.400660 0.587229 0.745909
O O1 0.179124 0.546354 0.155242
O O2 0.338981 0.723311 0.206896
O O3 0.252224 0.912434 0.116915
O O4 0.170316 0.892331 0.222548
O O5 0.152585 0.238835 0.079524
O O6 0.347805 0.246293 0.074643
O O7 0.251664 0.009956 0.000000
O O8 0.927785 0.775554 0.813427
O O9 0.000000 0.500000 0.889678
O O10 0.991723 0.252710 0.500000
O O11 0.000000 0.500000 0.592966
O O12 0.000000 0.000000 0.591663
O O13 0.500000 0.500000 0.771953
#
# Coordination Sequence:
#
# PCOD9445455 Si02
#       5
#     8   8   8   8   8
#     4  11  23  42  70 102 135 178 232 287 360 434
#     4  10  25  44  66 101 142 186 236 290 348 433
#     4  11  23  42  70  97 133 181 225 293 365 423
#     4   9  19  39  66  92 130 185 236 288 349 412
#     4  11  22  42  71 100 136 175 227 298 364 430
#
# _framework density 21.603206
#
# number of rings (size 3 to 8) (size 9 to 14) (size 15 to 20)
#    0.000    1.600    4.000    0.000    2.800    1.200 
#    3.600    1.000    0.000    0.600    0.000    0.000 
#    0.000    0.000    0.000    0.000    0.000    0.000 
#
# Total GULP energy -223460.386221 kJ/mol
# GULP energy per Si atom -5586.509656 kJ/mol
# Density = 2.155404 g / cm^3
# Si number density = 21.603206 Si / 1000 Ang^3
#
#
#
# Elastic Constant Matrix: (Units=GPa)
#
#
# Indices 1 2 3 4 5 6 
#
# 1 144.9804 40.1431 56.1550 0.0000 0.0000 0.0000
# 2 40.1431 83.7727 25.8886 0.0000 0.0000 0.0000
# 3 56.1550 25.8886 83.5452 0.0000 0.0000 0.0000
# 4 0.0000 0.0000 0.0000 -20.6908 0.0000 0.0000
# 5 0.0000 0.0000 0.0000 0.0000 38.6994 0.0000
# 6 0.0000 0.0000 0.0000 0.0000 0.0000 41.6922
#
#
#
# Elastic Compliance Matrix: (Units=1/GPa)
#
#
# Indices 1 2 3 4 5 6 
#
# 1 0.009959 -0.002990 -0.005768 0.000000 0.000000 0.000000
# 2 -0.002990 0.014099 -0.002359 0.000000 0.000000 0.000000
# 3 -0.005768 -0.002359 0.016577 0.000000 0.000000 0.000000
# 4 0.000000 0.000000 0.000000 -0.048331 0.000000 0.000000
# 5 0.000000 0.000000 0.000000 0.000000 0.025840 0.000000
# 6 0.000000 0.000000 0.000000 0.000000 0.000000 0.023985
#
#
# Mechanical properties :
#
#
# Convention : Reuss Voigt Hill
#
# Bulk Modulus (GPa) = 54.34212 61.85243 58.09727
# Shear Modulus (GPa) = 70.92400 24.61428 47.76914
#
# Velocity S-wave (km/s) = 5.73599 3.37913 4.70745
# Velocity P-wave (km/s) = 8.31132 6.62707 7.51652
#
# Compressibility (1/GPa) = 0.01840193
#
# Stress axis : x y z
#
# Youngs Moduli (GPa) = 100.40808 70.92746 60.32327
#
# Poissons Ratio (x) = 0.21208 0.34792
# Poissons Ratio (y) = 0.30022 0.14231
# Poissons Ratio (z) = 0.57912 0.16733
#
# Static dielectric constant tensor:
#      x y z
#    x 1.758150 0.000000 0.000000 
#    y 0.000000 1.839570 0.000000 
#    z 0.000000 0.000000 1.748840 
# 
# From -- ./inp_files/33458.got.cif
#   From: 2010.05.17/outbox.cif.g08.bks.cpg/sg58_17_cif.got.tgz:33458.got - 2010.06.03 14:20:14.
