data_PCOD9445219
_publ_section_title
;
Structure prediction by ZEFSAII (Michael W. Deem and Ramdas Pophale) SiO2 
 PCOD9445219
Probable space group: P N N M
;
_chemical_formula_sum "Si O2"
_cell_formula_units_Z 64
_cell_length_a 10.326683
_cell_length_b 10.589920
_cell_length_c 26.430807
_cell_angle_alpha 90.000000
_cell_angle_beta 90.000000
_cell_angle_gamma 90.000000
_cell_volume 2890.439931
_symmetry_space_group_name_H-M "P N N M"
_symmetry_group_IT_number 58
_symmetry_cell_setting 'orthorhombic'
loop_
_space_group_symop_operation_xyz
x,y,z
-x,-y,z
1/2+x,1/2-y,1/2-z
1/2-x,1/2+y,1/2-z
-x,-y,-z
x,y,-z
1/2-x,1/2+y,1/2+z
1/2+x,1/2-y,1/2+z
loop_
_atom_site_type_symbol
_atom_site_label
_atom_site_fract_x
_atom_site_fract_y
_atom_site_fract_z
Si Si1 0.798385 0.518589 0.171770
Si Si2 0.052951 0.871753 0.611495
Si Si3 0.408153 0.619684 0.560250
Si Si4 0.062602 0.296056 0.311009
Si Si5 0.107895 0.604388 0.439551
Si Si6 0.953119 0.869417 0.782162
Si Si7 0.693627 0.956612 0.207322
Si Si8 0.032608 0.698930 0.140419
O O1 0.672331 0.583664 0.147338
O O2 0.793046 0.482708 0.231732
O O3 0.915722 0.617327 0.164622
O O4 0.846859 0.396054 0.139918
O O5 0.084033 0.749279 0.577805
O O6 0.944311 0.812179 0.647921
O O7 0.000000 0.000000 0.586218
O O8 0.500000 0.500000 0.569376
O O9 0.408521 0.648213 0.500000
O O10 0.259317 0.583657 0.573615
O O11 0.473224 0.735670 0.590885
O O12 0.093386 0.227563 0.259203
O O13 0.154564 0.413414 0.318689
O O14 0.920235 0.357478 0.303153
O O15 0.098368 0.599503 0.500000
O O16 0.000000 0.500000 0.420553
O O17 0.826930 0.904262 0.813617
O O18 0.058273 0.807892 0.818272
O O19 0.000000 0.000000 0.758348
#
# Coordination Sequence:
#
# PCOD9445219 Si02
#       8
#     8   8   8   8   8   8   8   8
#     4  11  21  42  62  86 128 173 210 271 334 388
#     4  12  26  42  66  98 135 177 226 280 336 405
#     4  10  22  43  71 101 132 166 216 279 336 401
#     4  11  23  40  56  90 122 170 221 268 323 386
#     4  10  24  47  75 103 138 180 221 278 351 418
#     4  12  24  35  58  88 121 167 217 269 326 390
#     4  11  23  39  62  81 126 180 219 271 325 389
#     4  11  21  40  63  89 124 165 216 264 333 397
#
# _framework density 22.141957000000001
#
# number of rings (size 3 to 8) (size 9 to 14) (size 15 to 20)
#    0.000    1.000    3.750    3.750    3.500    2.250 
#    0.000    1.875    0.000    0.000    0.000    0.000 
#    0.000    0.000    0.000    0.000    0.000    0.000 
#
# Total GULP energy -357584.685275 kJ/mol
# GULP energy per Si atom -5587.260707 kJ/mol
# Density = 2.209156 g / cm^3
# Si number density = 22.141957 Si / 1000 Ang^3
#
#
#
# Elastic Constant Matrix: (Units=GPa)
#
#
# Indices 1 2 3 4 5 6 
#
# 1 106.2862 59.7492 17.3156 0.0000 0.0000 0.0000
# 2 59.7492 156.4098 33.6023 0.0000 0.0000 0.0000
# 3 17.3156 33.6023 72.1223 0.0000 0.0000 0.0000
# 4 0.0000 0.0000 0.0000 35.5792 0.0000 0.0000
# 5 0.0000 0.0000 0.0000 0.0000 19.1573 0.0000
# 6 0.0000 0.0000 0.0000 0.0000 0.0000 6.4651
#
#
#
# Elastic Compliance Matrix: (Units=1/GPa)
#
#
# Indices 1 2 3 4 5 6 
#
# 1 0.012026 -0.004416 -0.000830 0.000000 0.000000 0.000000
# 2 -0.004416 0.008726 -0.003005 0.000000 0.000000 0.000000
# 3 -0.000830 -0.003005 0.015465 0.000000 0.000000 0.000000
# 4 0.000000 0.000000 0.000000 0.028106 0.000000 0.000000
# 5 0.000000 0.000000 0.000000 0.000000 0.052199 0.000000
# 6 0.000000 0.000000 0.000000 0.000000 0.000000 0.154677
#
#
# Mechanical properties :
#
#
# Convention : Reuss Voigt Hill
#
# Bulk Modulus (GPa) = 50.72335 61.79472 56.25904
# Shear Modulus (GPa) = 16.99103 27.18373 22.08738
#
# Velocity S-wave (km/s) = 2.77315 3.50766 3.16180
# Velocity P-wave (km/s) = 5.76296 6.66137 6.22839
#
# Compressibility (1/GPa) = 0.01971479
#
# Stress axis : x y z
#
# Youngs Moduli (GPa) = 83.15261 114.60095 64.66291
#
# Poissons Ratio (x) = 0.50604 0.05367
# Poissons Ratio (y) = 0.36718 0.19433
# Poissons Ratio (z) = 0.06902 0.34441
#
# Static dielectric constant tensor:
#      x y z
#    x 1.856860 0.000000 0.000000 
#    y 0.000000 1.842060 0.000000 
#    z 0.000000 0.000000 1.834780 
# 
# From -- ./inp_files/34947.got.cif
#   From: 2010.05.17/outbox.cif.g08.bks.cpg/sg58_18_cif.got.tgz:34947.got - 2010.06.03 14:20:14.
