data_PCOD9445593
_publ_section_title
;
Structure prediction by ZEFSAII (Michael W. Deem and Ramdas Pophale) SiO2 
 PCOD9445593
Probable space group: P N N M
;
_chemical_formula_sum "Si O2"
_cell_formula_units_Z 56
_cell_length_a 11.942472
_cell_length_b 11.206403
_cell_length_c 20.750681
_cell_angle_alpha 90.000000
_cell_angle_beta 90.000000
_cell_angle_gamma 90.000000
_cell_volume 2777.108336
_symmetry_space_group_name_H-M "P N N M"
_symmetry_group_IT_number 58
_symmetry_cell_setting 'orthorhombic'
loop_
_space_group_symop_operation_xyz
x,y,z
-x,-y,z
1/2+x,1/2-y,1/2-z
1/2-x,1/2+y,1/2-z
-x,-y,-z
x,y,-z
1/2-x,1/2+y,1/2+z
1/2+x,1/2-y,1/2+z
loop_
_atom_site_type_symbol
_atom_site_label
_atom_site_fract_x
_atom_site_fract_y
_atom_site_fract_z
Si Si1 0.492510 0.214398 0.814316
Si Si2 0.248248 0.641785 0.291519
Si Si3 0.983492 0.859138 0.179058
Si Si4 0.057789 0.688771 0.927433
Si Si5 0.921478 0.116400 0.573588
Si Si6 0.163682 0.443761 0.110025
Si Si7 0.807479 0.607047 0.255052
O O1 0.378013 0.140905 0.814287
O O2 0.501984 0.298268 0.749722
O O3 0.481450 0.295392 0.876782
O O4 0.598074 0.128019 0.808178
O O5 0.352071 0.660770 0.338931
O O6 0.268527 0.509625 0.263510
O O7 0.250394 0.762834 0.248963
O O8 0.057259 0.791852 0.126092
O O9 0.000000 0.000000 0.180699
O O10 0.141097 0.581663 0.907400
O O11 0.933042 0.629979 0.926203
O O12 0.082553 0.729116 0.000000
O O13 0.915844 0.160513 0.500000
O O14 0.792842 0.090788 0.596228
O O15 0.000000 0.000000 0.574140
O O16 0.138338 0.421016 0.185451
#
# Coordination Sequence:
#
# PCOD9445593 Si02
#       7
#     8   8   8   8   8   8   8
#     4  11  21  40  62  94 125 165 219 275 324 393
#     4  11  22  38  60  93 128 173 207 268 334 384
#     4  11  23  39  58  91 130 167 213 262 326 398
#     4  11  22  39  66  94 127 170 217 273 327 385
#     4  11  24  41  64  95 135 177 220 274 334 398
#     4  11  21  41  63  97 127 167 219 273 326 389
#     4  11  23  36  65  96 131 167 218 273 327 387
#
# _framework density 20.164859
#
# number of rings (size 3 to 8) (size 9 to 14) (size 15 to 20)
#    0.000    1.000    4.286    4.286    6.000    0.286 
#    0.000    0.000    0.000    2.571    0.000    0.000 
#    0.000    0.000    0.000    0.000    0.000    0.000 
#
# Total GULP energy -312257.370567 kJ/mol
# GULP energy per Si atom -5576.024474 kJ/mol
# Density = 2.011896 g / cm^3
# Si number density = 20.164859 Si / 1000 Ang^3
#
#
#
# Elastic Constant Matrix: (Units=GPa)
#
#
# Indices 1 2 3 4 5 6 
#
# 1 56.8926 5.6260 10.0223 0.0000 0.0000 0.0000
# 2 5.6260 131.3187 50.1507 0.0000 0.0000 0.0000
# 3 10.0223 50.1507 102.5529 0.0000 0.0000 0.0000
# 4 0.0000 0.0000 0.0000 23.9350 0.0000 0.0000
# 5 0.0000 0.0000 0.0000 0.0000 12.1914 0.0000
# 6 0.0000 0.0000 0.0000 0.0000 0.0000 32.3503
#
#
#
# Elastic Compliance Matrix: (Units=1/GPa)
#
#
# Indices 1 2 3 4 5 6 
#
# 1 0.017886 -0.000121 -0.001689 0.000000 0.000000 0.000000
# 2 -0.000121 0.009365 -0.004568 0.000000 0.000000 0.000000
# 3 -0.001689 -0.004568 0.012150 0.000000 0.000000 0.000000
# 4 0.000000 0.000000 0.000000 0.041780 0.000000 0.000000
# 5 0.000000 0.000000 0.000000 0.000000 0.082025 0.000000
# 6 0.000000 0.000000 0.000000 0.000000 0.000000 0.030912
#
#
# Mechanical properties :
#
#
# Convention : Reuss Voigt Hill
#
# Bulk Modulus (GPa) = 37.52981 46.92911 42.22946
# Shear Modulus (GPa) = 23.17450 28.69302 25.93376
#
# Velocity S-wave (km/s) = 3.39374 3.77626 3.59010
# Velocity P-wave (km/s) = 5.83168 6.50667 6.17840
#
# Compressibility (1/GPa) = 0.02664548
#
# Stress axis : x y z
#
# Youngs Moduli (GPa) = 55.90825 106.78446 82.30596
#
# Poissons Ratio (x) = 0.01296 0.13898
# Poissons Ratio (y) = 0.00679 0.37595
# Poissons Ratio (z) = 0.09441 0.48776
#
# Static dielectric constant tensor:
#      x y z
#    x 1.787800 0.000000 0.000000 
#    y 0.000000 1.815460 0.000000 
#    z 0.000000 0.000000 1.719230 
# 
# From -- ./inp_files/29613.got.cif
#   From: 2010.05.17/outbox.cif.g08.bks.cpg/sg58_15_cif.got.tgz:29613.got - 2010.06.03 14:20:14.
