data_PCOD9445431
_publ_section_title
;
Structure prediction by ZEFSAII (Michael W. Deem and Ramdas Pophale) SiO2 
 PCOD9445431
Probable space group: P N N M
;
_chemical_formula_sum "Si O2"
_cell_formula_units_Z 32
_cell_length_a 5.609945
_cell_length_b 13.005172
_cell_length_c 18.663930
_cell_angle_alpha 90.000000
_cell_angle_beta 90.000000
_cell_angle_gamma 90.000000
_cell_volume 1361.688597
_symmetry_space_group_name_H-M "P N N M"
_symmetry_group_IT_number 58
_symmetry_cell_setting 'orthorhombic'
loop_
_space_group_symop_operation_xyz
x,y,z
-x,-y,z
1/2+x,1/2-y,1/2-z
1/2-x,1/2+y,1/2-z
-x,-y,-z
x,y,-z
1/2-x,1/2+y,1/2+z
1/2+x,1/2-y,1/2+z
loop_
_atom_site_type_symbol
_atom_site_label
_atom_site_fract_x
_atom_site_fract_y
_atom_site_fract_z
Si Si1 0.258780 0.943150 0.085256
Si Si2 0.903123 0.254347 0.844679
Si Si3 0.536861 0.391080 0.783872
Si Si4 0.311460 0.904852 0.579096
O O1 0.265281 0.832174 0.122694
O O2 0.500000 0.000000 0.110637
O O3 0.279368 0.930480 0.000000
O O4 0.000000 0.000000 0.095998
O O5 0.787002 0.359821 0.817391
O O6 0.002802 0.198486 0.774238
O O7 0.066797 0.293499 0.909157
O O8 0.500000 0.500000 0.746448
O O9 0.361318 0.402856 0.852046
O O10 0.195657 0.908365 0.500000
O O11 0.500000 0.000000 0.579915
#
# Coordination Sequence:
#
# PCOD9445431 Si02
#       4
#     8   8   8   8
#     4  10  24  45  70 104 144 189 241 298 365 439
#     4  12  25  44  72 101 138 190 237 302 362 436
#     4  12  26  44  71 104 138 184 244 294 364 436
#     4  11  25  45  69 103 144 183 233 295 362 439
#
# _framework density 23.500235
#
# number of rings (size 3 to 8) (size 9 to 14) (size 15 to 20)
#    0.000    0.750    5.000    1.500    3.500    5.500 
#    0.000    0.000    0.000    0.000    0.000    0.000 
#    0.000    0.000    0.000    0.000    0.000    0.000 
#
# Total GULP energy -178431.875153 kJ/mol
# GULP energy per Si atom -5575.996099 kJ/mol
# Density = 2.344675 g / cm^3
# Si number density = 23.500235 Si / 1000 Ang^3
#
#
#
# Elastic Constant Matrix: (Units=GPa)
#
#
# Indices 1 2 3 4 5 6 
#
# 1 43.4846 8.7310 8.5382 0.0000 0.0000 0.0000
# 2 8.7310 90.1092 17.4793 0.0000 0.0000 0.0000
# 3 8.5382 17.4793 139.2834 0.0000 0.0000 0.0000
# 4 0.0000 0.0000 0.0000 35.4572 0.0000 0.0000
# 5 0.0000 0.0000 0.0000 0.0000 25.2374 0.0000
# 6 0.0000 0.0000 0.0000 0.0000 0.0000 48.4855
#
#
#
# Elastic Compliance Matrix: (Units=1/GPa)
#
#
# Indices 1 2 3 4 5 6 
#
# 1 0.023644 -0.002060 -0.001191 0.000000 0.000000 0.000000
# 2 -0.002060 0.011554 -0.001324 0.000000 0.000000 0.000000
# 3 -0.001191 -0.001324 0.007419 0.000000 0.000000 0.000000
# 4 0.000000 0.000000 0.000000 0.028203 0.000000 0.000000
# 5 0.000000 0.000000 0.000000 0.000000 0.039624 0.000000
# 6 0.000000 0.000000 0.000000 0.000000 0.000000 0.020625
#
#
# Mechanical properties :
#
#
# Convention : Reuss Voigt Hill
#
# Bulk Modulus (GPa) = 29.87950 38.04157 33.96053
# Shear Modulus (GPa) = 33.03091 37.71126 35.37109
#
# Velocity S-wave (km/s) = 3.75314 4.01024 3.88382
# Velocity P-wave (km/s) = 5.61459 6.13723 5.88172
#
# Compressibility (1/GPa) = 0.03346776
#
# Stress axis : x y z
#
# Youngs Moduli (GPa) = 42.29384 86.55006 134.79404
#
# Poissons Ratio (x) = 0.17829 0.16053
# Poissons Ratio (y) = 0.08712 0.17842
# Poissons Ratio (z) = 0.05037 0.11456
#
# Static dielectric constant tensor:
#      x y z
#    x 2.041890 0.000000 0.000000 
#    y 0.000000 1.948940 0.000000 
#    z 0.000000 0.000000 1.866430 
# 
# From -- ./inp_files/24040.got.cif
#   From: 2010.05.17/outbox.cif.g08.bks.cpg/sg58_13_cif.got.tgz:24040.got - 2010.06.03 14:20:14.
