data_PCOD9445265
_publ_section_title
;
Structure prediction by ZEFSAII (Michael W. Deem and Ramdas Pophale) SiO2 
 PCOD9445265
Probable space group: P N N M
;
_chemical_formula_sum "Si O2"
_cell_formula_units_Z 48
_cell_length_a 16.735788
_cell_length_b 8.701672
_cell_length_c 15.417191
_cell_angle_alpha 90.000000
_cell_angle_beta 90.000000
_cell_angle_gamma 90.000000
_cell_volume 2245.195317
_symmetry_space_group_name_H-M "P N N M"
_symmetry_group_IT_number 58
_symmetry_cell_setting 'orthorhombic'
loop_
_space_group_symop_operation_xyz
x,y,z
-x,-y,z
1/2+x,1/2-y,1/2-z
1/2-x,1/2+y,1/2-z
-x,-y,-z
x,y,-z
1/2-x,1/2+y,1/2+z
1/2+x,1/2-y,1/2+z
loop_
_atom_site_type_symbol
_atom_site_label
_atom_site_fract_x
_atom_site_fract_y
_atom_site_fract_z
Si Si1 0.290475 0.691006 0.848154
Si Si2 0.582175 0.318536 0.404528
Si Si3 0.310509 0.470246 0.689898
Si Si4 0.050892 0.743013 0.768777
Si Si5 0.527227 0.322698 0.901799
Si Si6 0.868155 0.472654 0.904040
O O1 0.292388 0.608148 0.754820
O O2 0.263894 0.866958 0.836795
O O3 0.377409 0.681004 0.889525
O O4 0.219952 0.600052 0.897499
O O5 0.545220 0.326068 0.500000
O O6 0.643300 0.456838 0.390787
O O7 0.517389 0.319925 0.328420
O O8 0.628387 0.156054 0.397249
O O9 0.372980 0.355160 0.736042
O O10 0.080918 0.598883 0.825490
O O11 0.014396 0.723299 0.673688
O O12 0.500000 0.500000 0.888517
O O13 0.505942 0.277701 0.000000
O O14 0.901264 0.432690 0.000000
#
# Coordination Sequence:
#
# PCOD9445265 Si02
#       6
#     8   8   8   8   8   8
#     4  11  22  40  64  96 131 173 227 273 331 397
#     4  11  22  39  64  99 136 169 214 271 337 406
#     4  11  23  39  64  94 130 173 218 274 335 391
#     4  11  21  40  64  96 131 171 223 269 328 392
#     4  11  22  40  67  96 132 180 232 276 326 395
#     4  10  23  40  66 100 133 174 216 269 338 401
#
# _framework density 21.378986999999999
#
# number of rings (size 3 to 8) (size 9 to 14) (size 15 to 20)
#    0.000    1.167    3.333    3.000    0.000    6.000 
#    0.000    0.000    0.000    2.000    0.000    0.000 
#    0.000    0.000    0.000    0.000    0.000    0.000 
#
# Total GULP energy -268408.750239 kJ/mol
# GULP energy per Si atom -5591.848963 kJ/mol
# Density = 2.133033 g / cm^3
# Si number density = 21.378987 Si / 1000 Ang^3
#
#
#
# Elastic Constant Matrix: (Units=GPa)
#
#
# Indices 1 2 3 4 5 6 
#
# 1 92.3808 29.1753 44.9368 0.0000 0.0000 0.0000
# 2 29.1753 59.7547 17.0069 0.0000 0.0000 0.0000
# 3 44.9368 17.0069 141.9885 0.0000 0.0000 0.0000
# 4 0.0000 0.0000 0.0000 25.1493 0.0000 0.0000
# 5 0.0000 0.0000 0.0000 0.0000 2.2564 0.0000
# 6 0.0000 0.0000 0.0000 0.0000 0.0000 42.3390
#
#
#
# Elastic Compliance Matrix: (Units=1/GPa)
#
#
# Indices 1 2 3 4 5 6 
#
# 1 0.014630 -0.006031 -0.003908 0.000000 0.000000 0.000000
# 2 -0.006031 0.019812 -0.000464 0.000000 0.000000 0.000000
# 3 -0.003908 -0.000464 0.008335 0.000000 0.000000 0.000000
# 4 0.000000 0.000000 0.000000 0.039763 0.000000 0.000000
# 5 0.000000 0.000000 0.000000 0.000000 0.443184 0.000000
# 6 0.000000 0.000000 0.000000 0.000000 0.000000 0.023619
#
#
# Mechanical properties :
#
#
# Convention : Reuss Voigt Hill
#
# Bulk Modulus (GPa) = 45.51446 52.92911 49.22179
# Shear Modulus (GPa) = 8.65841 27.48260 18.07050
#
# Velocity S-wave (km/s) = 2.01463 3.58927 2.91047
# Velocity P-wave (km/s) = 5.17177 6.47985 5.86241
#
# Compressibility (1/GPa) = 0.02197104
#
# Stress axis : x y z
#
# Youngs Moduli (GPa) = 68.35096 50.47469 119.97306
#
# Poissons Ratio (x) = 0.30442 0.46884
# Poissons Ratio (y) = 0.41223 0.05570
# Poissons Ratio (z) = 0.26711 0.02343
#
# Static dielectric constant tensor:
#      x y z
#    x 1.776270 0.000000 0.000000 
#    y 0.000000 1.778870 0.000000 
#    z 0.000000 0.000000 1.781010 
# 
# From -- ./inp_files/22770.got.cif
#   From: 2010.05.17/outbox.cif.g08.bks.cpg/sg58_12_cif.got.tgz:22770.got - 2010.06.03 14:20:14.
