data_PCOD9445514
_publ_section_title
;
Structure prediction by ZEFSAII (Michael W. Deem and Ramdas Pophale) SiO2 
 PCOD9445514
Probable space group: P N N M
;
_chemical_formula_sum "Si O2"
_cell_formula_units_Z 64
_cell_length_a 27.131620
_cell_length_b 18.928996
_cell_length_c 8.954337
_cell_angle_alpha 90.000000
_cell_angle_beta 90.000000
_cell_angle_gamma 90.000000
_cell_volume 4598.717594
_symmetry_space_group_name_H-M "P N N M"
_symmetry_group_IT_number 58
_symmetry_cell_setting 'orthorhombic'
loop_
_space_group_symop_operation_xyz
x,y,z
-x,-y,z
1/2+x,1/2-y,1/2-z
1/2-x,1/2+y,1/2-z
-x,-y,-z
x,y,-z
1/2-x,1/2+y,1/2+z
1/2+x,1/2-y,1/2+z
loop_
_atom_site_type_symbol
_atom_site_label
_atom_site_fract_x
_atom_site_fract_y
_atom_site_fract_z
Si Si1 0.195907 0.201944 0.828380
Si Si2 0.300298 0.286115 0.827751
Si Si3 0.258030 0.074457 0.181138
Si Si4 0.253273 0.910301 0.179444
Si Si5 0.441713 0.081425 0.819233
Si Si6 0.146580 0.328359 0.320612
Si Si7 0.650258 0.842483 0.678203
Si Si8 0.554358 0.082315 0.818751
O O1 0.247990 0.244180 0.824383
O O2 0.158176 0.250177 0.738196
O O3 0.211830 0.124166 0.774939
O O4 0.179742 0.197632 0.000000
O O5 0.287795 0.361468 0.755919
O O6 0.337165 0.236046 0.737171
O O7 0.315440 0.292133 0.000000
O O8 0.251072 0.992638 0.218907
O O9 0.306894 0.106693 0.255493
O O10 0.263466 0.080531 0.000000
O O11 0.306909 0.878232 0.220969
O O12 0.248724 0.903985 0.000000
O O13 0.401314 0.129542 0.741477
O O14 0.498123 0.098681 0.775595
O O15 0.433675 0.998853 0.778517
O O16 0.437372 0.086996 0.000000
O O17 0.145121 0.326327 0.500000
O O18 0.096206 0.364068 0.265210
O O19 0.651590 0.844288 0.500000
O O20 0.554899 0.083608 0.000000
#
# Coordination Sequence:
#
# PCOD9445514 Si02
#       8
#     8   8   8   8   8   8   8   8
#     4   8  15  26  38  54  76 104 134 160 190 230
#     4   9  17  29  42  56  78 107 136 165 199 241
#     4   9  17  29  43  58  80 110 140 167 199 241
#     4   9  16  26  42  62  82 104 132 168 203 235
#     4   9  16  29  45  58  76 104 138 172 205 241
#     4   9  15  24  39  58  78 101 131 164 198 233
#     4  11  20  28  40  59  82 108 140 173 204 237
#     4   8  15  27  44  61  76 102 139 171 199 240
#
# _framework density 13.916924
#
# number of rings (size 3 to 8) (size 9 to 14) (size 15 to 20)
#    0.000    3.000    0.000    3.750    0.000    5.500 
#    0.000    5.000    0.000    0.000    0.000    0.000 
#    0.000    1.000    0.000   11.500    0.000    3.500 
#
# Total GULP energy -356323.720551 kJ/mol
# GULP energy per Si atom -5567.558134 kJ/mol
# Density = 1.388525 g / cm^3
# Si number density = 13.916924 Si / 1000 Ang^3
#
#
#
# Elastic Constant Matrix: (Units=GPa)
#
#
# Indices 1 2 3 4 5 6 
#
# 1 87.0709 60.1660 34.6826 0.0000 0.0000 0.0000
# 2 60.1660 114.7644 39.2627 0.0000 0.0000 0.0000
# 3 34.6826 39.2627 36.9628 0.0000 0.0000 0.0000
# 4 0.0000 0.0000 0.0000 20.9402 0.0000 0.0000
# 5 0.0000 0.0000 0.0000 0.0000 15.8346 0.0000
# 6 0.0000 0.0000 0.0000 0.0000 0.0000 26.2277
#
#
#
# Elastic Compliance Matrix: (Units=1/GPa)
#
#
# Indices 1 2 3 4 5 6 
#
# 1 0.021240 -0.006781 -0.012727 0.000000 0.000000 0.000000
# 2 -0.006781 0.015853 -0.010476 0.000000 0.000000 0.000000
# 3 -0.012727 -0.010476 0.050124 0.000000 0.000000 0.000000
# 4 0.000000 0.000000 0.000000 0.047755 0.000000 0.000000
# 5 0.000000 0.000000 0.000000 0.000000 0.063153 0.000000
# 6 0.000000 0.000000 0.000000 0.000000 0.000000 0.038128
#
#
# Mechanical properties :
#
#
# Convention : Reuss Voigt Hill
#
# Bulk Modulus (GPa) = 36.69928 56.33561 46.51745
# Shear Modulus (GPa) = 16.37718 19.57961 17.97840
#
# Velocity S-wave (km/s) = 3.43415 3.75493 3.59811
# Velocity P-wave (km/s) = 6.49246 7.70500 7.12457
#
# Compressibility (1/GPa) = 0.02724849
#
# Stress axis : x y z
#
# Youngs Moduli (GPa) = 47.08073 63.08087 19.95067
#
# Poissons Ratio (x) = 0.42777 0.25390
# Poissons Ratio (y) = 0.31927 0.20900
# Poissons Ratio (z) = 0.59918 0.66084
#
# Static dielectric constant tensor:
#      x y z
#    x 1.445100 0.000000 0.000000 
#    y 0.000000 1.460710 0.000000 
#    z 0.000000 0.000000 1.470970 
# 
# From -- ./inp_files/10543.got.cif
#   From: 2010.05.17/outbox.cif.g08.bks.cpg/sg58_6_cif.got.tgz:10543.got - 2010.06.03 14:20:14.
