data_PCOD9445905
_publ_section_title
;
Structure prediction by ZEFSAII (Michael W. Deem and Ramdas Pophale) SiO2 
 PCOD9445905
Probable space group: P N N M
;
_chemical_formula_sum "Si O2"
_cell_formula_units_Z 48
_cell_length_a 15.000000
_cell_length_b 18.000000
_cell_length_c 9.000000
_cell_angle_alpha 90.000000
_cell_angle_beta 90.000000
_cell_angle_gamma 90.000000
_cell_volume 2430.000000
_symmetry_space_group_name_H-M "P N N M"
_symmetry_group_IT_number 58
_symmetry_cell_setting 'orthorhombic'
loop_
_space_group_symop_operation_xyz
x,y,z
-x,-y,z
1/2+x,1/2-y,1/2-z
1/2-x,1/2+y,1/2-z
-x,-y,-z
x,y,-z
1/2-x,1/2+y,1/2+z
1/2+x,1/2-y,1/2+z
loop_
_atom_site_type_symbol
_atom_site_label
_atom_site_fract_x
_atom_site_fract_y
_atom_site_fract_z
Si Si1 0.346819 0.218973 0.825904
Si Si2 0.787348 0.425315 0.176396
Si Si3 0.585063 0.388082 0.828174
Si Si4 0.670652 0.234474 0.170777
Si Si5 0.909065 0.135189 0.176100
Si Si6 0.289652 0.925799 0.826345
O O1 0.346762 0.137548 0.754137
O O2 0.245575 0.244749 0.789662
O O3 0.403695 0.282506 0.745925
O O4 0.365285 0.217293 0.000000
O O5 0.682162 0.417400 0.223617
O O6 0.816945 0.506560 0.224219
O O7 0.788653 0.413979 0.000000
O O8 0.597624 0.298282 0.822019
O O9 0.495490 0.406261 0.740413
O O10 0.574313 0.410057 0.000000
O O11 0.650585 0.148121 0.191673
O O12 0.708734 0.239399 0.000000
O O13 0.813122 0.097455 0.209080
O O14 0.916867 0.140325 0.000000
O O15 0.291932 0.947669 0.000000
#
# Coordination Sequence:
#
# PCOD9445905 Si02
#       6
#     8   8   8   8   8   8
#     4  10  18  30  50  71  92 123 164 200 234 284
#     4  10  20  33  49  71 100 129 159 199 242 283
#     4   9  18  32  49  70  97 129 162 195 237 287
#     4   8  16  32  50  69  96 127 160 200 240 280
#     4  10  20  33  49  71 100 129 159 199 242 283
#     4   9  18  32  49  70  97 129 162 195 237 287
#
# _framework density 19.753086
#
# number of rings (size 3 to 8) (size 9 to 14) (size 15 to 20)
#    0.000    2.667    0.000    4.500    0.000    7.333 
#    0.000    3.333    0.000    1.000    0.000    7.000 
#    0.000    0.000    0.000    0.000    0.000    0.000 
#
# Total GULP energy -267521.289553 kJ/mol
# GULP energy per Si atom -5573.360199 kJ/mol
# Density = 1.970813 g / cm^3
# Si number density = 19.753086 Si / 1000 Ang^3
#
#
#
# Elastic Constant Matrix: (Units=GPa)
#
#
# Indices 1 2 3 4 5 6 
#
# 1 2.7694 -20.1938 -5.4152 0.0000 0.0000 0.0000
# 2 -20.1938 95.3794 30.2250 0.0000 0.0000 0.0000
# 3 -5.4152 30.2250 37.1977 0.0000 0.0000 0.0000
# 4 0.0000 0.0000 0.0000 22.6135 0.0000 0.0000
# 5 0.0000 0.0000 0.0000 0.0000 -21.0856 0.0000
# 6 0.0000 0.0000 0.0000 0.0000 0.0000 4.9132
#
#
#
# Elastic Compliance Matrix: (Units=1/GPa)
#
#
# Indices 1 2 3 4 5 6 
#
# 1 -0.648904 -0.144713 0.023120 0.000000 0.000000 0.000000
# 2 -0.144713 -0.018152 -0.006317 0.000000 0.000000 0.000000
# 3 0.023120 -0.006317 0.035382 0.000000 0.000000 0.000000
# 4 0.000000 0.000000 0.000000 0.044221 0.000000 0.000000
# 5 0.000000 0.000000 0.000000 0.000000 -0.047426 0.000000
# 6 0.000000 0.000000 0.000000 0.000000 0.000000 0.203534
#
#
# Mechanical properties :
#
#
# Convention : Reuss Voigt Hill
#
# Bulk Modulus (GPa) = -1.12677 16.06430 7.46877
# Shear Modulus (GPa) = -10.60769 10.00358 -0.30205
#
# Velocity S-wave (km/s) = -2.31987 2.25284 -0.39147
# Velocity P-wave (km/s) = 2.78341 3.86229 1.89339
#
# Compressibility (1/GPa) = -0.88749377
#
# Stress axis : x y z
#
# Youngs Moduli (GPa) = -1.54106 -55.08935 28.26268
#
# Poissons Ratio (x) = -7.97214 -0.65345
# Poissons Ratio (y) = -0.22301 0.17854
# Poissons Ratio (z) = 0.03563 -0.34802
#
# Static dielectric constant tensor:
#      x y z
#    x 1.696380 0.000000 0.000000 
#    y 0.000000 1.742920 0.000000 
#    z 0.000000 0.000000 1.670220 
# 
# From -- ./inp_files/5867.got.cif
#   From: 2010.05.17/outbox.ucp.g08.bks.cvg/sg58_3_cif.got.tgz:5867.got - 2010.06.11 16:41:41.
