data_PCOD9445827
_publ_section_title
;
Structure prediction by ZEFSAII (Michael W. Deem and Ramdas Pophale) SiO2 
 PCOD9445827
Probable space group: P N N M
;
_chemical_formula_sum "Si O2"
_cell_formula_units_Z 36
_cell_length_a 16.166213
_cell_length_b 7.121639
_cell_length_c 13.222662
_cell_angle_alpha 90.000000
_cell_angle_beta 90.000000
_cell_angle_gamma 90.000000
_cell_volume 1522.324190
_symmetry_space_group_name_H-M "P N N M"
_symmetry_group_IT_number 58
_symmetry_cell_setting 'orthorhombic'
loop_
_space_group_symop_operation_xyz
x,y,z
-x,-y,z
1/2+x,1/2-y,1/2-z
1/2-x,1/2+y,1/2-z
-x,-y,-z
x,y,-z
1/2-x,1/2+y,1/2+z
1/2+x,1/2-y,1/2+z
loop_
_atom_site_type_symbol
_atom_site_label
_atom_site_fract_x
_atom_site_fract_y
_atom_site_fract_z
Si Si1 0.732484 0.034816 0.115282
Si Si2 0.819705 0.127032 0.623034
Si Si3 0.337194 0.132773 0.377330
Si Si4 0.429490 0.702783 0.884248
Si Si5 0.000000 0.500000 0.234729
O O1 0.809588 0.155947 0.155945
O O2 0.695676 0.840766 0.156467
O O3 0.657024 0.181066 0.112158
O O4 0.756495 0.987621 0.000000
O O5 0.825409 0.128584 0.500000
O O6 0.736695 0.011784 0.648878
O O7 0.900473 0.003823 0.650195
O O8 0.341518 0.137667 0.500000
O O9 0.421527 0.053731 0.332897
O O10 0.482533 0.823545 0.807454
O O11 0.462054 0.703299 0.000000
#
# Coordination Sequence:
#
# PCOD9445827 Si02
#       5
#     8   8   8   8   4
#     4   8  15  35  64  85 106 154 213 260 305 361
#     4   8  15  35  64  85 106 154 213 260 305 361
#     4   9  19  36  58  85 122 163 206 253 306 371
#     4   9  19  36  58  85 122 163 206 253 306 371
#     4  12  22  36  54  94 136 168 194 254 324 374
#
# _framework density 23.648050999999999
#
# number of rings (size 3 to 8) (size 9 to 14) (size 15 to 20)
#    0.000    3.111    0.000    3.333    0.000    0.000 
#    8.000    4.444    0.000   10.667    0.000    0.000 
#    0.000    5.333    0.000    0.000    0.000    0.000 
#
# Total GULP energy -201335.484272 kJ/mol
# GULP energy per Si atom -5592.652341 kJ/mol
# Density = 2.359423 g / cm^3
# Si number density = 23.648051 Si / 1000 Ang^3
#
#
#
# Elastic Constant Matrix: (Units=GPa)
#
#
# Indices 1 2 3 4 5 6 
#
# 1 104.6238 62.7518 36.1686 0.0000 0.0000 0.0000
# 2 62.7518 202.2149 50.4988 0.0000 0.0000 0.0000
# 3 36.1686 50.4988 86.4842 0.0000 0.0000 0.0000
# 4 0.0000 0.0000 0.0000 28.3883 0.0000 0.0000
# 5 0.0000 0.0000 0.0000 0.0000 38.5763 0.0000
# 6 0.0000 0.0000 0.0000 0.0000 0.0000 46.1147
#
#
#
# Elastic Compliance Matrix: (Units=1/GPa)
#
#
# Indices 1 2 3 4 5 6 
#
# 1 0.012584 -0.003033 -0.003492 0.000000 0.000000 0.000000
# 2 -0.003033 0.006521 -0.002539 0.000000 0.000000 0.000000
# 3 -0.003492 -0.002539 0.014506 0.000000 0.000000 0.000000
# 4 0.000000 0.000000 0.000000 0.035226 0.000000 0.000000
# 5 0.000000 0.000000 0.000000 0.000000 0.025923 0.000000
# 6 0.000000 0.000000 0.000000 0.000000 0.000000 0.021685
#
#
# Mechanical properties :
#
#
# Convention : Reuss Voigt Hill
#
# Bulk Modulus (GPa) = 64.58801 76.90681 70.74741
# Shear Modulus (GPa) = 35.78257 38.87611 37.32934
#
# Velocity S-wave (km/s) = 3.89412 4.05896 3.97739
# Velocity P-wave (km/s) = 6.89858 7.38640 7.14665
#
# Compressibility (1/GPa) = 0.01548275
#
# Stress axis : x y z
#
# Youngs Moduli (GPa) = 79.46302 153.36149 68.93893
#
# Poissons Ratio (x) = 0.46518 0.24072
# Poissons Ratio (y) = 0.24103 0.17503
# Poissons Ratio (z) = 0.27747 0.38936
#
# Static dielectric constant tensor:
#      x y z
#    x 1.866620 0.000000 0.000000 
#    y 0.000000 1.900240 0.000000 
#    z 0.000000 0.000000 1.962430 
# 
# From -- ./inp_files/5527.got.cif
#   From: 2010.05.17/outbox.cif.g08.bks.cpg/sg58_3_cif.got.tgz:5527.got - 2010.06.03 14:20:14.
