data_PCOD9445760
_publ_section_title
;
Structure prediction by ZEFSAII (Michael W. Deem and Ramdas Pophale) SiO2 
 PCOD9445760
Probable space group: P N N M
;
_chemical_formula_sum "Si O2"
_cell_formula_units_Z 32
_cell_length_a 7.145522
_cell_length_b 7.391827
_cell_length_c 27.645572
_cell_angle_alpha 90.000000
_cell_angle_beta 90.000000
_cell_angle_gamma 90.000000
_cell_volume 1460.196607
_symmetry_space_group_name_H-M "P N N M"
_symmetry_group_IT_number 58
_symmetry_cell_setting 'orthorhombic'
loop_
_space_group_symop_operation_xyz
x,y,z
-x,-y,z
1/2+x,1/2-y,1/2-z
1/2-x,1/2+y,1/2-z
-x,-y,-z
x,y,-z
1/2-x,1/2+y,1/2+z
1/2+x,1/2-y,1/2+z
loop_
_atom_site_type_symbol
_atom_site_label
_atom_site_fract_x
_atom_site_fract_y
_atom_site_fract_z
Si Si1 0.705244 0.628129 0.000000
Si Si2 0.630288 0.823897 0.099767
Si Si3 0.127257 0.836866 0.700338
Si Si4 0.000000 0.000000 0.082117
Si Si5 0.637044 0.747300 0.500000
Si Si6 0.500000 0.000000 0.264122
O O1 0.629141 0.716856 0.950880
O O2 0.284887 0.590245 0.000000
O O3 0.925557 0.678049 0.000000
O O4 0.570727 0.705021 0.145281
O O5 0.500000 0.000000 0.097364
O O6 0.847490 0.881800 0.109737
O O7 0.338976 0.905216 0.704820
O O8 0.091502 0.655260 0.730708
O O9 0.000000 0.000000 0.719665
O O10 0.866727 0.120666 0.047092
#
# Coordination Sequence:
#
# PCOD9445760 Si02
#       6
#     4   8   8   4   4   4
#     4   9  19  37  61  95 142 187 227 280 342 411
#     4  11  24  41  66 101 141 182 234 284 345 424
#     4  12  27  47  76 108 140 183 237 300 362 434
#     4   9  20  38  62  90 134 182 228 292 342 395
#     4   8  16  35  60  86 128 187 242 277 329 407
#     4  12  26  50  78 102 144 182 234 306 372 420
#
# _framework density 21.914857999999999
#
# number of rings (size 3 to 8) (size 9 to 14) (size 15 to 20)
#    0.000    1.500    3.750    1.125    0.000   10.000 
#    0.000    1.875    0.000    0.000    0.000    0.000 
#    0.000    0.000    0.000    0.000    0.000    0.000 
#
# Total GULP energy -178862.094120 kJ/mol
# GULP energy per Si atom -5589.440441 kJ/mol
# Density = 2.186498 g / cm^3
# Si number density = 21.914858 Si / 1000 Ang^3
#
#
#
# Elastic Constant Matrix: (Units=GPa)
#
#
# Indices 1 2 3 4 5 6 
#
# 1 96.4150 42.4840 16.9595 0.0000 0.0000 0.0000
# 2 42.4840 152.4773 50.4253 0.0000 0.0000 0.0000
# 3 16.9595 50.4253 85.9915 0.0000 0.0000 0.0000
# 4 0.0000 0.0000 0.0000 1.3008 0.0000 0.0000
# 5 0.0000 0.0000 0.0000 0.0000 11.8733 0.0000
# 6 0.0000 0.0000 0.0000 0.0000 0.0000 54.5991
#
#
#
# Elastic Compliance Matrix: (Units=1/GPa)
#
#
# Indices 1 2 3 4 5 6 
#
# 1 0.011841 -0.003135 -0.000497 0.000000 0.000000 0.000000
# 2 -0.003135 0.008966 -0.004639 0.000000 0.000000 0.000000
# 3 -0.000497 -0.004639 0.014448 0.000000 0.000000 0.000000
# 4 0.000000 0.000000 0.000000 0.768759 0.000000 0.000000
# 5 0.000000 0.000000 0.000000 0.000000 0.084223 0.000000
# 6 0.000000 0.000000 0.000000 0.000000 0.000000 0.018315
#
#
# Mechanical properties :
#
#
# Convention : Reuss Voigt Hill
#
# Bulk Modulus (GPa) = 53.44205 61.62460 57.53332
# Shear Modulus (GPa) = 5.38021 28.55563 16.96792
#
# Velocity S-wave (km/s) = 1.56856 3.61366 2.78558
# Velocity P-wave (km/s) = 5.26495 6.75222 6.05442
#
# Compressibility (1/GPa) = 0.01871186
#
# Stress axis : x y z
#
# Youngs Moduli (GPa) = 84.45578 111.53180 69.21543
#
# Poissons Ratio (x) = 0.34962 0.03440
# Poissons Ratio (y) = 0.26474 0.32112
# Poissons Ratio (z) = 0.04198 0.51745
#
# Static dielectric constant tensor:
#      x y z
#    x 1.817680 0.000000 0.000000 
#    y 0.000000 1.847430 0.000000 
#    z 0.000000 0.000000 1.741980 
# 
# From -- ./inp_files/34040.got.cif
#   From: 2010.05.17/outbox.cif.g08.bks.cpg/sg58_18_cif.got.tgz:34040.got - 2010.06.03 14:20:14.
