data_PCOD9445016
_publ_section_title
;
Structure prediction by ZEFSAII (Michael W. Deem and Ramdas Pophale) SiO2 
 PCOD9445016
Probable space group: P N N M
;
_chemical_formula_sum "Si O2"
_cell_formula_units_Z 48
_cell_length_a 5.571146
_cell_length_b 26.742674
_cell_length_c 14.480146
_cell_angle_alpha 90.000000
_cell_angle_beta 90.000000
_cell_angle_gamma 90.000000
_cell_volume 2157.358454
_symmetry_space_group_name_H-M "P N N M"
_symmetry_group_IT_number 58
_symmetry_cell_setting 'orthorhombic'
loop_
_space_group_symop_operation_xyz
x,y,z
-x,-y,z
1/2+x,1/2-y,1/2-z
1/2-x,1/2+y,1/2-z
-x,-y,-z
x,y,-z
1/2-x,1/2+y,1/2+z
1/2+x,1/2-y,1/2+z
loop_
_atom_site_type_symbol
_atom_site_label
_atom_site_fract_x
_atom_site_fract_y
_atom_site_fract_z
Si Si1 0.872855 0.640402 0.363589
Si Si2 0.735665 0.817018 0.732109
Si Si3 0.247012 0.469290 0.898274
Si Si4 0.558944 0.731526 0.396825
Si Si5 0.312242 0.045664 0.100858
Si Si6 0.013073 0.914553 0.242963
O O1 0.765469 0.689765 0.407720
O O2 0.642748 0.606330 0.347324
O O3 0.984260 0.662347 0.269816
O O4 0.066993 0.601174 0.400526
O O5 0.684431 0.779734 0.648816
O O6 0.870433 0.789148 0.818832
O O7 0.883630 0.867222 0.710389
O O8 0.500000 0.500000 0.898843
O O9 0.286650 0.434159 0.811644
O O10 0.000000 0.500000 0.888647
O O11 0.233035 0.444791 0.000000
O O12 0.455446 0.740072 0.500000
O O13 0.167783 0.045961 0.197371
O O14 0.500000 0.000000 0.105602
O O15 0.189846 0.040582 0.000000
#
# Coordination Sequence:
#
# PCOD9445016 Si02
#       6
#     8   8   8   8   8   8
#     4  10  22  39  63  93 133 177 219 285 336 416
#     4  10  22  42  60  97 132 165 229 283 334 422
#     4  10  24  44  70 101 135 178 231 284 345 418
#     4  11  22  40  67  91 127 176 220 278 350 410
#     4  10  23  41  63 100 142 181 229 283 342 421
#     4  10  24  39  68  95 133 177 224 283 346 403
#
# _framework density 22.24943
#
# number of rings (size 3 to 8) (size 9 to 14) (size 15 to 20)
#    0.000    1.833    1.667    0.500    7.000    8.000 
#    0.000    2.500    0.000    0.500    0.000    0.000 
#    0.000    0.000    0.000    0.000    0.000    0.000 
#
# Total GULP energy -267523.708798 kJ/mol
# GULP energy per Si atom -5573.410600 kJ/mol
# Density = 2.219879 g / cm^3
# Si number density = 22.249430 Si / 1000 Ang^3
#
#
#
# Elastic Constant Matrix: (Units=GPa)
#
#
# Indices 1 2 3 4 5 6 
#
# 1 68.2851 22.3440 19.4412 0.0000 0.0000 0.0000
# 2 22.3440 89.0195 59.1846 0.0000 0.0000 0.0000
# 3 19.4412 59.1846 108.0448 0.0000 0.0000 0.0000
# 4 0.0000 0.0000 0.0000 -614.5981 0.0000 0.0000
# 5 0.0000 0.0000 0.0000 0.0000 4.6388 0.0000
# 6 0.0000 0.0000 0.0000 0.0000 0.0000 37.9987
#
#
#
# Elastic Compliance Matrix: (Units=1/GPa)
#
#
# Indices 1 2 3 4 5 6 
#
# 1 0.016033 -0.003313 -0.001070 0.000000 0.000000 0.000000
# 2 -0.003313 0.018352 -0.009457 0.000000 0.000000 0.000000
# 3 -0.001070 -0.009457 0.014628 0.000000 0.000000 0.000000
# 4 0.000000 0.000000 0.000000 -0.001627 0.000000 0.000000
# 5 0.000000 0.000000 0.000000 0.000000 0.215572 0.000000
# 6 0.000000 0.000000 0.000000 0.000000 0.000000 0.026317
#
#
# Mechanical properties :
#
#
# Convention : Reuss Voigt Hill
#
# Bulk Modulus (GPa) = 46.87374 51.92100 49.39737
# Shear Modulus (GPa) = 15.42890 -103.43347 -44.00228
#
# Velocity S-wave (km/s) = 2.63620 -6.82562 -4.45194
# Velocity P-wave (km/s) = 5.51173 6.22352 2.04365
#
# Compressibility (1/GPa) = 0.02133390
#
# Stress axis : x y z
#
# Youngs Moduli (GPa) = 62.37059 54.48852 68.36043
#
# Poissons Ratio (x) = 0.18051 0.07317
# Poissons Ratio (y) = 0.20662 0.64649
# Poissons Ratio (z) = 0.06675 0.51530
#
# Static dielectric constant tensor:
#      x y z
#    x 1.886340 0.000000 0.000000 
#    y 0.000000 1.844350 0.000000 
#    z 0.000000 0.000000 1.911530 
# 
# From -- ./inp_files/18607.got.cif
#   From: 2010.05.17/outbox.cif.g08.bks.cpg/sg58_10_cif.got.tgz:18607.got - 2010.06.03 14:20:14.
