data_PCOD9445329
_publ_section_title
;
Structure prediction by ZEFSAII (Michael W. Deem and Ramdas Pophale) SiO2 
 PCOD9445329
Probable space group: P N N M
;
_chemical_formula_sum "Si O2"
_cell_formula_units_Z 38
_cell_length_a 5.043444
_cell_length_b 10.901370
_cell_length_c 27.113997
_cell_angle_alpha 90.000000
_cell_angle_beta 90.000000
_cell_angle_gamma 90.000000
_cell_volume 1490.739732
_symmetry_space_group_name_H-M "P N N M"
_symmetry_group_IT_number 58
_symmetry_cell_setting 'orthorhombic'
loop_
_space_group_symop_operation_xyz
x,y,z
-x,-y,z
1/2+x,1/2-y,1/2-z
1/2-x,1/2+y,1/2-z
-x,-y,-z
x,y,-z
1/2-x,1/2+y,1/2+z
1/2+x,1/2-y,1/2+z
loop_
_atom_site_type_symbol
_atom_site_label
_atom_site_fract_x
_atom_site_fract_y
_atom_site_fract_z
Si Si1 0.330516 0.124641 0.943092
Si Si2 0.186459 0.885176 0.417015
Si Si3 0.655856 0.180605 0.310289
Si Si4 0.157108 0.346713 0.700862
Si Si5 0.500000 0.000000 0.500000
Si Si6 0.000000 0.000000 0.868784
O O1 0.454978 0.254917 0.928165
O O2 0.090706 0.107784 0.905184
O O3 0.500000 0.000000 0.937173
O O4 0.249552 0.127844 0.000000
O O5 0.279567 0.889057 0.360499
O O6 0.419987 0.900399 0.456419
O O7 0.000000 0.000000 0.428843
O O8 0.359887 0.234012 0.309096
O O9 0.693651 0.114007 0.257854
O O10 0.865133 0.293644 0.307622
O O11 0.265846 0.450453 0.665185
#
# Coordination Sequence:
#
# PCOD9445329 Si02
#       6
#     8   8   8   8   2   4
#     4  11  25  47  74 108 145 199 260 319 387 457
#     4  12  27  49  76 109 154 203 258 325 395 472
#     4  10  23  47  70 111 147 211 246 323 378 481
#     4  10  23  42  75 107 158 192 265 307 398 455
#     4  12  30  48  74 112 150 208 268 322 400 460
#     4  12  23  40  72 108 146 197 246 334 370 472
#
# _framework density 25.490703
#
# number of rings (size 3 to 8) (size 9 to 14) (size 15 to 20)
#    0.000    1.053    3.158    1.895    4.421    1.684 
#    3.789    0.000    0.000    0.000    0.000    0.000 
#    0.000    0.000    0.000    0.000    0.000    0.000 
#
# Total GULP energy -212383.756798 kJ/mol
# GULP energy per Si atom -5589.046232 kJ/mol
# Density = 2.543269 g / cm^3
# Si number density = 25.490703 Si / 1000 Ang^3
#
#
#
# Elastic Constant Matrix: (Units=GPa)
#
#
# Indices 1 2 3 4 5 6 
#
# 1 52.8583 33.6445 13.0356 0.0000 0.0000 0.0000
# 2 33.6445 150.2340 38.5976 0.0000 0.0000 0.0000
# 3 13.0356 38.5976 226.2475 0.0000 0.0000 0.0000
# 4 0.0000 0.0000 0.0000 39.7811 0.0000 0.0000
# 5 0.0000 0.0000 0.0000 0.0000 -0.1834 0.0000
# 6 0.0000 0.0000 0.0000 0.0000 0.0000 35.2377
#
#
#
# Elastic Compliance Matrix: (Units=1/GPa)
#
#
# Indices 1 2 3 4 5 6 
#
# 1 0.022107 -0.004836 -0.000449 0.000000 0.000000 0.000000
# 2 -0.004836 0.008019 -0.001089 0.000000 0.000000 0.000000
# 3 -0.000449 -0.001089 0.004632 0.000000 0.000000 0.000000
# 4 0.000000 0.000000 0.000000 0.025138 0.000000 0.000000
# 5 0.000000 0.000000 0.000000 0.000000 -5.453398 0.000000
# 6 0.000000 0.000000 0.000000 0.000000 0.000000 0.028379
#
#
# Mechanical properties :
#
#
# Convention : Reuss Voigt Hill
#
# Bulk Modulus (GPa) = 45.43339 66.65502 56.04421
# Shear Modulus (GPa) = -0.93545 37.90457 18.48456
#
# Velocity S-wave (km/s) = -0.60644 3.86034 2.69578
# Velocity P-wave (km/s) = 4.16795 6.78787 5.63236
#
# Compressibility (1/GPa) = 0.02201024
#
# Stress axis : x y z
#
# Youngs Moduli (GPa) = 45.23456 124.70262 215.90557
#
# Poissons Ratio (x) = 0.60300 0.09690
# Poissons Ratio (y) = 0.21873 0.23522
# Poissons Ratio (z) = 0.02030 0.13586
#
# Static dielectric constant tensor:
#      x y z
#    x 2.046960 0.000000 0.000000 
#    y 0.000000 2.059890 0.000000 
#    z 0.000000 0.000000 1.949890 
# 
# From -- ./inp_files/32679.got.cif
#   From: 2010.05.17/outbox.cif.g08.bks.cpg/sg58_17_cif.got.tgz:32679.got - 2010.06.03 14:20:14.
