data_PCOD9445043
_publ_section_title
;
Structure prediction by ZEFSAII (Michael W. Deem and Ramdas Pophale) SiO2 
 PCOD9445043
Probable space group: P N N M
;
_chemical_formula_sum "Si O2"
_cell_formula_units_Z 40
_cell_length_a 8.543676
_cell_length_b 24.919356
_cell_length_c 8.143714
_cell_angle_alpha 90.000000
_cell_angle_beta 90.000000
_cell_angle_gamma 90.000000
_cell_volume 1733.820358
_symmetry_space_group_name_H-M "P N N M"
_symmetry_group_IT_number 58
_symmetry_cell_setting 'orthorhombic'
loop_
_space_group_symop_operation_xyz
x,y,z
-x,-y,z
1/2+x,1/2-y,1/2-z
1/2-x,1/2+y,1/2-z
-x,-y,-z
x,y,-z
1/2-x,1/2+y,1/2+z
1/2+x,1/2-y,1/2+z
loop_
_atom_site_type_symbol
_atom_site_label
_atom_site_fract_x
_atom_site_fract_y
_atom_site_fract_z
Si Si1 0.341296 0.872858 0.808625
Si Si2 0.158110 0.970882 0.693146
Si Si3 0.166538 0.571275 0.699004
Si Si4 0.343209 0.276776 0.808410
Si Si5 0.333660 0.674977 0.695537
O O1 0.204204 0.916486 0.783938
O O2 0.500495 0.902395 0.756939
O O3 0.297662 0.819077 0.713598
O O4 0.356544 0.858861 0.000000
O O5 0.141477 0.959183 0.500000
O O6 0.294161 0.014515 0.722560
O O7 0.000000 0.000000 0.753077
O O8 0.169392 0.564314 0.500000
O O9 0.295152 0.615290 0.754570
O O10 0.494200 0.303167 0.727581
O O11 0.288084 0.219559 0.739365
O O12 0.379139 0.270363 0.000000
O O13 0.309955 0.672874 0.500000
#
# Coordination Sequence:
#
# PCOD9445043 Si02
#       5
#     8   8   8   8   8
#     4  11  23  40  62  87 118 156 197 241 292 351
#     4  11  24  40  59  87 120 153 194 244 295 347
#     4  10  22  40  61  86 116 154 198 240 289 351
#     4  11  23  39  61  90 121 154 197 244 289 343
#     4  10  22  40  61  86 119 157 194 237 291 347
#
# _framework density 23.070440000000001
#
# number of rings (size 3 to 8) (size 9 to 14) (size 15 to 20)
#    0.000    1.400    0.000    4.800    0.000   12.800 
#    0.000    0.000    0.000    0.000    0.000    0.000 
#    0.000    0.000    0.000    0.000    0.000    0.000 
#
# Total GULP energy -223891.707864 kJ/mol
# GULP energy per Si atom -5597.292697 kJ/mol
# Density = 2.301793 g / cm^3
# Si number density = 23.070440 Si / 1000 Ang^3
#
#
#
# Elastic Constant Matrix: (Units=GPa)
#
#
# Indices 1 2 3 4 5 6 
#
# 1 57.7358 -13.8441 -7.2944 0.0000 0.0000 0.0000
# 2 -13.8441 88.4125 -3.0683 0.0000 0.0000 0.0000
# 3 -7.2944 -3.0683 14.6160 0.0000 0.0000 0.0000
# 4 0.0000 0.0000 0.0000 25.9873 0.0000 0.0000
# 5 0.0000 0.0000 0.0000 0.0000 87.6479 0.0000
# 6 0.0000 0.0000 0.0000 0.0000 0.0000 38.5705
#
#
#
# Elastic Compliance Matrix: (Units=1/GPa)
#
#
# Indices 1 2 3 4 5 6 
#
# 1 0.019455 0.003408 0.010425 0.000000 0.000000 0.000000
# 2 0.003408 0.011991 0.004218 0.000000 0.000000 0.000000
# 3 0.010425 0.004218 0.074506 0.000000 0.000000 0.000000
# 4 0.000000 0.000000 0.000000 0.038480 0.000000 0.000000
# 5 0.000000 0.000000 0.000000 0.000000 0.011409 0.000000
# 6 0.000000 0.000000 0.000000 0.000000 0.000000 0.025927
#
#
# Mechanical properties :
#
#
# Convention : Reuss Voigt Hill
#
# Bulk Modulus (GPa) = 7.03961 12.48341 9.76151
# Shear Modulus (GPa) = 25.90442 42.77256 34.33849
#
# Velocity S-wave (km/s) = 3.35452 4.31048 3.86219
# Velocity P-wave (km/s) = 4.24990 5.49512 4.91213
#
# Compressibility (1/GPa) = 0.14205327
#
# Stress axis : x y z
#
# Youngs Moduli (GPa) = 51.40185 83.39831 13.42165
#
# Poissons Ratio (x) = -0.28423 -0.13992
# Poissons Ratio (y) = -0.17518 -0.05661
# Poissons Ratio (z) = -0.53585 -0.35178
#
# Static dielectric constant tensor:
#      x y z
#    x 1.899080 0.000000 0.000000 
#    y 0.000000 1.851110 0.000000 
#    z 0.000000 0.000000 1.799510 
# 
# From -- ./inp_files/2399.got.cif
#   From: 2010.05.17/outbox.cif.g08.bks.cpg/sg58_2_cif.got.tgz:2399.got - 2010.06.03 14:20:14.
