data_PCOD9445457
_publ_section_title
;
Structure prediction by ZEFSAII (Michael W. Deem and Ramdas Pophale) SiO2 
 PCOD9445457
Probable space group: P N N M
;
_chemical_formula_sum "Si O2"
_cell_formula_units_Z 48
_cell_length_a 7.673707
_cell_length_b 11.939705
_cell_length_c 22.290641
_cell_angle_alpha 90.000000
_cell_angle_beta 90.000000
_cell_angle_gamma 90.000000
_cell_volume 2042.308603
_symmetry_space_group_name_H-M "P N N M"
_symmetry_group_IT_number 58
_symmetry_cell_setting 'orthorhombic'
loop_
_space_group_symop_operation_xyz
x,y,z
-x,-y,z
1/2+x,1/2-y,1/2-z
1/2-x,1/2+y,1/2-z
-x,-y,-z
x,y,-z
1/2-x,1/2+y,1/2+z
1/2+x,1/2-y,1/2+z
loop_
_atom_site_type_symbol
_atom_site_label
_atom_site_fract_x
_atom_site_fract_y
_atom_site_fract_z
Si Si1 0.176191 0.040482 0.329649
Si Si2 0.695585 0.049016 0.930888
Si Si3 0.674787 0.315905 0.431454
Si Si4 0.812037 0.699716 0.825482
Si Si5 0.061537 0.622348 0.728306
Si Si6 0.072602 0.218247 0.429876
O O1 0.304898 0.095440 0.282298
O O2 0.118451 0.116969 0.385473
O O3 0.262800 0.923469 0.348253
O O4 0.000000 0.000000 0.296798
O O5 0.676708 0.172533 0.905360
O O6 0.500000 0.000000 0.932523
O O7 0.808904 0.944648 0.909927
O O8 0.747938 0.065016 0.000000
O O9 0.611134 0.311642 0.500000
O O10 0.574406 0.252061 0.379062
O O11 0.868248 0.257125 0.433045
O O12 0.655889 0.788118 0.813816
O O13 0.901404 0.681067 0.761626
O O14 0.000000 0.500000 0.703410
O O15 0.118836 0.194864 0.500000
#
# Coordination Sequence:
#
# PCOD9445457 Si02
#       6
#     8   8   8   8   8   8
#     4  11  21  38  61  90 124 159 203 266 316 383
#     4   7  12  25  45  78 118 154 199 249 302 373
#     4   9  17  31  57  90 124 163 209 263 326 380
#     4  11  22  41  62  89 122 166 211 268 316 388
#     4  10  25  44  66  91 127 171 222 268 326 381
#     4   9  17  30  55  90 126 165 207 257 318 387
#
# _framework density 23.502815999999999
#
# number of rings (size 3 to 8) (size 9 to 14) (size 15 to 20)
#    0.000    2.500    1.667    3.000    0.000    3.000 
#    3.000    0.833    0.000    3.000    0.000    3.500 
#    0.000    0.000    0.000    0.000    0.000    0.000 
#
# Total GULP energy -267814.609002 kJ/mol
# GULP energy per Si atom -5579.471021 kJ/mol
# Density = 2.344932 g / cm^3
# Si number density = 23.502816 Si / 1000 Ang^3
#
#
#
# Elastic Constant Matrix: (Units=GPa)
#
#
# Indices 1 2 3 4 5 6 
#
# 1 47.3685 37.3247 14.9896 0.0000 0.0000 0.0000
# 2 37.3247 152.9132 61.3976 0.0000 0.0000 0.0000
# 3 14.9896 61.3976 94.9040 0.0000 0.0000 0.0000
# 4 0.0000 0.0000 0.0000 37.6788 0.0000 0.0000
# 5 0.0000 0.0000 0.0000 0.0000 -4.9382 0.0000
# 6 0.0000 0.0000 0.0000 0.0000 0.0000 24.6158
#
#
#
# Elastic Compliance Matrix: (Units=1/GPa)
#
#
# Indices 1 2 3 4 5 6 
#
# 1 0.026138 -0.006380 -0.000001 0.000000 0.000000 0.000000
# 2 -0.006380 0.010392 -0.005715 0.000000 0.000000 0.000000
# 3 -0.000001 -0.005715 0.014235 0.000000 0.000000 0.000000
# 4 0.000000 0.000000 0.000000 0.026540 0.000000 0.000000
# 5 0.000000 0.000000 0.000000 0.000000 -0.202505 0.000000
# 6 0.000000 0.000000 0.000000 0.000000 0.000000 0.040624
#
#
# Mechanical properties :
#
#
# Convention : Reuss Voigt Hill
#
# Bulk Modulus (GPa) = 37.63276 58.06772 47.85024
# Shear Modulus (GPa) = -97.03828 23.56953 -36.73438
#
# Velocity S-wave (km/s) = -6.43254 3.17020 -3.95774
# Velocity P-wave (km/s) = 6.25486 6.17742 0.69382
#
# Compressibility (1/GPa) = 0.02657260
#
# Stress axis : x y z
#
# Youngs Moduli (GPa) = 38.25790 96.23126 70.25160
#
# Poissons Ratio (x) = 0.61392 0.00008
# Poissons Ratio (y) = 0.24407 0.40150
# Poissons Ratio (z) = 0.00004 0.54998
#
# Static dielectric constant tensor:
#      x y z
#    x 2.010940 0.000000 0.000000 
#    y 0.000000 1.913740 0.000000 
#    z 0.000000 0.000000 1.894300 
# 
# From -- ./inp_files/31452.got.cif
#   From: 2010.05.17/outbox.cif.g08.bks.cpg/sg58_16_cif.got.tgz:31452.got - 2010.06.03 14:20:14.
