data_PCOD9445977
_publ_section_title
;
Structure prediction by ZEFSAII (Michael W. Deem and Ramdas Pophale) SiO2 
 PCOD9445977
Probable space group: P N N M
;
_chemical_formula_sum "Si O2"
_cell_formula_units_Z 64
_cell_length_a 21.000000
_cell_length_b 18.000000
_cell_length_c 9.000000
_cell_angle_alpha 90.000000
_cell_angle_beta 90.000000
_cell_angle_gamma 90.000000
_cell_volume 3402.000000
_symmetry_space_group_name_H-M "P N N M"
_symmetry_group_IT_number 58
_symmetry_cell_setting 'orthorhombic'
loop_
_space_group_symop_operation_xyz
x,y,z
-x,-y,z
1/2+x,1/2-y,1/2-z
1/2-x,1/2+y,1/2-z
-x,-y,-z
x,y,-z
1/2-x,1/2+y,1/2+z
1/2+x,1/2-y,1/2+z
loop_
_atom_site_type_symbol
_atom_site_label
_atom_site_fract_x
_atom_site_fract_y
_atom_site_fract_z
Si Si1 0.473156 0.654459 0.177282
Si Si2 0.847233 0.285163 0.179006
Si Si3 0.060054 0.591196 0.179652
Si Si4 0.873605 0.719024 0.677553
Si Si5 0.609361 0.629143 0.320770
Si Si6 0.222223 0.165589 0.824029
Si Si7 0.123683 0.039922 0.822322
Si Si8 0.587434 0.069759 0.679507
O O1 0.437050 0.732014 0.212120
O O2 0.540152 0.647468 0.257413
O O3 0.430237 0.586188 0.236617
O O4 0.479751 0.649357 0.000000
O O5 0.909814 0.330974 0.225803
O O6 0.847558 0.199075 0.225904
O O7 0.790121 0.329906 0.249853
O O8 0.842895 0.286991 0.000000
O O9 0.097916 0.516268 0.225593
O O10 0.986509 0.584130 0.221064
O O11 0.060843 0.589342 0.000000
O O12 0.866464 0.716398 0.500000
O O13 0.818895 0.769074 0.749723
O O14 0.874980 0.636515 0.744027
O O15 0.606988 0.629734 0.500000
O O16 0.628299 0.545819 0.275605
O O17 0.187347 0.087315 0.797104
O O18 0.225121 0.177232 0.000000
O O19 0.109546 0.042248 0.000000
O O20 0.593953 0.075087 0.500000
#
# Coordination Sequence:
#
# PCOD9445977 Si02
#       8
#     8   8   8   8   8   8   8   8
#     4  10  20  32  51  81 114 141 169 211 263 312
#     4  10  20  36  55  76 106 141 177 217 264 312
#     4   8  16  31  53  79 108 141 173 212 261 314
#     4  10  20  34  52  77 107 139 174 218 267 310
#     4  10  20  34  55  81 107 138 174 212 258 315
#     4  10  21  38  56  72  99 139 182 220 258 309
#     4   9  19  36  55  76 104 139 177 214 256 311
#     4   9  16  31  55  81 107 137 178 216 253 313
#
# _framework density 18.812463000000001
#
# number of rings (size 3 to 8) (size 9 to 14) (size 15 to 20)
#    0.000    2.500    0.000    3.000    0.000    5.500 
#    2.250    2.500    0.000    0.000    0.000    0.000 
#    0.000    0.000    0.000    0.000    0.000    0.000 
#
# Total GULP energy -356773.556377 kJ/mol
# GULP energy per Si atom -5574.586818 kJ/mol
# Density = 1.876965 g / cm^3
# Si number density = 18.812463 Si / 1000 Ang^3
#
#
#
# Elastic Constant Matrix: (Units=GPa)
#
#
# Indices 1 2 3 4 5 6 
#
# 1 31.0872 2.6608 -2.5529 0.0000 0.0000 0.0000
# 2 2.6608 81.9782 22.3574 0.0000 0.0000 0.0000
# 3 -2.5529 22.3574 -5.4297 0.0000 0.0000 0.0000
# 4 0.0000 0.0000 0.0000 54.1155 0.0000 0.0000
# 5 0.0000 0.0000 0.0000 0.0000 23.4003 0.0000
# 6 0.0000 0.0000 0.0000 0.0000 0.0000 2.5484
#
#
#
# Elastic Compliance Matrix: (Units=1/GPa)
#
#
# Indices 1 2 3 4 5 6 
#
# 1 0.031315 0.001413 -0.008907 0.000000 0.000000 0.000000
# 2 0.001413 0.005810 0.023258 0.000000 0.000000 0.000000
# 3 -0.008907 0.023258 -0.084219 0.000000 0.000000 0.000000
# 4 0.000000 0.000000 0.000000 0.018479 0.000000 0.000000
# 5 0.000000 0.000000 0.000000 0.000000 0.042734 0.000000
# 6 0.000000 0.000000 0.000000 0.000000 0.000000 0.392403
#
#
# Mechanical properties :
#
#
# Convention : Reuss Voigt Hill
#
# Bulk Modulus (GPa) = -64.24038 16.95182 -23.64428
# Shear Modulus (GPa) = 13.52057 21.69087 17.60572
#
# Velocity S-wave (km/s) = 2.68377 3.39928 3.06249
# Velocity P-wave (km/s) = 4.96169 4.94341 0.30092
#
# Compressibility (1/GPa) = -0.01556653
#
# Stress axis : x y z
#
# Youngs Moduli (GPa) = 31.93333 172.12818 -11.87386
#
# Poissons Ratio (x) = -0.24315 -0.10576
# Poissons Ratio (y) = -0.04511 0.27616
# Poissons Ratio (z) = 0.28442 -4.00328
#
# Static dielectric constant tensor:
#      x y z
#    x 1.706820 0.000000 0.000000 
#    y 0.000000 1.664450 0.000000 
#    z 0.000000 0.000000 1.621780 
# 
# From -- ./inp_files/9256.got.cif
#   From: 2010.05.17/outbox.ucp.g08.bks.cvg/sg58_5_cif.got.tgz:9256.got - 2010.06.11 16:41:41.
