data_PCOD9445534
_publ_section_title
;
Structure prediction by ZEFSAII (Michael W. Deem and Ramdas Pophale) SiO2 
 PCOD9445534
Probable space group: P N N M
;
_chemical_formula_sum "Si O2"
_cell_formula_units_Z 48
_cell_length_a 19.217852
_cell_length_b 9.108233
_cell_length_c 14.556930
_cell_angle_alpha 90.000000
_cell_angle_beta 90.000000
_cell_angle_gamma 90.000000
_cell_volume 2548.054835
_symmetry_space_group_name_H-M "P N N M"
_symmetry_group_IT_number 58
_symmetry_cell_setting 'orthorhombic'
loop_
_space_group_symop_operation_xyz
x,y,z
-x,-y,z
1/2+x,1/2-y,1/2-z
1/2-x,1/2+y,1/2-z
-x,-y,-z
x,y,-z
1/2-x,1/2+y,1/2+z
1/2+x,1/2-y,1/2+z
loop_
_atom_site_type_symbol
_atom_site_label
_atom_site_fract_x
_atom_site_fract_y
_atom_site_fract_z
Si Si1 0.887158 0.765030 0.000000
Si Si2 0.689195 0.671823 0.798873
Si Si3 0.371279 0.383279 0.500000
Si Si4 0.055154 0.869692 0.809918
Si Si5 0.268400 0.300454 0.000000
Si Si6 0.713124 0.052911 0.000000
Si Si7 0.045562 0.366584 0.820901
Si Si8 0.176429 0.472622 0.703597
O O1 0.925651 0.722244 0.907257
O O2 0.878466 0.939864 0.000000
O O3 0.814398 0.677431 0.000000
O O4 0.620364 0.600155 0.755666
O O5 0.756167 0.605869 0.747541
O O6 0.684883 0.849934 0.788428
O O7 0.698066 0.641922 0.906859
O O8 0.409804 0.329248 0.591828
O O9 0.287678 0.362472 0.500000
O O10 0.009675 0.736968 0.769950
O O11 0.000000 0.000000 0.822026
O O12 0.273688 0.123050 0.000000
O O13 0.674708 0.075916 0.903333
O O14 0.108352 0.421212 0.758030
O O15 0.000000 0.500000 0.857338
#
# Coordination Sequence:
#
# PCOD9445534 Si02
#       8
#     4   8   4   8   4   4   8   8
#     4  11  20  37  63  92 128 163 200 260 313 376
#     4  11  23  42  65  91 123 165 209 254 303 376
#     4  11  20  38  62  96 123 162 211 251 307 386
#     4  12  24  39  63  91 129 167 204 254 314 378
#     4   9  20  38  64  90 117 161 207 251 305 360
#     4   9  20  38  65  90 118 159 212 249 296 370
#     4  12  24  40  58  94 133 160 202 260 320 361
#     4  11  23  42  65  91 125 163 210 253 304 372
#
# _framework density 18.837900000000001
#
# number of rings (size 3 to 8) (size 9 to 14) (size 15 to 20)
#    0.000    1.000    6.667    1.000    2.333    0.000 
#    0.000    4.167    0.000    0.000    0.000    0.000 
#    0.000    0.000    0.000    0.000    0.000    0.000 
#
# Total GULP energy -267948.761504 kJ/mol
# GULP energy per Si atom -5582.265865 kJ/mol
# Density = 1.879502 g / cm^3
# Si number density = 18.837900 Si / 1000 Ang^3
#
#
#
# Elastic Constant Matrix: (Units=GPa)
#
#
# Indices 1 2 3 4 5 6 
#
# 1 107.4793 5.4470 42.9277 0.0000 0.0000 0.0000
# 2 5.4470 25.0929 -0.6877 0.0000 0.0000 0.0000
# 3 42.9277 -0.6877 119.3532 0.0000 0.0000 0.0000
# 4 0.0000 0.0000 0.0000 19.5760 0.0000 0.0000
# 5 0.0000 0.0000 0.0000 0.0000 42.6678 0.0000
# 6 0.0000 0.0000 0.0000 0.0000 0.0000 28.1717
#
#
#
# Elastic Compliance Matrix: (Units=1/GPa)
#
#
# Indices 1 2 3 4 5 6 
#
# 1 0.011020 -0.002501 -0.003978 0.000000 0.000000 0.000000
# 2 -0.002501 0.040426 0.001133 0.000000 0.000000 0.000000
# 3 -0.003978 0.001133 0.009816 0.000000 0.000000 0.000000
# 4 0.000000 0.000000 0.000000 0.051083 0.000000 0.000000
# 5 0.000000 0.000000 0.000000 0.000000 0.023437 0.000000
# 6 0.000000 0.000000 0.000000 0.000000 0.000000 0.035497
#
#
# Mechanical properties :
#
#
# Convention : Reuss Voigt Hill
#
# Bulk Modulus (GPa) = 19.77519 38.58882 29.18200
# Shear Modulus (GPa) = 25.14752 31.69899 28.42325
#
# Velocity S-wave (km/s) = 3.65765 4.10655 3.88858
# Velocity P-wave (km/s) = 5.32524 6.55852 5.97379
#
# Compressibility (1/GPa) = 0.05056842
#
# Stress axis : x y z
#
# Youngs Moduli (GPa) = 90.74710 24.73659 101.87741
#
# Poissons Ratio (x) = 0.06187 0.40525
# Poissons Ratio (y) = 0.22697 -0.11538
# Poissons Ratio (z) = 0.36098 -0.02801
#
# Static dielectric constant tensor:
#      x y z
#    x 1.648130 0.000000 0.000000 
#    y 0.000000 1.683480 0.000000 
#    z 0.000000 0.000000 1.633740 
# 
# From -- ./inp_files/22822.got.cif
#   From: 2010.05.17/outbox.cif.g08.bks.cpg/sg58_12_cif.got.tgz:22822.got - 2010.06.03 14:20:14.
