data_PCOD9445477
_publ_section_title
;
Structure prediction by ZEFSAII (Michael W. Deem and Ramdas Pophale) SiO2 
 PCOD9445477
Probable space group: P N N M
;
_chemical_formula_sum "Si O2"
_cell_formula_units_Z 24
_cell_length_a 5.147129
_cell_length_b 11.241479
_cell_length_c 18.413893
_cell_angle_alpha 90.000000
_cell_angle_beta 90.000000
_cell_angle_gamma 90.000000
_cell_volume 1065.452571
_symmetry_space_group_name_H-M "P N N M"
_symmetry_group_IT_number 58
_symmetry_cell_setting 'orthorhombic'
loop_
_space_group_symop_operation_xyz
x,y,z
-x,-y,z
1/2+x,1/2-y,1/2-z
1/2-x,1/2+y,1/2-z
-x,-y,-z
x,y,-z
1/2-x,1/2+y,1/2+z
1/2+x,1/2-y,1/2+z
loop_
_atom_site_type_symbol
_atom_site_label
_atom_site_fract_x
_atom_site_fract_y
_atom_site_fract_z
Si Si1 0.831291 0.305835 0.283760
Si Si2 0.255010 0.083171 0.500000
Si Si3 0.161084 0.310520 0.581298
Si Si4 0.500000 0.500000 0.670339
O O1 0.594806 0.221586 0.259363
O O2 0.710357 0.436346 0.279015
O O3 0.912239 0.296931 0.367829
O O4 0.262525 0.176685 0.567220
O O5 0.500000 0.000000 0.500000
O O6 0.000000 0.000000 0.500000
O O7 0.098579 0.354595 0.500000
O O8 0.354961 0.401845 0.620755
#
# Coordination Sequence:
#
# PCOD9445477 Si02
#       4
#     8   4   8   4
#     4  12  27  51  74 117 163 210 261 324 405 484
#     4  10  26  49  73 113 157 202 254 315 400 477
#     4  10  26  48  88 116 159 201 272 332 405 464
#     4  12  25  50  84 120 159 202 280 334 407 468
#
# _framework density 22.525639000000002
#
# number of rings (size 3 to 8) (size 9 to 14) (size 15 to 20)
#    1.000    0.000    3.333    1.500    4.667    4.000 
#    3.000    6.667    0.000    0.000    0.000    1.167 
#    0.000    0.000    0.000    0.000    0.000    0.000 
#
# Total GULP energy -134001.318462 kJ/mol
# GULP energy per Si atom -5583.388269 kJ/mol
# Density = 2.247437 g / cm^3
# Si number density = 22.525639 Si / 1000 Ang^3
#
#
#
# Elastic Constant Matrix: (Units=GPa)
#
#
# Indices 1 2 3 4 5 6 
#
# 1 198.0771 88.8561 66.4225 0.0000 0.0000 0.0000
# 2 88.8561 161.5026 32.3540 0.0000 0.0000 0.0000
# 3 66.4225 32.3540 76.0873 0.0000 0.0000 0.0000
# 4 0.0000 0.0000 0.0000 47.4094 0.0000 0.0000
# 5 0.0000 0.0000 0.0000 0.0000 70.5092 0.0000
# 6 0.0000 0.0000 0.0000 0.0000 0.0000 54.2605
#
#
#
# Elastic Compliance Matrix: (Units=1/GPa)
#
#
# Indices 1 2 3 4 5 6 
#
# 1 0.008679 -0.003560 -0.006062 0.000000 0.000000 0.000000
# 2 -0.003560 0.008229 -0.000391 0.000000 0.000000 0.000000
# 3 -0.006062 -0.000391 0.018601 0.000000 0.000000 0.000000
# 4 0.000000 0.000000 0.000000 0.021093 0.000000 0.000000
# 5 0.000000 0.000000 0.000000 0.000000 0.014183 0.000000
# 6 0.000000 0.000000 0.000000 0.000000 0.000000 0.018430
#
#
# Mechanical properties :
#
#
# Convention : Reuss Voigt Hill
#
# Bulk Modulus (GPa) = 64.59296 90.10357 77.34827
# Shear Modulus (GPa) = 43.70557 50.97143 47.33850
#
# Velocity S-wave (km/s) = 4.40962 4.76207 4.58923
# Velocity P-wave (km/s) = 7.39350 8.38592 7.90530
#
# Compressibility (1/GPa) = 0.01548156
#
# Stress axis : x y z
#
# Youngs Moduli (GPa) = 115.22611 121.52082 53.75968
#
# Poissons Ratio (x) = 0.43266 0.32591
# Poissons Ratio (y) = 0.41025 0.02102
# Poissons Ratio (z) = 0.69853 0.04752
#
# Static dielectric constant tensor:
#      x y z
#    x 5.423190 0.000000 0.000000 
#    y 0.000000 2.136850 0.000000 
#    z 0.000000 0.000000 1.867420 
# 
# From -- ./inp_files/27818.got.cif
#   From: 2010.05.17/outbox.cif.g08.bks.cpg/sg58_14_cif.got.tgz:27818.got - 2010.06.03 14:20:14.
