data_PCOD9445485
_publ_section_title
;
Structure prediction by ZEFSAII (Michael W. Deem and Ramdas Pophale) SiO2 
 PCOD9445485
Probable space group: P N N M
;
_chemical_formula_sum "Si O2"
_cell_formula_units_Z 38
_cell_length_a 5.123774
_cell_length_b 23.261561
_cell_length_c 13.613645
_cell_angle_alpha 90.000000
_cell_angle_beta 90.000000
_cell_angle_gamma 90.000000
_cell_volume 1622.569254
_symmetry_space_group_name_H-M "P N N M"
_symmetry_group_IT_number 58
_symmetry_cell_setting 'orthorhombic'
loop_
_space_group_symop_operation_xyz
x,y,z
-x,-y,z
1/2+x,1/2-y,1/2-z
1/2-x,1/2+y,1/2-z
-x,-y,-z
x,y,-z
1/2-x,1/2+y,1/2+z
1/2+x,1/2-y,1/2+z
loop_
_atom_site_type_symbol
_atom_site_label
_atom_site_fract_x
_atom_site_fract_y
_atom_site_fract_z
Si Si1 0.201339 0.908910 0.286116
Si Si2 0.300934 0.645237 0.500000
Si Si3 0.802500 0.707329 0.500000
Si Si4 0.703982 0.944055 0.830571
Si Si5 0.249506 0.958123 0.500000
Si Si6 0.000000 0.000000 0.000000
Si Si7 0.865558 0.222276 0.785204
O O1 0.436260 0.939880 0.228489
O O2 0.241519 0.919501 0.401512
O O3 0.194018 0.842308 0.251550
O O4 0.930658 0.936356 0.249967
O O5 0.112136 0.699658 0.500000
O O6 0.223060 0.611652 0.597718
O O7 0.615773 0.649705 0.500000
O O8 0.712340 0.733418 0.601985
O O9 0.781754 0.990860 0.912631
O O10 0.500000 0.000000 0.500000
O O11 0.000000 0.000000 0.500000
O O12 0.669094 0.263759 0.727044
#
# Coordination Sequence:
#
# PCOD9445485 Si02
#       7
#     8   4   4   8   4   2   8
#     4  12  26  48  74 104 150 191 250 311 366 439
#     4  11  18  39  67 102 137 185 215 273 379 428
#     4  12  22  42  69 101 142 179 238 288 363 441
#     4  11  23  42  70 107 147 179 235 289 372 431
#     4  12  30  52  78 103 144 213 265 310 378 437
#     4  10  28  38  72 114 144 182 232 286 366 466
#     4  12  26  45  74 110 144 195 242 303 375 441
#
# _framework density 23.419647999999999
#
# number of rings (size 3 to 8) (size 9 to 14) (size 15 to 20)
#    0.000    0.421    4.211    3.789    4.421    5.053 
#    0.000    0.000    0.000    0.000    0.000    0.000 
#    0.000    0.000    0.000    0.000    0.000    0.000 
#
# Total GULP energy -211997.277420 kJ/mol
# GULP energy per Si atom -5578.875722 kJ/mol
# Density = 2.336634 g / cm^3
# Si number density = 23.419648 Si / 1000 Ang^3
#
#
#
# Elastic Constant Matrix: (Units=GPa)
#
#
# Indices 1 2 3 4 5 6 
#
# 1 152.4727 15.6988 39.3718 0.0000 0.0000 0.0000
# 2 15.6988 48.4809 22.7824 0.0000 0.0000 0.0000
# 3 39.3718 22.7824 203.4554 0.0000 0.0000 0.0000
# 4 0.0000 0.0000 0.0000 21.0315 0.0000 0.0000
# 5 0.0000 0.0000 0.0000 0.0000 5.7482 0.0000
# 6 0.0000 0.0000 0.0000 0.0000 0.0000 31.6813
#
#
#
# Elastic Compliance Matrix: (Units=1/GPa)
#
#
# Indices 1 2 3 4 5 6 
#
# 1 0.007038 -0.001730 -0.001168 0.000000 0.000000 0.000000
# 2 -0.001730 0.022198 -0.002151 0.000000 0.000000 0.000000
# 3 -0.001168 -0.002151 0.005382 0.000000 0.000000 0.000000
# 4 0.000000 0.000000 0.000000 0.047548 0.000000 0.000000
# 5 0.000000 0.000000 0.000000 0.000000 0.173968 0.000000
# 6 0.000000 0.000000 0.000000 0.000000 0.000000 0.031564
#
#
# Mechanical properties :
#
#
# Convention : Reuss Voigt Hill
#
# Bulk Modulus (GPa) = 40.78380 62.23501 51.50941
# Shear Modulus (GPa) = 16.34150 33.46260 24.90205
#
# Velocity S-wave (km/s) = 2.64440 3.78408 3.26436
# Velocity P-wave (km/s) = 5.17455 6.76195 6.02079
#
# Compressibility (1/GPa) = 0.02451954
#
# Stress axis : x y z
#
# Youngs Moduli (GPa) = 142.07842 45.04980 185.80414
#
# Poissons Ratio (x) = 0.07794 0.21707
# Poissons Ratio (y) = 0.24581 0.39963
# Poissons Ratio (z) = 0.16599 0.09689
#
# Static dielectric constant tensor:
#      x y z
#    x 1.963670 0.000000 0.000000 
#    y 0.000000 2.101990 0.000000 
#    z 0.000000 0.000000 1.833280 
# 
# From -- ./inp_files/11806.got.cif
#   From: 2010.05.17/outbox.cif.g08.bks.cpg/sg58_6_cif.got.tgz:11806.got - 2010.06.03 14:20:14.
