data_PCOD9445885
_publ_section_title
;
Structure prediction by ZEFSAII (Michael W. Deem and Ramdas Pophale) SiO2 
 PCOD9445885
Probable space group: P N N M
;
_chemical_formula_sum "Si O2"
_cell_formula_units_Z 56
_cell_length_a 18.246454
_cell_length_b 20.082093
_cell_length_c 7.439957
_cell_angle_alpha 90.000000
_cell_angle_beta 90.000000
_cell_angle_gamma 90.000000
_cell_volume 2726.201021
_symmetry_space_group_name_H-M "P N N M"
_symmetry_group_IT_number 58
_symmetry_cell_setting 'orthorhombic'
loop_
_space_group_symop_operation_xyz
x,y,z
-x,-y,z
1/2+x,1/2-y,1/2-z
1/2-x,1/2+y,1/2-z
-x,-y,-z
x,y,-z
1/2-x,1/2+y,1/2+z
1/2+x,1/2-y,1/2+z
loop_
_atom_site_type_symbol
_atom_site_label
_atom_site_fract_x
_atom_site_fract_y
_atom_site_fract_z
Si Si1 0.569597 0.310445 0.280145
Si Si2 0.963693 0.070182 0.780750
Si Si3 0.859454 0.552018 0.787460
Si Si4 0.624005 0.901211 0.285319
Si Si5 0.287535 0.615795 0.714637
Si Si6 0.695679 0.536123 0.716323
Si Si7 0.973347 0.662888 0.220503
O O1 0.569230 0.309818 0.500000
O O2 0.512082 0.367239 0.223211
O O3 0.650402 0.333789 0.220766
O O4 0.547355 0.236980 0.220926
O O5 0.879017 0.070721 0.722397
O O6 0.964648 0.070499 0.000000
O O7 0.000000 0.000000 0.726259
O O8 0.873032 0.477343 0.713971
O O9 0.773616 0.567800 0.764103
O O10 0.913809 0.608419 0.718397
O O11 0.873592 0.547985 0.000000
O O12 0.616412 0.906082 0.500000
O O13 0.702965 0.868489 0.251452
O O14 0.553764 0.860884 0.220378
O O15 0.295634 0.612533 0.500000
O O16 0.302375 0.540583 0.782533
O O17 0.692723 0.533810 0.500000
O O18 0.972850 0.663610 0.000000
#
# Coordination Sequence:
#
# PCOD9445885 Si02
#       7
#     8   8   8   8   8   8   8
#     4   9  16  27  45  67  90 119 153 186 220 265
#     4   9  14  24  44  67  90 117 149 185 221 261
#     4   9  17  30  48  67  90 120 152 188 225 262
#     4   9  17  30  49  69  89 116 153 191 223 259
#     4   9  16  28  47  69  91 116 146 182 226 271
#     4   9  16  27  46  72  94 112 145 188 227 266
#     4   9  17  30  46  65  88 119 159 190 217 262
#
# _framework density 20.541404
#
# number of rings (size 3 to 8) (size 9 to 14) (size 15 to 20)
#    0.000    3.000    1.429    0.429    0.000    1.714 
#    2.571    0.714    0.000    5.571    0.000    0.000 
#    0.000    0.000    0.000    0.000    0.000    0.000 
#
# Total GULP energy -312448.703890 kJ/mol
# GULP energy per Si atom -5579.441141 kJ/mol
# Density = 2.049465 g / cm^3
# Si number density = 20.541404 Si / 1000 Ang^3
#
#
#
# Elastic Constant Matrix: (Units=GPa)
#
#
# Indices 1 2 3 4 5 6 
#
# 1 233.3675 130.8821 -1.8934 0.0000 0.0000 0.0000
# 2 130.8821 136.8150 5.4063 0.0000 0.0000 0.0000
# 3 -1.8934 5.4063 61.3493 0.0000 0.0000 0.0000
# 4 0.0000 0.0000 0.0000 -0.7969 0.0000 0.0000
# 5 0.0000 0.0000 0.0000 0.0000 22.2926 0.0000
# 6 0.0000 0.0000 0.0000 0.0000 0.0000 22.1563
#
#
#
# Elastic Compliance Matrix: (Units=1/GPa)
#
#
# Indices 1 2 3 4 5 6 
#
# 1 0.009316 -0.008954 0.001077 0.000000 0.000000 0.000000
# 2 -0.008954 0.015942 -0.001681 0.000000 0.000000 0.000000
# 3 0.001077 -0.001681 0.016481 0.000000 0.000000 0.000000
# 4 0.000000 0.000000 0.000000 -1.254841 0.000000 0.000000
# 5 0.000000 0.000000 0.000000 0.000000 0.044858 0.000000
# 6 0.000000 0.000000 0.000000 0.000000 0.000000 0.045134
#
#
# Mechanical properties :
#
#
# Convention : Reuss Voigt Hill
#
# Bulk Modulus (GPa) = 44.20669 77.81353 61.01011
# Shear Modulus (GPa) = -4.56016 28.53953 11.98968
#
# Velocity S-wave (km/s) = -1.49158 3.73146 2.41858
# Velocity P-wave (km/s) = 4.31290 7.51855 6.12902
#
# Compressibility (1/GPa) = 0.02262101
#
# Stress axis : x y z
#
# Youngs Moduli (GPa) = 107.34465 62.72889 60.67416
#
# Poissons Ratio (x) = 0.56170 -0.06532
# Poissons Ratio (y) = 0.96120 0.10200
# Poissons Ratio (z) = -0.11557 0.10546
#
# Static dielectric constant tensor:
#      x y z
#    x 1.722930 0.000000 0.000000 
#    y 0.000000 1.690580 0.000000 
#    z 0.000000 0.000000 1.795870 
# 
# From -- ./inp_files/8180.got.cif
#   From: 2010.05.17/outbox.cif.g08.bks.cpg/sg58_5_cif.got.tgz:8180.got - 2010.06.03 14:20:14.
