data_PCOD9445409
_publ_section_title
;
Structure prediction by ZEFSAII (Michael W. Deem and Ramdas Pophale) SiO2 
 PCOD9445409
Probable space group: P N N M
;
_chemical_formula_sum "Si O2"
_cell_formula_units_Z 64
_cell_length_a 15.588214
_cell_length_b 24.091768
_cell_length_c 8.807966
_cell_angle_alpha 90.000000
_cell_angle_beta 90.000000
_cell_angle_gamma 90.000000
_cell_volume 3307.810802
_symmetry_space_group_name_H-M "P N N M"
_symmetry_group_IT_number 58
_symmetry_cell_setting 'orthorhombic'
loop_
_space_group_symop_operation_xyz
x,y,z
-x,-y,z
1/2+x,1/2-y,1/2-z
1/2-x,1/2+y,1/2-z
-x,-y,-z
x,y,-z
1/2-x,1/2+y,1/2+z
1/2+x,1/2-y,1/2+z
loop_
_atom_site_type_symbol
_atom_site_label
_atom_site_fract_x
_atom_site_fract_y
_atom_site_fract_z
Si Si1 0.247433 0.050581 0.181572
Si Si2 0.153148 0.744295 0.319290
Si Si3 0.161010 0.248903 0.319808
Si Si4 0.403715 0.623800 0.180722
Si Si5 0.254868 0.920699 0.818063
Si Si6 0.081907 0.853513 0.818686
Si Si7 0.894378 0.374843 0.181153
Si Si8 0.086763 0.354619 0.180338
O O1 0.166625 0.081776 0.254978
O O2 0.332916 0.080571 0.241329
O O3 0.248432 0.985555 0.219838
O O4 0.242484 0.056284 0.000000
O O5 0.147525 0.739676 0.500000
O O6 0.249998 0.758504 0.267837
O O7 0.093302 0.793753 0.259666
O O8 0.130544 0.685976 0.242003
O O9 0.176058 0.254708 0.500000
O O10 0.128912 0.186699 0.289207
O O11 0.095207 0.295614 0.264484
O O12 0.495697 0.618001 0.259311
O O13 0.411537 0.617353 0.000000
O O14 0.166200 0.889490 0.781104
O O15 0.334246 0.891854 0.735199
O O16 0.267848 0.915396 0.000000
O O17 0.078158 0.846473 0.000000
O O18 0.995096 0.382370 0.213786
O O19 0.880869 0.376329 0.000000
O O20 0.091531 0.345235 0.000000
#
# Coordination Sequence:
#
# PCOD9445409 Si02
#       8
#     8   8   8   8   8   8   8   8
#     4  11  24  43  66  91 120 163 215 262 310 371
#     4  12  23  37  63  96 127 163 207 252 308 375
#     4  11  22  38  62  91 128 165 200 248 311 372
#     4  11  24  41  64  94 128 165 206 257 312 372
#     4  10  24  44  65  89 122 165 211 260 315 368
#     4  11  23  41  65  92 127 167 206 256 313 371
#     4  11  24  42  63  93 129 165 205 254 316 375
#     4  11  24  40  64  94 125 163 208 255 307 371
#
# _framework density 19.348144000000001
#
# number of rings (size 3 to 8) (size 9 to 14) (size 15 to 20)
#    0.000    1.000    2.500    4.125    0.000    8.000 
#    0.000    5.000    0.000    0.000    0.000    0.000 
#    0.000    0.000    0.000    0.000    0.000    0.000 
#
# Total GULP energy -358132.246474 kJ/mol
# GULP energy per Si atom -5595.816351 kJ/mol
# Density = 1.930411 g / cm^3
# Si number density = 19.348144 Si / 1000 Ang^3
#
#
#
# Elastic Constant Matrix: (Units=GPa)
#
#
# Indices 1 2 3 4 5 6 
#
# 1 93.2841 22.2747 29.5834 0.0000 0.0000 0.0000
# 2 22.2747 97.0687 31.3981 0.0000 0.0000 0.0000
# 3 29.5834 31.3981 45.0653 0.0000 0.0000 0.0000
# 4 0.0000 0.0000 0.0000 -90.3174 0.0000 0.0000
# 5 0.0000 0.0000 0.0000 0.0000 18.5727 0.0000
# 6 0.0000 0.0000 0.0000 0.0000 0.0000 3.6957
#
#
#
# Elastic Compliance Matrix: (Units=1/GPa)
#
#
# Indices 1 2 3 4 5 6 
#
# 1 0.013545 -0.000300 -0.008683 0.000000 0.000000 0.000000
# 2 -0.000300 0.013306 -0.009074 0.000000 0.000000 0.000000
# 3 -0.008683 -0.009074 0.034212 0.000000 0.000000 0.000000
# 4 0.000000 0.000000 0.000000 -0.011072 0.000000 0.000000
# 5 0.000000 0.000000 0.000000 0.000000 0.053842 0.000000
# 6 0.000000 0.000000 0.000000 0.000000 0.000000 0.270586
#
#
# Mechanical properties :
#
#
# Convention : Reuss Voigt Hill
#
# Bulk Modulus (GPa) = 40.08013 44.65895 42.36954
# Shear Modulus (GPa) = 11.93749 -3.46566 4.23591
#
# Velocity S-wave (km/s) = 2.48661 -1.33981 1.48124
# Velocity P-wave (km/s) = 5.38558 4.55395 4.98713
#
# Compressibility (1/GPa) = 0.02495002
#
# Stress axis : x y z
#
# Youngs Moduli (GPa) = 73.82701 75.15545 29.22950
#
# Poissons Ratio (x) = 0.02252 0.25380
# Poissons Ratio (y) = 0.02212 0.26522
# Poissons Ratio (z) = 0.64105 0.68194
#
# Static dielectric constant tensor:
#      x y z
#    x 1.672450 0.000000 0.000000 
#    y 0.000000 1.644700 0.000000 
#    z 0.000000 0.000000 1.644270 
# 
# From -- ./inp_files/6820.got.cif
#   From: 2010.05.17/outbox.cif.g08.bks.cpg/sg58_4_cif.got.tgz:6820.got - 2010.06.03 14:20:14.
