data_PCOD9445881
_publ_section_title
;
Structure prediction by ZEFSAII (Michael W. Deem and Ramdas Pophale) SiO2 
 PCOD9445881
Probable space group: P N N M
;
_chemical_formula_sum "Si O2"
_cell_formula_units_Z 40
_cell_length_a 7.590871
_cell_length_b 25.493509
_cell_length_c 10.450475
_cell_angle_alpha 90.000000
_cell_angle_beta 90.000000
_cell_angle_gamma 90.000000
_cell_volume 2022.354375
_symmetry_space_group_name_H-M "P N N M"
_symmetry_group_IT_number 58
_symmetry_cell_setting 'orthorhombic'
loop_
_space_group_symop_operation_xyz
x,y,z
-x,-y,z
1/2+x,1/2-y,1/2-z
1/2-x,1/2+y,1/2-z
-x,-y,-z
x,y,-z
1/2-x,1/2+y,1/2+z
1/2+x,1/2-y,1/2+z
loop_
_atom_site_type_symbol
_atom_site_label
_atom_site_fract_x
_atom_site_fract_y
_atom_site_fract_z
Si Si1 0.224133 0.739125 0.643866
Si Si2 0.161067 0.310129 0.637608
Si Si3 0.501413 0.926259 0.852246
Si Si4 0.361675 0.455059 0.344295
Si Si5 0.644925 0.374216 0.655931
O O1 0.287031 0.751961 0.500000
O O2 0.241626 0.786497 0.741668
O O3 0.323002 0.686105 0.691845
O O4 0.022020 0.721715 0.634660
O O5 0.254817 0.303138 0.500000
O O6 0.098176 0.369930 0.645254
O O7 0.340678 0.961629 0.798630
O O8 0.692352 0.911038 0.797358
O O9 0.534213 0.942077 0.000000
O O10 0.500000 0.500000 0.307351
O O11 0.351226 0.455798 0.500000
O O12 0.461609 0.401145 0.307723
O O13 0.656371 0.374641 0.500000
#
# Coordination Sequence:
#
# PCOD9445881 Si02
#       5
#     8   8   8   8   8
#     4   9  18  30  44  65  91 121 156 188 225 273
#     4   9  18  30  44  65  91 121 156 188 225 273
#     4   8  15  27  39  55  84 115 143 181 224 266
#     4   9  16  24  38  60  81 111 153 183 218 273
#     4   8  15  27  39  55  84 115 143 181 224 266
#
# _framework density 19.778928000000001
#
# number of rings (size 3 to 8) (size 9 to 14) (size 15 to 20)
#    0.000    3.400    0.000    2.400    2.800    1.600 
#    0.000    4.000    0.000    0.000    0.000    0.000 
#    0.000    3.200    0.000    8.800    0.000    8.800 
#
# Total GULP energy -222724.067711 kJ/mol
# GULP energy per Si atom -5568.101693 kJ/mol
# Density = 1.973391 g / cm^3
# Si number density = 19.778928 Si / 1000 Ang^3
#
#
#
# Elastic Constant Matrix: (Units=GPa)
#
#
# Indices 1 2 3 4 5 6 
#
# 1 107.4969 -2.5098 2.6793 0.0000 0.0000 0.0000
# 2 -2.5098 49.1969 16.7007 0.0000 0.0000 0.0000
# 3 2.6793 16.7007 29.8728 0.0000 0.0000 0.0000
# 4 0.0000 0.0000 0.0000 11.6374 0.0000 0.0000
# 5 0.0000 0.0000 0.0000 0.0000 550.2050 0.0000
# 6 0.0000 0.0000 0.0000 0.0000 0.0000 38.5800
#
#
#
# Elastic Compliance Matrix: (Units=1/GPa)
#
#
# Indices 1 2 3 4 5 6 
#
# 1 0.009359 0.000941 -0.001365 0.000000 0.000000 0.000000
# 2 0.000941 0.025182 -0.014163 0.000000 0.000000 0.000000
# 3 -0.001365 -0.014163 0.041516 0.000000 0.000000 0.000000
# 4 0.000000 0.000000 0.000000 0.085930 0.000000 0.000000
# 5 0.000000 0.000000 0.000000 0.000000 0.001818 0.000000
# 6 0.000000 0.000000 0.000000 0.000000 0.000000 0.025920
#
#
# Mechanical properties :
#
#
# Convention : Reuss Voigt Hill
#
# Bulk Modulus (GPa) = 21.33019 24.47855 22.90437
# Shear Modulus (GPa) = 21.31962 131.39758 76.35860
#
# Velocity S-wave (km/s) = 3.28669 8.15949 6.22012
# Velocity P-wave (km/s) = 5.02104 10.05847 7.94933
#
# Compressibility (1/GPa) = 0.04688191
#
# Stress axis : x y z
#
# Youngs Moduli (GPa) = 106.85364 39.71047 24.08739
#
# Poissons Ratio (x) = -0.03736 0.03289
# Poissons Ratio (y) = -0.10054 0.34114
# Poissons Ratio (z) = 0.14590 0.56241
#
# Static dielectric constant tensor:
#      x y z
#    x 1.784250 0.000000 0.000000 
#    y 0.000000 1.789760 0.000000 
#    z 0.000000 0.000000 1.654100 
# 
# From -- ./inp_files/2618.got.cif
#   From: 2010.05.17/outbox.cif.g08.bks.cpg/sg58_2_cif.got.tgz:2618.got - 2010.06.03 14:20:14.
