data_PCOD9445386
_publ_section_title
;
Structure prediction by ZEFSAII (Michael W. Deem and Ramdas Pophale) SiO2 
 PCOD9445386
Probable space group: P N N M
;
_chemical_formula_sum "Si O2"
_cell_formula_units_Z 48
_cell_length_a 9.138302
_cell_length_b 14.779697
_cell_length_c 17.149623
_cell_angle_alpha 90.000000
_cell_angle_beta 90.000000
_cell_angle_gamma 90.000000
_cell_volume 2316.250971
_symmetry_space_group_name_H-M "P N N M"
_symmetry_group_IT_number 58
_symmetry_cell_setting 'orthorhombic'
loop_
_space_group_symop_operation_xyz
x,y,z
-x,-y,z
1/2+x,1/2-y,1/2-z
1/2-x,1/2+y,1/2-z
-x,-y,-z
x,y,-z
1/2-x,1/2+y,1/2+z
1/2+x,1/2-y,1/2+z
loop_
_atom_site_type_symbol
_atom_site_label
_atom_site_fract_x
_atom_site_fract_y
_atom_site_fract_z
Si Si1 0.541088 0.103161 0.500000
Si Si2 0.649288 0.868437 0.650833
Si Si3 0.111448 0.909119 0.500000
Si Si4 0.664476 0.996319 0.199848
Si Si5 0.379828 0.329301 0.700945
Si Si6 0.599167 0.410035 0.412852
Si Si7 0.469660 0.605213 0.148583
O O1 0.470191 0.137802 0.581902
O O2 0.714953 0.093632 0.500000
O O3 0.500000 0.000000 0.500000
O O4 0.640283 0.947768 0.716044
O O5 0.668371 0.773868 0.696203
O O6 0.807752 0.887142 0.614949
O O7 0.071683 0.861544 0.420046
O O8 0.000000 0.000000 0.500000
O O9 0.768783 0.934698 0.145406
O O10 0.500000 0.000000 0.166076
O O11 0.750972 0.093595 0.205578
O O12 0.483002 0.343123 0.625810
O O13 0.487979 0.343856 0.773480
O O14 0.500000 0.500000 0.418239
O O15 0.646426 0.383724 0.500000
O O16 0.500000 0.500000 0.167410
#
# Coordination Sequence:
#
# PCOD9445386 Si02
#       7
#     4   8   4   8   8   8   8
#     4  12  26  46  66 108 141 180 234 299 351 432
#     4  12  26  42  72 102 144 186 238 294 360 417
#     4  10  24  40  72  96 139 190 227 285 364 420
#     4  11  24  41  66 106 140 181 232 294 350 421
#     4  11  24  42  70  99 138 185 238 293 353 430
#     4   9  19  42  69  91 125 179 228 280 347 415
#     4  11  20  44  67  96 136 189 233 286 355 422
#
# _framework density 20.723143
#
# number of rings (size 3 to 8) (size 9 to 14) (size 15 to 20)
#    0.000    1.167    3.333    3.500    5.833    0.333 
#    0.000    0.000    0.000    0.000    0.000    0.000 
#    0.000    0.000    0.000    0.000    0.000    0.000 
#
# Total GULP energy -267397.181288 kJ/mol
# GULP energy per Si atom -5570.774610 kJ/mol
# Density = 2.067598 g / cm^3
# Si number density = 20.723143 Si / 1000 Ang^3
#
#
#
# Elastic Constant Matrix: (Units=GPa)
#
#
# Indices 1 2 3 4 5 6 
#
# 1 161.2179 26.3485 39.1777 0.0000 0.0000 0.0000
# 2 26.3485 90.3260 25.4164 0.0000 0.0000 0.0000
# 3 39.1777 25.4164 118.0771 0.0000 0.0000 0.0000
# 4 0.0000 0.0000 0.0000 22.7385 0.0000 0.0000
# 5 0.0000 0.0000 0.0000 0.0000 -26.9698 0.0000
# 6 0.0000 0.0000 0.0000 0.0000 0.0000 15.3635
#
#
#
# Elastic Compliance Matrix: (Units=1/GPa)
#
#
# Indices 1 2 3 4 5 6 
#
# 1 0.006923 -0.001462 -0.001983 0.000000 0.000000 0.000000
# 2 -0.001462 0.012093 -0.002118 0.000000 0.000000 0.000000
# 3 -0.001983 -0.002118 0.009583 0.000000 0.000000 0.000000
# 4 0.000000 0.000000 0.000000 0.043978 0.000000 0.000000
# 5 0.000000 0.000000 0.000000 0.000000 -0.037079 0.000000
# 6 0.000000 0.000000 0.000000 0.000000 0.000000 0.065089
#
#
# Mechanical properties :
#
#
# Convention : Reuss Voigt Hill
#
# Bulk Modulus (GPa) = 57.22524 61.27847 59.25185
# Shear Modulus (GPa) = 42.53918 20.80500 31.67209
#
# Velocity S-wave (km/s) = 4.53563 3.17195 3.91365
# Velocity P-wave (km/s) = 7.42316 6.56120 7.00545
#
# Compressibility (1/GPa) = 0.01747481
#
# Stress axis : x y z
#
# Youngs Moduli (GPa) = 144.43641 82.68962 104.35391
#
# Poissons Ratio (x) = 0.12087 0.20689
# Poissons Ratio (y) = 0.21113 0.22104
# Poissons Ratio (z) = 0.28635 0.17515
#
# Static dielectric constant tensor:
#      x y z
#    x 1.803220 0.000000 0.000000 
#    y 0.000000 1.765490 0.000000 
#    z 0.000000 0.000000 1.849510 
# 
# From -- ./inp_files/25320.got.cif
#   From: 2010.05.17/outbox.cif.g08.bks.cpg/sg58_13_cif.got.tgz:25320.got - 2010.06.03 14:20:14.
