data_PCOD9445848
_publ_section_title
;
Structure prediction by ZEFSAII (Michael W. Deem and Ramdas Pophale) SiO2 
 PCOD9445848
Probable space group: P N N M
;
_chemical_formula_sum "Si O2"
_cell_formula_units_Z 34
_cell_length_a 13.649265
_cell_length_b 4.821628
_cell_length_c 21.281609
_cell_angle_alpha 90.000000
_cell_angle_beta 90.000000
_cell_angle_gamma 90.000000
_cell_volume 1400.578405
_symmetry_space_group_name_H-M "P N N M"
_symmetry_group_IT_number 58
_symmetry_cell_setting 'orthorhombic'
loop_
_space_group_symop_operation_xyz
x,y,z
-x,-y,z
1/2+x,1/2-y,1/2-z
1/2-x,1/2+y,1/2-z
-x,-y,-z
x,y,-z
1/2-x,1/2+y,1/2+z
1/2+x,1/2-y,1/2+z
loop_
_atom_site_type_symbol
_atom_site_label
_atom_site_fract_x
_atom_site_fract_y
_atom_site_fract_z
Si Si1 0.818649 0.401775 0.744031
Si Si2 0.794105 0.637410 0.926962
Si Si3 0.000000 0.500000 0.500000
Si Si4 0.593164 0.691834 0.881011
Si Si5 0.102800 0.847863 0.870540
O O1 0.778947 0.708743 0.756319
O O2 0.879162 0.369087 0.680115
O O3 0.880909 0.282561 0.801933
O O4 0.691955 0.523457 0.898698
O O5 0.819095 0.917612 0.889916
O O6 0.877615 0.410265 0.916100
O O7 0.784594 0.697568 0.000000
O O8 0.932359 0.360231 0.556058
O O9 0.500000 0.500000 0.867800
O O10 0.000000 0.000000 0.875949
#
# Coordination Sequence:
#
# PCOD9445848 Si02
#       5
#     8   8   2   8   8
#     4  12  25  49  78 108 150 203 252 320 393 456
#     4  12  27  47  77 108 154 199 251 320 382 462
#     4  12  30  48  80 118 158 214 264 316 418 476
#     4  12  28  47  77 113 156 202 261 321 400 479
#     4  12  26  49  75 109 148 197 259 314 385 457
#
# _framework density 24.275683999999998
#
# number of rings (size 3 to 8) (size 9 to 14) (size 15 to 20)
#    0.000    0.000    5.882    2.471    6.588    2.824 
#    4.235    0.000    0.000    0.000    0.000    0.000 
#    0.000    0.000    0.000    0.000    0.000    0.000 
#
# Total GULP energy -190069.910929 kJ/mol
# GULP energy per Si atom -5590.291498 kJ/mol
# Density = 2.422043 g / cm^3
# Si number density = 24.275684 Si / 1000 Ang^3
#
#
#
# Elastic Constant Matrix: (Units=GPa)
#
#
# Indices 1 2 3 4 5 6 
#
# 1 88.6997 0.2615 19.1707 0.0000 0.0000 0.0000
# 2 0.2615 55.9575 5.3308 0.0000 0.0000 0.0000
# 3 19.1707 5.3308 159.4637 0.0000 0.0000 0.0000
# 4 0.0000 0.0000 0.0000 -50.3358 0.0000 0.0000
# 5 0.0000 0.0000 0.0000 0.0000 13.9653 0.0000
# 6 0.0000 0.0000 0.0000 0.0000 0.0000 36.4352
#
#
#
# Elastic Compliance Matrix: (Units=1/GPa)
#
#
# Indices 1 2 3 4 5 6 
#
# 1 0.011575 0.000079 -0.001394 0.000000 0.000000 0.000000
# 2 0.000079 0.017928 -0.000609 0.000000 0.000000 0.000000
# 3 -0.001394 -0.000609 0.006459 0.000000 0.000000 0.000000
# 4 0.000000 0.000000 0.000000 -0.019867 0.000000 0.000000
# 5 0.000000 0.000000 0.000000 0.000000 0.071606 0.000000
# 6 0.000000 0.000000 0.000000 0.000000 0.000000 0.027446
#
#
# Mechanical properties :
#
#
# Convention : Reuss Voigt Hill
#
# Bulk Modulus (GPa) = 31.13919 39.29410 35.21664
# Shear Modulus (GPa) = 38.55020 18.63680 28.59350
#
# Velocity S-wave (km/s) = 3.98932 2.77377 3.43573
# Velocity P-wave (km/s) = 5.83735 5.14589 5.50249
#
# Compressibility (1/GPa) = 0.03211388
#
# Stress axis : x y z
#
# Youngs Moduli (GPa) = 86.39245 55.77766 154.82316
#
# Poissons Ratio (x) = -0.00439 0.21585
# Poissons Ratio (y) = -0.00680 0.09426
# Poissons Ratio (z) = 0.12045 0.03396
#
# Static dielectric constant tensor:
#      x y z
#    x 2.001320 0.000000 0.000000 
#    y 0.000000 1.904640 0.000000 
#    z 0.000000 0.000000 1.880260 
# 
# From -- ./inp_files/31808.got.cif
#   From: 2010.05.17/outbox.cif.g08.bks.cpg/sg58_16_cif.got.tgz:31808.got - 2010.06.03 14:20:14.
