data_PCOD9445581
_publ_section_title
;
Structure prediction by ZEFSAII (Michael W. Deem and Ramdas Pophale) SiO2 
 PCOD9445581
Probable space group: P N N M
;
_chemical_formula_sum "Si O2"
_cell_formula_units_Z 48
_cell_length_a 10.478291
_cell_length_b 28.962309
_cell_length_c 8.107310
_cell_angle_alpha 90.000000
_cell_angle_beta 90.000000
_cell_angle_gamma 90.000000
_cell_volume 2460.369970
_symmetry_space_group_name_H-M "P N N M"
_symmetry_group_IT_number 58
_symmetry_cell_setting 'orthorhombic'
loop_
_space_group_symop_operation_xyz
x,y,z
-x,-y,z
1/2+x,1/2-y,1/2-z
1/2-x,1/2+y,1/2-z
-x,-y,-z
x,y,-z
1/2-x,1/2+y,1/2+z
1/2+x,1/2-y,1/2+z
loop_
_atom_site_type_symbol
_atom_site_label
_atom_site_fract_x
_atom_site_fract_y
_atom_site_fract_z
Si Si1 0.855788 0.445547 0.300476
Si Si2 0.761862 0.143721 0.201462
Si Si3 0.493664 0.700814 0.308249
Si Si4 0.652892 0.049055 0.200712
Si Si5 0.248619 0.149820 0.688619
Si Si6 0.994600 0.696112 0.307280
O O1 0.850279 0.443497 0.500000
O O2 0.814924 0.496993 0.246564
O O3 0.775357 0.403429 0.231012
O O4 0.005470 0.440618 0.253722
O O5 0.741801 0.090936 0.256768
O O6 0.636185 0.172316 0.251239
O O7 0.889762 0.169384 0.255381
O O8 0.764658 0.143155 0.000000
O O9 0.519108 0.712003 0.500000
O O10 0.362607 0.672758 0.294785
O O11 0.484938 0.749143 0.214381
O O12 0.654774 0.048493 0.000000
O O13 0.209178 0.154682 0.500000
O O14 0.381505 0.176438 0.717312
O O15 0.009736 0.684000 0.500000
#
# Coordination Sequence:
#
# PCOD9445581 Si02
#       6
#     8   8   8   8   8   8
#     4   9  16  31  59  86 108 139 184 238 289 336
#     4   9  18  34  58  85 110 139 181 234 288 341
#     4  11  23  38  57  83 116 151 188 232 287 343
#     4   8  14  29  57  88 109 134 181 237 291 344
#     4  12  24  38  55  81 118 157 194 229 272 333
#     4  11  21  38  63  86 111 144 188 240 290 340
#
# _framework density 19.509260000000001
#
# number of rings (size 3 to 8) (size 9 to 14) (size 15 to 20)
#    0.000    2.000    1.667    4.500    0.000    1.333 
#    0.000    5.000    0.000    5.000    0.000    0.000 
#    0.000    0.000    0.000    0.000    0.000    0.000 
#
# Total GULP energy -268042.858775 kJ/mol
# GULP energy per Si atom -5584.226224 kJ/mol
# Density = 1.946486 g / cm^3
# Si number density = 19.509260 Si / 1000 Ang^3
#
#
#
# Elastic Constant Matrix: (Units=GPa)
#
#
# Indices 1 2 3 4 5 6 
#
# 1 86.8453 46.2148 -8.9253 0.0000 0.0000 0.0000
# 2 46.2148 139.0409 -9.4214 0.0000 0.0000 0.0000
# 3 -8.9253 -9.4214 22.5520 0.0000 0.0000 0.0000
# 4 0.0000 0.0000 0.0000 23.8760 0.0000 0.0000
# 5 0.0000 0.0000 0.0000 0.0000 13.6627 0.0000
# 6 0.0000 0.0000 0.0000 0.0000 0.0000 -10.9319
#
#
#
# Elastic Compliance Matrix: (Units=1/GPa)
#
#
# Indices 1 2 3 4 5 6 
#
# 1 0.014295 -0.004495 0.003780 0.000000 0.000000 0.000000
# 2 -0.004495 0.008815 0.001904 0.000000 0.000000 0.000000
# 3 0.003780 0.001904 0.046633 0.000000 0.000000 0.000000
# 4 0.000000 0.000000 0.000000 0.041883 0.000000 0.000000
# 5 0.000000 0.000000 0.000000 0.000000 0.073192 0.000000
# 6 0.000000 0.000000 0.000000 0.000000 0.000000 -0.091476
#
#
# Mechanical properties :
#
#
# Convention : Reuss Voigt Hill
#
# Bulk Modulus (GPa) = 13.86595 33.79717 23.83156
# Shear Modulus (GPa) = 43.47542 20.02603 31.75072
#
# Velocity S-wave (km/s) = 4.72577 3.20736 4.03857
# Velocity P-wave (km/s) = 6.07453 5.57472 5.82999
#
# Compressibility (1/GPa) = 0.07211913
#
# Stress axis : x y z
#
# Youngs Moduli (GPa) = 69.95242 113.43880 21.44405
#
# Poissons Ratio (x) = 0.50996 -0.08105
# Poissons Ratio (y) = 0.31447 -0.04082
# Poissons Ratio (z) = -0.26439 -0.21594
#
# Static dielectric constant tensor:
#      x y z
#    x 1.645300 0.000000 0.000000 
#    y 0.000000 1.681030 0.000000 
#    z 0.000000 0.000000 1.690270 
# 
# From -- ./inp_files/2939.got.cif
#   From: 2010.05.17/outbox.cif.g08.bks.cpg/sg58_2_cif.got.tgz:2939.got - 2010.06.03 14:20:14.
