data_PCOD9445168
_publ_section_title
;
Structure prediction by ZEFSAII (Michael W. Deem and Ramdas Pophale) SiO2 
 PCOD9445168
Probable space group: P N N M
;
_chemical_formula_sum "Si O2"
_cell_formula_units_Z 52
_cell_length_a 19.001524
_cell_length_b 16.050158
_cell_length_c 7.796413
_cell_angle_alpha 90.000000
_cell_angle_beta 90.000000
_cell_angle_gamma 90.000000
_cell_volume 2377.730253
_symmetry_space_group_name_H-M "P N N M"
_symmetry_group_IT_number 58
_symmetry_cell_setting 'orthorhombic'
loop_
_space_group_symop_operation_xyz
x,y,z
-x,-y,z
1/2+x,1/2-y,1/2-z
1/2-x,1/2+y,1/2-z
-x,-y,-z
x,y,-z
1/2-x,1/2+y,1/2+z
1/2+x,1/2-y,1/2+z
loop_
_atom_site_type_symbol
_atom_site_label
_atom_site_fract_x
_atom_site_fract_y
_atom_site_fract_z
Si Si1 0.650300 0.718709 0.693149
Si Si2 0.712607 0.155641 0.295123
Si Si3 0.950938 0.688443 0.205668
Si Si4 0.416589 0.097546 0.698362
Si Si5 0.680980 0.425940 0.000000
Si Si6 0.401143 0.398561 0.000000
Si Si7 0.043144 0.178879 0.500000
Si Si8 0.775397 0.470753 0.313575
O O1 0.636635 0.689409 0.500000
O O2 0.734105 0.724480 0.724498
O O3 0.614396 0.808419 0.711161
O O4 0.623154 0.654435 0.834522
O O5 0.721462 0.148397 0.500000
O O6 0.630751 0.170366 0.263414
O O7 0.735442 0.069033 0.210360
O O8 0.969167 0.764415 0.331426
O O9 0.002351 0.610813 0.249312
O O10 0.961033 0.704996 0.000000
O O11 0.414902 0.069819 0.500000
O O12 0.359123 0.043665 0.795348
O O13 0.622383 0.354830 0.000000
O O14 0.732108 0.426535 0.163866
O O15 0.636612 0.512584 0.000000
O O16 0.485732 0.394677 0.000000
O O17 0.751757 0.442066 0.500000
#
# Coordination Sequence:
#
# PCOD9445168 Si02
#       8
#     8   8   8   8   4   4   4   8
#     4  11  22  38  67  94 126 169 224 270 328 386
#     4  11  22  42  65  94 132 173 219 273 328 390
#     4  10  25  43  66  99 135 171 219 272 330 391
#     4  10  22  42  64  94 133 172 217 275 328 390
#     4  12  27  48  62 102 135 171 221 277 330 387
#     4  12  23  46  72  92 132 176 218 269 330 398
#     4  12  27  44  72  96 133 173 221 277 324 399
#     4  12  25  41  66  96 135 175 222 269 326 393
#
# _framework density 21.869596000000001
#
# number of rings (size 3 to 8) (size 9 to 14) (size 15 to 20)
#    0.000    0.923    5.385    0.692    6.462    1.231 
#    0.000    3.077    0.000    2.769    0.000    0.000 
#    0.000    0.000    0.000    0.000    0.000    0.000 
#
# Total GULP energy -290838.699646 kJ/mol
# GULP energy per Si atom -5593.051916 kJ/mol
# Density = 2.181982 g / cm^3
# Si number density = 21.869596 Si / 1000 Ang^3
#
#
#
# Elastic Constant Matrix: (Units=GPa)
#
#
# Indices 1 2 3 4 5 6 
#
# 1 123.2138 -9.0793 20.8645 0.0000 0.0000 0.0000
# 2 -9.0793 23.0600 13.7442 0.0000 0.0000 0.0000
# 3 20.8645 13.7442 111.9508 0.0000 0.0000 0.0000
# 4 0.0000 0.0000 0.0000 11.6526 0.0000 0.0000
# 5 0.0000 0.0000 0.0000 0.0000 67.9125 0.0000
# 6 0.0000 0.0000 0.0000 0.0000 0.0000 37.4628
#
#
#
# Elastic Compliance Matrix: (Units=1/GPa)
#
#
# Indices 1 2 3 4 5 6 
#
# 1 0.008851 0.004821 -0.002241 0.000000 0.000000 0.000000
# 2 0.004821 0.049414 -0.006965 0.000000 0.000000 0.000000
# 3 -0.002241 -0.006965 0.010205 0.000000 0.000000 0.000000
# 4 0.000000 0.000000 0.000000 0.085818 0.000000 0.000000
# 5 0.000000 0.000000 0.000000 0.000000 0.014725 0.000000
# 6 0.000000 0.000000 0.000000 0.000000 0.000000 0.026693
#
#
# Mechanical properties :
#
#
# Convention : Reuss Voigt Hill
#
# Bulk Modulus (GPa) = 16.75070 34.36483 25.55776
# Shear Modulus (GPa) = 22.28388 38.91858 30.60123
#
# Velocity S-wave (km/s) = 3.19555 4.22308 3.74473
# Velocity P-wave (km/s) = 4.61426 6.28703 5.51444
#
# Compressibility (1/GPa) = 0.05969901
#
# Stress axis : x y z
#
# Youngs Moduli (GPa) = 112.98487 20.23699 97.98803
#
# Poissons Ratio (x) = -0.09756 0.21963
# Poissons Ratio (y) = -0.54466 0.68249
# Poissons Ratio (z) = 0.25324 0.14095
#
# Static dielectric constant tensor:
#      x y z
#    x 1.844530 0.000000 0.000000 
#    y 0.000000 1.774860 0.000000 
#    z 0.000000 0.000000 1.781930 
# 
# From -- ./inp_files/7979.got.cif
#   From: 2010.05.17/outbox.cif.g08.bks.cpg/sg58_4_cif.got.tgz:7979.got - 2010.06.03 14:20:14.
