data_PCOD9445678
_publ_section_title
;
Structure prediction by ZEFSAII (Michael W. Deem and Ramdas Pophale) SiO2 
 PCOD9445678
Probable space group: P N N M
;
_chemical_formula_sum "Si O2"
_cell_formula_units_Z 48
_cell_length_a 11.057817
_cell_length_b 23.620685
_cell_length_c 9.108716
_cell_angle_alpha 90.000000
_cell_angle_beta 90.000000
_cell_angle_gamma 90.000000
_cell_volume 2379.134791
_symmetry_space_group_name_H-M "P N N M"
_symmetry_group_IT_number 58
_symmetry_cell_setting 'orthorhombic'
loop_
_space_group_symop_operation_xyz
x,y,z
-x,-y,z
1/2+x,1/2-y,1/2-z
1/2-x,1/2+y,1/2-z
-x,-y,-z
x,y,-z
1/2-x,1/2+y,1/2+z
1/2+x,1/2-y,1/2+z
loop_
_atom_site_type_symbol
_atom_site_label
_atom_site_fract_x
_atom_site_fract_y
_atom_site_fract_z
Si Si1 0.815419 0.912744 0.672938
Si Si2 0.817425 0.316891 0.675870
Si Si3 0.067019 0.376658 0.321962
Si Si4 0.803357 0.513754 0.670609
Si Si5 0.553819 0.585132 0.666637
Si Si6 0.799180 0.196675 0.825639
O O1 0.805794 0.907542 0.500000
O O2 0.789104 0.853241 0.751968
O O3 0.949478 0.931382 0.721933
O O4 0.720500 0.958368 0.735463
O O5 0.807796 0.317327 0.500000
O O6 0.819787 0.253499 0.736405
O O7 0.940599 0.349426 0.720099
O O8 0.071756 0.379152 0.500000
O O9 0.097570 0.440826 0.275321
O O10 0.175886 0.334909 0.277666
O O11 0.828103 0.498278 0.500000
O O12 0.676366 0.548526 0.673693
O O13 0.505698 0.579073 0.500000
O O14 0.596323 0.649703 0.691302
O O15 0.789604 0.209291 0.000000
#
# Coordination Sequence:
#
# PCOD9445678 Si02
#       6
#     8   8   8   8   8   8
#     4  12  25  37  53  83 121 154 190 240 286 328
#     4  11  23  38  57  84 114 152 195 230 280 345
#     4   8  18  38  62  83 109 147 188 230 282 345
#     4   9  18  38  64  85 110 149 191 235 285 342
#     4   9  19  37  62  88 115 150 190 232 286 347
#     4   9  19  38  61  86 115 144 182 236 290 336
#
# _framework density 20.1754
#
# number of rings (size 3 to 8) (size 9 to 14) (size 15 to 20)
#    0.000    2.333    0.000    4.500    2.333    4.000 
#    0.000    8.333    0.000    0.000    0.000    0.000 
#    0.000    0.000    0.000    0.000    0.000    0.000 
#
# Total GULP energy -268160.752169 kJ/mol
# GULP energy per Si atom -5586.682337 kJ/mol
# Density = 2.012948 g / cm^3
# Si number density = 20.175400 Si / 1000 Ang^3
#
#
#
# Elastic Constant Matrix: (Units=GPa)
#
#
# Indices 1 2 3 4 5 6 
#
# 1 50.4571 4.3231 15.9390 0.0000 0.0000 0.0000
# 2 4.3231 103.6069 44.0452 0.0000 0.0000 0.0000
# 3 15.9390 44.0452 74.2330 0.0000 0.0000 0.0000
# 4 0.0000 0.0000 0.0000 31.8986 0.0000 0.0000
# 5 0.0000 0.0000 0.0000 0.0000 -50.0106 0.0000
# 6 0.0000 0.0000 0.0000 0.0000 0.0000 19.6516
#
#
#
# Elastic Compliance Matrix: (Units=1/GPa)
#
#
# Indices 1 2 3 4 5 6 
#
# 1 0.021416 0.001419 -0.005440 0.000000 0.000000 0.000000
# 2 0.001419 0.013002 -0.008019 0.000000 0.000000 0.000000
# 3 -0.005440 -0.008019 0.019397 0.000000 0.000000 0.000000
# 4 0.000000 0.000000 0.000000 0.031349 0.000000 0.000000
# 5 0.000000 0.000000 0.000000 0.000000 -0.019996 0.000000
# 6 0.000000 0.000000 0.000000 0.000000 0.000000 0.050887
#
#
# Mechanical properties :
#
#
# Convention : Reuss Voigt Hill
#
# Bulk Modulus (GPa) = 33.63131 39.65684 36.64407
# Shear Modulus (GPa) = 33.32292 11.24056 22.28174
#
# Velocity S-wave (km/s) = 4.06847 2.36295 3.32686
# Velocity P-wave (km/s) = 6.22701 5.20993 5.74104
#
# Compressibility (1/GPa) = 0.02973419
#
# Stress axis : x y z
#
# Youngs Moduli (GPa) = 46.69458 76.91284 51.55365
#
# Poissons Ratio (x) = -0.10915 0.28047
# Poissons Ratio (y) = -0.06627 0.41342
# Poissons Ratio (z) = 0.25404 0.61677
#
# Static dielectric constant tensor:
#      x y z
#    x 1.746620 0.000000 0.000000 
#    y 0.000000 1.717420 0.000000 
#    z 0.000000 0.000000 1.666260 
# 
# From -- ./inp_files/4213.got.cif
#   From: 2010.05.17/outbox.cif.g08.bks.cpg/sg58_3_cif.got.tgz:4213.got - 2010.06.03 14:20:14.
