data_PCOD9445304
_publ_section_title
;
Structure prediction by ZEFSAII (Michael W. Deem and Ramdas Pophale) SiO2 
 PCOD9445304
Probable space group: P N N M
;
_chemical_formula_sum "Si O2"
_cell_formula_units_Z 38
_cell_length_a 8.143118
_cell_length_b 8.733229
_cell_length_c 26.155635
_cell_angle_alpha 90.000000
_cell_angle_beta 90.000000
_cell_angle_gamma 90.000000
_cell_volume 1860.076665
_symmetry_space_group_name_H-M "P N N M"
_symmetry_group_IT_number 58
_symmetry_cell_setting 'orthorhombic'
loop_
_space_group_symop_operation_xyz
x,y,z
-x,-y,z
1/2+x,1/2-y,1/2-z
1/2-x,1/2+y,1/2-z
-x,-y,-z
x,y,-z
1/2-x,1/2+y,1/2+z
1/2+x,1/2-y,1/2+z
loop_
_atom_site_type_symbol
_atom_site_label
_atom_site_fract_x
_atom_site_fract_y
_atom_site_fract_z
Si Si1 0.667619 0.226917 0.330418
Si Si2 0.107357 0.848502 0.239521
Si Si3 0.500000 0.500000 0.000000
Si Si4 0.000000 0.500000 0.096118
Si Si5 0.690376 0.040956 0.146663
Si Si6 0.241157 0.226803 0.554170
O O1 0.821495 0.208564 0.292664
O O2 0.509485 0.238574 0.293310
O O3 0.631110 0.089835 0.368736
O O4 0.698170 0.387973 0.359002
O O5 0.255124 0.890330 0.201150
O O6 0.000000 0.000000 0.248630
O O7 0.590883 0.390647 0.956185
O O8 0.098994 0.623010 0.063419
O O9 0.721281 0.161938 0.101821
O O10 0.500000 0.000000 0.146322
O O11 0.257516 0.314138 0.500000
#
# Coordination Sequence:
#
# PCOD9445304 Si02
#       6
#     8   8   2   4   8   8
#     4  11  25  40  66  99 141 185 233 274 346 404
#     4  10  23  42  63  98 143 186 233 278 332 409
#     4   8  24  46  74  94 130 164 230 278 354 414
#     4  12  25  42  72  96 138 178 229 288 334 420
#     4  11  24  42  68  98 140 179 229 287 343 404
#     4  10  24  47  69 100 131 173 227 283 351 407
#
# _framework density 20.429264
#
# number of rings (size 3 to 8) (size 9 to 14) (size 15 to 20)
#    0.632    0.842    2.105    1.579   10.316    2.105 
#    0.000    3.158    0.000    0.000    0.000    0.000 
#    0.000    0.000    0.000    0.000    0.000    0.000 
#
# Total GULP energy -211650.795310 kJ/mol
# GULP energy per Si atom -5569.757771 kJ/mol
# Density = 2.038277 g / cm^3
# Si number density = 20.429264 Si / 1000 Ang^3
#
#
#
# Elastic Constant Matrix: (Units=GPa)
#
#
# Indices 1 2 3 4 5 6 
#
# 1 72.6644 27.5523 32.5393 0.0000 0.0000 0.0000
# 2 27.5523 68.3513 61.8837 0.0000 0.0000 0.0000
# 3 32.5393 61.8837 88.6744 0.0000 0.0000 0.0000
# 4 0.0000 0.0000 0.0000 65.0440 0.0000 0.0000
# 5 0.0000 0.0000 0.0000 0.0000 17.8960 0.0000
# 6 0.0000 0.0000 0.0000 0.0000 0.0000 27.8848
#
#
#
# Elastic Compliance Matrix: (Units=1/GPa)
#
#
# Indices 1 2 3 4 5 6 
#
# 1 0.016725 -0.003219 -0.003890 0.000000 0.000000 0.000000
# 2 -0.003219 0.040359 -0.026984 0.000000 0.000000 0.000000
# 3 -0.003890 -0.026984 0.031536 0.000000 0.000000 0.000000
# 4 0.000000 0.000000 0.000000 0.015374 0.000000 0.000000
# 5 0.000000 0.000000 0.000000 0.000000 0.055878 0.000000
# 6 0.000000 0.000000 0.000000 0.000000 0.000000 0.035862
#
#
# Mechanical properties :
#
#
# Convention : Reuss Voigt Hill
#
# Bulk Modulus (GPa) = 48.94265 52.62674 50.78469
# Shear Modulus (GPa) = 18.46840 29.34596 23.90718
#
# Velocity S-wave (km/s) = 3.00995 3.79419 3.42459
# Velocity P-wave (km/s) = 6.00740 6.70901 6.36788
#
# Compressibility (1/GPa) = 0.02043208
#
# Stress axis : x y z
#
# Youngs Moduli (GPa) = 59.79160 24.77775 31.70945
#
# Poissons Ratio (x) = 0.07977 0.12336
# Poissons Ratio (y) = 0.19249 0.85565
# Poissons Ratio (z) = 0.23262 0.66860
#
# Static dielectric constant tensor:
#      x y z
#    x 1.751530 0.000000 0.000000 
#    y 0.000000 1.740580 0.000000 
#    z 0.000000 0.000000 1.701510 
# 
# From -- ./inp_files/31321.got.cif
#   From: 2010.05.17/outbox.cif.g08.bks.cpg/sg58_16_cif.got.tgz:31321.got - 2010.06.03 14:20:14.
