data_PCOD9445014
_publ_section_title
;
Structure prediction by ZEFSAII (Michael W. Deem and Ramdas Pophale) SiO2 
 PCOD9445014
Probable space group: P N N M
;
_chemical_formula_sum "Si O2"
_cell_formula_units_Z 58
_cell_length_a 16.945405
_cell_length_b 19.761827
_cell_length_c 8.036505
_cell_angle_alpha 90.000000
_cell_angle_beta 90.000000
_cell_angle_gamma 90.000000
_cell_volume 2691.201805
_symmetry_space_group_name_H-M "P N N M"
_symmetry_group_IT_number 58
_symmetry_cell_setting 'orthorhombic'
loop_
_space_group_symop_operation_xyz
x,y,z
-x,-y,z
1/2+x,1/2-y,1/2-z
1/2-x,1/2+y,1/2-z
-x,-y,-z
x,y,-z
1/2-x,1/2+y,1/2+z
1/2+x,1/2-y,1/2+z
loop_
_atom_site_type_symbol
_atom_site_label
_atom_site_fract_x
_atom_site_fract_y
_atom_site_fract_z
Si Si1 0.289985 0.456038 0.303723
Si Si2 0.827588 0.898908 0.197946
Si Si3 0.000000 0.500000 0.000000
Si Si4 0.603710 0.022909 0.813225
Si Si5 0.330920 0.170700 0.308221
Si Si6 0.989231 0.648453 0.199114
Si Si7 0.645136 0.685256 0.812050
Si Si8 0.968484 0.804783 0.197813
O O1 0.309107 0.449314 0.500000
O O2 0.330149 0.524480 0.235685
O O3 0.196645 0.468481 0.290572
O O4 0.314740 0.386305 0.220872
O O5 0.741251 0.866866 0.222820
O O6 0.895718 0.849099 0.262198
O O7 0.839181 0.904110 0.000000
O O8 0.066236 0.512448 0.151829
O O9 0.562362 0.096415 0.801726
O O10 0.590315 0.994240 0.000000
O O11 0.328771 0.151163 0.500000
O O12 0.419550 0.154455 0.246618
O O13 0.323893 0.252060 0.296229
O O14 0.955431 0.724204 0.212711
O O15 0.984660 0.625844 0.000000
O O16 0.551656 0.678226 0.781216
O O17 0.659769 0.706974 0.000000
O O18 0.978801 0.817031 0.000000
#
# Coordination Sequence:
#
# PCOD9445014 Si02
#       8
#     8   8   2   8   8   8   8   8
#     4  10  24  43  62  91 129 166 217 262 315 389
#     4  10  22  40  63  92 125 164 207 261 314 379
#     4  12  26  44  64  86 136 170 218 266 320 376
#     4  11  25  41  65  95 127 177 219 263 323 393
#     4  10  22  39  63  92 127 165 206 258 320 379
#     4   9  19  38  61  89 124 164 207 263 319 381
#     4  11  23  40  65  90 123 165 213 264 321 381
#     4   9  20  40  65  90 121 161 209 259 322 379
#
# _framework density 21.551711000000001
#
# number of rings (size 3 to 8) (size 9 to 14) (size 15 to 20)
#    0.000    1.931    0.690    2.690    4.828    4.414 
#    0.000    2.759    0.000    0.000    0.000    0.000 
#    0.000    0.000    0.000    0.000    0.000    0.000 
#
# Total GULP energy -323675.785539 kJ/mol
# GULP energy per Si atom -5580.616992 kJ/mol
# Density = 2.150266 g / cm^3
# Si number density = 21.551711 Si / 1000 Ang^3
#
#
#
# Elastic Constant Matrix: (Units=GPa)
#
#
# Indices 1 2 3 4 5 6 
#
# 1 32.0670 26.1007 12.0831 0.0000 0.0000 0.0000
# 2 26.1007 94.2943 22.8288 0.0000 0.0000 0.0000
# 3 12.0831 22.8288 76.4256 0.0000 0.0000 0.0000
# 4 0.0000 0.0000 0.0000 25.6256 0.0000 0.0000
# 5 0.0000 0.0000 0.0000 0.0000 23.7135 0.0000
# 6 0.0000 0.0000 0.0000 0.0000 0.0000 34.3893
#
#
#
# Elastic Compliance Matrix: (Units=1/GPa)
#
#
# Indices 1 2 3 4 5 6 
#
# 1 0.041028 -0.010549 -0.003336 0.000000 0.000000 0.000000
# 2 -0.010549 0.014144 -0.002557 0.000000 0.000000 0.000000
# 3 -0.003336 -0.002557 0.014376 0.000000 0.000000 0.000000
# 4 0.000000 0.000000 0.000000 0.039024 0.000000 0.000000
# 5 0.000000 0.000000 0.000000 0.000000 0.042170 0.000000
# 6 0.000000 0.000000 0.000000 0.000000 0.000000 0.029079
#
#
# Mechanical properties :
#
#
# Convention : Reuss Voigt Hill
#
# Bulk Modulus (GPa) = 27.27439 36.09025 31.68232
# Shear Modulus (GPa) = 22.22964 26.19729 24.21347
#
# Velocity S-wave (km/s) = 3.21511 3.49026 3.35551
# Velocity P-wave (km/s) = 5.14445 5.74672 5.45391
#
# Compressibility (1/GPa) = 0.03666443
#
# Stress axis : x y z
#
# Youngs Moduli (GPa) = 24.37373 70.70065 69.56136
#
# Poissons Ratio (x) = 0.74582 0.23203
# Poissons Ratio (y) = 0.25712 0.17788
# Poissons Ratio (z) = 0.08130 0.18079
#
# Static dielectric constant tensor:
#      x y z
#    x 1.749740 0.000000 0.000000 
#    y 0.000000 1.742220 0.000000 
#    z 0.000000 0.000000 1.774870 
# 
# From -- ./inp_files/8019.got.cif
#   From: 2010.05.17/outbox.cif.g08.bks.cpg/sg58_5_cif.got.tgz:8019.got - 2010.06.03 14:20:14.
