data_PCOD9445334
_publ_section_title
;
Structure prediction by ZEFSAII (Michael W. Deem and Ramdas Pophale) SiO2 
 PCOD9445334
Probable space group: P N N M
;
_chemical_formula_sum "Si O2"
_cell_formula_units_Z 48
_cell_length_a 8.081758
_cell_length_b 26.182031
_cell_length_c 10.269943
_cell_angle_alpha 90.000000
_cell_angle_beta 90.000000
_cell_angle_gamma 90.000000
_cell_volume 2173.087470
_symmetry_space_group_name_H-M "P N N M"
_symmetry_group_IT_number 58
_symmetry_cell_setting 'orthorhombic'
loop_
_space_group_symop_operation_xyz
x,y,z
-x,-y,z
1/2+x,1/2-y,1/2-z
1/2-x,1/2+y,1/2-z
-x,-y,-z
x,y,-z
1/2-x,1/2+y,1/2+z
1/2+x,1/2-y,1/2+z
loop_
_atom_site_type_symbol
_atom_site_label
_atom_site_fract_x
_atom_site_fract_y
_atom_site_fract_z
Si Si1 0.936971 0.724687 0.153319
Si Si2 0.287719 0.183512 0.846258
Si Si3 0.906924 0.422628 0.738031
Si Si4 0.265103 0.369319 0.752891
Si Si5 0.914478 0.085863 0.000000
Si Si6 0.741759 0.976705 0.000000
Si Si7 0.601914 0.574954 0.000000
Si Si8 0.230669 0.531989 0.000000
O O1 0.877399 0.782988 0.159304
O O2 0.791884 0.687213 0.205832
O O3 0.084582 0.712717 0.251729
O O4 0.971211 0.712183 0.000000
O O5 0.289813 0.126485 0.790536
O O6 0.339006 0.181668 0.000000
O O7 0.862623 0.462139 0.625869
O O8 0.864849 0.448394 0.874106
O O9 0.092009 0.400419 0.734942
O O10 0.370312 0.379845 0.624208
O O11 0.363849 0.392758 0.872407
O O12 0.096181 0.060501 0.000000
O O13 0.799491 0.035098 0.000000
O O14 0.415062 0.555397 0.000000
O O15 0.731729 0.528041 0.000000
#
# Coordination Sequence:
#
# PCOD9445334 Si02
#       8
#     8   8   8   8   4   4   4   4
#     4  10  23  43  65  94 127 162 205 256 309 370
#     4  10  23  43  65  94 127 162 205 256 309 370
#     4  11  23  41  64  93 125 165 208 261 310 370
#     4  11  23  41  64  93 125 165 208 261 310 370
#     4  11  25  39  64  91 126 169 210 257 318 365
#     4  11  23  43  60  91 130 163 212 263 306 377
#     4  11  23  43  60  91 130 163 212 263 306 377
#     4  11  25  39  64  91 126 169 210 257 318 365
#
# _framework density 22.088388999999999
#
# number of rings (size 3 to 8) (size 9 to 14) (size 15 to 20)
#    0.000    1.333    1.667    3.000    7.000   10.000 
#    0.000    0.000    0.000    0.000    0.000    0.000 
#    0.000    0.000    0.000    0.000    0.000    0.000 
#
# Total GULP energy -268641.369054 kJ/mol
# GULP energy per Si atom -5596.695189 kJ/mol
# Density = 2.203811 g / cm^3
# Si number density = 22.088389 Si / 1000 Ang^3
#
#
#
# Elastic Constant Matrix: (Units=GPa)
#
#
# Indices 1 2 3 4 5 6 
#
# 1 50.2024 29.6758 24.1512 0.0000 0.0000 0.0000
# 2 29.6758 66.7885 36.3095 0.0000 0.0000 0.0000
# 3 24.1512 36.3095 185.5457 0.0000 0.0000 0.0000
# 4 0.0000 0.0000 0.0000 24.0451 0.0000 0.0000
# 5 0.0000 0.0000 0.0000 0.0000 -215.7434 0.0000
# 6 0.0000 0.0000 0.0000 0.0000 0.0000 43.0445
#
#
#
# Elastic Compliance Matrix: (Units=1/GPa)
#
#
# Indices 1 2 3 4 5 6 
#
# 1 0.027301 -0.011413 -0.001320 0.000000 0.000000 0.000000
# 2 -0.011413 0.021526 -0.002727 0.000000 0.000000 0.000000
# 3 -0.001320 -0.002727 0.006095 0.000000 0.000000 0.000000
# 4 0.000000 0.000000 0.000000 0.041589 0.000000 0.000000
# 5 0.000000 0.000000 0.000000 0.000000 -0.004635 0.000000
# 6 0.000000 0.000000 0.000000 0.000000 0.000000 0.023232
#
#
# Mechanical properties :
#
#
# Convention : Reuss Voigt Hill
#
# Bulk Modulus (GPa) = 41.66283 53.64550 47.65416
# Shear Modulus (GPa) = 32.46176 -15.57075 8.44551
#
# Velocity S-wave (km/s) = 3.83773 -2.65793 1.95750
# Velocity P-wave (km/s) = 6.20809 3.86264 5.17013
#
# Compressibility (1/GPa) = 0.02400221
#
# Stress axis : x y z
#
# Youngs Moduli (GPa) = 36.62896 46.45534 164.06940
#
# Poissons Ratio (x) = 0.53018 0.21660
# Poissons Ratio (y) = 0.41803 0.44741
# Poissons Ratio (z) = 0.04836 0.12668
#
# Static dielectric constant tensor:
#      x y z
#    x 1.827140 0.000000 0.000000 
#    y 0.000000 1.794590 0.000000 
#    z 0.000000 0.000000 1.773910 
# 
# From -- ./inp_files/3097.got.cif
#   From: 2010.05.17/outbox.cif.g08.bks.cpg/sg58_2_cif.got.tgz:3097.got - 2010.06.03 14:20:14.
