data_PCOD9445251
_publ_section_title
;
Structure prediction by ZEFSAII (Michael W. Deem and Ramdas Pophale) SiO2 
 PCOD9445251
Probable space group: P N N M
;
_chemical_formula_sum "Si O2"
_cell_formula_units_Z 40
_cell_length_a 8.411484
_cell_length_b 9.329473
_cell_length_c 21.803850
_cell_angle_alpha 90.000000
_cell_angle_beta 90.000000
_cell_angle_gamma 90.000000
_cell_volume 1711.050868
_symmetry_space_group_name_H-M "P N N M"
_symmetry_group_IT_number 58
_symmetry_cell_setting 'orthorhombic'
loop_
_space_group_symop_operation_xyz
x,y,z
-x,-y,z
1/2+x,1/2-y,1/2-z
1/2-x,1/2+y,1/2-z
-x,-y,-z
x,y,-z
1/2-x,1/2+y,1/2+z
1/2+x,1/2-y,1/2+z
loop_
_atom_site_type_symbol
_atom_site_label
_atom_site_fract_x
_atom_site_fract_y
_atom_site_fract_z
Si Si1 0.654882 0.588618 0.592484
Si Si2 0.438004 0.216293 0.797981
Si Si3 0.755453 0.064267 0.769142
Si Si4 0.962627 0.651042 0.929136
Si Si5 0.853339 0.327020 0.430029
O O1 0.500000 0.500000 0.571131
O O2 0.661361 0.590000 0.665592
O O3 0.618143 0.749243 0.572747
O O4 0.801733 0.494280 0.569470
O O5 0.599453 0.164619 0.766657
O O6 0.375093 0.373034 0.780959
O O7 0.463220 0.199411 0.871265
O O8 0.310348 0.097310 0.774011
O O9 0.807591 0.740232 0.908961
O O10 0.000000 0.500000 0.897380
O O11 0.923287 0.622646 0.000000
O O12 0.898700 0.287476 0.500000
#
# Coordination Sequence:
#
# PCOD9445251 Si02
#       5
#     8   8   8   8   8
#     4   9  18  33  56  80 113 147 191 234 289 345
#     4  10  23  40  59  88 116 155 195 244 293 352
#     4  10  23  39  58  86 119 149 198 240 293 352
#     4   9  17  29  50  81 114 148 189 234 282 342
#     4   9  18  35  57  80 113 153 191 236 292 346
#
# _framework density 23.377447
#
# number of rings (size 3 to 8) (size 9 to 14) (size 15 to 20)
#    0.000    2.600    0.000    0.600    8.400    4.000 
#    0.000    9.000    0.000    0.000    0.000    7.000 
#    0.000    0.000    0.000    0.000    0.000    0.000 
#
# Total GULP energy -223174.027069 kJ/mol
# GULP energy per Si atom -5579.350677 kJ/mol
# Density = 2.332424 g / cm^3
# Si number density = 23.377447 Si / 1000 Ang^3
#
#
#
# Elastic Constant Matrix: (Units=GPa)
#
#
# Indices 1 2 3 4 5 6 
#
# 1 35.5254 33.3157 12.0915 0.0000 0.0000 0.0000
# 2 33.3157 110.6258 24.7916 0.0000 0.0000 0.0000
# 3 12.0915 24.7916 82.7835 0.0000 0.0000 0.0000
# 4 0.0000 0.0000 0.0000 7.7449 0.0000 0.0000
# 5 0.0000 0.0000 0.0000 0.0000 25.4358 0.0000
# 6 0.0000 0.0000 0.0000 0.0000 0.0000 26.8563
#
#
#
# Elastic Compliance Matrix: (Units=1/GPa)
#
#
# Indices 1 2 3 4 5 6 
#
# 1 0.039659 -0.011411 -0.002375 0.000000 0.000000 0.000000
# 2 -0.011411 0.012973 -0.002218 0.000000 0.000000 0.000000
# 3 -0.002375 -0.002218 0.013091 0.000000 0.000000 0.000000
# 4 0.000000 0.000000 0.000000 0.129117 0.000000 0.000000
# 5 0.000000 0.000000 0.000000 0.000000 0.039315 0.000000
# 6 0.000000 0.000000 0.000000 0.000000 0.000000 0.037235
#
#
# Mechanical properties :
#
#
# Convention : Reuss Voigt Hill
#
# Bulk Modulus (GPa) = 29.66199 41.03692 35.34946
# Shear Modulus (GPa) = 15.89131 22.58979 19.24055
#
# Velocity S-wave (km/s) = 2.61007 3.11192 2.87198
# Velocity P-wave (km/s) = 4.66895 5.52306 5.11387
#
# Compressibility (1/GPa) = 0.03371318
#
# Stress axis : x y z
#
# Youngs Moduli (GPa) = 25.21517 77.08208 76.38835
#
# Poissons Ratio (x) = 0.87960 0.18144
# Poissons Ratio (y) = 0.28773 0.16946
# Poissons Ratio (z) = 0.05989 0.17100
#
# Static dielectric constant tensor:
#      x y z
#    x 1.940760 0.000000 0.000000 
#    y 0.000000 1.936570 0.000000 
#    z 0.000000 0.000000 1.852510 
# 
# From -- ./inp_files/31265.got.cif
#   From: 2010.05.17/outbox.cif.g08.bks.cpg/sg58_16_cif.got.tgz:31265.got - 2010.06.03 14:20:14.
