data_PCOD9445452
_publ_section_title
;
Structure prediction by ZEFSAII (Michael W. Deem and Ramdas Pophale) SiO2 
 PCOD9445452
Probable space group: P N N M
;
_chemical_formula_sum "Si O2"
_cell_formula_units_Z 32
_cell_length_a 9.427497
_cell_length_b 7.790624
_cell_length_c 18.446923
_cell_angle_alpha 90.000000
_cell_angle_beta 90.000000
_cell_angle_gamma 90.000000
_cell_volume 1354.854263
_symmetry_space_group_name_H-M "P N N M"
_symmetry_group_IT_number 58
_symmetry_cell_setting 'orthorhombic'
loop_
_space_group_symop_operation_xyz
x,y,z
-x,-y,z
1/2+x,1/2-y,1/2-z
1/2-x,1/2+y,1/2-z
-x,-y,-z
x,y,-z
1/2-x,1/2+y,1/2+z
1/2+x,1/2-y,1/2+z
loop_
_atom_site_type_symbol
_atom_site_label
_atom_site_fract_x
_atom_site_fract_y
_atom_site_fract_z
Si Si1 0.272049 0.839969 0.634642
Si Si2 0.287905 0.859253 0.000000
Si Si3 0.560235 0.688285 0.619959
Si Si4 0.109875 0.754794 0.500000
Si Si5 0.859940 0.393443 0.748054
O O1 0.429223 0.814636 0.602251
O O2 0.160465 0.854903 0.570940
O O3 0.230046 0.670102 0.680589
O O4 0.278960 0.990699 0.693188
O O5 0.196968 0.799119 0.069336
O O6 0.444192 0.782155 0.000000
O O7 0.310207 0.067303 0.000000
O O8 0.500000 0.500000 0.608729
O O9 0.592860 0.730917 0.703571
O O10 0.000000 0.500000 0.725056
#
# Coordination Sequence:
#
# PCOD9445452 Si02
#       5
#     8   4   8   4   8
#     4  11  23  43  68 100 136 180 226 288 346 420
#     4  11  24  40  67 100 134 182 232 286 354 414
#     4  11  21  41  68  97 131 177 229 279 345 419
#     4  11  25  41  70  94 139 176 236 295 343 417
#     4  10  25  42  69 104 140 180 233 289 354 415
#
# _framework density 23.618776
#
# number of rings (size 3 to 8) (size 9 to 14) (size 15 to 20)
#    0.000    1.250    2.500    2.625    3.500    3.000 
#    0.000   11.250    0.000    0.000    0.000    0.000 
#    0.000    0.000    0.000    0.000    0.000    0.000 
#
# Total GULP energy -179200.055735 kJ/mol
# GULP energy per Si atom -5600.001742 kJ/mol
# Density = 2.356502 g / cm^3
# Si number density = 23.618776 Si / 1000 Ang^3
#
#
#
# Elastic Constant Matrix: (Units=GPa)
#
#
# Indices 1 2 3 4 5 6 
#
# 1 138.7175 25.9766 63.4691 0.0000 0.0000 0.0000
# 2 25.9766 60.4360 27.3799 0.0000 0.0000 0.0000
# 3 63.4691 27.3799 76.9545 0.0000 0.0000 0.0000
# 4 0.0000 0.0000 0.0000 -64.5458 0.0000 0.0000
# 5 0.0000 0.0000 0.0000 0.0000 48.0557 0.0000
# 6 0.0000 0.0000 0.0000 0.0000 0.0000 28.7974
#
#
#
# Elastic Compliance Matrix: (Units=1/GPa)
#
#
# Indices 1 2 3 4 5 6 
#
# 1 0.011609 -0.000777 -0.009298 0.000000 0.000000 0.000000
# 2 -0.000777 0.019778 -0.006396 0.000000 0.000000 0.000000
# 3 -0.009298 -0.006396 0.022939 0.000000 0.000000 0.000000
# 4 0.000000 0.000000 0.000000 -0.015493 0.000000 0.000000
# 5 0.000000 0.000000 0.000000 0.000000 0.020809 0.000000
# 6 0.000000 0.000000 0.000000 0.000000 0.000000 0.034725
#
#
# Mechanical properties :
#
#
# Convention : Reuss Voigt Hill
#
# Bulk Modulus (GPa) = 46.76477 56.63990 51.70234
# Shear Modulus (GPa) = 37.19228 13.08027 25.13627
#
# Velocity S-wave (km/s) = 3.97254 2.35587 3.26582
# Velocity P-wave (km/s) = 6.39408 5.60652 6.01321
#
# Compressibility (1/GPa) = 0.02138362
#
# Stress axis : x y z
#
# Youngs Moduli (GPa) = 86.14333 50.56101 43.59459
#
# Poissons Ratio (x) = 0.03930 0.40533
# Poissons Ratio (y) = 0.06697 0.27882
# Poissons Ratio (z) = 0.80093 0.32338
#
# Static dielectric constant tensor:
#      x y z
#    x 1.898290 0.000000 0.000000 
#    y 0.000000 1.947230 0.000000 
#    z 0.000000 0.000000 1.844740 
# 
# From -- ./inp_files/28474.got.cif
#   From: 2010.05.17/outbox.cif.g08.bks.cpg/sg58_15_cif.got.tgz:28474.got - 2010.06.03 14:20:14.
