data_PCOD9445703
_publ_section_title
;
Structure prediction by ZEFSAII (Michael W. Deem and Ramdas Pophale) SiO2 
 PCOD9445703
Probable space group: P N N M
;
_chemical_formula_sum "Si O2"
_cell_formula_units_Z 48
_cell_length_a 27.724063
_cell_length_b 9.556133
_cell_length_c 8.386601
_cell_angle_alpha 90.000000
_cell_angle_beta 90.000000
_cell_angle_gamma 90.000000
_cell_volume 2221.902738
_symmetry_space_group_name_H-M "P N N M"
_symmetry_group_IT_number 58
_symmetry_cell_setting 'orthorhombic'
loop_
_space_group_symop_operation_xyz
x,y,z
-x,-y,z
1/2+x,1/2-y,1/2-z
1/2-x,1/2+y,1/2-z
-x,-y,-z
x,y,-z
1/2-x,1/2+y,1/2+z
1/2+x,1/2-y,1/2+z
loop_
_atom_site_type_symbol
_atom_site_label
_atom_site_fract_x
_atom_site_fract_y
_atom_site_fract_z
Si Si1 0.050011 0.072088 0.313831
Si Si2 0.294184 0.847847 0.808408
Si Si3 0.548468 0.921217 0.814621
Si Si4 0.201817 0.676363 0.691047
Si Si5 0.394560 0.324201 0.316299
Si Si6 0.396468 0.831378 0.684364
O O1 0.045051 0.109353 0.500000
O O2 0.065557 0.209056 0.218920
O O3 0.091830 0.957618 0.289117
O O4 0.000000 0.000000 0.261461
O O5 0.248031 0.764438 0.746323
O O6 0.342885 0.785685 0.732498
O O7 0.292602 0.012835 0.763247
O O8 0.296413 0.838489 0.000000
O O9 0.563002 0.788157 0.712785
O O10 0.500000 0.000000 0.763900
O O11 0.590044 0.036409 0.793329
O O12 0.543837 0.880079 0.000000
O O13 0.197230 0.681865 0.500000
O O14 0.154443 0.747213 0.765979
O O15 0.392267 0.366895 0.500000
O O16 0.398124 0.873480 0.500000
#
# Coordination Sequence:
#
# PCOD9445703 Si02
#       6
#     8   8   8   8   8   8
#     4  11  25  45  68  95 132 179 225 271 329 393
#     4  11  25  45  70  98 133 174 219 269 328 395
#     4  11  23  41  66  95 130 173 219 267 325 391
#     4  11  25  45  70  98 133 174 219 269 328 395
#     4  12  25  42  67  98 134 172 218 273 328 389
#     4  12  25  42  67  98 134 172 218 273 328 389
#
# _framework density 21.603106
#
# number of rings (size 3 to 8) (size 9 to 14) (size 15 to 20)
#    0.000    0.667    1.667    6.000    2.333    8.667 
#    0.000    0.000    0.000    0.000    0.000    0.000 
#    0.000    0.000    0.000    0.000    0.000    0.000 
#
# Total GULP energy -268801.741430 kJ/mol
# GULP energy per Si atom -5600.036280 kJ/mol
# Density = 2.155394 g / cm^3
# Si number density = 21.603106 Si / 1000 Ang^3
#
#
#
# Elastic Constant Matrix: (Units=GPa)
#
#
# Indices 1 2 3 4 5 6 
#
# 1 95.7591 13.2924 10.3327 0.0000 0.0000 0.0000
# 2 13.2924 63.5264 2.3997 0.0000 0.0000 0.0000
# 3 10.3327 2.3997 53.0215 0.0000 0.0000 0.0000
# 4 0.0000 0.0000 0.0000 131.4396 0.0000 0.0000
# 5 0.0000 0.0000 0.0000 0.0000 97.0306 0.0000
# 6 0.0000 0.0000 0.0000 0.0000 0.0000 39.8537
#
#
#
# Elastic Compliance Matrix: (Units=1/GPa)
#
#
# Indices 1 2 3 4 5 6 
#
# 1 0.010971 -0.002219 -0.002038 0.000000 0.000000 0.000000
# 2 -0.002219 0.016217 -0.000302 0.000000 0.000000 0.000000
# 3 -0.002038 -0.000302 0.019271 0.000000 0.000000 0.000000
# 4 0.000000 0.000000 0.000000 0.007608 0.000000 0.000000
# 5 0.000000 0.000000 0.000000 0.000000 0.010306 0.000000
# 6 0.000000 0.000000 0.000000 0.000000 0.000000 0.025092
#
#
# Mechanical properties :
#
#
# Convention : Reuss Voigt Hill
#
# Bulk Modulus (GPa) = 26.77853 29.37296 28.07574
# Shear Modulus (GPa) = 45.03373 66.08357 55.55865
#
# Velocity S-wave (km/s) = 4.57069 5.53681 5.07678
# Velocity P-wave (km/s) = 6.34646 7.38249 6.88399
#
# Compressibility (1/GPa) = 0.03734335
#
# Stress axis : x y z
#
# Youngs Moduli (GPa) = 91.15200 61.66332 51.89142
#
# Poissons Ratio (x) = 0.13680 0.10573
# Poissons Ratio (y) = 0.20223 0.01565
# Poissons Ratio (z) = 0.18572 0.01860
#
# Static dielectric constant tensor:
#      x y z
#    x 1.795030 0.000000 0.000000 
#    y 0.000000 1.770060 0.000000 
#    z 0.000000 0.000000 1.722880 
# 
# From -- ./inp_files/10756.got.cif
#   From: 2010.05.17/outbox.cif.g08.bks.cpg/sg58_6_cif.got.tgz:10756.got - 2010.06.03 14:20:14.
