data_PCOD9445970
_publ_section_title
;
Structure prediction by ZEFSAII (Michael W. Deem and Ramdas Pophale) SiO2 
 PCOD9445970
Probable space group: P N N M
;
_chemical_formula_sum "Si O2"
_cell_formula_units_Z 40
_cell_length_a 15.000000
_cell_length_b 9.000000
_cell_length_c 15.000000
_cell_angle_alpha 90.000000
_cell_angle_beta 90.000000
_cell_angle_gamma 90.000000
_cell_volume 2025.000000
_symmetry_space_group_name_H-M "P N N M"
_symmetry_group_IT_number 58
_symmetry_cell_setting 'orthorhombic'
loop_
_space_group_symop_operation_xyz
x,y,z
-x,-y,z
1/2+x,1/2-y,1/2-z
1/2-x,1/2+y,1/2-z
-x,-y,-z
x,y,-z
1/2-x,1/2+y,1/2+z
1/2+x,1/2-y,1/2+z
loop_
_atom_site_type_symbol
_atom_site_label
_atom_site_fract_x
_atom_site_fract_y
_atom_site_fract_z
Si Si1 0.627407 0.167112 0.644518
Si Si2 0.196244 0.673497 0.606791
Si Si3 0.504463 0.323995 0.500000
Si Si4 0.479531 0.344850 0.895948
Si Si5 0.088440 0.408007 0.344035
Si Si6 0.603366 0.940622 0.500000
O O1 0.717223 0.261179 0.653162
O O2 0.559083 0.265765 0.586329
O O3 0.589438 0.119173 0.738862
O O4 0.645479 0.018619 0.586041
O O5 0.207935 0.690986 0.500000
O O6 0.173012 0.502642 0.626689
O O7 0.108344 0.762678 0.639357
O O8 0.500000 0.500000 0.500000
O O9 0.410426 0.235220 0.500000
O O10 0.500000 0.500000 0.850570
O O11 0.568722 0.248123 0.889032
O O12 0.458882 0.367088 0.000000
O O13 0.000000 0.500000 0.371061
O O14 0.500000 0.000000 0.500000
#
# Coordination Sequence:
#
# PCOD9445970 Si02
#       6
#     8   8   4   8   8   4
#     4  10  19  36  57  81 113 148 186 241 287 345
#     4  10  19  36  59  78 112 150 187 233 289 345
#     4  10  20  36  58  84 110 151 196 236 290 355
#     4   9  19  35  54  78 107 145 188 229 280 342
#     4  10  20  34  56  82 110 151 194 231 284 347
#     4   8  16  34  58  76 106 147 183 214 288 345
#
# _framework density 19.753086
#
# number of rings (size 3 to 8) (size 9 to 14) (size 15 to 20)
#    0.000    2.600    2.000    2.400    0.000    4.800 
#    0.000    6.000    0.000    0.000    0.000    0.000 
#    0.000    0.000    0.000    0.000    0.000    0.000 
#
# Total GULP energy -222687.668366 kJ/mol
# GULP energy per Si atom -5567.191709 kJ/mol
# Density = 1.970813 g / cm^3
# Si number density = 19.753086 Si / 1000 Ang^3
#
#
#
# Elastic Constant Matrix: (Units=GPa)
#
#
# Indices 1 2 3 4 5 6 
#
# 1 44.0260 25.3391 -19.7458 0.0000 0.0000 0.0000
# 2 25.3391 121.0848 -14.4319 0.0000 0.0000 0.0000
# 3 -19.7458 -14.4319 10.4972 0.0000 0.0000 0.0000
# 4 0.0000 0.0000 0.0000 13.0333 0.0000 0.0000
# 5 0.0000 0.0000 0.0000 0.0000 9.4725 0.0000
# 6 0.0000 0.0000 0.0000 0.0000 0.0000 21.1192
#
#
#
# Elastic Compliance Matrix: (Units=1/GPa)
#
#
# Indices 1 2 3 4 5 6 
#
# 1 0.145968 0.002607 0.278157 0.000000 0.000000 0.000000
# 2 0.002607 0.009924 0.018547 0.000000 0.000000 0.000000
# 3 0.278157 0.018547 0.643990 0.000000 0.000000 0.000000
# 4 0.000000 0.000000 0.000000 0.076727 0.000000 0.000000
# 5 0.000000 0.000000 0.000000 0.000000 0.105569 0.000000
# 6 0.000000 0.000000 0.000000 0.000000 0.000000 0.047350
#
#
# Mechanical properties :
#
#
# Convention : Reuss Voigt Hill
#
# Bulk Modulus (GPa) = 0.71505 17.54787 9.13146
# Shear Modulus (GPa) = 5.57367 21.02144 13.29756
#
# Velocity S-wave (km/s) = 1.68161 3.26576 2.59740
# Velocity P-wave (km/s) = 2.03302 4.80866 3.69164
#
# Compressibility (1/GPa) = 1.39850445
#
# Stress axis : x y z
#
# Youngs Moduli (GPa) = 6.85081 100.76851 1.55282
#
# Poissons Ratio (x) = -0.26268 -0.43193
# Poissons Ratio (y) = -0.01786 -0.02880
# Poissons Ratio (z) = -1.90560 -1.86894
#
# Static dielectric constant tensor:
#      x y z
#    x 1.708370 0.000000 0.000000 
#    y 0.000000 1.798970 0.000000 
#    z 0.000000 0.000000 1.686940 
# 
# From -- ./inp_files/21916.got.cif
#   From: 2010.05.17/outbox.ucp.g08.bks.cvg/sg58_11_cif.got.tgz:21916.got - 2010.06.11 16:41:41.
