data_PCOD9445446
_publ_section_title
;
Structure prediction by ZEFSAII (Michael W. Deem and Ramdas Pophale) SiO2 
 PCOD9445446
Probable space group: P N N M
;
_chemical_formula_sum "Si O2"
_cell_formula_units_Z 18
_cell_length_a 6.983794
_cell_length_b 6.757790
_cell_length_c 12.968539
_cell_angle_alpha 90.000000
_cell_angle_beta 90.000000
_cell_angle_gamma 90.000000
_cell_volume 612.050370
_symmetry_space_group_name_H-M "P N N M"
_symmetry_group_IT_number 58
_symmetry_cell_setting 'orthorhombic'
loop_
_space_group_symop_operation_xyz
x,y,z
-x,-y,z
1/2+x,1/2-y,1/2-z
1/2-x,1/2+y,1/2-z
-x,-y,-z
x,y,-z
1/2-x,1/2+y,1/2+z
1/2+x,1/2-y,1/2+z
loop_
_atom_site_type_symbol
_atom_site_label
_atom_site_fract_x
_atom_site_fract_y
_atom_site_fract_z
Si Si1 0.152052 0.822494 0.160860
Si Si2 0.436169 0.267646 0.887958
Si Si3 0.500000 0.000000 0.500000
O O1 0.367205 0.856418 0.120569
O O2 0.172670 0.753212 0.279833
O O3 0.076797 0.649764 0.089804
O O4 0.000000 0.000000 0.153647
O O5 0.500000 0.500000 0.889154
O O6 0.336144 0.243433 0.000000
#
# Coordination Sequence:
#
# PCOD9445446 Si02
#       3
#     8   8   2
#     4  11  26  47  79 115 156 205 263 320 392 467
#     4  10  24  48  78 114 157 200 258 325 389 462
#     4  12  26  44  80 108 160 216 246 334 384 464
#
# _framework density 29.409343
#
# number of rings (size 3 to 8) (size 9 to 14) (size 15 to 20)
#    0.000    1.333    2.222    0.667   12.444    0.000 
#    0.000    1.111    0.000    0.000    0.000    0.000 
#    0.000    0.000    0.000    0.000    0.000    0.000 
#
# Total GULP energy -100760.564898 kJ/mol
# GULP energy per Si atom -5597.809161 kJ/mol
# Density = 2.934241 g / cm^3
# Si number density = 29.409343 Si / 1000 Ang^3
#
#
#
# Elastic Constant Matrix: (Units=GPa)
#
#
# Indices 1 2 3 4 5 6 
#
# 1 160.5618 80.2052 50.3659 0.0000 0.0000 0.0000
# 2 80.2052 108.7074 52.0231 0.0000 0.0000 0.0000
# 3 50.3659 52.0231 351.2447 0.0000 0.0000 0.0000
# 4 0.0000 0.0000 0.0000 72.0476 0.0000 0.0000
# 5 0.0000 0.0000 0.0000 0.0000 56.1155 0.0000
# 6 0.0000 0.0000 0.0000 0.0000 0.0000 49.2648
#
#
#
# Elastic Compliance Matrix: (Units=1/GPa)
#
#
# Indices 1 2 3 4 5 6 
#
# 1 0.009906 -0.007135 -0.000364 0.000000 0.000000 0.000000
# 2 -0.007135 0.015040 -0.001204 0.000000 0.000000 0.000000
# 3 -0.000364 -0.001204 0.003078 0.000000 0.000000 0.000000
# 4 0.000000 0.000000 0.000000 0.013880 0.000000 0.000000
# 5 0.000000 0.000000 0.000000 0.000000 0.017820 0.000000
# 6 0.000000 0.000000 0.000000 0.000000 0.000000 0.020298
#
#
# Mechanical properties :
#
#
# Convention : Reuss Voigt Hill
#
# Bulk Modulus (GPa) = 94.18555 109.52247 101.85401
# Shear Modulus (GPa) = 49.52101 64.68024 57.10063
#
# Velocity S-wave (km/s) = 4.10793 4.69477 4.41112
# Velocity P-wave (km/s) = 7.38887 8.16758 7.78796
#
# Compressibility (1/GPa) = 0.01061734
#
# Stress axis : x y z
#
# Youngs Moduli (GPa) = 100.94576 66.49121 324.93226
#
# Poissons Ratio (x) = 0.47441 0.11819
# Poissons Ratio (y) = 0.72024 0.39136
# Poissons Ratio (z) = 0.03672 0.08008
#
# Static dielectric constant tensor:
#      x y z
#    x 2.392060 0.000000 0.000000 
#    y 0.000000 2.557040 0.000000 
#    z 0.000000 0.000000 2.081630 
# 
# From -- ./inp_files/18811.got.cif
#   From: 2010.05.17/outbox.cif.g08.bks.cpg/sg58_10_cif.got.tgz:18811.got - 2010.06.03 14:20:14.
