data_PCOD9445151
_publ_section_title
;
Structure prediction by ZEFSAII (Michael W. Deem and Ramdas Pophale) SiO2 
 PCOD9445151
Probable space group: P N N M
;
_chemical_formula_sum "Si O2"
_cell_formula_units_Z 48
_cell_length_a 14.973424
_cell_length_b 15.313048
_cell_length_c 9.243779
_cell_angle_alpha 90.000000
_cell_angle_beta 90.000000
_cell_angle_gamma 90.000000
_cell_volume 2119.494629
_symmetry_space_group_name_H-M "P N N M"
_symmetry_group_IT_number 58
_symmetry_cell_setting 'orthorhombic'
loop_
_space_group_symop_operation_xyz
x,y,z
-x,-y,z
1/2+x,1/2-y,1/2-z
1/2-x,1/2+y,1/2-z
-x,-y,-z
x,y,-z
1/2-x,1/2+y,1/2+z
1/2+x,1/2-y,1/2+z
loop_
_atom_site_type_symbol
_atom_site_label
_atom_site_fract_x
_atom_site_fract_y
_atom_site_fract_z
Si Si1 0.695534 0.266704 0.340775
Si Si2 0.897302 0.213309 0.660888
Si Si3 0.406513 0.452196 0.332169
Si Si4 0.559164 0.881411 0.336832
Si Si5 0.738596 0.961796 0.757544
Si Si6 0.890767 0.615490 0.335864
O O1 0.652623 0.260003 0.500000
O O2 0.790160 0.217060 0.344862
O O3 0.722888 0.368593 0.318244
O O4 0.641187 0.210899 0.222235
O O5 0.931359 0.193451 0.500000
O O6 0.926081 0.307045 0.717026
O O7 0.924065 0.145489 0.782537
O O8 0.500000 0.500000 0.322119
O O9 0.375461 0.458925 0.500000
O O10 0.332508 0.491612 0.223128
O O11 0.544490 0.850640 0.500000
O O12 0.654739 0.930879 0.338483
O O13 0.465397 0.917889 0.276798
O O14 0.687764 0.042348 0.838339
O O15 0.924531 0.621521 0.500000
#
# Coordination Sequence:
#
# PCOD9445151 Si02
#       6
#     8   8   8   8   8   8
#     4  10  22  41  67  98 137 186 232 284 344 412
#     4  10  22  43  68  99 138 181 231 290 350 412
#     4  11  24  42  69 102 138 186 237 286 350 423
#     4  11  26  46  72 103 140 187 240 296 359 426
#     4  11  25  45  71 104 143 188 239 293 351 425
#     4  12  25  43  71 107 145 187 236 294 359 427
#
# _framework density 22.646909000000001
#
# number of rings (size 3 to 8) (size 9 to 14) (size 15 to 20)
#    0.000    1.167    1.667    3.500    2.333    9.667 
#    0.000    0.000    0.000    0.000    0.000    0.000 
#    0.000    0.000    0.000    0.000    0.000    0.000 
#
# Total GULP energy -267214.119356 kJ/mol
# GULP energy per Si atom -5566.960820 kJ/mol
# Density = 2.259536 g / cm^3
# Si number density = 22.646909 Si / 1000 Ang^3
#
#
#
# Elastic Constant Matrix: (Units=GPa)
#
#
# Indices 1 2 3 4 5 6 
#
# 1 97.7289 9.7506 29.7825 0.0000 0.0000 0.0000
# 2 9.7506 79.6083 14.9199 0.0000 0.0000 0.0000
# 3 29.7825 14.9199 75.3688 0.0000 0.0000 0.0000
# 4 0.0000 0.0000 0.0000 -10.1456 0.0000 0.0000
# 5 0.0000 0.0000 0.0000 0.0000 28.7979 0.0000
# 6 0.0000 0.0000 0.0000 0.0000 0.0000 36.1075
#
#
#
# Elastic Compliance Matrix: (Units=1/GPa)
#
#
# Indices 1 2 3 4 5 6 
#
# 1 0.011660 -0.000586 -0.004491 0.000000 0.000000 0.000000
# 2 -0.000586 0.013075 -0.002357 0.000000 0.000000 0.000000
# 3 -0.004491 -0.002357 0.015509 0.000000 0.000000 0.000000
# 4 0.000000 0.000000 0.000000 -0.098565 0.000000 0.000000
# 5 0.000000 0.000000 0.000000 0.000000 0.034725 0.000000
# 6 0.000000 0.000000 0.000000 0.000000 0.000000 0.027695
#
#
# Mechanical properties :
#
#
# Convention : Reuss Voigt Hill
#
# Bulk Modulus (GPa) = 39.40819 40.17913 39.79366
# Shear Modulus (GPa) = 182.30883 24.16882 103.23883
#
# Velocity S-wave (km/s) = 8.98194 3.27035 6.75909
# Velocity P-wave (km/s) = 11.18061 5.66042 8.86133
#
# Compressibility (1/GPa) = 0.02537543
#
# Stress axis : x y z
#
# Youngs Moduli (GPa) = 85.76629 76.48192 64.47721
#
# Poissons Ratio (x) = 0.04485 0.28959
# Poissons Ratio (y) = 0.05029 0.15195
# Poissons Ratio (z) = 0.38520 0.18024
#
# Static dielectric constant tensor:
#      x y z
#    x 1.875980 0.000000 0.000000 
#    y 0.000000 1.896680 0.000000 
#    z 0.000000 0.000000 1.796960 
# 
# From -- ./inp_files/7724.got.cif
#   From: 2010.05.17/outbox.cif.g08.bks.cpg/sg58_4_cif.got.tgz:7724.got - 2010.06.03 14:20:14.
