data_PCOD9445287
_publ_section_title
;
Structure prediction by ZEFSAII (Michael W. Deem and Ramdas Pophale) SiO2 
 PCOD9445287
Probable space group: P N N M
;
_chemical_formula_sum "Si O2"
_cell_formula_units_Z 48
_cell_length_a 5.214432
_cell_length_b 13.673692
_cell_length_c 27.372034
_cell_angle_alpha 90.000000
_cell_angle_beta 90.000000
_cell_angle_gamma 90.000000
_cell_volume 1951.640726
_symmetry_space_group_name_H-M "P N N M"
_symmetry_group_IT_number 58
_symmetry_cell_setting 'orthorhombic'
loop_
_space_group_symop_operation_xyz
x,y,z
-x,-y,z
1/2+x,1/2-y,1/2-z
1/2-x,1/2+y,1/2-z
-x,-y,-z
x,y,-z
1/2-x,1/2+y,1/2+z
1/2+x,1/2-y,1/2+z
loop_
_atom_site_type_symbol
_atom_site_label
_atom_site_fract_x
_atom_site_fract_y
_atom_site_fract_z
Si Si1 0.530361 0.744235 0.301600
Si Si2 0.577025 0.396784 0.383772
Si Si3 0.849363 0.100610 0.714529
Si Si4 0.429570 0.692805 0.126484
Si Si5 0.551229 0.145701 0.058047
Si Si6 0.754753 0.433771 0.052327
O O1 0.362217 0.684732 0.342268
O O2 0.444516 0.854767 0.286813
O O3 0.539133 0.677849 0.253842
O O4 0.796328 0.743682 0.331337
O O5 0.500000 0.500000 0.359207
O O6 0.333112 0.367787 0.417872
O O7 0.822259 0.417205 0.418032
O O8 0.905735 0.118543 0.657484
O O9 0.000000 0.000000 0.726309
O O10 0.541539 0.749410 0.080091
O O11 0.209311 0.632858 0.099232
O O12 0.558065 0.137352 0.000000
O O13 0.500000 0.500000 0.056896
O O14 0.000000 0.500000 0.049615
O O15 0.735127 0.379302 0.000000
#
# Coordination Sequence:
#
# PCOD9445287 Si02
#       6
#     8   8   8   8   8   8
#     4  11  25  47  66 106 142 181 243 304 363 444
#     4  11  24  44  71 101 143 190 238 301 365 431
#     4  12  25  45  74 101 138 189 240 302 373 438
#     4  11  24  42  67  96 143 184 237 292 361 433
#     4  11  24  42  68 103 144 189 237 298 359 426
#     4  10  23  41  64  99 139 183 239 294 351 426
#
# _framework density 24.594691000000001
#
# number of rings (size 3 to 8) (size 9 to 14) (size 15 to 20)
#    0.000    1.000    3.333    2.500    4.667    2.000 
#    0.000    3.333    0.000    0.000    0.000    0.000 
#    0.000    0.000    0.000    0.000    0.000    0.000 
#
# Total GULP energy -267258.957509 kJ/mol
# GULP energy per Si atom -5567.894948 kJ/mol
# Density = 2.453871 g / cm^3
# Si number density = 24.594691 Si / 1000 Ang^3
#
#
#
# Elastic Constant Matrix: (Units=GPa)
#
#
# Indices 1 2 3 4 5 6 
#
# 1 109.5499 7.0898 30.0148 0.0000 0.0000 0.0000
# 2 7.0898 63.8441 8.0838 0.0000 0.0000 0.0000
# 3 30.0148 8.0838 133.4164 0.0000 0.0000 0.0000
# 4 0.0000 0.0000 0.0000 30.5638 0.0000 0.0000
# 5 0.0000 0.0000 0.0000 0.0000 38.6420 0.0000
# 6 0.0000 0.0000 0.0000 0.0000 0.0000 26.8097
#
#
#
# Elastic Compliance Matrix: (Units=1/GPa)
#
#
# Indices 1 2 3 4 5 6 
#
# 1 0.009770 -0.000813 -0.002149 0.000000 0.000000 0.000000
# 2 -0.000813 0.015852 -0.000778 0.000000 0.000000 0.000000
# 3 -0.002149 -0.000778 0.008026 0.000000 0.000000 0.000000
# 4 0.000000 0.000000 0.000000 0.032718 0.000000 0.000000
# 5 0.000000 0.000000 0.000000 0.000000 0.025879 0.000000
# 6 0.000000 0.000000 0.000000 0.000000 0.000000 0.037300
#
#
# Mechanical properties :
#
#
# Convention : Reuss Voigt Hill
#
# Bulk Modulus (GPa) = 38.21298 44.13191 41.17244
# Shear Modulus (GPa) = 34.30640 36.64457 35.47549
#
# Velocity S-wave (km/s) = 3.73885 3.86416 3.80202
# Velocity P-wave (km/s) = 5.84889 6.15561 6.00421
#
# Compressibility (1/GPa) = 0.02616912
#
# Stress axis : x y z
#
# Youngs Moduli (GPa) = 102.35890 63.08401 124.59787
#
# Poissons Ratio (x) = 0.05128 0.26771
# Poissons Ratio (y) = 0.08320 0.09689
# Poissons Ratio (z) = 0.21993 0.04905
#
# Static dielectric constant tensor:
#      x y z
#    x 2.263570 0.000000 0.000000 
#    y 0.000000 2.126570 0.000000 
#    z 0.000000 0.000000 1.911800 
# 
# From -- ./inp_files/32822.got.cif
#   From: 2010.05.17/outbox.cif.g08.bks.cpg/sg58_17_cif.got.tgz:32822.got - 2010.06.03 14:20:14.
