data_PCOD9445846
_publ_section_title
;
Structure prediction by ZEFSAII (Michael W. Deem and Ramdas Pophale) SiO2 
 PCOD9445846
Probable space group: P N N M
;
_chemical_formula_sum "Si O2"
_cell_formula_units_Z 52
_cell_length_a 7.100135
_cell_length_b 11.209838
_cell_length_c 31.697454
_cell_angle_alpha 90.000000
_cell_angle_beta 90.000000
_cell_angle_gamma 90.000000
_cell_volume 2522.843572
_symmetry_space_group_name_H-M "P N N M"
_symmetry_group_IT_number 58
_symmetry_cell_setting 'orthorhombic'
loop_
_space_group_symop_operation_xyz
x,y,z
-x,-y,z
1/2+x,1/2-y,1/2-z
1/2-x,1/2+y,1/2-z
-x,-y,-z
x,y,-z
1/2-x,1/2+y,1/2+z
1/2+x,1/2-y,1/2+z
loop_
_atom_site_type_symbol
_atom_site_label
_atom_site_fract_x
_atom_site_fract_y
_atom_site_fract_z
Si Si1 0.733160 0.107403 0.044931
Si Si2 0.765370 0.606245 0.636832
Si Si3 0.199792 0.818985 0.718692
Si Si4 0.500000 0.000000 0.298174
Si Si5 0.210660 0.184474 0.301475
Si Si6 0.316490 0.664120 0.361648
Si Si7 0.327640 0.672938 0.454491
O O1 0.653308 0.137904 0.090565
O O2 0.945226 0.159066 0.044795
O O3 0.754030 0.963932 0.045331
O O4 0.643213 0.141210 0.000000
O O5 0.836307 0.699653 0.670738
O O6 0.784842 0.464678 0.644127
O O7 0.539194 0.631774 0.637216
O O8 0.349232 0.923066 0.727687
O O9 0.195428 0.731118 0.758379
O O10 0.271167 0.749765 0.677085
O O11 0.991775 0.867147 0.710271
O O12 0.360164 0.092691 0.321908
O O13 0.274840 0.719436 0.408055
O O14 0.274988 0.728566 0.500000
#
# Coordination Sequence:
#
# PCOD9445846 Si02
#       7
#     8   8   8   4   8   8   8
#     4   7  10  19  40  74 114 151 186 228 281 341
#     4   9  17  31  54  85 120 156 195 237 285 346
#     4  12  25  42  63  88 116 155 194 238 290 342
#     4  12  26  48  62  86 117 152 191 246 286 344
#     4  12  25  42  63  88 116 155 194 238 290 342
#     4   9  17  31  54  85 120 156 195 237 285 346
#     4   7  10  19  40  74 114 151 186 228 281 341
#
# _framework density 20.611663
#
# number of rings (size 3 to 8) (size 9 to 14) (size 15 to 20)
#    0.000    2.462    3.077    3.231    2.154    0.615 
#    0.000    0.000    0.000    0.923    0.000    6.462 
#    0.000    2.462    0.000    0.000    0.000    0.000 
#
# Total GULP energy -289810.774101 kJ/mol
# GULP energy per Si atom -5573.284117 kJ/mol
# Density = 2.056475 g / cm^3
# Si number density = 20.611663 Si / 1000 Ang^3
#
#
#
# Elastic Constant Matrix: (Units=GPa)
#
#
# Indices 1 2 3 4 5 6 
#
# 1 103.2855 25.9171 -2.2550 0.0000 0.0000 0.0000
# 2 25.9171 61.4944 34.0489 0.0000 0.0000 0.0000
# 3 -2.2550 34.0489 135.2089 0.0000 0.0000 0.0000
# 4 0.0000 0.0000 0.0000 16.9696 0.0000 0.0000
# 5 0.0000 0.0000 0.0000 0.0000 -22.6116 0.0000
# 6 0.0000 0.0000 0.0000 0.0000 0.0000 28.2649
#
#
#
# Elastic Compliance Matrix: (Units=1/GPa)
#
#
# Indices 1 2 3 4 5 6 
#
# 1 0.011112 -0.005561 0.001586 0.000000 0.000000 0.000000
# 2 -0.005561 0.021680 -0.005552 0.000000 0.000000 0.000000
# 3 0.001586 -0.005552 0.008821 0.000000 0.000000 0.000000
# 4 0.000000 0.000000 0.000000 0.058929 0.000000 0.000000
# 5 0.000000 0.000000 0.000000 0.000000 -0.044225 0.000000
# 6 0.000000 0.000000 0.000000 0.000000 0.000000 0.035380
#
#
# Mechanical properties :
#
#
# Convention : Reuss Voigt Hill
#
# Bulk Modulus (GPa) = 44.33230 46.15674 45.24452
# Shear Modulus (GPa) = 42.27624 20.67645 31.47634
#
# Velocity S-wave (km/s) = 4.53380 3.17068 3.91207
# Velocity P-wave (km/s) = 6.99730 5.98719 6.51186
#
# Compressibility (1/GPa) = 0.02255692
#
# Stress axis : x y z
#
# Youngs Moduli (GPa) = 89.99296 46.12618 113.37114
#
# Poissons Ratio (x) = 0.25652 -0.17978
# Poissons Ratio (y) = 0.50047 0.62946
# Poissons Ratio (z) = -0.14271 0.25610
#
# Static dielectric constant tensor:
#      x y z
#    x 1.848110 0.000000 0.000000 
#    y 0.000000 1.724630 0.000000 
#    z 0.000000 0.000000 1.786540 
# 
# From -- ./inp_files/34700.got.cif
#   From: 2010.05.17/outbox.cif.g08.bks.cpg/sg58_18_cif.got.tgz:34700.got - 2010.06.03 14:20:14.
