data_PCOD9445658
_publ_section_title
;
Structure prediction by ZEFSAII (Michael W. Deem and Ramdas Pophale) SiO2 
 PCOD9445658
Probable space group: P N N M
;
_chemical_formula_sum "Si O2"
_cell_formula_units_Z 64
_cell_length_a 8.949143
_cell_length_b 14.118334
_cell_length_c 24.185829
_cell_angle_alpha 90.000000
_cell_angle_beta 90.000000
_cell_angle_gamma 90.000000
_cell_volume 3055.806692
_symmetry_space_group_name_H-M "P N N M"
_symmetry_group_IT_number 58
_symmetry_cell_setting 'orthorhombic'
loop_
_space_group_symop_operation_xyz
x,y,z
-x,-y,z
1/2+x,1/2-y,1/2-z
1/2-x,1/2+y,1/2-z
-x,-y,-z
x,y,-z
1/2-x,1/2+y,1/2+z
1/2+x,1/2-y,1/2+z
loop_
_atom_site_type_symbol
_atom_site_label
_atom_site_fract_x
_atom_site_fract_y
_atom_site_fract_z
Si Si1 0.238720 0.926362 0.862503
Si Si2 0.920423 0.725181 0.434654
Si Si3 0.939443 0.892694 0.646205
Si Si4 0.592676 0.086484 0.250790
Si Si5 0.451742 0.690090 0.636446
Si Si6 0.798781 0.217107 0.705212
Si Si7 0.655193 0.820293 0.698074
Si Si8 0.268304 0.113371 0.063157
O O1 0.310137 0.840659 0.898471
O O2 0.332141 0.941363 0.806437
O O3 0.066456 0.895775 0.851435
O O4 0.256668 0.021838 0.897876
O O5 0.885207 0.723141 0.500000
O O6 0.083736 0.676271 0.427454
O O7 0.919958 0.831623 0.410129
O O8 0.781423 0.890408 0.678540
O O9 0.047500 0.821399 0.680864
O O10 0.000000 0.000000 0.640864
O O11 0.702224 0.120262 0.298292
O O12 0.452578 0.159532 0.248822
O O13 0.500000 0.000000 0.274756
O O14 0.303785 0.703840 0.674916
O O15 0.552540 0.781867 0.649091
O O16 0.378729 0.674915 0.577031
O O17 0.769314 0.231201 0.771341
O O18 0.271060 0.081361 0.000000
#
# Coordination Sequence:
#
# PCOD9445658 Si02
#       8
#     8   8   8   8   8   8   8   8
#     4  12  23  41  64 104 134 182 224 274 335 417
#     4  11  23  44  70  94 128 175 222 285 348 392
#     4  12  24  44  72  99 127 171 228 280 331 400
#     4  11  23  37  58  93 131 169 213 265 325 394
#     4  11  23  40  64  92 135 178 220 269 335 395
#     4  11  22  42  63  91 133 175 212 271 323 400
#     4  11  23  42  63  92 133 176 218 265 332 397
#     4  11  25  44  69 100 139 181 232 290 345 407
#
# _framework density 20.943733999999999
#
# number of rings (size 3 to 8) (size 9 to 14) (size 15 to 20)
#    0.000    0.750    3.750    4.875    1.750    2.750 
#    2.250    0.000    0.000    0.000    0.000    2.625 
#    0.000    0.000    0.000    0.000    0.000    0.000 
#
# Total GULP energy -356404.308503 kJ/mol
# GULP energy per Si atom -5568.817320 kJ/mol
# Density = 2.089607 g / cm^3
# Si number density = 20.943734 Si / 1000 Ang^3
#
#
#
# Elastic Constant Matrix: (Units=GPa)
#
#
# Indices 1 2 3 4 5 6 
#
# 1 110.3891 15.2241 40.9516 0.0000 0.0000 0.0000
# 2 15.2241 82.5800 27.4426 0.0000 0.0000 0.0000
# 3 40.9516 27.4426 54.8425 0.0000 0.0000 0.0000
# 4 0.0000 0.0000 0.0000 33.0456 0.0000 0.0000
# 5 0.0000 0.0000 0.0000 0.0000 25.7817 0.0000
# 6 0.0000 0.0000 0.0000 0.0000 0.0000 26.7900
#
#
#
# Elastic Compliance Matrix: (Units=1/GPa)
#
#
# Indices 1 2 3 4 5 6 
#
# 1 0.012593 0.000964 -0.009886 0.000000 0.000000 0.000000
# 2 0.000964 0.014598 -0.008024 0.000000 0.000000 0.000000
# 3 -0.009886 -0.008024 0.029631 0.000000 0.000000 0.000000
# 4 0.000000 0.000000 0.000000 0.030261 0.000000 0.000000
# 5 0.000000 0.000000 0.000000 0.000000 0.038787 0.000000
# 6 0.000000 0.000000 0.000000 0.000000 0.000000 0.037327
#
#
# Mechanical properties :
#
#
# Convention : Reuss Voigt Hill
#
# Bulk Modulus (GPa) = 43.61146 46.11647 44.86396
# Shear Modulus (GPa) = 24.42177 28.06968 26.24573
#
# Velocity S-wave (km/s) = 3.41847 3.66490 3.54383
# Velocity P-wave (km/s) = 6.03735 6.32264 6.18164
#
# Compressibility (1/GPa) = 0.02292975
#
# Stress axis : x y z
#
# Youngs Moduli (GPa) = 79.40695 68.50036 33.74818
#
# Poissons Ratio (x) = -0.06600 0.33363
# Poissons Ratio (y) = -0.07651 0.27081
# Poissons Ratio (z) = 0.78500 0.54967
#
# Static dielectric constant tensor:
#      x y z
#    x 1.460260 0.000000 0.000000 
#    y 0.000000 0.101450 0.000000 
#    z 0.000000 0.000000 1.752130 
# 
# From -- ./inp_files/31627.got.cif
#   From: 2010.05.17/outbox.cif.g08.bks.cpg/sg58_16_cif.got.tgz:31627.got - 2010.06.03 14:20:14.
