data_PCOD9445049
_publ_section_title
;
Structure prediction by ZEFSAII (Michael W. Deem and Ramdas Pophale) SiO2 
 PCOD9445049
Probable space group: P N N M
;
_chemical_formula_sum "Si O2"
_cell_formula_units_Z 32
_cell_length_a 7.484544
_cell_length_b 17.454020
_cell_length_c 12.425683
_cell_angle_alpha 90.000000
_cell_angle_beta 90.000000
_cell_angle_gamma 90.000000
_cell_volume 1623.233829
_symmetry_space_group_name_H-M "P N N M"
_symmetry_group_IT_number 58
_symmetry_cell_setting 'orthorhombic'
loop_
_space_group_symop_operation_xyz
x,y,z
-x,-y,z
1/2+x,1/2-y,1/2-z
1/2-x,1/2+y,1/2-z
-x,-y,-z
x,y,-z
1/2-x,1/2+y,1/2+z
1/2+x,1/2-y,1/2+z
loop_
_atom_site_type_symbol
_atom_site_label
_atom_site_fract_x
_atom_site_fract_y
_atom_site_fract_z
Si Si1 0.975892 0.831580 0.625249
Si Si2 0.742479 0.695501 0.298814
Si Si3 0.941604 0.914956 0.170035
Si Si4 0.033281 0.590281 0.378297
O O1 0.996501 0.844771 0.500000
O O2 0.152204 0.794517 0.681717
O O3 0.813838 0.773082 0.649618
O O4 0.943682 0.905825 0.699714
O O5 0.586843 0.649257 0.362066
O O6 0.911785 0.638756 0.297939
O O7 0.743720 0.897244 0.131882
O O8 0.000000 0.000000 0.137527
O O9 0.976879 0.611561 0.500000
O O10 0.000000 0.500000 0.363221
#
# Coordination Sequence:
#
# PCOD9445049 Si02
#       4
#     8   8   8   8
#     4  10  22  41  64  87 119 163 205 250 309 365
#     4  10  22  40  61  90 126 159 203 264 299 367
#     4  10  22  41  63  92 130 162 205 259 310 365
#     4  11  21  36  61  92 127 164 202 250 310 371
#
# _framework density 19.713733999999999
#
# number of rings (size 3 to 8) (size 9 to 14) (size 15 to 20)
#    1.500    0.250    2.500    2.250    0.000    3.000 
#    0.000    6.250    0.000    3.000    0.000    0.000 
#    0.000    0.000    0.000    0.000    0.000    0.000 
#
# Total GULP energy -178295.506627 kJ/mol
# GULP energy per Si atom -5571.734582 kJ/mol
# Density = 1.966886 g / cm^3
# Si number density = 19.713734 Si / 1000 Ang^3
#
#
#
# Elastic Constant Matrix: (Units=GPa)
#
#
# Indices 1 2 3 4 5 6 
#
# 1 126.8309 26.3953 7.6458 0.0000 0.0000 0.0000
# 2 26.3953 53.5327 3.4118 0.0000 0.0000 0.0000
# 3 7.6458 3.4118 96.8574 0.0000 0.0000 0.0000
# 4 0.0000 0.0000 0.0000 57.9797 0.0000 0.0000
# 5 0.0000 0.0000 0.0000 0.0000 26.2425 0.0000
# 6 0.0000 0.0000 0.0000 0.0000 0.0000 42.2168
#
#
#
# Elastic Compliance Matrix: (Units=1/GPa)
#
#
# Indices 1 2 3 4 5 6 
#
# 1 0.008815 -0.004312 -0.000544 0.000000 0.000000 0.000000
# 2 -0.004312 0.020831 -0.000393 0.000000 0.000000 0.000000
# 3 -0.000544 -0.000393 0.010381 0.000000 0.000000 0.000000
# 4 0.000000 0.000000 0.000000 0.017247 0.000000 0.000000
# 5 0.000000 0.000000 0.000000 0.000000 0.038106 0.000000
# 6 0.000000 0.000000 0.000000 0.000000 0.000000 0.023687
#
#
# Mechanical properties :
#
#
# Convention : Reuss Voigt Hill
#
# Bulk Modulus (GPa) = 33.86482 39.12520 36.49501
# Shear Modulus (GPa) = 35.86578 41.27233 38.56905
#
# Velocity S-wave (km/s) = 4.26999 4.58053 4.42798
# Velocity P-wave (km/s) = 6.44406 6.91844 6.68546
#
# Compressibility (1/GPa) = 0.02952917
#
# Stress axis : x y z
#
# Youngs Moduli (GPa) = 113.44815 48.00511 96.32747
#
# Poissons Ratio (x) = 0.20698 0.05240
# Poissons Ratio (y) = 0.48914 0.03790
# Poissons Ratio (z) = 0.06171 0.01889
#
# Static dielectric constant tensor:
#      x y z
#    x 1.694400 0.000000 0.000000 
#    y 0.000000 1.719970 0.000000 
#    z 0.000000 0.000000 1.690470 
# 
# From -- ./inp_files/12338.got.cif
#   From: 2010.05.17/outbox.cif.g08.bks.cpg/sg58_7_cif.got.tgz:12338.got - 2010.06.03 14:20:14.
