data_PCOD9445926
_publ_section_title
;
Structure prediction by ZEFSAII (Michael W. Deem and Ramdas Pophale) SiO2 
 PCOD9445926
Probable space group: P N N M
;
_chemical_formula_sum "Si O2"
_cell_formula_units_Z 64
_cell_length_a 21.000000
_cell_length_b 21.000000
_cell_length_c 9.000000
_cell_angle_alpha 90.000000
_cell_angle_beta 90.000000
_cell_angle_gamma 90.000000
_cell_volume 3969.000000
_symmetry_space_group_name_H-M "P N N M"
_symmetry_group_IT_number 58
_symmetry_cell_setting 'orthorhombic'
loop_
_space_group_symop_operation_xyz
x,y,z
-x,-y,z
1/2+x,1/2-y,1/2-z
1/2-x,1/2+y,1/2-z
-x,-y,-z
x,y,-z
1/2-x,1/2+y,1/2+z
1/2+x,1/2-y,1/2+z
loop_
_atom_site_type_symbol
_atom_site_label
_atom_site_fract_x
_atom_site_fract_y
_atom_site_fract_z
Si Si1 0.435430 0.705578 0.320588
Si Si2 0.190217 0.708860 0.679586
Si Si3 0.371849 0.428565 0.321846
Si Si4 0.228129 0.576632 0.178135
Si Si5 0.571699 0.698089 0.178705
Si Si6 0.367793 0.572634 0.322035
Si Si7 0.268654 0.931361 0.679770
Si Si8 0.685079 0.208045 0.679994
O O1 0.442521 0.709877 0.500000
O O2 0.502981 0.717479 0.243123
O O3 0.411781 0.633296 0.286755
O O4 0.379349 0.754937 0.274231
O O5 0.192676 0.702269 0.500000
O O6 0.193290 0.638045 0.750026
O O7 0.127531 0.750773 0.716818
O O8 0.252742 0.750407 0.725723
O O9 0.372439 0.420187 0.500000
O O10 0.409964 0.370943 0.246471
O O11 0.394398 0.501508 0.290267
O O12 0.299876 0.425628 0.258730
O O13 0.300880 0.579623 0.237031
O O14 0.206005 0.503312 0.214713
O O15 0.226310 0.582783 0.000000
O O16 0.569684 0.693491 0.000000
O O17 0.354987 0.575117 0.500000
O O18 0.259929 0.929396 0.500000
O O19 0.307396 0.866850 0.721977
O O20 0.685222 0.209098 0.500000
#
# Coordination Sequence:
#
# PCOD9445926 Si02
#       8
#     8   8   8   8   8   8   8   8
#     4  10  20  35  54  74  99 134 175 215 250 300
#     4  10  19  35  56  73  98 139 177 206 252 315
#     4  10  19  31  50  76 105 138 176 213 245 296
#     4  10  19  29  50  82 110 130 163 220 260 293
#     4  11  23  37  52  72 103 140 173 213 262 310
#     4   9  18  33  51  73 105 143 176 202 247 310
#     4   9  17  32  52  78 108 136 167 206 262 310
#     4   9  16  32  57  76  96 134 175 207 248 308
#
# _framework density 16.124969
#
# number of rings (size 3 to 8) (size 9 to 14) (size 15 to 20)
#    0.000    2.250    2.500    1.125    0.000    3.000 
#    0.000    3.125    0.000    0.750    0.000    5.250 
#    0.000    0.000    0.000    0.000    0.000    0.000 
#
# Total GULP energy -356729.977374 kJ/mol
# GULP energy per Si atom -5573.905896 kJ/mol
# Density = 1.608827 g / cm^3
# Si number density = 16.124969 Si / 1000 Ang^3
#
#
#
# Elastic Constant Matrix: (Units=GPa)
#
#
# Indices 1 2 3 4 5 6 
#
# 1 110.3563 74.3607 31.3164 0.0000 0.0000 0.0000
# 2 74.3607 162.4814 38.5974 0.0000 0.0000 0.0000
# 3 31.3164 38.5974 36.8200 0.0000 0.0000 0.0000
# 4 0.0000 0.0000 0.0000 28.1662 0.0000 0.0000
# 5 0.0000 0.0000 0.0000 0.0000 26.9434 0.0000
# 6 0.0000 0.0000 0.0000 0.0000 0.0000 27.3145
#
#
#
# Elastic Compliance Matrix: (Units=1/GPa)
#
#
# Indices 1 2 3 4 5 6 
#
# 1 0.014371 -0.004892 -0.007095 0.000000 0.000000 0.000000
# 2 -0.004892 0.009860 -0.006176 0.000000 0.000000 0.000000
# 3 -0.007095 -0.006176 0.039668 0.000000 0.000000 0.000000
# 4 0.000000 0.000000 0.000000 0.035504 0.000000 0.000000
# 5 0.000000 0.000000 0.000000 0.000000 0.037115 0.000000
# 6 0.000000 0.000000 0.000000 0.000000 0.000000 0.036611
#
#
# Mechanical properties :
#
#
# Convention : Reuss Voigt Hill
#
# Bulk Modulus (GPa) = 36.26629 66.46740 51.36685
# Shear Modulus (GPa) = 22.86813 27.51038 25.18926
#
# Velocity S-wave (km/s) = 3.76996 4.13495 3.95666
# Velocity P-wave (km/s) = 6.44125 8.00667 7.26624
#
# Compressibility (1/GPa) = 0.02757381
#
# Stress axis : x y z
#
# Youngs Moduli (GPa) = 69.58420 101.41726 25.20926
#
# Poissons Ratio (x) = 0.49608 0.17887
# Poissons Ratio (y) = 0.34037 0.15569
# Poissons Ratio (z) = 0.49373 0.62634
#
# Static dielectric constant tensor:
#      x y z
#    x 1.523080 0.000000 0.000000 
#    y 0.000000 1.565280 0.000000 
#    z 0.000000 0.000000 1.538410 
# 
# From -- ./inp_files/8251.got.cif
#   From: 2010.05.17/outbox.ucp.g08.bks.cvg/sg58_5_cif.got.tgz:8251.got - 2010.06.11 16:41:41.
