data_PCOD9445445
_publ_section_title
;
Structure prediction by ZEFSAII (Michael W. Deem and Ramdas Pophale) SiO2 
 PCOD9445445
Probable space group: P N N M
;
_chemical_formula_sum "Si O2"
_cell_formula_units_Z 30
_cell_length_a 11.765384
_cell_length_b 22.932512
_cell_length_c 5.189108
_cell_angle_alpha 90.000000
_cell_angle_beta 90.000000
_cell_angle_gamma 90.000000
_cell_volume 1400.072242
_symmetry_space_group_name_H-M "P N N M"
_symmetry_group_IT_number 58
_symmetry_cell_setting 'orthorhombic'
loop_
_space_group_symop_operation_xyz
x,y,z
-x,-y,z
1/2+x,1/2-y,1/2-z
1/2-x,1/2+y,1/2-z
-x,-y,-z
x,y,-z
1/2-x,1/2+y,1/2+z
1/2+x,1/2-y,1/2+z
loop_
_atom_site_type_symbol
_atom_site_label
_atom_site_fract_x
_atom_site_fract_y
_atom_site_fract_z
Si Si1 0.625833 0.846652 0.500000
Si Si2 0.886349 0.422347 0.500000
Si Si3 0.500000 0.500000 0.500000
Si Si4 0.891449 0.720520 0.000000
Si Si5 0.352213 0.705788 0.000000
Si Si6 0.732531 0.614515 0.000000
Si Si7 0.157494 0.444313 0.500000
Si Si8 0.468765 0.581902 0.000000
O O1 0.644342 0.886047 0.749505
O O2 0.497914 0.823059 0.500000
O O3 0.715375 0.794444 0.500000
O O4 0.831665 0.486097 0.500000
O O5 0.023469 0.430524 0.500000
O O6 0.455992 0.544758 0.735605
O O7 0.895238 0.760548 0.250281
O O8 0.778678 0.680419 0.000000
O O9 0.389624 0.638669 0.000000
O O10 0.783626 0.582864 0.749288
O O11 0.598273 0.606197 0.000000
#
# Coordination Sequence:
#
# PCOD9445445 Si02
#       8
#     4   4   2   4   4   4   4   4
#     4  12  25  45  69  96 132 178 215 278 339 387
#     4  11  22  41  67  99 140 167 222 273 333 409
#     4  10  24  48  72 100 142 180 220 286 336 412
#     4  12  26  46  67  97 136 173 232 277 333 396
#     4  12  29  45  69  99 133 180 227 281 333 396
#     4  12  24  42  69 100 135 183 224 275 338 406
#     4  11  22  40  65 105 136 176 214 275 339 398
#     4  11  26  46  73 104 138 177 234 277 345 415
#
# _framework density 21.427467
#
# number of rings (size 3 to 8) (size 9 to 14) (size 15 to 20)
#    0.000    0.533    2.667    4.800    3.733    8.533 
#    0.000    0.000    0.000    0.000    0.000    0.000 
#    0.000    0.000    0.000    0.000    0.000    0.000 
#
# Total GULP energy -167498.416002 kJ/mol
# GULP energy per Si atom -5583.280533 kJ/mol
# Density = 2.137870 g / cm^3
# Si number density = 21.427467 Si / 1000 Ang^3
#
#
#
# Elastic Constant Matrix: (Units=GPa)
#
#
# Indices 1 2 3 4 5 6 
#
# 1 56.3846 3.9889 13.2884 0.0000 0.0000 0.0000
# 2 3.9889 84.3400 65.2608 0.0000 0.0000 0.0000
# 3 13.2884 65.2608 239.7405 0.0000 0.0000 0.0000
# 4 0.0000 0.0000 0.0000 49.0359 0.0000 0.0000
# 5 0.0000 0.0000 0.0000 0.0000 5.2586 0.0000
# 6 0.0000 0.0000 0.0000 0.0000 0.0000 -2.5761
#
#
#
# Elastic Compliance Matrix: (Units=1/GPa)
#
#
# Indices 1 2 3 4 5 6 
#
# 1 0.017971 -0.000100 -0.000969 0.000000 0.000000 0.000000
# 2 -0.000100 0.015021 -0.004083 0.000000 0.000000 0.000000
# 3 -0.000969 -0.004083 0.005336 0.000000 0.000000 0.000000
# 4 0.000000 0.000000 0.000000 0.020393 0.000000 0.000000
# 5 0.000000 0.000000 0.000000 0.000000 0.190166 0.000000
# 6 0.000000 0.000000 0.000000 0.000000 0.000000 -0.388183
#
#
# Mechanical properties :
#
#
# Convention : Reuss Voigt Hill
#
# Bulk Modulus (GPa) = 35.68451 60.61570 48.15010
# Shear Modulus (GPa) = -41.78885 30.20546 -5.79169
#
# Velocity S-wave (km/s) = -4.42095 3.75862 -1.64584
# Velocity P-wave (km/s) = 3.06104 6.86924 4.34836
#
# Compressibility (1/GPa) = 0.02802337
#
# Stress axis : x y z
#
# Youngs Moduli (GPa) = 55.64593 66.57261 187.39085
#
# Poissons Ratio (x) = 0.00668 0.18154
# Poissons Ratio (y) = 0.00558 0.76520
# Poissons Ratio (z) = 0.05391 0.27184
#
# Static dielectric constant tensor:
#      x y z
#    x 1.817850 0.000000 0.000000 
#    y 0.000000 1.752370 0.000000 
#    z 0.000000 0.000000 1.704950 
# 
# From -- ./inp_files/509.got.cif
#   From: 2010.05.17/outbox.cif.g08.bks.cpg/sg58_1_cif.got.tgz:509.got - 2010.06.03 14:20:14.
