data_PCOD9445474
_publ_section_title
;
Structure prediction by ZEFSAII (Michael W. Deem and Ramdas Pophale) SiO2 
 PCOD9445474
Probable space group: P N N M
;
_chemical_formula_sum "Si O2"
_cell_formula_units_Z 58
_cell_length_a 22.844349
_cell_length_b 14.091124
_cell_length_c 8.123560
_cell_angle_alpha 90.000000
_cell_angle_beta 90.000000
_cell_angle_gamma 90.000000
_cell_volume 2614.994715
_symmetry_space_group_name_H-M "P N N M"
_symmetry_group_IT_number 58
_symmetry_cell_setting 'orthorhombic'
loop_
_space_group_symop_operation_xyz
x,y,z
-x,-y,z
1/2+x,1/2-y,1/2-z
1/2-x,1/2+y,1/2-z
-x,-y,-z
x,y,-z
1/2-x,1/2+y,1/2+z
1/2+x,1/2-y,1/2+z
loop_
_atom_site_type_symbol
_atom_site_label
_atom_site_fract_x
_atom_site_fract_y
_atom_site_fract_z
Si Si1 0.882947 0.083348 0.697587
Si Si2 0.296254 0.765614 0.682077
Si Si3 0.000000 0.500000 0.500000
Si Si4 0.796869 0.369935 0.186140
Si Si5 0.568762 0.923282 0.304390
Si Si6 0.246030 0.941733 0.814242
Si Si7 0.485705 0.281154 0.310386
Si Si8 0.897441 0.866312 0.310625
O O1 0.885279 0.090910 0.500000
O O2 0.817094 0.096493 0.759466
O O3 0.927839 0.158446 0.771741
O O4 0.900307 0.975490 0.745998
O O5 0.300326 0.805988 0.500000
O O6 0.237830 0.702998 0.701043
O O7 0.291323 0.855441 0.800480
O O8 0.350233 0.696273 0.715530
O O9 0.950370 0.488854 0.348498
O O10 0.864620 0.388912 0.221296
O O11 0.764455 0.470668 0.201816
O O12 0.791939 0.333121 0.000000
O O13 0.564622 0.955706 0.500000
O O14 0.528507 0.829344 0.286911
O O15 0.242631 0.977452 0.000000
O O16 0.502341 0.296142 0.500000
O O17 0.539244 0.318679 0.203101
O O18 0.877754 0.868606 0.500000
#
# Coordination Sequence:
#
# PCOD9445474 Si02
#       8
#     8   8   2   8   8   8   8   8
#     4  11  23  41  67  99 138 180 228 279 338 409
#     4  12  25  42  68  99 136 180 229 282 343 413
#     4  12  26  44  80  94 138 184 230 282 356 396
#     4  11  23  45  71  98 139 176 225 288 345 406
#     4  10  26  47  71 105 138 181 235 292 344 417
#     4  12  25  41  67 100 136 178 228 278 342 410
#     4  11  24  43  68  98 136 177 230 286 343 409
#     4  11  24  42  65  97 140 181 224 283 340 405
#
# _framework density 22.179777000000001
#
# number of rings (size 3 to 8) (size 9 to 14) (size 15 to 20)
#    0.000    0.828    1.379    5.586    3.862    5.517 
#    0.000    1.379    0.000    0.000    0.000    0.000 
#    0.000    0.000    0.000    0.000    0.000    0.000 
#
# Total GULP energy -323954.074086 kJ/mol
# GULP energy per Si atom -5585.415070 kJ/mol
# Density = 2.212929 g / cm^3
# Si number density = 22.179777 Si / 1000 Ang^3
#
#
#
# Elastic Constant Matrix: (Units=GPa)
#
#
# Indices 1 2 3 4 5 6 
#
# 1 59.5855 14.2405 14.9855 0.0000 0.0000 0.0000
# 2 14.2405 34.8737 10.1824 0.0000 0.0000 0.0000
# 3 14.9855 10.1824 74.7514 0.0000 0.0000 0.0000
# 4 0.0000 0.0000 0.0000 39.2715 0.0000 0.0000
# 5 0.0000 0.0000 0.0000 0.0000 26.6237 0.0000
# 6 0.0000 0.0000 0.0000 0.0000 0.0000 18.5813
#
#
#
# Elastic Compliance Matrix: (Units=1/GPa)
#
#
# Indices 1 2 3 4 5 6 
#
# 1 0.019180 -0.006987 -0.002893 0.000000 0.000000 0.000000
# 2 -0.006987 0.032408 -0.003014 0.000000 0.000000 0.000000
# 3 -0.002893 -0.003014 0.014368 0.000000 0.000000 0.000000
# 4 0.000000 0.000000 0.000000 0.025464 0.000000 0.000000
# 5 0.000000 0.000000 0.000000 0.000000 0.037561 0.000000
# 6 0.000000 0.000000 0.000000 0.000000 0.000000 0.053817
#
#
# Mechanical properties :
#
#
# Convention : Reuss Voigt Hill
#
# Bulk Modulus (GPa) = 24.89562 27.55861 26.22711
# Shear Modulus (GPa) = 22.52494 25.54878 24.03686
#
# Velocity S-wave (km/s) = 3.19025 3.39764 3.29557
# Velocity P-wave (km/s) = 4.98187 5.27674 5.13143
#
# Compressibility (1/GPa) = 0.04016770
#
# Stress axis : x y z
#
# Youngs Moduli (GPa) = 52.13721 30.85652 69.59804
#
# Poissons Ratio (x) = 0.21560 0.20137
# Poissons Ratio (y) = 0.36430 0.20975
# Poissons Ratio (z) = 0.15085 0.09299
#
# Static dielectric constant tensor:
#      x y z
#    x 1.781940 0.000000 0.000000 
#    y 0.000000 1.807280 0.000000 
#    z 0.000000 0.000000 1.770970 
# 
# From -- ./inp_files/9875.got.cif
#   From: 2010.05.17/outbox.cif.g08.bks.cpg/sg58_5_cif.got.tgz:9875.got - 2010.06.03 14:20:14.
