data_PCOD9445867
_publ_section_title
;
Structure prediction by ZEFSAII (Michael W. Deem and Ramdas Pophale) SiO2 
 PCOD9445867
Probable space group: P N N M
;
_chemical_formula_sum "Si O2"
_cell_formula_units_Z 56
_cell_length_a 19.159164
_cell_length_b 21.712327
_cell_length_c 7.542564
_cell_angle_alpha 90.000000
_cell_angle_beta 90.000000
_cell_angle_gamma 90.000000
_cell_volume 3137.631453
_symmetry_space_group_name_H-M "P N N M"
_symmetry_group_IT_number 58
_symmetry_cell_setting 'orthorhombic'
loop_
_space_group_symop_operation_xyz
x,y,z
-x,-y,z
1/2+x,1/2-y,1/2-z
1/2-x,1/2+y,1/2-z
-x,-y,-z
x,y,-z
1/2-x,1/2+y,1/2+z
1/2+x,1/2-y,1/2+z
loop_
_atom_site_type_symbol
_atom_site_label
_atom_site_fract_x
_atom_site_fract_y
_atom_site_fract_z
Si Si1 0.217365 0.805603 0.289236
Si Si2 0.581181 0.001695 0.217123
Si Si3 0.576463 0.746012 0.783661
Si Si4 0.713466 0.322371 0.799550
Si Si5 0.150009 0.372075 0.287942
Si Si6 0.581698 0.256782 0.217820
Si Si7 0.857040 0.374160 0.294223
O O1 0.219427 0.794080 0.500000
O O2 0.136466 0.803174 0.234548
O O3 0.253535 0.746409 0.200597
O O4 0.268062 0.862343 0.251259
O O5 0.618550 0.939287 0.280528
O O6 0.500000 0.000000 0.266037
O O7 0.617905 0.064381 0.279347
O O8 0.584269 0.002658 0.000000
O O9 0.497809 0.734065 0.725152
O O10 0.604603 0.813044 0.721450
O O11 0.574443 0.747478 0.000000
O O12 0.636973 0.308725 0.721915
O O13 0.773922 0.363293 0.714348
O O14 0.705482 0.344618 0.000000
O O15 0.141942 0.372090 0.500000
O O16 0.109284 0.310737 0.224263
O O17 0.583974 0.257353 0.000000
O O18 0.877642 0.375277 0.500000
#
# Coordination Sequence:
#
# PCOD9445867 Si02
#       7
#     8   8   8   8   8   8   8
#     4   9  16  26  41  59  80 106 134 166 204 246
#     4   9  16  26  43  65  84 109 148 180 197 227
#     4   8  13  22  38  59  79 100 129 165 202 236
#     4   9  16  26  41  59  80 106 134 166 204 246
#     4   9  16  26  41  60  83 109 136 168 202 238
#     4   8  13  22  38  59  79 100 129 165 202 236
#     4   9  16  26  41  60  83 109 136 168 202 238
#
# _framework density 17.847857000000001
#
# number of rings (size 3 to 8) (size 9 to 14) (size 15 to 20)
#    0.000    3.286    0.000    3.429    0.000    3.429 
#    0.000    0.714    0.000   30.000    0.000    1.000 
#    0.000    8.000    0.000    0.000    0.000    0.000 
#
# Total GULP energy -311740.315280 kJ/mol
# GULP energy per Si atom -5566.791344 kJ/mol
# Density = 1.780723 g / cm^3
# Si number density = 17.847857 Si / 1000 Ang^3
#
#
#
# Elastic Constant Matrix: (Units=GPa)
#
#
# Indices 1 2 3 4 5 6 
#
# 1 172.8715 67.1404 -7.0080 0.0000 0.0000 0.0000
# 2 67.1404 79.2545 -0.7322 0.0000 0.0000 0.0000
# 3 -7.0080 -0.7322 40.1194 0.0000 0.0000 0.0000
# 4 0.0000 0.0000 0.0000 4.2455 0.0000 0.0000
# 5 0.0000 0.0000 0.0000 0.0000 16.0739 0.0000
# 6 0.0000 0.0000 0.0000 0.0000 0.0000 28.9381
#
#
#
# Elastic Compliance Matrix: (Units=1/GPa)
#
#
# Indices 1 2 3 4 5 6 
#
# 1 0.008697 -0.007355 0.001385 0.000000 0.000000 0.000000
# 2 -0.007355 0.018840 -0.000941 0.000000 0.000000 0.000000
# 3 0.001385 -0.000941 0.025150 0.000000 0.000000 0.000000
# 4 0.000000 0.000000 0.000000 0.235543 0.000000 0.000000
# 5 0.000000 0.000000 0.000000 0.000000 0.062213 0.000000
# 6 0.000000 0.000000 0.000000 0.000000 0.000000 0.034557
#
#
# Mechanical properties :
#
#
# Convention : Reuss Voigt Hill
#
# Bulk Modulus (GPa) = 25.72992 45.67178 35.70085
# Shear Modulus (GPa) = 12.14247 25.37450 18.75849
#
# Velocity S-wave (km/s) = 2.61115 3.77465 3.24546
# Velocity P-wave (km/s) = 4.85163 6.68149 5.83869
#
# Compressibility (1/GPa) = 0.03886526
#
# Stress axis : x y z
#
# Youngs Moduli (GPa) = 114.97623 53.07885 39.76091
#
# Poissons Ratio (x) = 0.39041 -0.05507
# Poissons Ratio (y) = 0.84568 0.03741
# Poissons Ratio (z) = -0.15924 0.04995
#
# Static dielectric constant tensor:
#      x y z
#    x 1.643380 0.000000 0.000000 
#    y 0.000000 1.591720 0.000000 
#    z 0.000000 0.000000 1.689710 
# 
# From -- ./inp_files/8442.got.cif
#   From: 2010.05.17/outbox.cif.g08.bks.cpg/sg58_5_cif.got.tgz:8442.got - 2010.06.03 14:20:14.
