data_PCOD9445985
_publ_section_title
;
Structure prediction by ZEFSAII (Michael W. Deem and Ramdas Pophale) SiO2 
 PCOD9445985
Probable space group: P N N M
;
_chemical_formula_sum "Si O2"
_cell_formula_units_Z 64
_cell_length_a 30.000000
_cell_length_b 12.000000
_cell_length_c 9.000000
_cell_angle_alpha 90.000000
_cell_angle_beta 90.000000
_cell_angle_gamma 90.000000
_cell_volume 3240.000000
_symmetry_space_group_name_H-M "P N N M"
_symmetry_group_IT_number 58
_symmetry_cell_setting 'orthorhombic'
loop_
_space_group_symop_operation_xyz
x,y,z
-x,-y,z
1/2+x,1/2-y,1/2-z
1/2-x,1/2+y,1/2-z
-x,-y,-z
x,y,-z
1/2-x,1/2+y,1/2+z
1/2+x,1/2-y,1/2+z
loop_
_atom_site_type_symbol
_atom_site_label
_atom_site_fract_x
_atom_site_fract_y
_atom_site_fract_z
Si Si1 0.724922 0.510524 0.678007
Si Si2 0.027702 0.288388 0.173977
Si Si3 0.336546 0.283309 0.680026
Si Si4 0.075338 0.050379 0.827541
Si Si5 0.840492 0.851903 0.324916
Si Si6 0.683895 0.965180 0.677606
Si Si7 0.561818 0.697014 0.320071
Si Si8 0.886824 0.615392 0.323210
O O1 0.727478 0.510829 0.500000
O O2 0.692991 0.612130 0.728407
O O3 0.701694 0.397396 0.735634
O O4 0.773699 0.522356 0.746835
O O5 0.045185 0.160144 0.179732
O O6 0.063618 0.360261 0.262993
O O7 0.977204 0.278971 0.233227
O O8 0.028142 0.322134 0.000000
O O9 0.338716 0.290430 0.500000
O O10 0.387810 0.283626 0.732686
O O11 0.314859 0.165415 0.717062
O O12 0.117729 0.072086 0.724479
O O13 0.052371 0.933617 0.789444
O O14 0.090997 0.040370 0.000000
O O15 0.831849 0.860543 0.500000
O O16 0.857281 0.726876 0.291905
O O17 0.685634 0.976810 0.500000
O O18 0.638279 0.016959 0.739088
O O19 0.561086 0.708646 0.500000
O O20 0.887381 0.598569 0.500000
#
# Coordination Sequence:
#
# PCOD9445985 Si02
#       8
#     8   8   8   8   8   8   8   8
#     4  11  22  39  62  87 115 149 185 229 295 355
#     4   9  17  29  54  87 114 146 194 241 284 341
#     4   9  20  38  60  85 116 150 185 234 289 343
#     4   9  15  27  49  80 116 150 183 231 287 340
#     4  10  20  34  54  82 114 150 188 231 278 334
#     4  11  24  41  61  85 112 147 195 242 284 340
#     4   9  15  29  54  84 115 149 189 235 289 344
#     4  10  22  40  58  79 116 158 195 237 289 338
#
# _framework density 19.753086
#
# number of rings (size 3 to 8) (size 9 to 14) (size 15 to 20)
#    0.000    2.250    1.250    1.875    1.750    3.000 
#    0.000    3.125    0.000    6.750    0.000    0.000 
#    0.000    0.000    0.000    0.000    0.000    0.000 
#
# Total GULP energy -357147.754698 kJ/mol
# GULP energy per Si atom -5580.433667 kJ/mol
# Density = 1.970813 g / cm^3
# Si number density = 19.753086 Si / 1000 Ang^3
#
#
#
# Elastic Constant Matrix: (Units=GPa)
#
#
# Indices 1 2 3 4 5 6 
#
# 1 85.8143 10.6616 12.8341 0.0000 0.0000 0.0000
# 2 10.6616 36.0952 17.2535 0.0000 0.0000 0.0000
# 3 12.8341 17.2535 37.4887 0.0000 0.0000 0.0000
# 4 0.0000 0.0000 0.0000 8.6026 0.0000 0.0000
# 5 0.0000 0.0000 0.0000 0.0000 25.8850 0.0000
# 6 0.0000 0.0000 0.0000 0.0000 0.0000 16.7353
#
#
#
# Elastic Compliance Matrix: (Units=1/GPa)
#
#
# Indices 1 2 3 4 5 6 
#
# 1 0.012404 -0.002095 -0.003282 0.000000 0.000000 0.000000
# 2 -0.002095 0.035872 -0.015792 0.000000 0.000000 0.000000
# 3 -0.003282 -0.015792 0.035067 0.000000 0.000000 0.000000
# 4 0.000000 0.000000 0.000000 0.116244 0.000000 0.000000
# 5 0.000000 0.000000 0.000000 0.000000 0.038632 0.000000
# 6 0.000000 0.000000 0.000000 0.000000 0.000000 0.059754
#
#
# Mechanical properties :
#
#
# Convention : Reuss Voigt Hill
#
# Bulk Modulus (GPa) = 24.38808 26.76628 25.57718
# Shear Modulus (GPa) = 14.12507 18.15451 16.13979
#
# Velocity S-wave (km/s) = 2.67700 3.03491 2.86156
# Velocity P-wave (km/s) = 4.68278 5.08535 4.88821
#
# Compressibility (1/GPa) = 0.04100363
#
# Stress axis : x y z
#
# Youngs Moduli (GPa) = 80.61755 27.87689 28.51724
#
# Poissons Ratio (x) = 0.05840 0.09360
# Poissons Ratio (y) = 0.16889 0.45035
# Poissons Ratio (z) = 0.26462 0.44024
#
# Static dielectric constant tensor:
#      x y z
#    x 1.716200 0.000000 0.000000 
#    y 0.000000 1.704780 0.000000 
#    z 0.000000 0.000000 1.656830 
# 
# From -- ./inp_files/11091.got.cif
#   From: 2010.05.17/outbox.ucp.g08.bks.cvg/sg58_6_cif.got.tgz:11091.got - 2010.06.11 16:41:41.
