data_PCOD9445697
_publ_section_title
;
Structure prediction by ZEFSAII (Michael W. Deem and Ramdas Pophale) SiO2 
 PCOD9445697
Probable space group: P N N M
;
_chemical_formula_sum "Si O2"
_cell_formula_units_Z 56
_cell_length_a 12.243732
_cell_length_b 15.406589
_cell_length_c 13.437115
_cell_angle_alpha 90.000000
_cell_angle_beta 90.000000
_cell_angle_gamma 90.000000
_cell_volume 2534.698723
_symmetry_space_group_name_H-M "P N N M"
_symmetry_group_IT_number 58
_symmetry_cell_setting 'orthorhombic'
loop_
_space_group_symop_operation_xyz
x,y,z
-x,-y,z
1/2+x,1/2-y,1/2-z
1/2-x,1/2+y,1/2-z
-x,-y,-z
x,y,-z
1/2-x,1/2+y,1/2+z
1/2+x,1/2-y,1/2+z
loop_
_atom_site_type_symbol
_atom_site_label
_atom_site_fract_x
_atom_site_fract_y
_atom_site_fract_z
Si Si1 0.684694 0.820119 0.884064
Si Si2 0.528866 0.896283 0.385013
Si Si3 0.437024 0.890209 0.884990
Si Si4 0.358893 0.774296 0.738386
Si Si5 0.948022 0.859238 0.388932
Si Si6 0.829539 0.046572 0.607396
Si Si7 0.185823 0.529653 0.264563
O O1 0.554681 0.841582 0.869214
O O2 0.749628 0.749147 0.820432
O O3 0.740398 0.910430 0.847787
O O4 0.699679 0.802894 0.000000
O O5 0.544948 0.870761 0.500000
O O6 0.440832 0.832805 0.331049
O O7 0.596365 0.024714 0.176013
O O8 0.500000 0.000000 0.385611
O O9 0.345842 0.825782 0.841867
O O10 0.637123 0.902132 0.683276
O O11 0.430126 0.910201 0.000000
O O12 0.414474 0.688946 0.787788
O O13 0.928702 0.817908 0.500000
O O14 0.075986 0.882601 0.386073
O O15 0.886958 0.951872 0.392815
O O16 0.771297 0.056853 0.500000
O O17 0.752810 0.039388 0.701367
#
# Coordination Sequence:
#
# PCOD9445697 Si02
#       7
#     8   8   8   8   8   8   8
#     4  11  24  42  68  98 129 173 225 275 335 405
#     4  11  23  41  62  92 133 173 216 274 343 407
#     4  11  25  44  69 100 134 175 227 283 339 402
#     4  12  22  42  67  97 133 175 220 281 340 395
#     4   9  19  38  64  97 136 178 230 283 334 401
#     4   9  19  37  66  99 133 181 229 276 339 406
#     4  12  20  43  69  97 131 177 222 282 336 398
#
# _framework density 22.093356
#
# number of rings (size 3 to 8) (size 9 to 14) (size 15 to 20)
#    0.000    1.286    4.286    3.000    0.000    2.286 
#    0.000    1.429    0.000    3.429    0.000    0.000 
#    0.000    0.000    0.000    0.000    0.000    0.000 
#
# Total GULP energy -312178.214589 kJ/mol
# GULP energy per Si atom -5574.610975 kJ/mol
# Density = 2.204307 g / cm^3
# Si number density = 22.093356 Si / 1000 Ang^3
#
#
#
# Elastic Constant Matrix: (Units=GPa)
#
#
# Indices 1 2 3 4 5 6 
#
# 1 83.3476 34.7359 71.7011 0.0000 0.0000 0.0000
# 2 34.7359 74.5551 38.8104 0.0000 0.0000 0.0000
# 3 71.7011 38.8104 182.3183 0.0000 0.0000 0.0000
# 4 0.0000 0.0000 0.0000 36.0306 0.0000 0.0000
# 5 0.0000 0.0000 0.0000 0.0000 23.0282 0.0000
# 6 0.0000 0.0000 0.0000 0.0000 0.0000 38.9609
#
#
#
# Elastic Compliance Matrix: (Units=1/GPa)
#
#
# Indices 1 2 3 4 5 6 
#
# 1 0.020231 -0.005943 -0.006691 0.000000 0.000000 0.000000
# 2 -0.005943 0.016830 -0.001246 0.000000 0.000000 0.000000
# 3 -0.006691 -0.001246 0.008382 0.000000 0.000000 0.000000
# 4 0.000000 0.000000 0.000000 0.027754 0.000000 0.000000
# 5 0.000000 0.000000 0.000000 0.000000 0.043425 0.000000
# 6 0.000000 0.000000 0.000000 0.000000 0.000000 0.025667
#
#
# Mechanical properties :
#
#
# Convention : Reuss Voigt Hill
#
# Bulk Modulus (GPa) = 56.54953 70.07953 63.31453
# Shear Modulus (GPa) = 28.41854 32.60220 30.51037
#
# Velocity S-wave (km/s) = 3.59038 3.84559 3.72018
# Velocity P-wave (km/s) = 6.54516 7.17682 6.86825
#
# Compressibility (1/GPa) = 0.01768361
#
# Stress axis : x y z
#
# Youngs Moduli (GPa) = 49.42960 59.41773 119.30962
#
# Poissons Ratio (x) = 0.35309 0.79833
# Poissons Ratio (y) = 0.29374 0.14861
# Poissons Ratio (z) = 0.33075 0.07401
#
# Static dielectric constant tensor:
#      x y z
#    x 1.866700 0.000000 0.000000 
#    y 0.000000 1.994150 0.000000 
#    z 0.000000 0.000000 1.821760 
# 
# From -- ./inp_files/22385.got.cif
#   From: 2010.05.17/outbox.cif.g08.bks.cpg/sg58_12_cif.got.tgz:22385.got - 2010.06.03 14:20:14.
