data_PCOD9445947
_publ_section_title
;
Structure prediction by ZEFSAII (Michael W. Deem and Ramdas Pophale) SiO2 
 PCOD9445947
Probable space group: P N N M
;
_chemical_formula_sum "Si O2"
_cell_formula_units_Z 64
_cell_length_a 21.000000
_cell_length_b 18.000000
_cell_length_c 9.000000
_cell_angle_alpha 90.000000
_cell_angle_beta 90.000000
_cell_angle_gamma 90.000000
_cell_volume 3402.000000
_symmetry_space_group_name_H-M "P N N M"
_symmetry_group_IT_number 58
_symmetry_cell_setting 'orthorhombic'
loop_
_space_group_symop_operation_xyz
x,y,z
-x,-y,z
1/2+x,1/2-y,1/2-z
1/2-x,1/2+y,1/2-z
-x,-y,-z
x,y,-z
1/2-x,1/2+y,1/2+z
1/2+x,1/2-y,1/2+z
loop_
_atom_site_type_symbol
_atom_site_label
_atom_site_fract_x
_atom_site_fract_y
_atom_site_fract_z
Si Si1 0.847541 0.895007 0.671977
Si Si2 0.181731 0.949986 0.180125
Si Si3 0.393451 0.042139 0.824244
Si Si4 0.819157 0.589852 0.178962
Si Si5 0.025735 0.678708 0.677279
Si Si6 0.374666 0.291353 0.675204
Si Si7 0.882405 0.730177 0.321141
Si Si8 0.799524 0.350395 0.168698
O O1 0.866900 0.909031 0.500000
O O2 0.880424 0.817631 0.724062
O O3 0.773665 0.870942 0.672223
O O4 0.849478 0.972624 0.762263
O O5 0.251878 0.938857 0.252676
O O6 0.141630 0.875421 0.222933
O O7 0.187565 0.951679 0.000000
O O8 0.453107 0.094749 0.777022
O O9 0.336301 0.099927 0.787905
O O10 0.373683 0.967567 0.737646
O O11 0.398327 0.025341 0.000000
O O12 0.835236 0.672559 0.239453
O O13 0.816222 0.588502 0.000000
O O14 0.035959 0.680880 0.500000
O O15 0.069884 0.743104 0.747772
O O16 0.952775 0.697893 0.706858
O O17 0.389041 0.295117 0.500000
O O18 0.313682 0.236539 0.693610
O O19 0.869521 0.728467 0.500000
O O20 0.823592 0.367708 0.000000
#
# Coordination Sequence:
#
# PCOD9445947 Si02
#       8
#     8   8   8   8   8   8   8   8
#     4  10  20  35  57  82 112 148 185 231 285 339
#     4  11  22  37  58  86 117 149 185 232 288 342
#     4  10  19  33  55  83 113 148 183 229 282 332
#     4  12  24  37  56  86 119 150 188 233 284 344
#     4   9  20  38  60  84 111 148 197 239 276 331
#     4   9  19  35  57  82 110 147 186 230 282 334
#     4  10  22  41  60  81 113 153 192 235 286 336
#     4   9  16  30  52  78 107 139 179 224 276 336
#
# _framework density 18.812463000000001
#
# number of rings (size 3 to 8) (size 9 to 14) (size 15 to 20)
#    0.000    2.000    1.250    2.625    0.000    5.000 
#    0.000    5.625    0.000    3.750    0.000    0.000 
#    0.000    0.000    0.000    0.000    0.000    0.000 
#
# Total GULP energy -356991.348103 kJ/mol
# GULP energy per Si atom -5577.989814 kJ/mol
# Density = 1.876965 g / cm^3
# Si number density = 18.812463 Si / 1000 Ang^3
#
#
#
# Elastic Constant Matrix: (Units=GPa)
#
#
# Indices 1 2 3 4 5 6 
#
# 1 31.0070 12.3259 13.5141 0.0000 0.0000 0.0000
# 2 12.3259 139.8491 37.5884 0.0000 0.0000 0.0000
# 3 13.5141 37.5884 62.4749 0.0000 0.0000 0.0000
# 4 0.0000 0.0000 0.0000 38.8437 0.0000 0.0000
# 5 0.0000 0.0000 0.0000 0.0000 14.1614 0.0000
# 6 0.0000 0.0000 0.0000 0.0000 0.0000 22.6639
#
#
#
# Elastic Compliance Matrix: (Units=1/GPa)
#
#
# Indices 1 2 3 4 5 6 
#
# 1 0.035799 -0.001281 -0.006973 0.000000 0.000000 0.000000
# 2 -0.001281 0.008576 -0.004883 0.000000 0.000000 0.000000
# 3 -0.006973 -0.004883 0.020452 0.000000 0.000000 0.000000
# 4 0.000000 0.000000 0.000000 0.025744 0.000000 0.000000
# 5 0.000000 0.000000 0.000000 0.000000 0.070615 0.000000
# 6 0.000000 0.000000 0.000000 0.000000 0.000000 0.044123
#
#
# Mechanical properties :
#
#
# Convention : Reuss Voigt Hill
#
# Bulk Modulus (GPa) = 25.93761 40.02086 32.97924
# Shear Modulus (GPa) = 20.45543 26.46063 23.45803
#
# Velocity S-wave (km/s) = 3.30105 3.75447 3.53504
# Velocity P-wave (km/s) = 5.32416 6.33360 5.85069
#
# Compressibility (1/GPa) = 0.03855405
#
# Stress axis : x y z
#
# Youngs Moduli (GPa) = 27.93358 116.60718 48.89394
#
# Poissons Ratio (x) = 0.14938 0.34094
# Poissons Ratio (y) = 0.03578 0.23873
# Poissons Ratio (z) = 0.19478 0.56934
#
# Static dielectric constant tensor:
#      x y z
#    x 1.673810 0.000000 0.000000 
#    y 0.000000 1.667280 0.000000 
#    z 0.000000 0.000000 1.650410 
# 
# From -- ./inp_files/9327.got.cif
#   From: 2010.05.17/outbox.ucp.g08.bks.cvg/sg58_5_cif.got.tgz:9327.got - 2010.06.11 16:41:41.
