data_PCOD9445513
_publ_section_title
;
Structure prediction by ZEFSAII (Michael W. Deem and Ramdas Pophale) SiO2 
 PCOD9445513
Probable space group: P N N M
;
_chemical_formula_sum "Si O2"
_cell_formula_units_Z 20
_cell_length_a 14.497649
_cell_length_b 6.652755
_cell_length_c 9.614337
_cell_angle_alpha 90.000000
_cell_angle_beta 90.000000
_cell_angle_gamma 90.000000
_cell_volume 927.296140
_symmetry_space_group_name_H-M "P N N M"
_symmetry_group_IT_number 58
_symmetry_cell_setting 'orthorhombic'
loop_
_space_group_symop_operation_xyz
x,y,z
-x,-y,z
1/2+x,1/2-y,1/2-z
1/2-x,1/2+y,1/2-z
-x,-y,-z
x,y,-z
1/2-x,1/2+y,1/2+z
1/2+x,1/2-y,1/2+z
loop_
_atom_site_type_symbol
_atom_site_label
_atom_site_fract_x
_atom_site_fract_y
_atom_site_fract_z
Si Si1 0.608838 0.545163 0.000000
Si Si2 0.094445 0.607159 0.708135
Si Si3 0.286751 0.868830 0.000000
Si Si4 0.576294 0.681910 0.500000
O O1 0.500000 0.500000 0.000000
O O2 0.619872 0.684767 0.866416
O O3 0.678490 0.360809 0.000000
O O4 0.171323 0.460942 0.642889
O O5 0.075934 0.672266 0.865826
O O6 0.000000 0.500000 0.659290
O O7 0.178766 0.909382 0.000000
O O8 0.500000 0.500000 0.500000
#
# Coordination Sequence:
#
# PCOD9445513 Si02
#       4
#     4   8   4   4
#     4  11  19  43  77 102 136 181 243 289 349 434
#     4  11  24  46  73 105 141 188 240 295 366 432
#     4  11  26  46  75 105 140 196 247 294 354 447
#     4  12  30  46  69 107 155 187 235 307 371 420
#
# _framework density 21.568080999999999
#
# number of rings (size 3 to 8) (size 9 to 14) (size 15 to 20)
#    0.000    0.800    4.000    3.000    5.600    0.000 
#    7.200    0.000    0.000    0.000    0.000    0.000 
#    0.000    0.000    0.000    0.000    0.000    0.000 
#
# Total GULP energy -111490.882034 kJ/mol
# GULP energy per Si atom -5574.544102 kJ/mol
# Density = 2.151899 g / cm^3
# Si number density = 21.568081 Si / 1000 Ang^3
#
#
#
# Elastic Constant Matrix: (Units=GPa)
#
#
# Indices 1 2 3 4 5 6 
#
# 1 173.6400 53.9642 27.9271 0.0000 0.0000 0.0000
# 2 53.9642 139.1037 73.7834 0.0000 0.0000 0.0000
# 3 27.9271 73.7834 182.1489 0.0000 0.0000 0.0000
# 4 0.0000 0.0000 0.0000 195.9441 0.0000 0.0000
# 5 0.0000 0.0000 0.0000 0.0000 -1.2104 0.0000
# 6 0.0000 0.0000 0.0000 0.0000 0.0000 28.2413
#
#
#
# Elastic Compliance Matrix: (Units=1/GPa)
#
#
# Indices 1 2 3 4 5 6 
#
# 1 0.006549 -0.002557 0.000032 0.000000 0.000000 0.000000
# 2 -0.002557 0.010155 -0.003721 0.000000 0.000000 0.000000
# 3 0.000032 -0.003721 0.006993 0.000000 0.000000 0.000000
# 4 0.000000 0.000000 0.000000 0.005103 0.000000 0.000000
# 5 0.000000 0.000000 0.000000 0.000000 -0.826145 0.000000
# 6 0.000000 0.000000 0.000000 0.000000 0.000000 0.035409
#
#
# Mechanical properties :
#
#
# Convention : Reuss Voigt Hill
#
# Bulk Modulus (GPa) = 89.26695 89.58246 89.42470
# Shear Modulus (GPa) = -6.70503 67.20952 30.25224
#
# Velocity S-wave (km/s) = -1.76508 5.58831 3.74925
# Velocity P-wave (km/s) = 6.10936 9.12490 7.76493
#
# Compressibility (1/GPa) = 0.01120235
#
# Stress axis : x y z
#
# Youngs Moduli (GPa) = 152.70169 98.47457 143.00944
#
# Poissons Ratio (x) = 0.25184 -0.00456
# Poissons Ratio (y) = 0.39053 0.53219
# Poissons Ratio (z) = -0.00487 0.36646
#
# Static dielectric constant tensor:
#      x y z
#    x 1.806120 0.000000 0.000000 
#    y 0.000000 1.762320 0.000000 
#    z 0.000000 0.000000 1.847030 
# 
# From -- ./inp_files/7223.got.cif
#   From: 2010.05.17/outbox.cif.g08.bks.cpg/sg58_4_cif.got.tgz:7223.got - 2010.06.03 14:20:14.
