data_PCOD9445939
_publ_section_title
;
Structure prediction by ZEFSAII (Michael W. Deem and Ramdas Pophale) SiO2 
 PCOD9445939
Probable space group: P N N M
;
_chemical_formula_sum "Si O2"
_cell_formula_units_Z 64
_cell_length_a 15.000000
_cell_length_b 24.000000
_cell_length_c 9.000000
_cell_angle_alpha 90.000000
_cell_angle_beta 90.000000
_cell_angle_gamma 90.000000
_cell_volume 3240.000000
_symmetry_space_group_name_H-M "P N N M"
_symmetry_group_IT_number 58
_symmetry_cell_setting 'orthorhombic'
loop_
_space_group_symop_operation_xyz
x,y,z
-x,-y,z
1/2+x,1/2-y,1/2-z
1/2-x,1/2+y,1/2-z
-x,-y,-z
x,y,-z
1/2-x,1/2+y,1/2+z
1/2+x,1/2-y,1/2+z
loop_
_atom_site_type_symbol
_atom_site_label
_atom_site_fract_x
_atom_site_fract_y
_atom_site_fract_z
Si Si1 0.290874 0.035385 0.322615
Si Si2 0.487328 0.236944 0.820133
Si Si3 0.125654 0.429302 0.328349
Si Si4 0.686533 0.267939 0.180897
Si Si5 0.441612 0.361542 0.178060
Si Si6 0.864011 0.890961 0.681057
Si Si7 0.724623 0.660370 0.327667
Si Si8 0.932579 0.383825 0.679942
O O1 0.293944 0.035351 0.500000
O O2 0.192296 0.055322 0.274844
O O3 0.354775 0.083215 0.258778
O O4 0.326371 0.977079 0.263424
O O5 0.590856 0.241850 0.778172
O O6 0.448577 0.296499 0.776154
O O7 0.441512 0.180328 0.768808
O O8 0.485279 0.235190 0.000000
O O9 0.123140 0.448058 0.500000
O O10 0.182532 0.372764 0.322208
O O11 0.025170 0.415075 0.283537
O O12 0.682878 0.332500 0.229059
O O13 0.758310 0.222811 0.234416
O O14 0.691841 0.268325 0.000000
O O15 0.533010 0.390059 0.229193
O O16 0.347618 0.377551 0.245315
O O17 0.438657 0.365081 0.000000
O O18 0.865501 0.888600 0.500000
O O19 0.698244 0.665170 0.500000
O O20 0.922541 0.384763 0.500000
#
# Coordination Sequence:
#
# PCOD9445939 Si02
#       8
#     8   8   8   8   8   8   8   8
#     4  11  23  36  53  78 105 139 180 223 267 309
#     4   8  14  28  51  77 103 135 171 204 246 310
#     4  10  21  38  56  76 104 142 183 217 257 316
#     4   8  13  27  51  75 100 133 170 209 249 306
#     4   9  18  33  54  78 107 139 172 212 260 316
#     4   8  17  34  53  74 104 141 177 210 257 318
#     4  10  19  32  55  82 105 134 176 220 265 310
#     4  10  19  34  55  78 105 139 176 211 254 316
#
# _framework density 19.753086
#
# number of rings (size 3 to 8) (size 9 to 14) (size 15 to 20)
#    0.000    2.750    1.250    2.250    1.750    2.500 
#    0.000    1.875    0.000    6.750    0.000    0.000 
#    0.000    0.000    0.000    0.000    0.000    0.000 
#
# Total GULP energy -356525.100491 kJ/mol
# GULP energy per Si atom -5570.704695 kJ/mol
# Density = 1.970813 g / cm^3
# Si number density = 19.753086 Si / 1000 Ang^3
#
#
#
# Elastic Constant Matrix: (Units=GPa)
#
#
# Indices 1 2 3 4 5 6 
#
# 1 61.1994 -30.9458 3.4136 0.0000 0.0000 0.0000
# 2 -30.9458 2.8806 0.3041 0.0000 0.0000 0.0000
# 3 3.4136 0.3041 -4.3575 0.0000 0.0000 0.0000
# 4 0.0000 0.0000 0.0000 17.7325 0.0000 0.0000
# 5 0.0000 0.0000 0.0000 0.0000 16.2605 0.0000
# 6 0.0000 0.0000 0.0000 0.0000 0.0000 8.0223
#
#
#
# Elastic Compliance Matrix: (Units=1/GPa)
#
#
# Indices 1 2 3 4 5 6 
#
# 1 -0.003830 -0.040532 -0.005829 0.000000 0.000000 0.000000
# 2 -0.040532 -0.084309 -0.037636 0.000000 0.000000 0.000000
# 3 -0.005829 -0.037636 -0.236684 0.000000 0.000000 0.000000
# 4 0.000000 0.000000 0.000000 0.056394 0.000000 0.000000
# 5 0.000000 0.000000 0.000000 0.000000 0.061499 0.000000
# 6 0.000000 0.000000 0.000000 0.000000 0.000000 0.124652
#
#
# Mechanical properties :
#
#
# Convention : Reuss Voigt Hill
#
# Bulk Modulus (GPa) = -2.02915 0.58513 -0.72201
# Shear Modulus (GPa) = -63.64861 14.19978 -24.72441
#
# Velocity S-wave (km/s) = -5.68261 2.68407 -3.54174
# Velocity P-wave (km/s) = 6.63970 3.14683 4.13419
#
# Compressibility (1/GPa) = -0.49281821
#
# Stress axis : x y z
#
# Youngs Moduli (GPa) = -261.08368 -11.86109 -4.22505
#
# Poissons Ratio (x) = -0.48076 -0.02463
# Poissons Ratio (y) = -10.58230 -0.15901
# Poissons Ratio (z) = -1.52188 -0.44641
#
# Static dielectric constant tensor:
#      x y z
#    x 1.759390 0.000000 0.000000 
#    y 0.000000 1.716450 0.000000 
#    z 0.000000 0.000000 1.672110 
# 
# From -- ./inp_files/6992.got.cif
#   From: 2010.05.17/outbox.ucp.g08.bks.cvg/sg58_4_cif.got.tgz:6992.got - 2010.06.11 16:41:41.
