data_PCOD9445441
_publ_section_title
;
Structure prediction by ZEFSAII (Michael W. Deem and Ramdas Pophale) SiO2 
 PCOD9445441
Probable space group: P N N M
;
_chemical_formula_sum "Si O2"
_cell_formula_units_Z 40
_cell_length_a 11.213803
_cell_length_b 8.207004
_cell_length_c 20.356558
_cell_angle_alpha 90.000000
_cell_angle_beta 90.000000
_cell_angle_gamma 90.000000
_cell_volume 1873.449170
_symmetry_space_group_name_H-M "P N N M"
_symmetry_group_IT_number 58
_symmetry_cell_setting 'orthorhombic'
loop_
_space_group_symop_operation_xyz
x,y,z
-x,-y,z
1/2+x,1/2-y,1/2-z
1/2-x,1/2+y,1/2-z
-x,-y,-z
x,y,-z
1/2-x,1/2+y,1/2+z
1/2+x,1/2-y,1/2+z
loop_
_atom_site_type_symbol
_atom_site_label
_atom_site_fract_x
_atom_site_fract_y
_atom_site_fract_z
Si Si1 0.756011 0.921492 0.136846
Si Si2 0.869658 0.430546 0.000000
Si Si3 0.941310 0.828004 0.500000
Si Si4 0.295471 0.244831 0.000000
Si Si5 0.000000 0.000000 0.200183
Si Si6 0.745964 0.293575 0.883364
Si Si7 0.099361 0.648033 0.759642
O O1 0.745483 0.839696 0.066614
O O2 0.669808 0.847654 0.191262
O O3 0.722129 0.109985 0.135553
O O4 0.892281 0.926394 0.158561
O O5 0.851317 0.321609 0.935696
O O6 0.000000 0.500000 0.000000
O O7 0.770540 0.577209 0.000000
O O8 0.865969 0.825338 0.567762
O O9 0.060364 0.719879 0.500000
O O10 0.000000 0.000000 0.500000
O O11 0.953120 0.167077 0.234541
O O12 0.799351 0.377861 0.817417
O O13 0.000000 0.500000 0.762497
#
# Coordination Sequence:
#
# PCOD9445441 Si02
#       7
#     8   4   4   4   4   8   8
#     4  11  28  48  71 109 144 201 244 315 374 448
#     4  11  24  41  74 105 142 198 239 313 362 437
#     4  11  23  46  70 110 141 195 239 310 370 443
#     4  12  27  43  74 107 142 191 255 290 383 436
#     4  10  28  49  76 111 152 192 254 310 378 455
#     4  10  24  47  69 102 152 187 248 303 373 447
#     4  11  27  49  78 110 147 200 250 312 381 446
#
# _framework density 21.350992000000002
#
# number of rings (size 3 to 8) (size 9 to 14) (size 15 to 20)
#    0.000    1.200    2.000    1.800   16.800    1.200 
#    3.600    0.000    0.000    0.000    0.000    0.000 
#    0.000    0.000    0.000    0.000    0.000    0.000 
#
# Total GULP energy -222722.953872 kJ/mol
# GULP energy per Si atom -5568.073847 kJ/mol
# Density = 2.130240 g / cm^3
# Si number density = 21.350992 Si / 1000 Ang^3
#
#
#
# Elastic Constant Matrix: (Units=GPa)
#
#
# Indices 1 2 3 4 5 6 
#
# 1 155.2261 62.3945 75.3640 0.0000 0.0000 0.0000
# 2 62.3945 70.6021 57.0361 0.0000 0.0000 0.0000
# 3 75.3640 57.0361 172.2031 0.0000 0.0000 0.0000
# 4 0.0000 0.0000 0.0000 32.4680 0.0000 0.0000
# 5 0.0000 0.0000 0.0000 0.0000 8.0602 0.0000
# 6 0.0000 0.0000 0.0000 0.0000 0.0000 25.6187
#
#
#
# Elastic Compliance Matrix: (Units=1/GPa)
#
#
# Indices 1 2 3 4 5 6 
#
# 1 0.010510 -0.007608 -0.002080 0.000000 0.000000 0.000000
# 2 -0.007608 0.024846 -0.004900 0.000000 0.000000 0.000000
# 3 -0.002080 -0.004900 0.008340 0.000000 0.000000 0.000000
# 4 0.000000 0.000000 0.000000 0.030800 0.000000 0.000000
# 5 0.000000 0.000000 0.000000 0.000000 0.124067 0.000000
# 6 0.000000 0.000000 0.000000 0.000000 0.000000 0.039034
#
#
# Mechanical properties :
#
#
# Convention : Reuss Voigt Hill
#
# Bulk Modulus (GPa) = 68.86613 87.51341 78.18977
# Shear Modulus (GPa) = 18.40862 26.77850 22.59356
#
# Velocity S-wave (km/s) = 2.93949 3.54532 3.25652
# Velocity P-wave (km/s) = 6.62157 7.60500 7.13026
#
# Compressibility (1/GPa) = 0.01452093
#
# Stress axis : x y z
#
# Youngs Moduli (GPa) = 95.14612 40.24838 119.90239
#
# Poissons Ratio (x) = 0.30622 0.24937
# Poissons Ratio (y) = 0.72389 0.58747
# Poissons Ratio (z) = 0.19788 0.19720
#
# Static dielectric constant tensor:
#      x y z
#    x 1.649570 0.000000 0.000000 
#    y 0.000000 1.775030 0.000000 
#    z 0.000000 0.000000 1.572700 
# 
# From -- ./inp_files/29451.got.cif
#   From: 2010.05.17/outbox.cif.g08.bks.cpg/sg58_15_cif.got.tgz:29451.got - 2010.06.03 14:20:14.
