data_PCOD9445687
_publ_section_title
;
Structure prediction by ZEFSAII (Michael W. Deem and Ramdas Pophale) SiO2 
 PCOD9445687
Probable space group: P N N M
;
_chemical_formula_sum "Si O2"
_cell_formula_units_Z 32
_cell_length_a 9.668797
_cell_length_b 5.058910
_cell_length_c 30.449155
_cell_angle_alpha 90.000000
_cell_angle_beta 90.000000
_cell_angle_gamma 90.000000
_cell_volume 1489.376991
_symmetry_space_group_name_H-M "P N N M"
_symmetry_group_IT_number 58
_symmetry_cell_setting 'orthorhombic'
loop_
_space_group_symop_operation_xyz
x,y,z
-x,-y,z
1/2+x,1/2-y,1/2-z
1/2-x,1/2+y,1/2-z
-x,-y,-z
x,y,-z
1/2-x,1/2+y,1/2+z
1/2+x,1/2-y,1/2+z
loop_
_atom_site_type_symbol
_atom_site_label
_atom_site_fract_x
_atom_site_fract_y
_atom_site_fract_z
Si Si1 0.835062 0.991786 0.267873
Si Si2 0.247616 0.971614 0.923446
Si Si3 0.377993 0.701119 0.000000
Si Si4 0.623368 0.207943 0.500000
Si Si5 0.836488 0.019054 0.372963
O O1 0.747599 0.241037 0.250765
O O2 0.829504 0.987675 0.320781
O O3 0.000000 0.000000 0.255765
O O4 0.289071 0.195746 0.889379
O O5 0.364382 0.886378 0.958149
O O6 0.237644 0.699499 0.896073
O O7 0.137731 0.105429 0.956972
O O8 0.500000 0.500000 0.000000
O O9 0.250166 0.497085 0.000000
O O10 0.500000 0.000000 0.500000
O O11 0.000000 0.000000 0.385325
#
# Coordination Sequence:
#
# PCOD9445687 Si02
#       5
#     8   8   4   4   8
#     4  11  24  46  75 105 143 184 230 286 360 433
#     4  11  23  40  64  93 131 171 229 278 332 393
#     4  11  24  40  66  97 126 175 227 283 326 392
#     4  11  26  44  63  90 138 189 225 271 346 410
#     4  11  23  40  68 102 133 170 222 288 344 403
#
# _framework density 21.485493999999999
#
# number of rings (size 3 to 8) (size 9 to 14) (size 15 to 20)
#    0.000    1.000    2.500    3.750    3.500    7.000 
#    0.000    6.875    0.000    0.000    0.000    0.000 
#    0.000    0.000    0.000    0.000    0.000    0.000 
#
# Total GULP energy -178689.962313 kJ/mol
# GULP energy per Si atom -5584.061322 kJ/mol
# Density = 2.143659 g / cm^3
# Si number density = 21.485494 Si / 1000 Ang^3
#
#
#
# Elastic Constant Matrix: (Units=GPa)
#
#
# Indices 1 2 3 4 5 6 
#
# 1 156.6867 64.1834 38.3282 0.0000 0.0000 0.0000
# 2 64.1834 172.5829 32.1835 0.0000 0.0000 0.0000
# 3 38.3282 32.1835 91.8932 0.0000 0.0000 0.0000
# 4 0.0000 0.0000 0.0000 68.3254 0.0000 0.0000
# 5 0.0000 0.0000 0.0000 0.0000 129.6570 0.0000
# 6 0.0000 0.0000 0.0000 0.0000 0.0000 44.3295
#
#
#
# Elastic Compliance Matrix: (Units=1/GPa)
#
#
# Indices 1 2 3 4 5 6 
#
# 1 0.008017 -0.002523 -0.002460 0.000000 0.000000 0.000000
# 2 -0.002523 0.006993 -0.001397 0.000000 0.000000 0.000000
# 3 -0.002460 -0.001397 0.012398 0.000000 0.000000 0.000000
# 4 0.000000 0.000000 0.000000 0.014636 0.000000 0.000000
# 5 0.000000 0.000000 0.000000 0.000000 0.007713 0.000000
# 6 0.000000 0.000000 0.000000 0.000000 0.000000 0.022558
#
#
# Mechanical properties :
#
#
# Convention : Reuss Voigt Hill
#
# Bulk Modulus (GPa) = 68.26978 76.72811 72.49895
# Shear Modulus (GPa) = 55.58143 67.56021 61.57082
#
# Velocity S-wave (km/s) = 5.09170 5.61363 5.35902
# Velocity P-wave (km/s) = 8.14930 8.82078 8.49168
#
# Compressibility (1/GPa) = 0.01464777
#
# Stress axis : x y z
#
# Youngs Moduli (GPa) = 124.72759 142.99896 80.66022
#
# Poissons Ratio (x) = 0.36077 0.19846
# Poissons Ratio (y) = 0.31467 0.11267
# Poissons Ratio (z) = 0.30689 0.19975
#
# Static dielectric constant tensor:
#      x y z
#    x 1.815640 0.000000 0.000000 
#    y 0.000000 1.767240 0.000000 
#    z 0.000000 0.000000 1.786160 
# 
# From -- ./inp_files/34391.got.cif
#   From: 2010.05.17/outbox.cif.g08.bks.cpg/sg58_18_cif.got.tgz:34391.got - 2010.06.03 14:20:14.
