data_PCOD9445405
_publ_section_title
;
Structure prediction by ZEFSAII (Michael W. Deem and Ramdas Pophale) SiO2 
 PCOD9445405
Probable space group: P N N M
;
_chemical_formula_sum "Si O2"
_cell_formula_units_Z 48
_cell_length_a 30.874241
_cell_length_b 9.612568
_cell_length_c 7.905588
_cell_angle_alpha 90.000000
_cell_angle_beta 90.000000
_cell_angle_gamma 90.000000
_cell_volume 2346.226265
_symmetry_space_group_name_H-M "P N N M"
_symmetry_group_IT_number 58
_symmetry_cell_setting 'orthorhombic'
loop_
_space_group_symop_operation_xyz
x,y,z
-x,-y,z
1/2+x,1/2-y,1/2-z
1/2-x,1/2+y,1/2-z
-x,-y,-z
x,y,-z
1/2-x,1/2+y,1/2+z
1/2+x,1/2-y,1/2+z
loop_
_atom_site_type_symbol
_atom_site_label
_atom_site_fract_x
_atom_site_fract_y
_atom_site_fract_z
Si Si1 0.630134 0.052099 0.302847
Si Si2 0.795606 0.350707 0.697790
Si Si3 0.564939 0.396651 0.500000
Si Si4 0.530341 0.709975 0.500000
Si Si5 0.043638 0.589510 0.308934
Si Si6 0.369295 0.648315 0.804942
Si Si7 0.214853 0.964868 0.703069
O O1 0.621937 0.079212 0.500000
O O2 0.664832 0.929472 0.285553
O O3 0.585433 0.007481 0.216102
O O4 0.647356 0.193611 0.218821
O O5 0.807007 0.338628 0.500000
O O6 0.753195 0.445355 0.717626
O O7 0.786847 0.194746 0.762305
O O8 0.550050 0.556634 0.500000
O O9 0.521703 0.303992 0.500000
O O10 0.592892 0.369576 0.668237
O O11 0.544820 0.793623 0.334233
O O12 0.043644 0.646317 0.500000
O O13 0.000000 0.500000 0.286096
O O14 0.330725 0.541214 0.766464
O O15 0.383087 0.628803 0.000000
O O16 0.222331 0.964145 0.500000
#
# Coordination Sequence:
#
# PCOD9445405 Si02
#       7
#     8   8   4   4   8   8   8
#     4  12  24  41  67  98 134 173 226 282 335 404
#     4  11  24  41  65  96 132 173 223 275 333 400
#     4  11  26  44  68 100 136 183 228 279 345 407
#     4  11  25  44  66 100 141 174 231 286 341 408
#     4  11  24  42  69  99 134 178 229 283 344 405
#     4  11  24  44  69  96 136 180 227 277 339 402
#     4  10  24  43  63  93 132 174 221 275 333 400
#
# _framework density 20.458383000000001
#
# number of rings (size 3 to 8) (size 9 to 14) (size 15 to 20)
#    0.000    1.000    1.667    4.250    3.500    6.667 
#    0.000    1.667    0.000    0.000    0.000    0.000 
#    0.000    0.000    0.000    0.000    0.000    0.000 
#
# Total GULP energy -268590.837193 kJ/mol
# GULP energy per Si atom -5595.642442 kJ/mol
# Density = 2.041182 g / cm^3
# Si number density = 20.458383 Si / 1000 Ang^3
#
#
#
# Elastic Constant Matrix: (Units=GPa)
#
#
# Indices 1 2 3 4 5 6 
#
# 1 79.3381 48.8440 22.1005 0.0000 0.0000 0.0000
# 2 48.8440 138.2760 31.5030 0.0000 0.0000 0.0000
# 3 22.1005 31.5030 95.6833 0.0000 0.0000 0.0000
# 4 0.0000 0.0000 0.0000 15.1402 0.0000 0.0000
# 5 0.0000 0.0000 0.0000 0.0000 30.0972 0.0000
# 6 0.0000 0.0000 0.0000 0.0000 0.0000 28.7038
#
#
#
# Elastic Compliance Matrix: (Units=1/GPa)
#
#
# Indices 1 2 3 4 5 6 
#
# 1 0.016468 -0.005352 -0.002042 0.000000 0.000000 0.000000
# 2 -0.005352 0.009558 -0.001911 0.000000 0.000000 0.000000
# 3 -0.002042 -0.001911 0.011552 0.000000 0.000000 0.000000
# 4 0.000000 0.000000 0.000000 0.066049 0.000000 0.000000
# 5 0.000000 0.000000 0.000000 0.000000 0.033226 0.000000
# 6 0.000000 0.000000 0.000000 0.000000 0.000000 0.034839
#
#
# Mechanical properties :
#
#
# Convention : Reuss Voigt Hill
#
# Bulk Modulus (GPa) = 52.71751 57.57696 55.14723
# Shear Modulus (GPa) = 25.42949 28.84491 27.13720
#
# Velocity S-wave (km/s) = 3.52943 3.75898 3.64601
# Velocity P-wave (km/s) = 6.51408 6.85889 6.68871
#
# Compressibility (1/GPa) = 0.01896903
#
# Stress axis : x y z
#
# Youngs Moduli (GPa) = 60.72432 104.62778 86.56678
#
# Poissons Ratio (x) = 0.55996 0.17674
# Poissons Ratio (y) = 0.32499 0.16540
# Poissons Ratio (z) = 0.12398 0.19991
#
# Static dielectric constant tensor:
#      x y z
#    x 1.687110 0.000000 0.000000 
#    y 0.000000 1.720190 0.000000 
#    z 0.000000 0.000000 1.720000 
# 
# From -- ./inp_files/10764.got.cif
#   From: 2010.05.17/outbox.cif.g08.bks.cpg/sg58_6_cif.got.tgz:10764.got - 2010.06.03 14:20:14.
