data_PCOD9445069
_publ_section_title
;
Structure prediction by ZEFSAII (Michael W. Deem and Ramdas Pophale) SiO2 
 PCOD9445069
Probable space group: P N N M
;
_chemical_formula_sum "Si O2"
_cell_formula_units_Z 34
_cell_length_a 10.312184
_cell_length_b 18.656481
_cell_length_c 7.502601
_cell_angle_alpha 90.000000
_cell_angle_beta 90.000000
_cell_angle_gamma 90.000000
_cell_volume 1443.418390
_symmetry_space_group_name_H-M "P N N M"
_symmetry_group_IT_number 58
_symmetry_cell_setting 'orthorhombic'
loop_
_space_group_symop_operation_xyz
x,y,z
-x,-y,z
1/2+x,1/2-y,1/2-z
1/2-x,1/2+y,1/2-z
-x,-y,-z
x,y,-z
1/2-x,1/2+y,1/2+z
1/2+x,1/2-y,1/2+z
loop_
_atom_site_type_symbol
_atom_site_label
_atom_site_fract_x
_atom_site_fract_y
_atom_site_fract_z
Si Si1 0.678334 0.346345 0.217017
Si Si2 0.933622 0.426879 0.792279
Si Si3 0.661477 0.181740 0.785555
Si Si4 0.500000 0.500000 0.500000
Si Si5 0.595234 0.584658 0.795091
O O1 0.677607 0.263617 0.275489
O O2 0.537875 0.377104 0.265662
O O3 0.800158 0.393186 0.281824
O O4 0.683877 0.346174 0.000000
O O5 0.037512 0.362331 0.782015
O O6 0.000000 0.500000 0.717687
O O7 0.905704 0.443941 0.000000
O O8 0.787317 0.138591 0.725972
O O9 0.653909 0.182190 0.000000
O O10 0.605542 0.521035 0.656847
O O11 0.588074 0.562234 0.000000
#
# Coordination Sequence:
#
# PCOD9445069 Si02
#       5
#     8   8   8   2   8
#     4   9  21  41  66  95 134 176 222 275 331 398
#     4  10  22  40  63  92 127 170 218 272 334 390
#     4  11  22  41  64  98 135 173 224 274 326 404
#     4  12  26  44  64 104 136 168 232 274 332 402
#     4  11  24  44  69  97 134 179 222 275 337 398
#
# _framework density 23.555192999999999
#
# number of rings (size 3 to 8) (size 9 to 14) (size 15 to 20)
#    0.000    1.647    1.176    2.471    3.294    0.471 
#    6.353    0.000    0.000    0.000    0.000    0.000 
#    0.000    0.000    0.000    0.000    0.000    0.000 
#
# Total GULP energy -189655.654079 kJ/mol
# GULP energy per Si atom -5578.107473 kJ/mol
# Density = 2.350158 g / cm^3
# Si number density = 23.555193 Si / 1000 Ang^3
#
#
#
# Elastic Constant Matrix: (Units=GPa)
#
#
# Indices 1 2 3 4 5 6 
#
# 1 165.6385 47.4913 -12.4132 0.0000 0.0000 0.0000
# 2 47.4913 102.1985 4.2069 0.0000 0.0000 0.0000
# 3 -12.4132 4.2069 91.8117 0.0000 0.0000 0.0000
# 4 0.0000 0.0000 0.0000 -12.3695 0.0000 0.0000
# 5 0.0000 0.0000 0.0000 0.0000 11.6258 0.0000
# 6 0.0000 0.0000 0.0000 0.0000 0.0000 47.8359
#
#
#
# Elastic Compliance Matrix: (Units=1/GPa)
#
#
# Indices 1 2 3 4 5 6 
#
# 1 0.007076 -0.003334 0.001110 0.000000 0.000000 0.000000
# 2 -0.003334 0.011374 -0.000972 0.000000 0.000000 0.000000
# 3 0.001110 -0.000972 0.011086 0.000000 0.000000 0.000000
# 4 0.000000 0.000000 0.000000 -0.080844 0.000000 0.000000
# 5 0.000000 0.000000 0.000000 0.000000 0.086015 0.000000
# 6 0.000000 0.000000 0.000000 0.000000 0.000000 0.020905
#
#
# Mechanical properties :
#
#
# Convention : Reuss Voigt Hill
#
# Bulk Modulus (GPa) = 43.20771 48.69095 45.94933
# Shear Modulus (GPa) = 71.71444 30.77601 51.24523
#
# Velocity S-wave (km/s) = 5.52371 3.61854 4.66933
# Velocity P-wave (km/s) = 7.68536 6.17854 6.97277
#
# Compressibility (1/GPa) = 0.02314402
#
# Stress axis : x y z
#
# Youngs Moduli (GPa) = 141.31667 87.91833 90.20057
#
# Poissons Ratio (x) = 0.29312 -0.10008
# Poissons Ratio (y) = 0.47115 0.08767
# Poissons Ratio (z) = -0.15679 0.08545
#
# Static dielectric constant tensor:
#      x y z
#    x 1.984820 0.000000 0.000000 
#    y 0.000000 1.830440 0.000000 
#    z 0.000000 0.000000 1.812160 
# 
# From -- ./inp_files/2248.got.cif
#   From: 2010.05.17/outbox.cif.g08.bks.cpg/sg58_2_cif.got.tgz:2248.got - 2010.06.03 14:20:14.
