data_PCOD9445228
_publ_section_title
;
Structure prediction by ZEFSAII (Michael W. Deem and Ramdas Pophale) SiO2 
 PCOD9445228
Probable space group: P N N M
;
_chemical_formula_sum "Si O2"
_cell_formula_units_Z 48
_cell_length_a 8.231975
_cell_length_b 15.406502
_cell_length_c 17.975375
_cell_angle_alpha 90.000000
_cell_angle_beta 90.000000
_cell_angle_gamma 90.000000
_cell_volume 2279.743819
_symmetry_space_group_name_H-M "P N N M"
_symmetry_group_IT_number 58
_symmetry_cell_setting 'orthorhombic'
loop_
_space_group_symop_operation_xyz
x,y,z
-x,-y,z
1/2+x,1/2-y,1/2-z
1/2-x,1/2+y,1/2-z
-x,-y,-z
x,y,-z
1/2-x,1/2+y,1/2+z
1/2+x,1/2-y,1/2+z
loop_
_atom_site_type_symbol
_atom_site_label
_atom_site_fract_x
_atom_site_fract_y
_atom_site_fract_z
Si Si1 0.888844 0.120768 0.913574
Si Si2 0.358043 0.855011 0.675203
Si Si3 0.518640 0.602917 0.852767
Si Si4 0.812904 0.318145 0.086063
Si Si5 0.631854 0.341093 0.705529
Si Si6 0.673101 0.006745 0.807680
O O1 0.800250 0.213868 0.905611
O O2 0.062162 0.140732 0.876355
O O3 0.801600 0.049168 0.863462
O O4 0.897690 0.097654 0.000000
O O5 0.532291 0.850547 0.634115
O O6 0.331084 0.760068 0.711745
O O7 0.199942 0.870449 0.622846
O O8 0.350656 0.931055 0.736335
O O9 0.500000 0.500000 0.855138
O O10 0.361010 0.642663 0.892220
O O11 0.501312 0.634451 0.767242
O O12 0.847935 0.337163 0.000000
O O13 0.772459 0.411016 0.717327
O O14 0.500000 0.000000 0.846928
#
# Coordination Sequence:
#
# PCOD9445228 Si02
#       6
#     8   8   8   8   8   8
#     4  10  22  44  66  92 134 174 212 269 331 390
#     4  11  25  42  68  98 136 175 220 274 328 387
#     4  12  23  41  68  97 131 173 223 274 324 387
#     4  10  25  46  68  96 133 175 220 273 335 392
#     4  11  23  41  65  98 130 173 223 266 325 393
#     4  12  24  38  65 100 133 169 219 271 323 392
#
# _framework density 21.054997
#
# number of rings (size 3 to 8) (size 9 to 14) (size 15 to 20)
#    0.000    1.000    3.333    2.500    7.000    2.667 
#    0.000    0.833    0.000    0.000    0.000    0.000 
#    0.000    0.000    0.000    0.000    0.000    0.000 
#
# Total GULP energy -268232.101611 kJ/mol
# GULP energy per Si atom -5588.168784 kJ/mol
# Density = 2.100708 g / cm^3
# Si number density = 21.054997 Si / 1000 Ang^3
#
#
#
# Elastic Constant Matrix: (Units=GPa)
#
#
# Indices 1 2 3 4 5 6 
#
# 1 86.7165 36.2316 7.0180 0.0000 0.0000 0.0000
# 2 36.2316 127.1275 22.4570 0.0000 0.0000 0.0000
# 3 7.0180 22.4570 76.2391 0.0000 0.0000 0.0000
# 4 0.0000 0.0000 0.0000 11.6469 0.0000 0.0000
# 5 0.0000 0.0000 0.0000 0.0000 21.1441 0.0000
# 6 0.0000 0.0000 0.0000 0.0000 0.0000 43.0546
#
#
#
# Elastic Compliance Matrix: (Units=1/GPa)
#
#
# Indices 1 2 3 4 5 6 
#
# 1 0.013092 -0.003711 -0.000112 0.000000 0.000000 0.000000
# 2 -0.003711 0.009350 -0.002413 0.000000 0.000000 0.000000
# 3 -0.000112 -0.002413 0.013838 0.000000 0.000000 0.000000
# 4 0.000000 0.000000 0.000000 0.085860 0.000000 0.000000
# 5 0.000000 0.000000 0.000000 0.000000 0.047294 0.000000
# 6 0.000000 0.000000 0.000000 0.000000 0.000000 0.023226
#
#
# Mechanical properties :
#
#
# Convention : Reuss Voigt Hill
#
# Bulk Modulus (GPa) = 42.00333 46.83291 44.41812
# Shear Modulus (GPa) = 23.46682 30.12758 26.79720
#
# Velocity S-wave (km/s) = 3.34211 3.78683 3.57140
# Velocity P-wave (km/s) = 5.90640 6.43518 6.17645
#
# Compressibility (1/GPa) = 0.02380764
#
# Stress axis : x y z
#
# Youngs Moduli (GPa) = 76.38514 106.95157 72.26710
#
# Poissons Ratio (x) = 0.39694 0.00809
# Poissons Ratio (y) = 0.28349 0.17434
# Poissons Ratio (z) = 0.00855 0.25802
#
# Static dielectric constant tensor:
#      x y z
#    x 1.815590 0.000000 0.000000 
#    y 0.000000 1.773240 0.000000 
#    z 0.000000 0.000000 1.754740 
# 
# From -- ./inp_files/25300.got.cif
#   From: 2010.05.17/outbox.cif.g08.bks.cpg/sg58_13_cif.got.tgz:25300.got - 2010.06.03 14:20:14.
