data_PCOD9445764
_publ_section_title
;
Structure prediction by ZEFSAII (Michael W. Deem and Ramdas Pophale) SiO2 
 PCOD9445764
Probable space group: P N N M
;
_chemical_formula_sum "Si O2"
_cell_formula_units_Z 56
_cell_length_a 19.228622
_cell_length_b 8.972781
_cell_length_c 13.734393
_cell_angle_alpha 90.000000
_cell_angle_beta 90.000000
_cell_angle_gamma 90.000000
_cell_volume 2369.652703
_symmetry_space_group_name_H-M "P N N M"
_symmetry_group_IT_number 58
_symmetry_cell_setting 'orthorhombic'
loop_
_space_group_symop_operation_xyz
x,y,z
-x,-y,z
1/2+x,1/2-y,1/2-z
1/2-x,1/2+y,1/2-z
-x,-y,-z
x,y,-z
1/2-x,1/2+y,1/2+z
1/2+x,1/2-y,1/2+z
loop_
_atom_site_type_symbol
_atom_site_label
_atom_site_fract_x
_atom_site_fract_y
_atom_site_fract_z
Si Si1 0.227769 0.686732 0.382050
Si Si2 0.411924 0.403748 0.603103
Si Si3 0.088943 0.847157 0.689028
Si Si4 0.035390 0.340624 0.312747
Si Si5 0.856165 0.852852 0.390082
Si Si6 0.388898 0.758174 0.611442
Si Si7 0.250271 0.853300 0.112816
O O1 0.217121 0.686634 0.500000
O O2 0.162532 0.769208 0.333202
O O3 0.304951 0.758089 0.369705
O O4 0.230037 0.514873 0.346697
O O5 0.442898 0.356706 0.500000
O O6 0.440267 0.337028 0.701013
O O7 0.409498 0.582505 0.607198
O O8 0.332275 0.352070 0.608532
O O9 0.023923 0.768556 0.640174
O O10 0.104271 0.019511 0.668339
O O11 0.000000 0.500000 0.317957
O O12 0.100897 0.299604 0.379758
O O13 0.069378 0.325397 0.203116
O O14 0.850328 0.909968 0.500000
O O15 0.782350 0.799690 0.347339
O O16 0.399958 0.817368 0.500000
O O17 0.273314 0.851913 0.000000
#
# Coordination Sequence:
#
# PCOD9445764 Si02
#       7
#     8   8   8   8   8   8   8
#     4   9  19  39  67  98 129 169 215 263 327 391
#     4   9  19  37  63  95 126 163 210 258 320 387
#     4  12  24  38  64  96 129 168 215 277 327 390
#     4  12  27  44  61  94 131 173 229 265 332 396
#     4  11  24  42  64  93 132 170 212 269 328 394
#     4   9  20  43  70  94 131 174 218 272 326 389
#     4   8  17  36  61  91 125 162 203 251 314 387
#
# _framework density 23.632155000000001
#
# number of rings (size 3 to 8) (size 9 to 14) (size 15 to 20)
#    0.000    2.000    1.429    3.429    2.000    2.857 
#    2.571    1.429    0.000    0.000    0.000    0.000 
#    0.000    0.000    0.000    0.000    0.000    0.000 
#
# Total GULP energy -312324.152645 kJ/mol
# GULP energy per Si atom -5577.217012 kJ/mol
# Density = 2.357837 g / cm^3
# Si number density = 23.632155 Si / 1000 Ang^3
#
#
#
# Elastic Constant Matrix: (Units=GPa)
#
#
# Indices 1 2 3 4 5 6 
#
# 1 115.8020 35.2114 4.1987 0.0000 0.0000 0.0000
# 2 35.2114 42.9349 9.1574 0.0000 0.0000 0.0000
# 3 4.1987 9.1574 89.8855 0.0000 0.0000 0.0000
# 4 0.0000 0.0000 0.0000 16.5778 0.0000 0.0000
# 5 0.0000 0.0000 0.0000 0.0000 41.9213 0.0000
# 6 0.0000 0.0000 0.0000 0.0000 0.0000 23.2312
#
#
#
# Elastic Compliance Matrix: (Units=1/GPa)
#
#
# Indices 1 2 3 4 5 6 
#
# 1 0.011521 -0.009541 0.000434 0.000000 0.000000 0.000000
# 2 -0.009541 0.031710 -0.002785 0.000000 0.000000 0.000000
# 3 0.000434 -0.002785 0.011389 0.000000 0.000000 0.000000
# 4 0.000000 0.000000 0.000000 0.060321 0.000000 0.000000
# 5 0.000000 0.000000 0.000000 0.000000 0.023854 0.000000
# 6 0.000000 0.000000 0.000000 0.000000 0.000000 0.043046
#
#
# Mechanical properties :
#
#
# Convention : Reuss Voigt Hill
#
# Bulk Modulus (GPa) = 32.43025 38.41748 35.42387
# Shear Modulus (GPa) = 23.15861 29.68307 26.42084
#
# Velocity S-wave (km/s) = 3.13383 3.54792 3.34728
# Velocity P-wave (km/s) = 5.18143 5.75112 5.47369
#
# Compressibility (1/GPa) = 0.03083541
#
# Stress axis : x y z
#
# Youngs Moduli (GPa) = 86.80001 31.53619 87.80627
#
# Poissons Ratio (x) = 0.30088 -0.03809
# Poissons Ratio (y) = 0.82814 0.24453
# Poissons Ratio (z) = -0.03766 0.08782
#
# Static dielectric constant tensor:
#      x y z
#    x 1.903220 0.000000 0.000000 
#    y 0.000000 1.894500 0.000000 
#    z 0.000000 0.000000 1.984550 
# 
# From -- ./inp_files/20144.got.cif
#   From: 2010.05.17/outbox.cif.g08.bks.cpg/sg58_11_cif.got.tgz:20144.got - 2010.06.03 14:20:14.
