data_PCOD9445009
_publ_section_title
;
Structure prediction by ZEFSAII (Michael W. Deem and Ramdas Pophale) SiO2 
 PCOD9445009
Probable space group: P N N M
;
_chemical_formula_sum "Si O2"
_cell_formula_units_Z 64
_cell_length_a 8.744346
_cell_length_b 22.579869
_cell_length_c 14.055775
_cell_angle_alpha 90.000000
_cell_angle_beta 90.000000
_cell_angle_gamma 90.000000
_cell_volume 2775.259181
_symmetry_space_group_name_H-M "P N N M"
_symmetry_group_IT_number 58
_symmetry_cell_setting 'orthorhombic'
loop_
_space_group_symop_operation_xyz
x,y,z
-x,-y,z
1/2+x,1/2-y,1/2-z
1/2-x,1/2+y,1/2-z
-x,-y,-z
x,y,-z
1/2-x,1/2+y,1/2+z
1/2+x,1/2-y,1/2+z
loop_
_atom_site_type_symbol
_atom_site_label
_atom_site_fract_x
_atom_site_fract_y
_atom_site_fract_z
Si Si1 0.124883 0.757287 0.790594
Si Si2 0.955779 0.117372 0.199094
Si Si3 0.663102 0.591600 0.894826
Si Si4 0.658410 0.971491 0.388097
Si Si5 0.769380 0.359127 0.237884
Si Si6 0.061518 0.593726 0.609628
Si Si7 0.688790 0.212540 0.612250
Si Si8 0.252266 0.477309 0.608263
O O1 0.141022 0.824533 0.829474
O O2 0.237706 0.703285 0.816278
O O3 0.167840 0.766696 0.678074
O O4 0.962191 0.735241 0.832898
O O5 0.950193 0.109082 0.312484
O O6 0.888839 0.056930 0.158997
O O7 0.131447 0.133517 0.186856
O O8 0.722336 0.525355 0.879599
O O9 0.799075 0.640395 0.888253
O O10 0.596259 0.596173 0.000000
O O11 0.637849 0.958247 0.500000
O O12 0.707971 0.913464 0.332837
O O13 0.500000 0.000000 0.351240
O O14 0.916285 0.358847 0.308034
O O15 0.092605 0.611097 0.500000
O O16 0.177265 0.539554 0.637447
O O17 0.892471 0.566799 0.612363
O O18 0.692558 0.230362 0.500000
O O19 0.299852 0.485679 0.500000
#
# Coordination Sequence:
#
# PCOD9445009 Si02
#       8
#     8   8   8   8   8   8   8   8
#     4  11  24  44  64  93 133 172 230 280 332 410
#     4  11  24  40  61  94 127 165 214 271 327 386
#     4   9  20  39  64  89 127 173 207 259 331 396
#     4  10  22  39  62  97 130 163 212 261 319 393
#     4  12  25  38  65  96 126 168 213 275 326 388
#     4   9  21  39  62  92 125 167 215 260 317 391
#     4  10  22  44  71  95 132 180 226 282 340 400
#     4   9  20  40  63  90 126 168 212 260 319 393
#
# _framework density 23.060908000000001
#
# number of rings (size 3 to 8) (size 9 to 14) (size 15 to 20)
#    0.000    1.875    1.250    2.250    7.000    5.500 
#    0.000    3.125    0.000    0.000    0.000    0.000 
#    0.000    0.000    0.000    0.000    0.000    0.000 
#
# Total GULP energy -356894.529842 kJ/mol
# GULP energy per Si atom -5576.477029 kJ/mol
# Density = 2.300842 g / cm^3
# Si number density = 23.060908 Si / 1000 Ang^3
#
#
#
# Elastic Constant Matrix: (Units=GPa)
#
#
# Indices 1 2 3 4 5 6 
#
# 1 49.0118 21.5300 17.0369 0.0000 0.0000 0.0000
# 2 21.5300 124.4193 38.2024 0.0000 0.0000 0.0000
# 3 17.0369 38.2024 73.6482 0.0000 0.0000 0.0000
# 4 0.0000 0.0000 0.0000 8.7887 0.0000 0.0000
# 5 0.0000 0.0000 0.0000 0.0000 1.5573 0.0000
# 6 0.0000 0.0000 0.0000 0.0000 0.0000 27.0705
#
#
#
# Elastic Compliance Matrix: (Units=1/GPa)
#
#
# Indices 1 2 3 4 5 6 
#
# 1 0.022972 -0.002788 -0.003868 0.000000 0.000000 0.000000
# 2 -0.002788 0.009898 -0.004490 0.000000 0.000000 0.000000
# 3 -0.003868 -0.004490 0.016802 0.000000 0.000000 0.000000
# 4 0.000000 0.000000 0.000000 0.113782 0.000000 0.000000
# 5 0.000000 0.000000 0.000000 0.000000 0.642156 0.000000
# 6 0.000000 0.000000 0.000000 0.000000 0.000000 0.036941
#
#
# Mechanical properties :
#
#
# Convention : Reuss Voigt Hill
#
# Bulk Modulus (GPa) = 36.52070 44.51310 40.51690
# Shear Modulus (GPa) = 5.72103 18.83730 12.27916
#
# Velocity S-wave (km/s) = 1.57677 2.86116 2.31003
# Velocity P-wave (km/s) = 4.38018 5.50084 4.97219
#
# Compressibility (1/GPa) = 0.02738173
#
# Stress axis : x y z
#
# Youngs Moduli (GPa) = 43.53059 101.02863 59.51793
#
# Poissons Ratio (x) = 0.28162 0.23023
# Poissons Ratio (y) = 0.12134 0.26721
# Poissons Ratio (z) = 0.16839 0.45357
#
# Static dielectric constant tensor:
#      x y z
#    x 1.935120 0.000000 0.000000 
#    y 0.000000 1.918360 0.000000 
#    z 0.000000 0.000000 1.851060 
# 
# From -- ./inp_files/20288.got.cif
#   From: 2010.05.17/outbox.cif.g08.bks.cpg/sg58_11_cif.got.tgz:20288.got - 2010.06.03 14:20:14.
