data_PCOD9445384
_publ_section_title
;
Structure prediction by ZEFSAII (Michael W. Deem and Ramdas Pophale) SiO2 
 PCOD9445384
Probable space group: P N N M
;
_chemical_formula_sum "Si O2"
_cell_formula_units_Z 38
_cell_length_a 7.647308
_cell_length_b 13.956318
_cell_length_c 17.959119
_cell_angle_alpha 90.000000
_cell_angle_beta 90.000000
_cell_angle_gamma 90.000000
_cell_volume 1916.745563
_symmetry_space_group_name_H-M "P N N M"
_symmetry_group_IT_number 58
_symmetry_cell_setting 'orthorhombic'
loop_
_space_group_symop_operation_xyz
x,y,z
-x,-y,z
1/2+x,1/2-y,1/2-z
1/2-x,1/2+y,1/2-z
-x,-y,-z
x,y,-z
1/2-x,1/2+y,1/2+z
1/2+x,1/2-y,1/2+z
loop_
_atom_site_type_symbol
_atom_site_label
_atom_site_fract_x
_atom_site_fract_y
_atom_site_fract_z
Si Si1 0.288353 0.376209 0.250028
Si Si2 0.794232 0.969489 0.870711
Si Si3 0.560976 0.164230 0.500000
Si Si4 0.500000 0.000000 0.000000
Si Si5 0.065645 0.233946 0.842896
Si Si6 0.738315 0.477759 0.000000
Si Si7 0.500000 0.500000 0.865248
O O1 0.237330 0.466270 0.300530
O O2 0.139634 0.318722 0.207801
O O3 0.389445 0.304938 0.305607
O O4 0.417819 0.419353 0.187485
O O5 0.807213 0.858309 0.847552
O O6 0.000000 0.000000 0.888323
O O7 0.654866 0.986622 0.935438
O O8 0.549462 0.227621 0.573509
O O9 0.405679 0.088228 0.500000
O O10 0.727216 0.092611 0.500000
O O11 0.638908 0.456840 0.923258
#
# Coordination Sequence:
#
# PCOD9445384 Si02
#       7
#     8   8   4   2   8   4   4
#     4  11  24  43  68  98 134 180 225 285 338 393
#     4  10  24  47  66  99 143 179 225 291 340 393
#     4  11  23  41  62 101 132 169 222 273 329 404
#     4  12  24  42  74  98 132 192 228 262 344 430
#     4  11  24  43  67  97 134 179 225 280 336 408
#     4  10  24  40  68  94 130 180 209 274 342 399
#     4  11  20  48  66  91 138 172 216 273 344 390
#
# _framework density 19.82527
#
# number of rings (size 3 to 8) (size 9 to 14) (size 15 to 20)
#    0.000    1.263    5.263    0.947    5.895    2.526 
#    0.000    4.211    0.000    0.000    0.000    0.000 
#    0.000    0.000    0.000    0.000    0.000    0.000 
#
# Total GULP energy -211581.849508 kJ/mol
# GULP energy per Si atom -5567.943408 kJ/mol
# Density = 1.978015 g / cm^3
# Si number density = 19.825270 Si / 1000 Ang^3
#
#
#
# Elastic Constant Matrix: (Units=GPa)
#
#
# Indices 1 2 3 4 5 6 
#
# 1 37.1993 8.1181 22.6988 0.0000 0.0000 0.0000
# 2 8.1181 89.5022 48.6958 0.0000 0.0000 0.0000
# 3 22.6988 48.6958 166.3518 0.0000 0.0000 0.0000
# 4 0.0000 0.0000 0.0000 8.6652 0.0000 0.0000
# 5 0.0000 0.0000 0.0000 0.0000 -0.1444 0.0000
# 6 0.0000 0.0000 0.0000 0.0000 0.0000 18.4551
#
#
#
# Elastic Compliance Matrix: (Units=1/GPa)
#
#
# Indices 1 2 3 4 5 6 
#
# 1 0.029349 -0.000575 -0.003836 0.000000 0.000000 0.000000
# 2 -0.000575 0.013301 -0.003815 0.000000 0.000000 0.000000
# 3 -0.003836 -0.003815 0.007652 0.000000 0.000000 0.000000
# 4 0.000000 0.000000 0.000000 0.115405 0.000000 0.000000
# 5 0.000000 0.000000 0.000000 0.000000 -6.924711 0.000000
# 6 0.000000 0.000000 0.000000 0.000000 0.000000 0.054186
#
#
# Mechanical properties :
#
#
# Convention : Reuss Voigt Hill
#
# Bulk Modulus (GPa) = 29.54335 50.23097 39.88716
# Shear Modulus (GPa) = -0.74883 19.63121 9.44119
#
# Velocity S-wave (km/s) = -0.61525 3.15018 2.18461
# Velocity P-wave (km/s) = 3.79862 6.21477 5.15038
#
# Compressibility (1/GPa) = 0.03384857
#
# Stress axis : x y z
#
# Youngs Moduli (GPa) = 34.07316 75.18398 130.69142
#
# Poissons Ratio (x) = 0.04321 0.50139
# Poissons Ratio (y) = 0.01958 0.49860
# Poissons Ratio (z) = 0.13072 0.28683
#
# Static dielectric constant tensor:
#      x y z
#    x 1.739530 0.000000 0.000000 
#    y 0.000000 1.693320 0.000000 
#    z 0.000000 0.000000 1.662150 
# 
# From -- ./inp_files/25006.got.cif
#   From: 2010.05.17/outbox.cif.g08.bks.cpg/sg58_13_cif.got.tgz:25006.got - 2010.06.03 14:20:14.
