data_PCOD9445248
_publ_section_title
;
Structure prediction by ZEFSAII (Michael W. Deem and Ramdas Pophale) SiO2 
 PCOD9445248
Probable space group: P N N M
;
_chemical_formula_sum "Si O2"
_cell_formula_units_Z 28
_cell_length_a 7.000885
_cell_length_b 7.807975
_cell_length_c 18.481132
_cell_angle_alpha 90.000000
_cell_angle_beta 90.000000
_cell_angle_gamma 90.000000
_cell_volume 1010.229222
_symmetry_space_group_name_H-M "P N N M"
_symmetry_group_IT_number 58
_symmetry_cell_setting 'orthorhombic'
loop_
_space_group_symop_operation_xyz
x,y,z
-x,-y,z
1/2+x,1/2-y,1/2-z
1/2-x,1/2+y,1/2-z
-x,-y,-z
x,y,-z
1/2-x,1/2+y,1/2+z
1/2+x,1/2-y,1/2+z
loop_
_atom_site_type_symbol
_atom_site_label
_atom_site_fract_x
_atom_site_fract_y
_atom_site_fract_z
Si Si1 0.463241 0.727048 0.000000
Si Si2 0.759063 0.641083 0.128522
Si Si3 0.619012 0.666351 0.604865
Si Si4 0.724010 0.966461 0.766069
O O1 0.613109 0.661016 0.936752
O O2 0.687185 0.198297 0.938281
O O3 0.718847 0.481601 0.181945
O O4 0.972615 0.676525 0.098479
O O5 0.749008 0.798844 0.185478
O O6 0.500000 0.500000 0.577626
O O7 0.671286 0.612753 0.686755
O O8 0.500000 0.000000 0.764917
#
# Coordination Sequence:
#
# PCOD9445248 Si02
#       4
#     4   8   8   8
#     4  12  23  45  70 114 150 194 242 321 365 435
#     4  11  25  44  76 108 150 196 248 309 368 449
#     4  10  23  38  69 109 146 188 247 304 367 429
#     4  11  22  45  73 110 144 194 247 307 366 439
#
# _framework density 27.716484000000001
#
# number of rings (size 3 to 8) (size 9 to 14) (size 15 to 20)
#    0.000    1.143    2.857    3.000    0.000    8.000 
#    5.143    0.714    0.000   10.286    0.000    0.000 
#    0.000    0.000    0.000    0.000    0.000    0.000 
#
# Total GULP energy -155971.905741 kJ/mol
# GULP energy per Si atom -5570.425205 kJ/mol
# Density = 2.765340 g / cm^3
# Si number density = 27.716484 Si / 1000 Ang^3
#
#
#
# Elastic Constant Matrix: (Units=GPa)
#
#
# Indices 1 2 3 4 5 6 
#
# 1 168.0091 18.1682 85.9213 0.0000 0.0000 0.0000
# 2 18.1682 138.2166 56.9558 0.0000 0.0000 0.0000
# 3 85.9213 56.9558 268.1637 0.0000 0.0000 0.0000
# 4 0.0000 0.0000 0.0000 -599.3196 0.0000 0.0000
# 5 0.0000 0.0000 0.0000 0.0000 122.3161 0.0000
# 6 0.0000 0.0000 0.0000 0.0000 0.0000 22.5503
#
#
#
# Elastic Compliance Matrix: (Units=1/GPa)
#
#
# Indices 1 2 3 4 5 6 
#
# 1 0.007118 0.000005 -0.002282 0.000000 0.000000 0.000000
# 2 0.000005 0.007929 -0.001686 0.000000 0.000000 0.000000
# 3 -0.002282 -0.001686 0.004818 0.000000 0.000000 0.000000
# 4 0.000000 0.000000 0.000000 -0.001669 0.000000 0.000000
# 5 0.000000 0.000000 0.000000 0.000000 0.008176 0.000000
# 6 0.000000 0.000000 0.000000 0.000000 0.000000 0.044345
#
#
# Mechanical properties :
#
#
# Convention : Reuss Voigt Hill
#
# Bulk Modulus (GPa) = 83.75096 99.60888 91.67992
# Shear Modulus (GPa) = 60.51549 -63.33435 -1.40943
#
# Velocity S-wave (km/s) = 4.67773 -4.78544 -0.71388
# Velocity P-wave (km/s) = 7.71087 2.34151 5.69825
#
# Compressibility (1/GPa) = 0.01194016
#
# Stress axis : x y z
#
# Youngs Moduli (GPa) = 140.47937 126.11961 207.54861
#
# Poissons Ratio (x) = -0.00058 0.47358
# Poissons Ratio (y) = -0.00064 0.34983
# Poissons Ratio (z) = 0.32054 0.21258
#
# Static dielectric constant tensor:
#      x y z
#    x 2.145950 0.000000 0.000000 
#    y 0.000000 2.412530 0.000000 
#    z 0.000000 0.000000 2.459470 
# 
# From -- ./inp_files/24796.got.cif
#   From: 2010.05.17/outbox.cif.g08.bks.cpg/sg58_13_cif.got.tgz:24796.got - 2010.06.03 14:20:14.
