data_PCOD9445097
_publ_section_title
;
Structure prediction by ZEFSAII (Michael W. Deem and Ramdas Pophale) SiO2 
 PCOD9445097
Probable space group: P N N M
;
_chemical_formula_sum "Si O2"
_cell_formula_units_Z 58
_cell_length_a 5.418884
_cell_length_b 27.846745
_cell_length_c 17.483855
_cell_angle_alpha 90.000000
_cell_angle_beta 90.000000
_cell_angle_gamma 90.000000
_cell_volume 2638.283664
_symmetry_space_group_name_H-M "P N N M"
_symmetry_group_IT_number 58
_symmetry_cell_setting 'orthorhombic'
loop_
_space_group_symop_operation_xyz
x,y,z
-x,-y,z
1/2+x,1/2-y,1/2-z
1/2-x,1/2+y,1/2-z
-x,-y,-z
x,y,-z
1/2-x,1/2+y,1/2+z
1/2+x,1/2-y,1/2+z
loop_
_atom_site_type_symbol
_atom_site_label
_atom_site_fract_x
_atom_site_fract_y
_atom_site_fract_z
Si Si1 0.979376 0.858282 0.080127
Si Si2 0.630257 0.930643 0.866997
Si Si3 0.637241 0.165237 0.804177
Si Si4 0.656721 0.171122 0.623011
Si Si5 0.393511 0.229558 0.918209
Si Si6 0.500000 0.000000 0.000000
Si Si7 0.166457 0.115538 0.413968
Si Si8 0.745981 0.971154 0.702076
O O1 0.867998 0.911037 0.087854
O O2 0.773564 0.817518 0.073608
O O3 0.099083 0.846238 0.160637
O O4 0.129811 0.855499 0.000000
O O5 0.507295 0.882248 0.833149
O O6 0.707123 0.959948 0.791952
O O7 0.477116 0.958975 0.930801
O O8 0.630113 0.169522 0.714364
O O9 0.559310 0.214558 0.846417
O O10 0.726073 0.224544 0.597231
O O11 0.396472 0.152614 0.590277
O O12 0.898106 0.139453 0.600617
O O13 0.525955 0.237387 0.000000
O O14 0.163639 0.094792 0.500000
O O15 0.223838 0.076413 0.348925
O O16 0.500000 0.000000 0.677303
O O17 0.000000 0.000000 0.692850
#
# Coordination Sequence:
#
# PCOD9445097 Si02
#       8
#     8   8   8   8   8   2   8   8
#     4  10  22  40  66  96 144 192 242 303 368 431
#     4  11  24  45  64 105 140 195 241 313 364 449
#     4  11  25  42  71  97 151 192 243 301 378 432
#     4  12  27  46  77 109 150 193 245 305 367 444
#     4  10  24  43  66 104 143 192 246 298 358 445
#     4  12  24  40  74 100 148 188 266 296 386 452
#     4  12  27  50  77 109 145 190 237 310 375 434
#     4  12  27  48  76 104 143 184 237 301 368 444
#
# _framework density 21.983988
#
# number of rings (size 3 to 8) (size 9 to 14) (size 15 to 20)
#    0.000    0.828    2.759    3.310    9.655    0.552 
#    0.000    1.034    0.000    0.000    0.000    0.000 
#    0.000    0.000    0.000    0.000    0.000    0.000 
#
# Total GULP energy -323251.354021 kJ/mol
# GULP energy per Si atom -5573.299207 kJ/mol
# Density = 2.193395 g / cm^3
# Si number density = 21.983988 Si / 1000 Ang^3
#
#
#
# Elastic Constant Matrix: (Units=GPa)
#
#
# Indices 1 2 3 4 5 6 
#
# 1 65.1340 23.4975 12.3839 0.0000 0.0000 0.0000
# 2 23.4975 76.3239 17.2722 0.0000 0.0000 0.0000
# 3 12.3839 17.2722 164.0581 0.0000 0.0000 0.0000
# 4 0.0000 0.0000 0.0000 -37.4957 0.0000 0.0000
# 5 0.0000 0.0000 0.0000 0.0000 19.8192 0.0000
# 6 0.0000 0.0000 0.0000 0.0000 0.0000 20.1564
#
#
#
# Elastic Compliance Matrix: (Units=1/GPa)
#
#
# Indices 1 2 3 4 5 6 
#
# 1 0.017365 -0.005173 -0.000766 0.000000 0.000000 0.000000
# 2 -0.005173 0.014963 -0.001185 0.000000 0.000000 0.000000
# 3 -0.000766 -0.001185 0.006278 0.000000 0.000000 0.000000
# 4 0.000000 0.000000 0.000000 -0.026670 0.000000 0.000000
# 5 0.000000 0.000000 0.000000 0.000000 0.050456 0.000000
# 6 0.000000 0.000000 0.000000 0.000000 0.000000 0.049612
#
#
# Mechanical properties :
#
#
# Convention : Reuss Voigt Hill
#
# Bulk Modulus (GPa) = 41.05417 45.75814 43.40615
# Shear Modulus (GPa) = 37.21056 17.32013 27.26534
#
# Velocity S-wave (km/s) = 4.11861 2.80992 3.52552
# Velocity P-wave (km/s) = 6.42903 5.60241 6.02990
#
# Compressibility (1/GPa) = 0.02435806
#
# Stress axis : x y z
#
# Youngs Moduli (GPa) = 57.58809 66.83303 159.28691
#
# Poissons Ratio (x) = 0.34570 0.12204
# Poissons Ratio (y) = 0.29788 0.18873
# Poissons Ratio (z) = 0.04412 0.07919
#
# Static dielectric constant tensor:
#      x y z
#    x 1.907040 0.000000 0.000000 
#    y 0.000000 1.789280 0.000000 
#    z 0.000000 0.000000 1.838650 
# 
# From -- ./inp_files/24427.got.cif
#   From: 2010.05.17/outbox.cif.g08.bks.cpg/sg58_13_cif.got.tgz:24427.got - 2010.06.03 14:20:14.
