data_PCOD9445646
_publ_section_title
;
Structure prediction by ZEFSAII (Michael W. Deem and Ramdas Pophale) SiO2 
 PCOD9445646
Probable space group: P N N M
;
_chemical_formula_sum "Si O2"
_cell_formula_units_Z 48
_cell_length_a 9.903565
_cell_length_b 8.209485
_cell_length_c 27.870991
_cell_angle_alpha 90.000000
_cell_angle_beta 90.000000
_cell_angle_gamma 90.000000
_cell_volume 2265.999872
_symmetry_space_group_name_H-M "P N N M"
_symmetry_group_IT_number 58
_symmetry_cell_setting 'orthorhombic'
loop_
_space_group_symop_operation_xyz
x,y,z
-x,-y,z
1/2+x,1/2-y,1/2-z
1/2-x,1/2+y,1/2-z
-x,-y,-z
x,y,-z
1/2-x,1/2+y,1/2+z
1/2+x,1/2-y,1/2+z
loop_
_atom_site_type_symbol
_atom_site_label
_atom_site_fract_x
_atom_site_fract_y
_atom_site_fract_z
Si Si1 0.508850 0.802066 0.946122
Si Si2 0.950744 0.314606 0.948145
Si Si3 0.706527 0.320895 0.404689
Si Si4 0.267494 0.805113 0.121979
Si Si5 0.838627 0.309494 0.780369
Si Si6 0.854644 0.693456 0.800121
O O1 0.659877 0.755758 0.930819
O O2 0.406062 0.755143 0.903913
O O3 0.500000 0.000000 0.948206
O O4 0.476322 0.742442 0.000000
O O5 0.848740 0.293714 0.904906
O O6 0.000000 0.500000 0.948696
O O7 0.078771 0.199148 0.939111
O O8 0.887545 0.275688 0.000000
O O9 0.737217 0.506509 0.390020
O O10 0.668626 0.228011 0.355980
O O11 0.251752 0.773697 0.178145
O O12 0.844614 0.501554 0.790314
O O13 0.763564 0.277459 0.730523
O O14 0.994286 0.249782 0.784627
#
# Coordination Sequence:
#
# PCOD9445646 Si02
#       6
#     8   8   8   8   8   8
#     4   9  20  38  60  91 128 163 205 256 304 357
#     4  11  23  39  60  89 126 165 207 258 312 369
#     4  11  22  39  65  93 124 163 209 257 312 375
#     4  11  22  39  65  93 124 163 209 257 312 375
#     4  11  25  44  66  93 127 163 206 258 316 375
#     4  11  25  44  66  93 127 163 206 258 316 375
#
# _framework density 21.182701000000002
#
# number of rings (size 3 to 8) (size 9 to 14) (size 15 to 20)
#    0.000    1.333    1.667    3.500    2.333    4.667 
#    0.000    2.500    0.000    6.000    0.000    0.000 
#    0.000    0.000    0.000    0.000    0.000    0.000 
#
# Total GULP energy -268361.929626 kJ/mol
# GULP energy per Si atom -5590.873534 kJ/mol
# Density = 2.113449 g / cm^3
# Si number density = 21.182701 Si / 1000 Ang^3
#
#
#
# Elastic Constant Matrix: (Units=GPa)
#
#
# Indices 1 2 3 4 5 6 
#
# 1 69.1392 -10.1851 21.5453 0.0000 0.0000 0.0000
# 2 -10.1851 33.3499 3.3198 0.0000 0.0000 0.0000
# 3 21.5453 3.3198 62.6224 0.0000 0.0000 0.0000
# 4 0.0000 0.0000 0.0000 20.3429 0.0000 0.0000
# 5 0.0000 0.0000 0.0000 0.0000 51.2245 0.0000
# 6 0.0000 0.0000 0.0000 0.0000 0.0000 16.4940
#
#
#
# Elastic Compliance Matrix: (Units=1/GPa)
#
#
# Indices 1 2 3 4 5 6 
#
# 1 0.017283 0.005901 -0.006259 0.000000 0.000000 0.000000
# 2 0.005901 0.032159 -0.003735 0.000000 0.000000 0.000000
# 3 -0.006259 -0.003735 0.018320 0.000000 0.000000 0.000000
# 4 0.000000 0.000000 0.000000 0.049157 0.000000 0.000000
# 5 0.000000 0.000000 0.000000 0.000000 0.019522 0.000000
# 6 0.000000 0.000000 0.000000 0.000000 0.000000 0.060628
#
#
# Mechanical properties :
#
#
# Convention : Reuss Voigt Hill
#
# Bulk Modulus (GPa) = 16.78501 21.60792 19.19647
# Shear Modulus (GPa) = 22.21083 27.64103 24.92593
#
# Velocity S-wave (km/s) = 3.24162 3.61624 3.43404
# Velocity P-wave (km/s) = 4.68529 5.25920 4.98052
#
# Compressibility (1/GPa) = 0.05957696
#
# Stress axis : x y z
#
# Youngs Moduli (GPa) = 57.85876 31.09520 54.58438
#
# Poissons Ratio (x) = -0.18351 0.34166
# Poissons Ratio (y) = -0.34145 0.20389
# Poissons Ratio (z) = 0.36215 0.11615
#
# Static dielectric constant tensor:
#      x y z
#    x 1.758720 0.000000 0.000000 
#    y 0.000000 1.767790 0.000000 
#    z 0.000000 0.000000 1.743520 
# 
# From -- ./inp_files/34525.got.cif
#   From: 2010.05.17/outbox.cif.g08.bks.cpg/sg58_18_cif.got.tgz:34525.got - 2010.06.03 14:20:14.
