data_PCOD9445137
_publ_section_title
;
Structure prediction by ZEFSAII (Michael W. Deem and Ramdas Pophale) SiO2 
 PCOD9445137
Probable space group: P N N M
;
_chemical_formula_sum "Si O2"
_cell_formula_units_Z 48
_cell_length_a 11.605601
_cell_length_b 10.360145
_cell_length_c 22.791925
_cell_angle_alpha 90.000000
_cell_angle_beta 90.000000
_cell_angle_gamma 90.000000
_cell_volume 2740.403266
_symmetry_space_group_name_H-M "P N N M"
_symmetry_group_IT_number 58
_symmetry_cell_setting 'orthorhombic'
loop_
_space_group_symop_operation_xyz
x,y,z
-x,-y,z
1/2+x,1/2-y,1/2-z
1/2-x,1/2+y,1/2-z
-x,-y,-z
x,y,-z
1/2-x,1/2+y,1/2+z
1/2+x,1/2-y,1/2+z
loop_
_atom_site_type_symbol
_atom_site_label
_atom_site_fract_x
_atom_site_fract_y
_atom_site_fract_z
Si Si1 0.636629 0.500000 0.203831
Si Si2 0.737509 0.500000 0.331611
Si Si3 0.249143 0.345607 0.000000
Si Si4 0.500000 0.500000 0.402767
Si Si5 0.137336 0.753844 0.620902
Si Si6 0.750857 0.345607 0.000000
Si Si7 0.500000 0.278324 0.500000
Si Si8 0.137335 0.246157 0.379098
O O1 0.500000 0.500000 0.219152
O O2 0.712062 0.500000 0.262380
O O3 0.658978 0.625881 0.164357
O O4 0.658978 0.374119 0.164357
O O5 0.614397 0.500000 0.363997
O O6 0.806591 0.373835 0.352053
O O7 0.806591 0.626164 0.352053
O O8 0.307867 0.286932 0.057997
O O9 0.263554 0.500000 0.000000
O O10 0.115099 0.306472 0.000000
O O11 0.500000 0.373948 0.444162
O O12 0.000000 0.738572 0.614692
O O13 0.884901 0.306471 0.000000
O O14 0.692133 0.286931 0.057997
#
# Coordination Sequence:
#
# PCOD9445137 Si02
#       8
#     8   8   4   4   8   4   4   8
#     4  10  22  41  65  89 123 168 209 246 305 367
#     4  12  22  42  64  91 126 161 209 255 305 362
#     4  12  23  41  67  89 126 159 204 257 307 369
#     4  11  22  38  66  88 118 169 202 248 316 365
#     4  11  24  40  64  95 124 163 203 255 311 363
#     4  12  23  41  67  89 126 159 204 257 307 369
#     4  11  23  42  60  96 121 161 206 252 306 360
#     4  11  24  40  64  95 124 163 203 255 311 363
#
# _framework density 17.515671000000001
#
# number of rings (size 3 to 8) (size 9 to 14) (size 15 to 20)
#    0.000    0.833    5.833    2.250    0.000    1.333 
#    0.000    1.667    3.667    0.000    0.000    0.000 
#    0.000    0.000    0.000    0.000    0.000    0.000 
#
# Total GULP energy -268363.440281 kJ/mol
# GULP energy per Si atom -5590.905006 kJ/mol
# Density = 1.747580 g / cm^3
# Si number density = 17.515671 Si / 1000 Ang^3
#
#
#
# Elastic Constant Matrix: (Units=GPa)
#
#
# Indices 1 2 3 4 5 6 
#
# 1 149.8848 84.7144 96.2523 0.0000 0.0000 0.0000
# 2 84.7144 170.7889 89.3445 0.0000 0.0000 0.0000
# 3 96.2523 89.3445 178.8172 0.0000 0.0000 0.0000
# 4 0.0000 0.0000 0.0000 11.9718 0.0000 0.0000
# 5 0.0000 0.0000 0.0000 0.0000 19.5452 0.0000
# 6 0.0000 0.0000 0.0000 0.0000 0.0000 27.1527
#
#
#
# Elastic Compliance Matrix: (Units=1/GPa)
#
#
# Indices 1 2 3 4 5 6 
#
# 1 0.011436 -0.003320 -0.004497 0.000000 0.000000 0.000000
# 2 -0.003320 0.008891 -0.002655 0.000000 0.000000 0.000000
# 3 -0.004497 -0.002655 0.009340 0.000000 0.000000 0.000000
# 4 0.000000 0.000000 0.000000 0.083530 0.000000 0.000000
# 5 0.000000 0.000000 0.000000 0.000000 0.051163 0.000000
# 6 0.000000 0.000000 0.000000 0.000000 0.000000 0.036829
#
#
# Mechanical properties :
#
#
# Convention : Reuss Voigt Hill
#
# Bulk Modulus (GPa) = 114.64907 115.56815 115.10861
# Shear Modulus (GPa) = 22.21824 27.01259 24.61541
#
# Velocity S-wave (km/s) = 3.56543 3.93134 3.75285
# Velocity P-wave (km/s) = 9.08554 9.31291 9.19993
#
# Compressibility (1/GPa) = 0.00872227
#
# Stress axis : x y z
#
# Youngs Moduli (GPa) = 87.44272 112.47319 107.07197
#
# Poissons Ratio (x) = 0.37342 0.48149
# Poissons Ratio (y) = 0.29031 0.28430
# Poissons Ratio (z) = 0.39322 0.29864
#
# Static dielectric constant tensor:
#      x y z
#    x 1.564430 0.000000 0.000000 
#    y 0.000000 1.563200 0.000000 
#    z 0.000000 0.000000 1.564560 
# 
# From -- ./inp_files/29578.got.cif
#   From: 2010.05.17/outbox.cif.g08.bks.cpg/sg58_15_cif.got.tgz:29578.got - 2010.06.03 14:20:14.
