data_PCOD9445614
_publ_section_title
;
Structure prediction by ZEFSAII (Michael W. Deem and Ramdas Pophale) SiO2 
 PCOD9445614
Probable space group: P N N M
;
_chemical_formula_sum "Si O2"
_cell_formula_units_Z 64
_cell_length_a 14.767296
_cell_length_b 29.081856
_cell_length_c 7.821748
_cell_angle_alpha 90.000000
_cell_angle_beta 90.000000
_cell_angle_gamma 90.000000
_cell_volume 3359.130835
_symmetry_space_group_name_H-M "P N N M"
_symmetry_group_IT_number 58
_symmetry_cell_setting 'orthorhombic'
loop_
_space_group_symop_operation_xyz
x,y,z
-x,-y,z
1/2+x,1/2-y,1/2-z
1/2-x,1/2+y,1/2-z
-x,-y,-z
x,y,-z
1/2-x,1/2+y,1/2+z
1/2+x,1/2-y,1/2+z
loop_
_atom_site_type_symbol
_atom_site_label
_atom_site_fract_x
_atom_site_fract_y
_atom_site_fract_z
Si Si1 0.250034 0.942139 0.799825
Si Si2 0.603664 0.877717 0.290688
Si Si3 0.899966 0.128306 0.702636
Si Si4 0.249745 0.802341 0.294704
Si Si5 0.750181 0.451747 0.206700
Si Si6 0.750225 0.304034 0.794314
Si Si7 0.395935 0.622338 0.790692
Si Si8 0.899645 0.628468 0.202448
O O1 0.161376 0.916943 0.725761
O O2 0.338281 0.916809 0.724678
O O3 0.250098 0.996248 0.767967
O O4 0.250398 0.932854 0.000000
O O5 0.602847 0.878354 0.500000
O O6 0.661879 0.922330 0.238372
O O7 0.661854 0.833098 0.237748
O O8 0.500809 0.876460 0.227439
O O9 0.910479 0.136039 0.500000
O O10 0.838835 0.170403 0.771374
O O11 0.001204 0.123528 0.772514
O O12 0.249765 0.808272 0.500000
O O13 0.249690 0.748660 0.258431
O O14 0.338391 0.829523 0.228496
O O15 0.662311 0.422268 0.261574
O O16 0.750181 0.452582 0.000000
O O17 0.662228 0.333037 0.737705
O O18 0.750215 0.305261 0.000000
O O19 0.396771 0.621733 0.000000
O O20 0.910408 0.636434 0.000000
#
# Coordination Sequence:
#
# PCOD9445614 Si02
#       8
#     8   8   8   8   8   8   8   8
#     4  11  22  34  48  72 103 128 156 198 249 294
#     4   8  16  32  54  75  94 124 167 206 235 277
#     4   9  18  35  54  70  94 130 169 202 234 280
#     4   9  18  30  46  70  99 130 164 200 239 284
#     4   9  17  33  55  75  95 124 164 202 239 285
#     4   9  17  31  51  75 101 126 158 202 245 283
#     4   8  16  32  54  75  94 124 167 206 235 277
#     4   9  18  35  54  70  94 130 169 202 234 280
#
# _framework density 19.052546
#
# number of rings (size 3 to 8) (size 9 to 14) (size 15 to 20)
#    0.000    3.000    0.000    3.375    0.000    4.000 
#    0.000   10.000    0.000    0.000    0.000    0.000 
#    0.000    0.000    0.000    0.000    0.000    0.000 
#
# Total GULP energy -356779.091652 kJ/mol
# GULP energy per Si atom -5574.673307 kJ/mol
# Density = 1.900918 g / cm^3
# Si number density = 19.052546 Si / 1000 Ang^3
#
#
#
# Elastic Constant Matrix: (Units=GPa)
#
#
# Indices 1 2 3 4 5 6 
#
# 1 209.3229 93.6300 1.0536 0.0000 0.0000 0.0000
# 2 93.6300 166.7551 -15.1674 0.0000 0.0000 0.0000
# 3 1.0536 -15.1674 13.6095 0.0000 0.0000 0.0000
# 4 0.0000 0.0000 0.0000 28.0846 0.0000 0.0000
# 5 0.0000 0.0000 0.0000 0.0000 -8.7508 0.0000
# 6 0.0000 0.0000 0.0000 0.0000 0.0000 5.0426
#
#
#
# Elastic Compliance Matrix: (Units=1/GPa)
#
#
# Indices 1 2 3 4 5 6 
#
# 1 0.006700 -0.004239 -0.005242 0.000000 0.000000 0.000000
# 2 -0.004239 0.009355 0.010754 0.000000 0.000000 0.000000
# 3 -0.005242 0.010754 0.085869 0.000000 0.000000 0.000000
# 4 0.000000 0.000000 0.000000 0.035607 0.000000 0.000000
# 5 0.000000 0.000000 0.000000 0.000000 -0.114275 0.000000
# 6 0.000000 0.000000 0.000000 0.000000 0.000000 0.198310
#
#
# Mechanical properties :
#
#
# Convention : Reuss Voigt Hill
#
# Bulk Modulus (GPa) = 9.57220 60.96889 35.27055
# Shear Modulus (GPa) = 19.69729 25.55336 22.62532
#
# Velocity S-wave (km/s) = 3.21883 3.66622 3.44978
# Velocity P-wave (km/s) = 4.34160 7.07046 5.86689
#
# Compressibility (1/GPa) = 0.10446917
#
# Stress axis : x y z
#
# Youngs Moduli (GPa) = 149.26305 106.89711 11.64565
#
# Poissons Ratio (x) = 0.45309 0.06105
# Poissons Ratio (y) = 0.63265 -0.12523
# Poissons Ratio (z) = 0.78249 -1.14955
#
# Static dielectric constant tensor:
#      x y z
#    x 1.713200 0.000000 0.000000 
#    y 0.000000 1.628380 0.000000 
#    z 0.000000 0.000000 1.697440 
# 
# From -- ./inp_files/7178.got.cif
#   From: 2010.05.17/outbox.cif.g08.bks.cpg/sg58_4_cif.got.tgz:7178.got - 2010.06.03 14:20:14.
