data_PCOD9445058
_publ_section_title
;
Structure prediction by ZEFSAII (Michael W. Deem and Ramdas Pophale) SiO2 
 PCOD9445058
Probable space group: P N N M
;
_chemical_formula_sum "Si O2"
_cell_formula_units_Z 48
_cell_length_a 9.526729
_cell_length_b 28.576487
_cell_length_c 8.664633
_cell_angle_alpha 90.000000
_cell_angle_beta 90.000000
_cell_angle_gamma 90.000000
_cell_volume 2358.863565
_symmetry_space_group_name_H-M "P N N M"
_symmetry_group_IT_number 58
_symmetry_cell_setting 'orthorhombic'
loop_
_space_group_symop_operation_xyz
x,y,z
-x,-y,z
1/2+x,1/2-y,1/2-z
1/2-x,1/2+y,1/2-z
-x,-y,-z
x,y,-z
1/2-x,1/2+y,1/2+z
1/2+x,1/2-y,1/2+z
loop_
_atom_site_type_symbol
_atom_site_label
_atom_site_fract_x
_atom_site_fract_y
_atom_site_fract_z
Si Si1 0.687359 0.221657 0.316147
Si Si2 0.316769 0.616944 0.314099
Si Si3 0.903816 0.545382 0.180572
Si Si4 0.164507 0.009852 0.820322
Si Si5 0.502101 0.304451 0.184338
Si Si6 0.005584 0.641232 0.317426
O O1 0.691145 0.228804 0.500000
O O2 0.615672 0.266609 0.240067
O O3 0.588469 0.178015 0.273685
O O4 0.846373 0.210881 0.262790
O O5 0.327327 0.616695 0.500000
O O6 0.310027 0.562864 0.263983
O O7 0.446681 0.645646 0.247439
O O8 0.169678 0.641645 0.272244
O O9 0.749121 0.527941 0.223043
O O10 0.950735 0.589228 0.281471
O O11 0.000000 0.500000 0.211839
O O12 0.916248 0.557520 0.000000
O O13 0.211326 0.007012 0.000000
O O14 0.000000 0.000000 0.815790
O O15 0.499885 0.305967 0.000000
O O16 0.996232 0.651273 0.500000
#
# Coordination Sequence:
#
# PCOD9445058 Si02
#       6
#     8   8   8   8   8   8
#     4  11  25  44  65  94 127 158 201 253 305 367
#     4  10  22  40  62  91 125 162 207 257 305 361
#     4  11  23  39  61  91 126 166 209 254 307 363
#     4  10  22  40  62  90 124 166 212 257 308 362
#     4  11  25  43  65  93 125 161 201 248 307 367
#     4  11  23  40  65  92 123 163 208 255 307 363
#
# _framework density 20.348780000000001
#
# number of rings (size 3 to 8) (size 9 to 14) (size 15 to 20)
#    0.000    1.333    1.667    3.000    2.333    9.667 
#    0.000    0.000    0.000    0.000    0.000    0.000 
#    0.000    0.000    0.000    0.000    0.000    0.000 
#
# Total GULP energy -268456.329622 kJ/mol
# GULP energy per Si atom -5592.840200 kJ/mol
# Density = 2.030247 g / cm^3
# Si number density = 20.348780 Si / 1000 Ang^3
#
#
#
# Elastic Constant Matrix: (Units=GPa)
#
#
# Indices 1 2 3 4 5 6 
#
# 1 83.0012 8.6277 10.3703 0.0000 0.0000 0.0000
# 2 8.6277 47.4160 -5.5053 0.0000 0.0000 0.0000
# 3 10.3703 -5.5053 6.6065 0.0000 0.0000 0.0000
# 4 0.0000 0.0000 0.0000 -4.9518 0.0000 0.0000
# 5 0.0000 0.0000 0.0000 0.0000 40.5399 0.0000
# 6 0.0000 0.0000 0.0000 0.0000 0.0000 35.7373
#
#
#
# Elastic Compliance Matrix: (Units=1/GPa)
#
#
# Indices 1 2 3 4 5 6 
#
# 1 0.016734 -0.006747 -0.031890 0.000000 0.000000 0.000000
# 2 -0.006747 0.026070 0.032316 0.000000 0.000000 0.000000
# 3 -0.031890 0.032316 0.228354 0.000000 0.000000 0.000000
# 4 0.000000 0.000000 0.000000 -0.201947 0.000000 0.000000
# 5 0.000000 0.000000 0.000000 0.000000 0.024667 0.000000
# 6 0.000000 0.000000 0.000000 0.000000 0.000000 0.027982
#
#
# Mechanical properties :
#
#
# Convention : Reuss Voigt Hill
#
# Bulk Modulus (GPa) = 3.86826 18.22322 11.04574
# Shear Modulus (GPa) = 22.65786 22.50048 22.57917
#
# Velocity S-wave (km/s) = 3.34050 3.32888 3.33469
# Velocity P-wave (km/s) = 4.09679 4.87341 4.50188
#
# Compressibility (1/GPa) = 0.25851410
#
# Stress axis : x y z
#
# Youngs Moduli (GPa) = 59.75930 38.35864 4.37917
#
# Poissons Ratio (x) = 0.25882 0.13965
# Poissons Ratio (y) = 0.40322 -0.14152
# Poissons Ratio (z) = 1.90573 -1.23960
#
# Static dielectric constant tensor:
#      x y z
#    x 1.721680 0.000000 0.000000 
#    y 0.000000 1.706750 0.000000 
#    z 0.000000 0.000000 1.692220 
# 
# From -- ./inp_files/2929.got.cif
#   From: 2010.05.17/outbox.cif.g08.bks.cpg/sg58_2_cif.got.tgz:2929.got - 2010.06.03 14:20:14.
