data_PCOD9445413
_publ_section_title
;
Structure prediction by ZEFSAII (Michael W. Deem and Ramdas Pophale) SiO2 
 PCOD9445413
Probable space group: P N N M
;
_chemical_formula_sum "Si O2"
_cell_formula_units_Z 34
_cell_length_a 19.427389
_cell_length_b 9.584218
_cell_length_c 7.751238
_cell_angle_alpha 90.000000
_cell_angle_beta 90.000000
_cell_angle_gamma 90.000000
_cell_volume 1443.252079
_symmetry_space_group_name_H-M "P N N M"
_symmetry_group_IT_number 58
_symmetry_cell_setting 'orthorhombic'
loop_
_space_group_symop_operation_xyz
x,y,z
-x,-y,z
1/2+x,1/2-y,1/2-z
1/2-x,1/2+y,1/2-z
-x,-y,-z
x,y,-z
1/2-x,1/2+y,1/2+z
1/2+x,1/2-y,1/2+z
loop_
_atom_site_type_symbol
_atom_site_label
_atom_site_fract_x
_atom_site_fract_y
_atom_site_fract_z
Si Si1 0.421723 0.524285 0.705365
Si Si2 0.000000 0.500000 0.500000
Si Si3 0.204346 0.841118 0.301523
Si Si4 0.555208 0.163348 0.308257
Si Si5 0.327306 0.029095 0.197979
O O1 0.500000 0.500000 0.761894
O O2 0.417924 0.495403 0.500000
O O3 0.366666 0.425549 0.793108
O O4 0.408670 0.688575 0.729552
O O5 0.005644 0.379560 0.346099
O O6 0.228172 0.830886 0.500000
O O7 0.192675 0.682991 0.241009
O O8 0.260695 0.930695 0.201050
O O9 0.523444 0.173284 0.500000
O O10 0.614231 0.046662 0.305299
O O11 0.355595 0.037572 0.000000
#
# Coordination Sequence:
#
# PCOD9445413 Si02
#       5
#     8   2   8   8   8
#     4  10  24  44  66  96 134 176 224 281 338 401
#     4  12  26  44  70 102 140 184 214 288 332 398
#     4  11  25  41  67  98 132 178 227 279 342 406
#     4  11  25  44  70 100 137 179 229 275 335 407
#     4  11  24  44  67  98 136 176 226 282 339 398
#
# _framework density 23.557905999999999
#
# number of rings (size 3 to 8) (size 9 to 14) (size 15 to 20)
#    0.000    1.176    1.176    3.176    4.941    9.882 
#    0.000    0.000    0.000    0.000    0.000    0.000 
#    0.000    0.000    0.000    0.000    0.000    0.000 
#
# Total GULP energy -189876.437410 kJ/mol
# GULP energy per Si atom -5584.601100 kJ/mol
# Density = 2.350429 g / cm^3
# Si number density = 23.557906 Si / 1000 Ang^3
#
#
#
# Elastic Constant Matrix: (Units=GPa)
#
#
# Indices 1 2 3 4 5 6 
#
# 1 58.5544 31.2075 18.4808 0.0000 0.0000 0.0000
# 2 31.2075 183.2109 40.7026 0.0000 0.0000 0.0000
# 3 18.4808 40.7026 98.5789 0.0000 0.0000 0.0000
# 4 0.0000 0.0000 0.0000 22.1954 0.0000 0.0000
# 5 0.0000 0.0000 0.0000 0.0000 38.3996 0.0000
# 6 0.0000 0.0000 0.0000 0.0000 0.0000 42.4213
#
#
#
# Elastic Compliance Matrix: (Units=1/GPa)
#
#
# Indices 1 2 3 4 5 6 
#
# 1 0.019324 -0.002738 -0.002492 0.000000 0.000000 0.000000
# 2 -0.002738 0.006397 -0.002128 0.000000 0.000000 0.000000
# 3 -0.002492 -0.002128 0.011490 0.000000 0.000000 0.000000
# 4 0.000000 0.000000 0.000000 0.045054 0.000000 0.000000
# 5 0.000000 0.000000 0.000000 0.000000 0.026042 0.000000
# 6 0.000000 0.000000 0.000000 0.000000 0.000000 0.023573
#
#
# Mechanical properties :
#
#
# Convention : Reuss Voigt Hill
#
# Bulk Modulus (GPa) = 44.45470 57.90289 51.17879
# Shear Modulus (GPa) = 32.44739 37.26681 34.85710
#
# Velocity S-wave (km/s) = 3.71529 3.98166 3.85078
# Velocity P-wave (km/s) = 6.10867 6.76538 6.44540
#
# Compressibility (1/GPa) = 0.02249481
#
# Stress axis : x y z
#
# Youngs Moduli (GPa) = 51.74928 156.31477 87.03152
#
# Poissons Ratio (x) = 0.42797 0.21690
# Poissons Ratio (y) = 0.14168 0.18522
# Poissons Ratio (z) = 0.12897 0.33266
#
# Static dielectric constant tensor:
#      x y z
#    x 2.032000 0.000000 0.000000 
#    y 0.000000 1.867550 0.000000 
#    z 0.000000 0.000000 0.708810 
# 
# From -- ./inp_files/2262.got.cif
#   From: 2010.05.17/outbox.cif.g08.bks.cpg/sg58_2_cif.got.tgz:2262.got - 2010.06.03 14:20:14.
