data_PCOD9445754
_publ_section_title
;
Structure prediction by ZEFSAII (Michael W. Deem and Ramdas Pophale) SiO2 
 PCOD9445754
Probable space group: P N N M
;
_chemical_formula_sum "Si O2"
_cell_formula_units_Z 40
_cell_length_a 7.456666
_cell_length_b 23.241519
_cell_length_c 11.342271
_cell_angle_alpha 90.000000
_cell_angle_beta 90.000000
_cell_angle_gamma 90.000000
_cell_volume 1965.663707
_symmetry_space_group_name_H-M "P N N M"
_symmetry_group_IT_number 58
_symmetry_cell_setting 'orthorhombic'
loop_
_space_group_symop_operation_xyz
x,y,z
-x,-y,z
1/2+x,1/2-y,1/2-z
1/2-x,1/2+y,1/2-z
-x,-y,-z
x,y,-z
1/2-x,1/2+y,1/2+z
1/2+x,1/2-y,1/2+z
loop_
_atom_site_type_symbol
_atom_site_label
_atom_site_fract_x
_atom_site_fract_y
_atom_site_fract_z
Si Si1 0.658188 0.918594 0.132549
Si Si2 0.081345 0.279599 0.871726
Si Si3 0.236672 0.951389 0.135825
Si Si4 0.354909 0.384056 0.868887
Si Si5 0.702144 0.319563 0.802332
O O1 0.445424 0.931472 0.140616
O O2 0.718857 0.870003 0.220815
O O3 0.757824 0.979620 0.149400
O O4 0.695530 0.898977 0.000000
O O5 0.872400 0.295030 0.870521
O O6 0.195600 0.337622 0.853429
O O7 0.123352 0.232706 0.773910
O O8 0.133742 0.256285 0.000000
O O9 0.145807 0.923030 0.250679
O O10 0.173114 0.938164 0.000000
O O11 0.538811 0.348317 0.870650
O O12 0.331555 0.411836 0.000000
#
# Coordination Sequence:
#
# PCOD9445754 Si02
#       5
#     8   8   8   8   8
#     4   9  19  37  66  97 127 162 211 264 313 371
#     4  11  24  41  60  88 128 164 206 259 317 372
#     4   9  19  40  66  96 129 165 208 259 315 376
#     4  11  24  42  63  94 130 166 208 257 309 378
#     4  12  22  42  63  92 120 168 213 259 315 373
#
# _framework density 20.349360000000001
#
# number of rings (size 3 to 8) (size 9 to 14) (size 15 to 20)
#    0.000    1.600    4.000    2.400    0.000    2.400 
#    0.000    7.000    0.000    0.000    0.000    0.000 
#    0.000    0.000    0.000    0.000    0.000    0.000 
#
# Total GULP energy -223302.065446 kJ/mol
# GULP energy per Si atom -5582.551636 kJ/mol
# Density = 2.030304 g / cm^3
# Si number density = 20.349360 Si / 1000 Ang^3
#
#
#
# Elastic Constant Matrix: (Units=GPa)
#
#
# Indices 1 2 3 4 5 6 
#
# 1 82.7167 14.1454 25.0263 0.0000 0.0000 0.0000
# 2 14.1454 48.3104 54.8737 0.0000 0.0000 0.0000
# 3 25.0263 54.8737 151.3822 0.0000 0.0000 0.0000
# 4 0.0000 0.0000 0.0000 -33.4114 0.0000 0.0000
# 5 0.0000 0.0000 0.0000 0.0000 3.6897 0.0000
# 6 0.0000 0.0000 0.0000 0.0000 0.0000 36.6721
#
#
#
# Elastic Compliance Matrix: (Units=1/GPa)
#
#
# Indices 1 2 3 4 5 6 
#
# 1 0.012874 -0.002298 -0.001295 0.000000 0.000000 0.000000
# 2 -0.002298 0.035597 -0.012524 0.000000 0.000000 0.000000
# 3 -0.001295 -0.012524 0.011360 0.000000 0.000000 0.000000
# 4 0.000000 0.000000 0.000000 -0.029930 0.000000 0.000000
# 5 0.000000 0.000000 0.000000 0.000000 0.271028 0.000000
# 6 0.000000 0.000000 0.000000 0.000000 0.000000 0.027269
#
#
# Mechanical properties :
#
#
# Convention : Reuss Voigt Hill
#
# Bulk Modulus (GPa) = 36.23602 52.27780 44.25691
# Shear Modulus (GPa) = 13.52700 13.94767 13.73734
#
# Velocity S-wave (km/s) = 2.58105 2.62088 2.60104
# Velocity P-wave (km/s) = 5.16992 5.90801 5.55124
#
# Compressibility (1/GPa) = 0.02759685
#
# Stress axis : x y z
#
# Youngs Moduli (GPa) = 77.67355 28.09192 88.03194
#
# Poissons Ratio (x) = 0.06457 0.11402
# Poissons Ratio (y) = 0.17853 1.10247
# Poissons Ratio (z) = 0.10060 0.35181
#
# Static dielectric constant tensor:
#      x y z
#    x 1.737810 0.000000 0.000000 
#    y 0.000000 1.674120 0.000000 
#    z 0.000000 0.000000 1.676820 
# 
# From -- ./inp_files/2621.got.cif
#   From: 2010.05.17/outbox.cif.g08.bks.cpg/sg58_2_cif.got.tgz:2621.got - 2010.06.03 14:20:14.
