data_PCOD9445927
_publ_section_title
;
Structure prediction by ZEFSAII (Michael W. Deem and Ramdas Pophale) SiO2 
 PCOD9445927
Probable space group: P N N M
;
_chemical_formula_sum "Si O2"
_cell_formula_units_Z 64
_cell_length_a 15.000000
_cell_length_b 18.000000
_cell_length_c 15.000000
_cell_angle_alpha 90.000000
_cell_angle_beta 90.000000
_cell_angle_gamma 90.000000
_cell_volume 4050.000000
_symmetry_space_group_name_H-M "P N N M"
_symmetry_group_IT_number 58
_symmetry_cell_setting 'orthorhombic'
loop_
_space_group_symop_operation_xyz
x,y,z
-x,-y,z
1/2+x,1/2-y,1/2-z
1/2-x,1/2+y,1/2-z
-x,-y,-z
x,y,-z
1/2-x,1/2+y,1/2+z
1/2+x,1/2-y,1/2+z
loop_
_atom_site_type_symbol
_atom_site_label
_atom_site_fract_x
_atom_site_fract_y
_atom_site_fract_z
Si Si1 0.715475 0.459357 0.105958
Si Si2 0.393785 0.480926 0.603290
Si Si3 0.562631 0.656379 0.279929
Si Si4 0.852868 0.881150 0.220271
Si Si5 0.341046 0.370552 0.899110
Si Si6 0.319259 0.756533 0.397044
Si Si7 0.583323 0.957932 0.396430
Si Si8 0.027331 0.712187 0.100354
O O1 0.674047 0.403829 0.179137
O O2 0.671273 0.540727 0.109630
O O3 0.817616 0.470576 0.136853
O O4 0.713644 0.435791 0.000000
O O5 0.500000 0.500000 0.601780
O O6 0.365984 0.473397 0.500000
O O7 0.387552 0.406136 0.661352
O O8 0.344433 0.547185 0.655594
O O9 0.457932 0.637420 0.280728
O O10 0.595519 0.655544 0.179361
O O11 0.572648 0.734919 0.328211
O O12 0.805969 0.810156 0.173641
O O13 0.249059 0.324697 0.887869
O O14 0.372985 0.355747 0.000000
O O15 0.311652 0.728606 0.500000
O O16 0.420555 0.785534 0.386909
O O17 0.587877 0.983555 0.500000
O O18 0.562100 0.871056 0.394730
O O19 0.500000 0.000000 0.353439
O O20 0.044065 0.741388 0.000000
#
# Coordination Sequence:
#
# PCOD9445927 Si02
#       8
#     8   8   8   8   8   8   8   8
#     4  10  20  32  47  70  99 130 160 194 237 282
#     4   9  16  28  46  67  93 121 151 190 235 282
#     4  10  19  30  45  70  98 128 160 188 234 285
#     4  10  19  31  47  70  97 126 160 197 234 284
#     4  10  20  33  48  67  96 131 165 196 230 282
#     4   9  18  32  50  70  94 123 157 202 246 281
#     4   9  17  30  49  71  95 121 155 199 246 290
#     4   9  17  30  49  72  95 120 152 197 249 293
#
# _framework density 15.802469
#
# number of rings (size 3 to 8) (size 9 to 14) (size 15 to 20)
#    0.000    2.500    1.250    1.500    1.750    6.500 
#    0.000    1.250    0.000    0.000    0.000    0.000 
#    0.000    2.500    0.000    0.000    0.000    0.000 
#
# Total GULP energy -356347.328693 kJ/mol
# GULP energy per Si atom -5567.927011 kJ/mol
# Density = 1.576650 g / cm^3
# Si number density = 15.802469 Si / 1000 Ang^3
#
#
#
# Elastic Constant Matrix: (Units=GPa)
#
#
# Indices 1 2 3 4 5 6 
#
# 1 9.5197 -8.1591 3.6053 0.0000 0.0000 0.0000
# 2 -8.1591 8.9762 9.1227 0.0000 0.0000 0.0000
# 3 3.6053 9.1227 83.8693 0.0000 0.0000 0.0000
# 4 0.0000 0.0000 0.0000 15.3589 0.0000 0.0000
# 5 0.0000 0.0000 0.0000 0.0000 19.4271 0.0000
# 6 0.0000 0.0000 0.0000 0.0000 0.0000 15.5195
#
#
#
# Elastic Compliance Matrix: (Units=1/GPa)
#
#
# Indices 1 2 3 4 5 6 
#
# 1 4.857578 5.202748 -0.774734 0.000000 0.000000 0.000000
# 2 5.202748 5.697698 -0.843409 0.000000 0.000000 0.000000
# 3 -0.774734 -0.843409 0.136967 0.000000 0.000000 0.000000
# 4 0.000000 0.000000 0.000000 0.065109 0.000000 0.000000
# 5 0.000000 0.000000 0.000000 0.000000 0.051475 0.000000
# 6 0.000000 0.000000 0.000000 0.000000 0.000000 0.064435
#
#
# Mechanical properties :
#
#
# Convention : Reuss Voigt Hill
#
# Bulk Modulus (GPa) = 0.05599 12.38924 6.22261
# Shear Modulus (GPa) = 0.51771 16.58084 8.54928
#
# Velocity S-wave (km/s) = 0.57300 3.24274 2.32848
# Velocity P-wave (km/s) = 0.68795 4.67734 3.34296
#
# Compressibility (1/GPa) = 17.86145269
#
# Stress axis : x y z
#
# Youngs Moduli (GPa) = 0.20586 0.17551 7.30101
#
# Poissons Ratio (x) = -0.91313 5.65634
# Poissons Ratio (y) = -1.07106 6.15774
# Poissons Ratio (z) = 0.15949 0.14803
#
# Static dielectric constant tensor:
#      x y z
#    x 1.534740 0.000000 0.000000 
#    y 0.000000 1.536580 0.000000 
#    z 0.000000 0.000000 1.522320 
# 
# From -- ./inp_files/22435.got.cif
#   From: 2010.05.17/outbox.ucp.g08.bks.cvg/sg58_12_cif.got.tgz:22435.got - 2010.06.11 16:41:41.
