data_PCOD9445633
_publ_section_title
;
Structure prediction by ZEFSAII (Michael W. Deem and Ramdas Pophale) SiO2 
 PCOD9445633
Probable space group: P N N M
;
_chemical_formula_sum "Si O2"
_cell_formula_units_Z 48
_cell_length_a 14.389173
_cell_length_b 5.094093
_cell_length_c 28.464195
_cell_angle_alpha 90.000000
_cell_angle_beta 90.000000
_cell_angle_gamma 90.000000
_cell_volume 2086.419387
_symmetry_space_group_name_H-M "P N N M"
_symmetry_group_IT_number 58
_symmetry_cell_setting 'orthorhombic'
loop_
_space_group_symop_operation_xyz
x,y,z
-x,-y,z
1/2+x,1/2-y,1/2-z
1/2-x,1/2+y,1/2-z
-x,-y,-z
x,y,-z
1/2-x,1/2+y,1/2+z
1/2+x,1/2-y,1/2+z
loop_
_atom_site_type_symbol
_atom_site_label
_atom_site_fract_x
_atom_site_fract_y
_atom_site_fract_z
Si Si1 0.500000 0.000000 0.918487
Si Si2 0.844538 0.350216 0.279514
Si Si3 0.675265 0.183928 0.137508
Si Si4 0.500000 0.500000 0.242979
Si Si5 0.719315 0.194384 0.604627
Si Si6 0.273969 0.249776 0.000000
Si Si7 0.138709 0.353276 0.804141
Si Si8 0.589783 0.263774 0.000000
O O1 0.588935 0.035787 0.886455
O O2 0.523078 0.228891 0.955464
O O3 0.843432 0.626599 0.307546
O O4 0.860503 0.374609 0.223826
O O5 0.743517 0.240359 0.291148
O O6 0.932475 0.169826 0.291040
O O7 0.702006 0.474594 0.119761
O O8 0.757437 0.991102 0.120725
O O9 0.437568 0.681025 0.277570
O O10 0.716692 0.210454 0.548354
O O11 0.634960 0.121695 0.639831
O O12 0.349345 0.479972 0.000000
O O13 0.333668 0.977585 0.000000
#
# Coordination Sequence:
#
# PCOD9445633 Si02
#       8
#     4   8   8   4   8   4   8   4
#     4  11  22  38  56  94 134 180 224 283 332 410
#     4  11  24  44  69  97 144 181 235 281 348 419
#     4  11  25  38  61  94 131 182 222 273 337 406
#     4  12  26  44  70 103 134 193 228 288 348 424
#     4  11  24  42  66  89 131 175 230 285 337 407
#     4  12  20  45  58  95 121 181 233 280 353 411
#     4  11  24  44  68  98 140 184 232 289 350 413
#     4  11  24  36  60  86 136 176 228 281 334 411
#
# _framework density 23.00592
#
# number of rings (size 3 to 8) (size 9 to 14) (size 15 to 20)
#    0.000    0.833    5.000    1.500    7.000    3.333 
#    0.000    0.000    0.000    0.500    0.000    2.333 
#    0.000    0.000    0.000    0.000    0.000    0.000 
#
# Total GULP energy -267606.583214 kJ/mol
# GULP energy per Si atom -5575.137150 kJ/mol
# Density = 2.295356 g / cm^3
# Si number density = 23.005920 Si / 1000 Ang^3
#
#
#
# Elastic Constant Matrix: (Units=GPa)
#
#
# Indices 1 2 3 4 5 6 
#
# 1 75.0640 17.6365 23.3596 0.0000 0.0000 0.0000
# 2 17.6365 97.3454 18.1011 0.0000 0.0000 0.0000
# 3 23.3596 18.1011 166.4072 0.0000 0.0000 0.0000
# 4 0.0000 0.0000 0.0000 78.4986 0.0000 0.0000
# 5 0.0000 0.0000 0.0000 0.0000 796.4181 0.0000
# 6 0.0000 0.0000 0.0000 0.0000 0.0000 35.6596
#
#
#
# Elastic Compliance Matrix: (Units=1/GPa)
#
#
# Indices 1 2 3 4 5 6 
#
# 1 0.014410 -0.002281 -0.001775 0.000000 0.000000 0.000000
# 2 -0.002281 0.010846 -0.000860 0.000000 0.000000 0.000000
# 3 -0.001775 -0.000860 0.006352 0.000000 0.000000 0.000000
# 4 0.000000 0.000000 0.000000 0.012739 0.000000 0.000000
# 5 0.000000 0.000000 0.000000 0.000000 0.001256 0.000000
# 6 0.000000 0.000000 0.000000 0.000000 0.000000 0.028043
#
#
# Mechanical properties :
#
#
# Convention : Reuss Voigt Hill
#
# Bulk Modulus (GPa) = 45.91853 50.77901 48.34877
# Shear Modulus (GPa) = 55.10559 200.76322 127.93441
#
# Velocity S-wave (km/s) = 4.89947 9.35176 7.46526
# Velocity P-wave (km/s) = 7.21174 11.77825 9.76566
#
# Compressibility (1/GPa) = 0.02177770
#
# Stress axis : x y z
#
# Youngs Moduli (GPa) = 69.39570 92.20201 157.43098
#
# Poissons Ratio (x) = 0.21029 0.27940
# Poissons Ratio (y) = 0.15827 0.13533
# Poissons Ratio (z) = 0.12316 0.07926
#
# Static dielectric constant tensor:
#      x y z
#    x 1.948120 0.000000 0.000000 
#    y 0.000000 2.003340 0.000000 
#    z 0.000000 0.000000 1.998630 
# 
# From -- ./inp_files/35012.got.cif
#   From: 2010.05.17/outbox.cif.g08.bks.cpg/sg58_18_cif.got.tgz:35012.got - 2010.06.03 14:20:14.
