data_PCOD9445555
_publ_section_title
;
Structure prediction by ZEFSAII (Michael W. Deem and Ramdas Pophale) SiO2 
 PCOD9445555
Probable space group: P N N M
;
_chemical_formula_sum "Si O2"
_cell_formula_units_Z 48
_cell_length_a 9.678488
_cell_length_b 11.203490
_cell_length_c 22.163037
_cell_angle_alpha 90.000000
_cell_angle_beta 90.000000
_cell_angle_gamma 90.000000
_cell_volume 2403.201123
_symmetry_space_group_name_H-M "P N N M"
_symmetry_group_IT_number 58
_symmetry_cell_setting 'orthorhombic'
loop_
_space_group_symop_operation_xyz
x,y,z
-x,-y,z
1/2+x,1/2-y,1/2-z
1/2-x,1/2+y,1/2-z
-x,-y,-z
x,y,-z
1/2-x,1/2+y,1/2+z
1/2+x,1/2-y,1/2+z
loop_
_atom_site_type_symbol
_atom_site_label
_atom_site_fract_x
_atom_site_fract_y
_atom_site_fract_z
Si Si1 0.723001 0.730886 0.655902
Si Si2 0.597419 0.893275 0.738866
Si Si3 0.837920 0.023436 0.930524
Si Si4 0.505328 0.634055 0.873853
Si Si5 0.643804 0.545816 0.749708
Si Si6 0.905544 0.383910 0.379826
O O1 0.592662 0.798041 0.685497
O O2 0.692220 0.652612 0.597553
O O3 0.738784 0.633355 0.709718
O O4 0.852263 0.815376 0.641305
O O5 0.566030 0.863977 0.808388
O O6 0.500000 0.000000 0.720967
O O7 0.756301 0.935035 0.739942
O O8 0.748193 0.928349 0.893088
O O9 0.793315 0.016839 0.000000
O O10 0.000000 0.000000 0.927172
O O11 0.500000 0.500000 0.902511
O O12 0.593293 0.605846 0.812290
O O13 0.568455 0.751631 0.906562
O O14 0.500000 0.500000 0.720327
O O15 0.000000 0.500000 0.397867
#
# Coordination Sequence:
#
# PCOD9445555 Si02
#       6
#     8   8   8   8   8   8
#     4  12  21  37  61  89 133 169 210 268 323 374
#     4  11  22  33  56  98 134 166 212 254 327 406
#     4  11  26  45  67  95 124 166 225 275 315 373
#     4  11  22  37  57  95 134 162 205 266 323 391
#     4  11  21  33  54  88 131 170 199 257 326 385
#     4  11  21  40  65  94 129 168 218 266 315 387
#
# _framework density 19.97336
#
# number of rings (size 3 to 8) (size 9 to 14) (size 15 to 20)
#    0.000    0.833    8.333    1.500    0.000    1.667 
#    0.000    0.000    0.000    2.500    0.000    0.000 
#    0.000    0.000    0.000    0.000    0.000    0.000 
#
# Total GULP energy -267246.686472 kJ/mol
# GULP energy per Si atom -5567.639302 kJ/mol
# Density = 1.992790 g / cm^3
# Si number density = 19.973360 Si / 1000 Ang^3
#
#
#
# Elastic Constant Matrix: (Units=GPa)
#
#
# Indices 1 2 3 4 5 6 
#
# 1 73.5227 26.1309 3.9741 0.0000 0.0000 0.0000
# 2 26.1309 134.2740 13.7027 0.0000 0.0000 0.0000
# 3 3.9741 13.7027 30.2115 0.0000 0.0000 0.0000
# 4 0.0000 0.0000 0.0000 13.2682 0.0000 0.0000
# 5 0.0000 0.0000 0.0000 0.0000 26.2291 0.0000
# 6 0.0000 0.0000 0.0000 0.0000 0.0000 41.2396
#
#
#
# Elastic Compliance Matrix: (Units=1/GPa)
#
#
# Indices 1 2 3 4 5 6 
#
# 1 0.014625 -0.002778 -0.000664 0.000000 0.000000 0.000000
# 2 -0.002778 0.008337 -0.003416 0.000000 0.000000 0.000000
# 3 -0.000664 -0.003416 0.034737 0.000000 0.000000 0.000000
# 4 0.000000 0.000000 0.000000 0.075368 0.000000 0.000000
# 5 0.000000 0.000000 0.000000 0.000000 0.038126 0.000000
# 6 0.000000 0.000000 0.000000 0.000000 0.000000 0.024249
#
#
# Mechanical properties :
#
#
# Convention : Reuss Voigt Hill
#
# Bulk Modulus (GPa) = 22.73636 36.18042 29.45839
# Shear Modulus (GPa) = 22.33975 29.09407 25.71691
#
# Velocity S-wave (km/s) = 3.34799 3.82074 3.59215
# Velocity P-wave (km/s) = 5.13356 6.13333 5.65558
#
# Compressibility (1/GPa) = 0.04398241
#
# Stress axis : x y z
#
# Youngs Moduli (GPa) = 68.37805 119.95121 28.78816
#
# Poissons Ratio (x) = 0.33327 0.01910
# Poissons Ratio (y) = 0.18998 0.09833
# Poissons Ratio (z) = 0.04538 0.40972
#
# Static dielectric constant tensor:
#      x y z
#    x 1.719340 0.000000 0.000000 
#    y 0.000000 1.850370 0.000000 
#    z 0.000000 0.000000 1.705190 
# 
# From -- ./inp_files/31470.got.cif
#   From: 2010.05.17/outbox.cif.g08.bks.cpg/sg58_16_cif.got.tgz:31470.got - 2010.06.03 14:20:14.
