data_PCOD9445569
_publ_section_title
;
Structure prediction by ZEFSAII (Michael W. Deem and Ramdas Pophale) SiO2 
 PCOD9445569
Probable space group: P N N M
;
_chemical_formula_sum "Si O2"
_cell_formula_units_Z 56
_cell_length_a 14.174361
_cell_length_b 21.667425
_cell_length_c 7.490782
_cell_angle_alpha 90.000000
_cell_angle_beta 90.000000
_cell_angle_gamma 90.000000
_cell_volume 2300.583229
_symmetry_space_group_name_H-M "P N N M"
_symmetry_group_IT_number 58
_symmetry_cell_setting 'orthorhombic'
loop_
_space_group_symop_operation_xyz
x,y,z
-x,-y,z
1/2+x,1/2-y,1/2-z
1/2-x,1/2+y,1/2-z
-x,-y,-z
x,y,-z
1/2-x,1/2+y,1/2+z
1/2+x,1/2-y,1/2+z
loop_
_atom_site_type_symbol
_atom_site_label
_atom_site_fract_x
_atom_site_fract_y
_atom_site_fract_z
Si Si1 0.491198 0.929072 0.718004
Si Si2 0.300560 0.103245 0.716702
Si Si3 0.653924 0.494157 0.215137
Si Si4 0.152788 0.332887 0.799943
Si Si5 0.976933 0.096164 0.715883
Si Si6 0.304778 0.236129 0.705199
Si Si7 0.991779 0.768233 0.298823
O O1 0.486391 0.927147 0.500000
O O2 0.590018 0.897893 0.770125
O O3 0.398830 0.892446 0.782124
O O4 0.500000 0.000000 0.771159
O O5 0.296759 0.098348 0.500000
O O6 0.244245 0.043272 0.783268
O O7 0.259016 0.170694 0.763722
O O8 0.617134 0.560676 0.280756
O O9 0.565972 0.448124 0.246974
O O10 0.664274 0.500495 0.000000
O O11 0.238396 0.295386 0.716473
O O12 0.069558 0.281890 0.802509
O O13 0.183434 0.349389 0.000000
O O14 0.967577 0.102421 0.500000
O O15 0.000907 0.163790 0.783573
O O16 0.332757 0.227367 0.500000
O O17 0.400561 0.246966 0.808768
O O18 0.950553 0.772178 0.500000
#
# Coordination Sequence:
#
# PCOD9445569 Si02
#       7
#     8   8   8   8   8   8   8
#     4   9  18  33  54  81 111 142 186 244 295 338
#     4   9  16  29  50  76 105 142 185 231 283 335
#     4   8  13  24  44  71 105 138 174 227 277 317
#     4  11  22  38  58  86 117 148 191 245 296 347
#     4   8  15  26  43  75 110 137 174 225 275 323
#     4  11  22  37  57  83 113 151 194 237 287 347
#     4  11  21  35  56  84 115 150 185 229 285 347
#
# _framework density 24.341653999999998
#
# number of rings (size 3 to 8) (size 9 to 14) (size 15 to 20)
#    0.000    2.429    1.429    3.000    0.000    3.429 
#    0.000    4.286    0.000    1.714    0.000   22.000 
#    0.000    0.000    0.000    0.000    0.000    0.000 
#
# Total GULP energy -312729.442978 kJ/mol
# GULP energy per Si atom -5584.454339 kJ/mol
# Density = 2.428625 g / cm^3
# Si number density = 24.341654 Si / 1000 Ang^3
#
#
#
# Elastic Constant Matrix: (Units=GPa)
#
#
# Indices 1 2 3 4 5 6 
#
# 1 24.0228 -16.5771 -3.9799 0.0000 0.0000 0.0000
# 2 -16.5771 106.6483 -2.3593 0.0000 0.0000 0.0000
# 3 -3.9799 -2.3593 67.9522 0.0000 0.0000 0.0000
# 4 0.0000 0.0000 0.0000 4.8507 0.0000 0.0000
# 5 0.0000 0.0000 0.0000 0.0000 12.2891 0.0000
# 6 0.0000 0.0000 0.0000 0.0000 0.0000 38.1746
#
#
#
# Elastic Compliance Matrix: (Units=1/GPa)
#
#
# Indices 1 2 3 4 5 6 
#
# 1 0.047241 0.007410 0.003024 0.000000 0.000000 0.000000
# 2 0.007410 0.010546 0.000800 0.000000 0.000000 0.000000
# 3 0.003024 0.000800 0.014921 0.000000 0.000000 0.000000
# 4 0.000000 0.000000 0.000000 0.206156 0.000000 0.000000
# 5 0.000000 0.000000 0.000000 0.000000 0.081373 0.000000
# 6 0.000000 0.000000 0.000000 0.000000 0.000000 0.026195
#
#
# Mechanical properties :
#
#
# Convention : Reuss Voigt Hill
#
# Bulk Modulus (GPa) = 10.50671 16.97674 13.74172
# Shear Modulus (GPa) = 12.63613 25.83217 19.23415
#
# Velocity S-wave (km/s) = 2.28088 3.26119 2.81405
# Velocity P-wave (km/s) = 3.35593 4.60109 4.02693
#
# Compressibility (1/GPa) = 0.09517731
#
# Stress axis : x y z
#
# Youngs Moduli (GPa) = 21.16784 94.82178 67.01902
#
# Poissons Ratio (x) = -0.70263 -0.20268
# Poissons Ratio (y) = -0.15685 -0.05363
# Poissons Ratio (z) = -0.06402 -0.07587
#
# Static dielectric constant tensor:
#      x y z
#    x 1.916250 0.000000 0.000000 
#    y 0.000000 1.960560 0.000000 
#    z 0.000000 0.000000 1.915310 
# 
# From -- ./inp_files/6375.got.cif
#   From: 2010.05.17/outbox.cif.g08.bks.cpg/sg58_4_cif.got.tgz:6375.got - 2010.06.03 14:20:14.
