data_PCOD9445207
_publ_section_title
;
Structure prediction by ZEFSAII (Michael W. Deem and Ramdas Pophale) SiO2 
 PCOD9445207
Probable space group: P N N M
;
_chemical_formula_sum "Si O2"
_cell_formula_units_Z 34
_cell_length_a 17.079217
_cell_length_b 9.602924
_cell_length_c 10.512320
_cell_angle_alpha 90.000000
_cell_angle_beta 90.000000
_cell_angle_gamma 90.000000
_cell_volume 1724.130048
_symmetry_space_group_name_H-M "P N N M"
_symmetry_group_IT_number 58
_symmetry_cell_setting 'orthorhombic'
loop_
_space_group_symop_operation_xyz
x,y,z
-x,-y,z
1/2+x,1/2-y,1/2-z
1/2-x,1/2+y,1/2-z
-x,-y,-z
x,y,-z
1/2-x,1/2+y,1/2+z
1/2+x,1/2-y,1/2+z
loop_
_atom_site_type_symbol
_atom_site_label
_atom_site_fract_x
_atom_site_fract_y
_atom_site_fract_z
Si Si1 0.569146 0.798064 0.717825
Si Si2 0.185179 0.504844 0.352192
Si Si3 0.418383 0.731378 0.145866
Si Si4 0.000000 0.500000 0.000000
Si Si5 0.871426 0.994870 0.853629
O O1 0.506428 0.784809 0.831575
O O2 0.528572 0.889680 0.610228
O O3 0.591045 0.645495 0.668388
O O4 0.646144 0.878760 0.764677
O O5 0.171365 0.540739 0.500000
O O6 0.141326 0.358543 0.328882
O O7 0.277919 0.493242 0.334258
O O8 0.403552 0.612725 0.250045
O O9 0.407654 0.684350 0.000000
O O10 0.885898 0.949284 0.000000
#
# Coordination Sequence:
#
# PCOD9445207 Si02
#       5
#     8   8   8   2   8
#     4  12  23  42  67  94 128 169 220 263 318 390
#     4  10  22  43  65  92 123 168 213 266 326 384
#     4  11  24  42  65  94 130 171 217 266 326 386
#     4  12  24  40  68 100 124 176 216 274 318 384
#     4  11  25  41  64  94 131 165 212 271 323 381
#
# _framework density 19.720089999999999
#
# number of rings (size 3 to 8) (size 9 to 14) (size 15 to 20)
#    0.000    0.941    3.529    2.824    1.647    5.647 
#    2.118    0.000    0.000    0.000    0.000    0.000 
#    0.000    0.000    0.000    0.000    0.000    0.000 
#
# Total GULP energy -189602.805690 kJ/mol
# GULP energy per Si atom -5576.553109 kJ/mol
# Density = 1.967521 g / cm^3
# Si number density = 19.720090 Si / 1000 Ang^3
#
#
#
# Elastic Constant Matrix: (Units=GPa)
#
#
# Indices 1 2 3 4 5 6 
#
# 1 73.8605 18.3540 29.2671 0.0000 0.0000 0.0000
# 2 18.3540 45.1040 48.9562 0.0000 0.0000 0.0000
# 3 29.2671 48.9562 109.1289 0.0000 0.0000 0.0000
# 4 0.0000 0.0000 0.0000 33.4478 0.0000 0.0000
# 5 0.0000 0.0000 0.0000 0.0000 -5.6632 0.0000
# 6 0.0000 0.0000 0.0000 0.0000 0.0000 32.1936
#
#
#
# Elastic Compliance Matrix: (Units=1/GPa)
#
#
# Indices 1 2 3 4 5 6 
#
# 1 0.015425 -0.003482 -0.002575 0.000000 0.000000 0.000000
# 2 -0.003482 0.043998 -0.018804 0.000000 0.000000 0.000000
# 3 -0.002575 -0.018804 0.018290 0.000000 0.000000 0.000000
# 4 0.000000 0.000000 0.000000 0.029897 0.000000 0.000000
# 5 0.000000 0.000000 0.000000 0.000000 -0.176577 0.000000
# 6 0.000000 0.000000 0.000000 0.000000 0.000000 0.031062
#
#
# Mechanical properties :
#
#
# Convention : Reuss Voigt Hill
#
# Bulk Modulus (GPa) = 35.72630 46.80533 41.26581
# Shear Modulus (GPa) = 236.45405 20.76336 128.60870
#
# Velocity S-wave (km/s) = 10.96200 3.24837 8.08447
# Velocity P-wave (km/s) = 13.35577 6.15269 10.39789
#
# Compressibility (1/GPa) = 0.02799058
#
# Stress axis : x y z
#
# Youngs Moduli (GPa) = 64.83188 22.72830 54.67599
#
# Poissons Ratio (x) = 0.07915 0.14076
# Poissons Ratio (y) = 0.22576 1.02813
# Poissons Ratio (z) = 0.16691 0.42738
#
# Static dielectric constant tensor:
#      x y z
#    x 1.692550 0.000000 0.000000 
#    y 0.000000 1.660370 0.000000 
#    z 0.000000 0.000000 1.669210 
# 
# From -- ./inp_files/2281.got.cif
#   From: 2010.05.17/outbox.cif.g08.bks.cpg/sg58_2_cif.got.tgz:2281.got - 2010.06.03 14:20:14.
