data_PCOD9445758
_publ_section_title
;
Structure prediction by ZEFSAII (Michael W. Deem and Ramdas Pophale) SiO2 
 PCOD9445758
Probable space group: P N N M
;
_chemical_formula_sum "Si O2"
_cell_formula_units_Z 40
_cell_length_a 9.152155
_cell_length_b 8.628950
_cell_length_c 23.017409
_cell_angle_alpha 90.000000
_cell_angle_beta 90.000000
_cell_angle_gamma 90.000000
_cell_volume 1817.765071
_symmetry_space_group_name_H-M "P N N M"
_symmetry_group_IT_number 58
_symmetry_cell_setting 'orthorhombic'
loop_
_space_group_symop_operation_xyz
x,y,z
-x,-y,z
1/2+x,1/2-y,1/2-z
1/2-x,1/2+y,1/2-z
-x,-y,-z
x,y,-z
1/2-x,1/2+y,1/2+z
1/2+x,1/2-y,1/2+z
loop_
_atom_site_type_symbol
_atom_site_label
_atom_site_fract_x
_atom_site_fract_y
_atom_site_fract_z
Si Si1 0.947523 0.662817 0.566035
Si Si2 0.723615 0.219958 0.435779
Si Si3 0.168916 0.058497 0.628626
Si Si4 0.147122 0.098360 0.178911
Si Si5 0.838697 0.565892 0.762784
O O1 0.889457 0.638703 0.500000
O O2 0.842413 0.768258 0.604307
O O3 0.000000 0.500000 0.591024
O O4 0.102751 0.748527 0.560427
O O5 0.659908 0.239685 0.500000
O O6 0.662848 0.334155 0.386318
O O7 0.726791 0.043373 0.413389
O O8 0.235436 0.022604 0.691082
O O9 0.000000 0.000000 0.630066
O O10 0.156936 0.254111 0.218680
O O11 0.273567 0.982875 0.200834
O O12 0.000000 0.000000 0.185775
O O13 0.000000 0.500000 0.767982
#
# Coordination Sequence:
#
# PCOD9445758 Si02
#       5
#     8   8   8   8   8
#     4   9  17  29  51  86 122 157 202 253 303 358
#     4   9  19  36  59  88 121 162 208 253 307 370
#     4   9  18  35  60  86 121 165 207 253 308 371
#     4  11  24  42  64  91 124 162 206 258 315 379
#     4  11  24  41  62  90 123 161 207 259 317 378
#
# _framework density 22.005042
#
# number of rings (size 3 to 8) (size 9 to 14) (size 15 to 20)
#    0.000    2.200    0.000    2.400    0.000   10.000 
#    0.000    0.000    0.000   15.000    0.000    0.000 
#    0.000    0.800    0.000    0.000    0.000    0.000 
#
# Total GULP energy -223194.730153 kJ/mol
# GULP energy per Si atom -5579.868254 kJ/mol
# Density = 2.195496 g / cm^3
# Si number density = 22.005042 Si / 1000 Ang^3
#
#
#
# Elastic Constant Matrix: (Units=GPa)
#
#
# Indices 1 2 3 4 5 6 
#
# 1 59.6282 40.4639 39.8145 0.0000 0.0000 0.0000
# 2 40.4639 138.0110 117.6558 0.0000 0.0000 0.0000
# 3 39.8145 117.6558 127.2460 0.0000 0.0000 0.0000
# 4 0.0000 0.0000 0.0000 33.8190 0.0000 0.0000
# 5 0.0000 0.0000 0.0000 0.0000 7.3379 0.0000
# 6 0.0000 0.0000 0.0000 0.0000 0.0000 32.7874
#
#
#
# Elastic Compliance Matrix: (Units=1/GPa)
#
#
# Indices 1 2 3 4 5 6 
#
# 1 0.021407 -0.002674 -0.004226 0.000000 0.000000 0.000000
# 2 -0.002674 0.034554 -0.031113 0.000000 0.000000 0.000000
# 3 -0.004226 -0.031113 0.037949 0.000000 0.000000 0.000000
# 4 0.000000 0.000000 0.000000 0.029569 0.000000 0.000000
# 5 0.000000 0.000000 0.000000 0.000000 0.136279 0.000000
# 6 0.000000 0.000000 0.000000 0.000000 0.000000 0.030500
#
#
# Mechanical properties :
#
#
# Convention : Reuss Voigt Hill
#
# Bulk Modulus (GPa) = 55.91430 80.08374 67.99902
# Shear Modulus (GPa) = 13.43202 23.25225 18.34213
#
# Velocity S-wave (km/s) = 2.47332 3.25419 2.89025
# Velocity P-wave (km/s) = 5.79839 7.11281 6.48897
#
# Compressibility (1/GPa) = 0.01788451
#
# Stress axis : x y z
#
# Youngs Moduli (GPa) = 46.71452 28.94014 26.35098
#
# Poissons Ratio (x) = 0.07738 0.11135
# Poissons Ratio (y) = 0.12491 0.81986
# Poissons Ratio (z) = 0.19740 0.90042
#
# Static dielectric constant tensor:
#      x y z
#    x 1.813370 0.000000 0.000000 
#    y 0.000000 1.858740 0.000000 
#    z 0.000000 0.000000 1.868110 
# 
# From -- ./inp_files/31246.got.cif
#   From: 2010.05.17/outbox.cif.g08.bks.cpg/sg58_16_cif.got.tgz:31246.got - 2010.06.03 14:20:14.
