data_PCOD9445709
_publ_section_title
;
Structure prediction by ZEFSAII (Michael W. Deem and Ramdas Pophale) SiO2 
 PCOD9445709
Probable space group: P N N M
;
_chemical_formula_sum "Si O2"
_cell_formula_units_Z 32
_cell_length_a 11.838065
_cell_length_b 7.107481
_cell_length_c 17.178613
_cell_angle_alpha 90.000000
_cell_angle_beta 90.000000
_cell_angle_gamma 90.000000
_cell_volume 1445.388263
_symmetry_space_group_name_H-M "P N N M"
_symmetry_group_IT_number 58
_symmetry_cell_setting 'orthorhombic'
loop_
_space_group_symop_operation_xyz
x,y,z
-x,-y,z
1/2+x,1/2-y,1/2-z
1/2-x,1/2+y,1/2-z
-x,-y,-z
x,y,-z
1/2-x,1/2+y,1/2+z
1/2+x,1/2-y,1/2+z
loop_
_atom_site_type_symbol
_atom_site_label
_atom_site_fract_x
_atom_site_fract_y
_atom_site_fract_z
Si Si1 0.707918 0.325364 0.644707
Si Si2 0.752861 0.894342 0.324865
Si Si3 0.109760 0.398550 0.588902
Si Si4 0.465940 0.221050 0.588934
O O1 0.731078 0.394225 0.732596
O O2 0.788489 0.451690 0.592031
O O3 0.577085 0.328677 0.619143
O O4 0.742742 0.105850 0.643882
O O5 0.855724 0.782265 0.362490
O O6 0.640671 0.781457 0.353158
O O7 0.086590 0.344984 0.500000
O O8 0.000000 0.500000 0.622986
O O9 0.436080 0.276556 0.500000
O O10 0.500000 0.000000 0.585756
#
# Coordination Sequence:
#
# PCOD9445709 Si02
#       4
#     8   8   8   8
#     4  11  23  41  68  98 131 172 217 275 333 395
#     4  11  23  41  68  98 131 172 217 275 333 395
#     4  11  26  45  65  93 135 179 223 271 328 396
#     4   9  20  39  65  95 128 164 215 273 330 390
#
# _framework density 22.139379000000002
#
# number of rings (size 3 to 8) (size 9 to 14) (size 15 to 20)
#    0.000    1.500    2.500    1.500    3.500    5.000 
#    0.000    5.000    0.000    0.000    0.000    0.000 
#    0.000    0.000    0.000    0.000    0.000    0.000 
#
# Total GULP energy -179066.653465 kJ/mol
# GULP energy per Si atom -5595.832921 kJ/mol
# Density = 2.208899 g / cm^3
# Si number density = 22.139379 Si / 1000 Ang^3
#
#
#
# Elastic Constant Matrix: (Units=GPa)
#
#
# Indices 1 2 3 4 5 6 
#
# 1 70.1245 19.5259 20.1141 0.0000 0.0000 0.0000
# 2 19.5259 82.9897 -5.0950 0.0000 0.0000 0.0000
# 3 20.1141 -5.0950 98.4096 0.0000 0.0000 0.0000
# 4 0.0000 0.0000 0.0000 8.6011 0.0000 0.0000
# 5 0.0000 0.0000 0.0000 0.0000 33.7878 0.0000
# 6 0.0000 0.0000 0.0000 0.0000 0.0000 37.8133
#
#
#
# Elastic Compliance Matrix: (Units=1/GPa)
#
#
# Indices 1 2 3 4 5 6 
#
# 1 0.016420 -0.004082 -0.003568 0.000000 0.000000 0.000000
# 2 -0.004082 0.013103 0.001513 0.000000 0.000000 0.000000
# 3 -0.003568 0.001513 0.010969 0.000000 0.000000 0.000000
# 4 0.000000 0.000000 0.000000 0.116264 0.000000 0.000000
# 5 0.000000 0.000000 0.000000 0.000000 0.029596 0.000000
# 6 0.000000 0.000000 0.000000 0.000000 0.000000 0.026446
#
#
# Mechanical properties :
#
#
# Convention : Reuss Voigt Hill
#
# Bulk Modulus (GPa) = 35.43809 35.62376 35.53092
# Shear Modulus (GPa) = 21.32386 30.50570 25.91478
#
# Velocity S-wave (km/s) = 3.10686 3.71603 3.42501
# Velocity P-wave (km/s) = 5.37695 5.87685 5.63245
#
# Compressibility (1/GPa) = 0.02821823
#
# Stress axis : x y z
#
# Youngs Moduli (GPa) = 60.89988 76.31792 91.16509
#
# Poissons Ratio (x) = 0.31156 0.32524
# Poissons Ratio (y) = 0.24862 -0.13792
# Poissons Ratio (z) = 0.21726 -0.11545
#
# Static dielectric constant tensor:
#      x y z
#    x 1.821800 0.000000 0.000000 
#    y 0.000000 1.844230 0.000000 
#    z 0.000000 0.000000 1.755750 
# 
# From -- ./inp_files/19189.got.cif
#   From: 2010.05.17/outbox.cif.g08.bks.cpg/sg58_10_cif.got.tgz:19189.got - 2010.06.03 14:20:14.
