data_PCOD9445830
_publ_section_title
;
Structure prediction by ZEFSAII (Michael W. Deem and Ramdas Pophale) SiO2 
 PCOD9445830
Probable space group: P N N M
;
_chemical_formula_sum "Si O2"
_cell_formula_units_Z 36
_cell_length_a 5.074952
_cell_length_b 11.938019
_cell_length_c 26.186849
_cell_angle_alpha 90.000000
_cell_angle_beta 90.000000
_cell_angle_gamma 90.000000
_cell_volume 1586.526931
_symmetry_space_group_name_H-M "P N N M"
_symmetry_group_IT_number 58
_symmetry_cell_setting 'orthorhombic'
loop_
_space_group_symop_operation_xyz
x,y,z
-x,-y,z
1/2+x,1/2-y,1/2-z
1/2-x,1/2+y,1/2-z
-x,-y,-z
x,y,-z
1/2-x,1/2+y,1/2+z
1/2+x,1/2-y,1/2+z
loop_
_atom_site_type_symbol
_atom_site_label
_atom_site_fract_x
_atom_site_fract_y
_atom_site_fract_z
Si Si1 0.293187 0.761045 0.590348
Si Si2 0.259660 0.582417 0.500000
Si Si3 0.250147 0.068854 0.165553
Si Si4 0.819906 0.819475 0.264680
Si Si5 0.685821 0.388363 0.116717
O O1 0.306507 0.665170 0.548000
O O2 0.280455 0.692901 0.643490
O O3 0.519258 0.857835 0.595279
O O4 0.002917 0.809872 0.583722
O O5 0.500000 0.500000 0.500000
O O6 0.000000 0.500000 0.500000
O O7 0.256565 0.080702 0.226572
O O8 0.500000 0.000000 0.146931
O O9 0.000000 0.000000 0.148934
O O10 0.608751 0.722149 0.252207
O O11 0.804815 0.853587 0.323619
O O12 0.500000 0.500000 0.116060
#
# Coordination Sequence:
#
# PCOD9445830 Si02
#       5
#     8   4   8   8   8
#     4  12  25  46  70 101 139 175 235 293 351 423
#     4  12  26  50  79 108 137 176 222 294 378 430
#     4  12  23  38  64  96 131 177 224 280 344 410
#     4  12  22  41  63  95 138 186 231 282 336 402
#     4  12  25  45  69  99 141 192 233 285 345 411
#
# _framework density 22.691075000000001
#
# number of rings (size 3 to 8) (size 9 to 14) (size 15 to 20)
#    0.000    0.000    4.444    6.667    0.000    1.778 
#    0.000    3.333    0.000    0.000    0.000    0.000 
#    0.000    0.000    0.000    0.000    0.000    0.000 
#
# Total GULP energy -200857.121855 kJ/mol
# GULP energy per Si atom -5579.364496 kJ/mol
# Density = 2.263943 g / cm^3
# Si number density = 22.691075 Si / 1000 Ang^3
#
#
#
# Elastic Constant Matrix: (Units=GPa)
#
#
# Indices 1 2 3 4 5 6 
#
# 1 157.4746 30.2916 13.5646 0.0000 0.0000 0.0000
# 2 30.2916 61.5793 19.0839 0.0000 0.0000 0.0000
# 3 13.5646 19.0839 92.0024 0.0000 0.0000 0.0000
# 4 0.0000 0.0000 0.0000 36.8459 0.0000 0.0000
# 5 0.0000 0.0000 0.0000 0.0000 20.9356 0.0000
# 6 0.0000 0.0000 0.0000 0.0000 0.0000 48.2983
#
#
#
# Elastic Compliance Matrix: (Units=1/GPa)
#
#
# Indices 1 2 3 4 5 6 
#
# 1 0.007024 -0.003350 -0.000341 0.000000 0.000000 0.000000
# 2 -0.003350 0.018952 -0.003437 0.000000 0.000000 0.000000
# 3 -0.000341 -0.003437 0.011633 0.000000 0.000000 0.000000
# 4 0.000000 0.000000 0.000000 0.027140 0.000000 0.000000
# 5 0.000000 0.000000 0.000000 0.000000 0.047765 0.000000
# 6 0.000000 0.000000 0.000000 0.000000 0.000000 0.020705
#
#
# Mechanical properties :
#
#
# Convention : Reuss Voigt Hill
#
# Bulk Modulus (GPa) = 42.82070 48.54852 45.68461
# Shear Modulus (GPa) = 32.20434 37.75705 34.98069
#
# Velocity S-wave (km/s) = 3.77138 4.08359 3.93059
# Velocity P-wave (km/s) = 6.15439 6.60879 6.38564
#
# Compressibility (1/GPa) = 0.02335319
#
# Stress axis : x y z
#
# Youngs Moduli (GPa) = 142.37109 52.76445 85.96577
#
# Poissons Ratio (x) = 0.17674 0.02930
# Poissons Ratio (y) = 0.47688 0.29550
# Poissons Ratio (z) = 0.04852 0.18137
#
# Static dielectric constant tensor:
#      x y z
#    x 1.843560 0.000000 0.000000 
#    y 0.000000 1.788430 0.000000 
#    z 0.000000 0.000000 2.222040 
# 
# From -- ./inp_files/34075.got.cif
#   From: 2010.05.17/outbox.cif.g08.bks.cpg/sg58_18_cif.got.tgz:34075.got - 2010.06.03 14:20:14.
