data_PCOD9445233
_publ_section_title
;
Structure prediction by ZEFSAII (Michael W. Deem and Ramdas Pophale) SiO2 
 PCOD9445233
Probable space group: P N N M
;
_chemical_formula_sum "Si O2"
_cell_formula_units_Z 58
_cell_length_a 8.579907
_cell_length_b 8.673095
_cell_length_c 32.649121
_cell_angle_alpha 90.000000
_cell_angle_beta 90.000000
_cell_angle_gamma 90.000000
_cell_volume 2429.563068
_symmetry_space_group_name_H-M "P N N M"
_symmetry_group_IT_number 58
_symmetry_cell_setting 'orthorhombic'
loop_
_space_group_symop_operation_xyz
x,y,z
-x,-y,z
1/2+x,1/2-y,1/2-z
1/2-x,1/2+y,1/2-z
-x,-y,-z
x,y,-z
1/2-x,1/2+y,1/2+z
1/2+x,1/2-y,1/2+z
loop_
_atom_site_type_symbol
_atom_site_label
_atom_site_fract_x
_atom_site_fract_y
_atom_site_fract_z
Si Si1 0.708478 0.045300 0.078424
Si Si2 0.167923 0.913533 0.778257
Si Si3 0.000000 0.500000 0.500000
Si Si4 0.803271 0.279550 0.304283
Si Si5 0.565583 0.756211 0.113720
Si Si6 0.066559 0.706695 0.929530
Si Si7 0.974899 0.328893 0.165823
Si Si8 0.740491 0.578211 0.045380
O O1 0.598214 0.178288 0.098058
O O2 0.873331 0.120664 0.071006
O O3 0.686610 0.898864 0.107237
O O4 0.632892 0.997359 0.035835
O O5 0.193855 0.828473 0.735379
O O6 0.150719 0.778429 0.811891
O O7 0.295921 0.042180 0.789927
O O8 0.000000 0.000000 0.776029
O O9 0.931105 0.229160 0.337852
O O10 0.640188 0.250880 0.327170
O O11 0.628425 0.625694 0.082753
O O12 0.059237 0.657884 0.882085
O O13 0.193654 0.595291 0.950917
O O14 0.899045 0.677514 0.949435
O O15 0.000000 0.500000 0.183242
O O16 0.670960 0.604768 0.000000
#
# Coordination Sequence:
#
# PCOD9445233 Si02
#       8
#     8   8   2   8   8   8   8   8
#     4  10  24  40  65  90 123 173 214 257 323 373
#     4  10  24  40  64  97 127 168 214 272 329 404
#     4   8  20  40  60  82 128 158 212 264 300 382
#     4  11  21  44  63  92 130 164 216 269 332 390
#     4  10  22  45  61  92 125 170 209 271 310 396
#     4  11  21  42  63  96 127 173 205 272 318 391
#     4  11  20  40  65  94 126 172 215 264 334 386
#     4  11  24  40  63  96 135 162 222 263 326 382
#
# _framework density 23.872603999999999
#
# number of rings (size 3 to 8) (size 9 to 14) (size 15 to 20)
#    0.000    1.655    2.759    2.483    5.793    1.103 
#   22.345    1.379    0.000    0.000    0.000    0.000 
#    0.000    0.000    0.000    0.000    0.000    0.000 
#
# Total GULP energy -323949.776119 kJ/mol
# GULP energy per Si atom -5585.340968 kJ/mol
# Density = 2.381827 g / cm^3
# Si number density = 23.872604 Si / 1000 Ang^3
#
#
#
# Elastic Constant Matrix: (Units=GPa)
#
#
# Indices 1 2 3 4 5 6 
#
# 1 40.0217 40.9195 16.0163 0.0000 0.0000 0.0000
# 2 40.9195 93.1615 30.8627 0.0000 0.0000 0.0000
# 3 16.0163 30.8627 176.5095 0.0000 0.0000 0.0000
# 4 0.0000 0.0000 0.0000 51.4149 0.0000 0.0000
# 5 0.0000 0.0000 0.0000 0.0000 2.7069 0.0000
# 6 0.0000 0.0000 0.0000 0.0000 0.0000 39.7430
#
#
#
# Elastic Compliance Matrix: (Units=1/GPa)
#
#
# Indices 1 2 3 4 5 6 
#
# 1 0.045429 -0.019731 -0.000672 0.000000 0.000000 0.000000
# 2 -0.019731 0.019964 -0.001700 0.000000 0.000000 0.000000
# 3 -0.000672 -0.001700 0.006024 0.000000 0.000000 0.000000
# 4 0.000000 0.000000 0.000000 0.019450 0.000000 0.000000
# 5 0.000000 0.000000 0.000000 0.000000 0.369423 0.000000
# 6 0.000000 0.000000 0.000000 0.000000 0.000000 0.025162
#
#
# Mechanical properties :
#
#
# Convention : Reuss Voigt Hill
#
# Bulk Modulus (GPa) = 36.75199 53.92107 45.33653
# Shear Modulus (GPa) = 9.28110 33.56592 21.42351
#
# Velocity S-wave (km/s) = 1.97388 3.75379 2.99893
# Velocity P-wave (km/s) = 4.54130 6.43615 5.56989
#
# Compressibility (1/GPa) = 0.02720941
#
# Stress axis : x y z
#
# Youngs Moduli (GPa) = 22.01215 50.09025 166.01069
#
# Poissons Ratio (x) = 0.98835 0.11159
# Poissons Ratio (y) = 0.43433 0.28227
# Poissons Ratio (z) = 0.01480 0.08517
#
# Static dielectric constant tensor:
#      x y z
#    x 1.869080 0.000000 0.000000 
#    y 0.000000 1.945140 0.000000 
#    z 0.000000 0.000000 1.870880 
# 
# From -- ./inp_files/34917.got.cif
#   From: 2010.05.17/outbox.cif.g08.bks.cpg/sg58_18_cif.got.tgz:34917.got - 2010.06.03 14:20:14.
