data_PCOD9445757
_publ_section_title
;
Structure prediction by ZEFSAII (Michael W. Deem and Ramdas Pophale) SiO2 
 PCOD9445757
Probable space group: P N N M
;
_chemical_formula_sum "Si O2"
_cell_formula_units_Z 56
_cell_length_a 21.556415
_cell_length_b 14.621447
_cell_length_c 9.078732
_cell_angle_alpha 90.000000
_cell_angle_beta 90.000000
_cell_angle_gamma 90.000000
_cell_volume 2861.489037
_symmetry_space_group_name_H-M "P N N M"
_symmetry_group_IT_number 58
_symmetry_cell_setting 'orthorhombic'
loop_
_space_group_symop_operation_xyz
x,y,z
-x,-y,z
1/2+x,1/2-y,1/2-z
1/2-x,1/2+y,1/2-z
-x,-y,-z
x,y,-z
1/2-x,1/2+y,1/2+z
1/2+x,1/2-y,1/2+z
loop_
_atom_site_type_symbol
_atom_site_label
_atom_site_fract_x
_atom_site_fract_y
_atom_site_fract_z
Si Si1 0.470501 0.368981 0.166559
Si Si2 0.648711 0.500616 0.169583
Si Si3 0.363324 0.835771 0.175273
Si Si4 0.090751 0.158925 0.828259
Si Si5 0.073443 0.509700 0.824280
Si Si6 0.116637 0.694220 0.327121
Si Si7 0.231089 0.824811 0.676854
O O1 0.415797 0.442948 0.175501
O O2 0.523536 0.380735 0.285932
O O3 0.436789 0.271311 0.184629
O O4 0.497111 0.374517 0.000000
O O5 0.641735 0.414016 0.274122
O O6 0.700315 0.576018 0.207127
O O7 0.657961 0.471104 0.000000
O O8 0.403303 0.751284 0.235394
O O9 0.294236 0.817420 0.235005
O O10 0.389768 0.928590 0.244697
O O11 0.364896 0.840043 0.000000
O O12 0.096654 0.177611 0.000000
O O13 0.099292 0.606609 0.767882
O O14 0.000000 0.500000 0.790713
O O15 0.081108 0.502049 0.000000
O O16 0.120886 0.668608 0.500000
O O17 0.180449 0.746636 0.286587
O O18 0.241729 0.819933 0.500000
#
# Coordination Sequence:
#
# PCOD9445757 Si02
#       7
#     8   8   8   8   8   8   8
#     4   9  18  35  59  87 119 152 188 229 276 337
#     4   9  19  37  61  86 115 153 190 228 280 340
#     4  12  26  42  61  83 112 153 197 242 292 347
#     4  12  24  36  54  83 118 152 188 234 284 333
#     4  11  24  41  62  90 122 156 196 246 301 352
#     4   9  19  37  63  90 116 153 194 235 288 348
#     4   9  20  41  64  87 116 148 191 243 289 340
#
# _framework density 19.570229999999999
#
# number of rings (size 3 to 8) (size 9 to 14) (size 15 to 20)
#    0.000    1.857    0.000    6.000    0.000    8.571 
#    0.000    2.857    0.000    0.000    0.000    0.000 
#    0.000    0.000    0.000    0.000    0.000    0.000 
#
# Total GULP energy -312998.083615 kJ/mol
# GULP energy per Si atom -5589.251493 kJ/mol
# Density = 1.952569 g / cm^3
# Si number density = 19.570230 Si / 1000 Ang^3
#
#
#
# Elastic Constant Matrix: (Units=GPa)
#
#
# Indices 1 2 3 4 5 6 
#
# 1 58.8759 3.0746 35.4993 0.0000 0.0000 0.0000
# 2 3.0746 90.0405 41.9984 0.0000 0.0000 0.0000
# 3 35.4993 41.9984 81.6957 0.0000 0.0000 0.0000
# 4 0.0000 0.0000 0.0000 9.0840 0.0000 0.0000
# 5 0.0000 0.0000 0.0000 0.0000 18.4670 0.0000
# 6 0.0000 0.0000 0.0000 0.0000 0.0000 12.0055
#
#
#
# Elastic Compliance Matrix: (Units=1/GPa)
#
#
# Indices 1 2 3 4 5 6 
#
# 1 0.024946 0.005530 -0.013683 0.000000 0.000000 0.000000
# 2 0.005530 0.015835 -0.010544 0.000000 0.000000 0.000000
# 3 -0.013683 -0.010544 0.023607 0.000000 0.000000 0.000000
# 4 0.000000 0.000000 0.000000 0.110084 0.000000 0.000000
# 5 0.000000 0.000000 0.000000 0.000000 0.054151 0.000000
# 6 0.000000 0.000000 0.000000 0.000000 0.000000 0.083295
#
#
# Mechanical properties :
#
#
# Convention : Reuss Voigt Hill
#
# Bulk Modulus (GPa) = 37.04331 43.52854 40.28593
# Shear Modulus (GPa) = 13.95441 17.91395 15.93418
#
# Velocity S-wave (km/s) = 2.67318 3.02879 2.85652
# Velocity P-wave (km/s) = 5.33829 5.87553 5.61334
#
# Compressibility (1/GPa) = 0.02699543
#
# Stress axis : x y z
#
# Youngs Moduli (GPa) = 40.08614 63.14999 42.36093
#
# Poissons Ratio (x) = -0.34925 0.57963
# Poissons Ratio (y) = -0.22170 0.44665
# Poissons Ratio (z) = 0.54850 0.66584
#
# Static dielectric constant tensor:
#      x y z
#    x 1.368430 0.000000 0.000000 
#    y 0.000000 1.696830 0.000000 
#    z 0.000000 0.000000 1.650920 
# 
# From -- ./inp_files/9004.got.cif
#   From: 2010.05.17/outbox.cif.g08.bks.cpg/sg58_5_cif.got.tgz:9004.got - 2010.06.03 14:20:14.
