data_PCOD9445068
_publ_section_title
;
Structure prediction by ZEFSAII (Michael W. Deem and Ramdas Pophale) SiO2 
 PCOD9445068
Probable space group: P N N M
;
_chemical_formula_sum "Si O2"
_cell_formula_units_Z 64
_cell_length_a 24.269471
_cell_length_b 15.370596
_cell_length_c 8.989054
_cell_angle_alpha 90.000000
_cell_angle_beta 90.000000
_cell_angle_gamma 90.000000
_cell_volume 3353.242850
_symmetry_space_group_name_H-M "P N N M"
_symmetry_group_IT_number 58
_symmetry_cell_setting 'orthorhombic'
loop_
_space_group_symop_operation_xyz
x,y,z
-x,-y,z
1/2+x,1/2-y,1/2-z
1/2-x,1/2+y,1/2-z
-x,-y,-z
x,y,-z
1/2-x,1/2+y,1/2+z
1/2+x,1/2-y,1/2+z
loop_
_atom_site_type_symbol
_atom_site_label
_atom_site_fract_x
_atom_site_fract_y
_atom_site_fract_z
Si Si1 0.216265 0.412198 0.671846
Si Si2 0.376722 0.657147 0.824035
Si Si3 0.989814 0.897630 0.176653
Si Si4 0.116320 0.339176 0.175910
Si Si5 0.273643 0.597957 0.672232
Si Si6 0.575751 0.754723 0.321169
Si Si7 0.997907 0.603150 0.678237
Si Si8 0.204440 0.751371 0.178684
O O1 0.198825 0.395364 0.500000
O O2 0.163357 0.406398 0.776621
O O3 0.242961 0.506456 0.678617
O O4 0.261806 0.339545 0.711446
O O5 0.436976 0.630039 0.770489
O O6 0.363755 0.748394 0.745000
O O7 0.330050 0.592917 0.764255
O O8 0.374164 0.666423 0.000000
O O9 0.040304 0.832536 0.213240
O O10 0.978120 0.886005 0.000000
O O11 0.000000 0.000000 0.201122
O O12 0.058278 0.361261 0.250604
O O13 0.109947 0.333015 0.000000
O O14 0.286349 0.618056 0.500000
O O15 0.235063 0.672475 0.740519
O O16 0.572829 0.766707 0.500000
O O17 0.547115 0.837843 0.244000
O O18 0.639903 0.744205 0.280016
O O19 0.996870 0.612977 0.500000
O O20 0.000000 0.500000 0.712387
O O21 0.207268 0.738347 0.000000
#
# Coordination Sequence:
#
# PCOD9445068 Si02
#       8
#     8   8   8   8   8   8   8   8
#     4  10  23  42  65  92 127 166 205 256 315 373
#     4  12  24  41  65  92 127 166 210 265 317 368
#     4  10  22  40  66  95 125 164 210 258 310 374
#     4  12  24  41  67  94 123 162 212 265 316 373
#     4  11  24  41  65  94 124 166 213 257 310 373
#     4  10  22  40  63  92 125 165 208 254 310 373
#     4  11  25  43  64  91 126 168 209 256 315 372
#     4  10  22  41  63  89 126 168 205 254 314 371
#
# _framework density 19.086001
#
# number of rings (size 3 to 8) (size 9 to 14) (size 15 to 20)
#    0.000    1.250    2.500    3.000    3.500    2.750 
#    0.000    0.000    0.000    0.000    0.000    0.000 
#    0.000    0.000    0.000    0.000    0.000    0.000 
#
# Total GULP energy -357736.561718 kJ/mol
# GULP energy per Si atom -5589.633777 kJ/mol
# Density = 1.904256 g / cm^3
# Si number density = 19.086001 Si / 1000 Ang^3
#
#
#
# Elastic Constant Matrix: (Units=GPa)
#
#
# Indices 1 2 3 4 5 6 
#
# 1 90.8119 6.7704 28.9053 0.0000 0.0000 0.0000
# 2 6.7704 71.7032 28.3841 0.0000 0.0000 0.0000
# 3 28.9053 28.3841 47.7525 0.0000 0.0000 0.0000
# 4 0.0000 0.0000 0.0000 -13.9037 0.0000 0.0000
# 5 0.0000 0.0000 0.0000 0.0000 76.8357 0.0000
# 6 0.0000 0.0000 0.0000 0.0000 0.0000 22.0515
#
#
#
# Elastic Compliance Matrix: (Units=1/GPa)
#
#
# Indices 1 2 3 4 5 6 
#
# 1 0.014018 0.002662 -0.010067 0.000000 0.000000 0.000000
# 2 0.002662 0.018743 -0.012752 0.000000 0.000000 0.000000
# 3 -0.010067 -0.012752 0.034615 0.000000 0.000000 0.000000
# 4 0.000000 0.000000 0.000000 -0.071923 0.000000 0.000000
# 5 0.000000 0.000000 0.000000 0.000000 0.013015 0.000000
# 6 0.000000 0.000000 0.000000 0.000000 0.000000 0.045348
#
#
# Mechanical properties :
#
#
# Convention : Reuss Voigt Hill
#
# Bulk Modulus (GPa) = 36.95422 37.59857 37.27639
# Shear Modulus (GPa) = 48.47274 26.74389 37.60832
#
# Velocity S-wave (km/s) = 5.04501 3.74736 4.44381
# Velocity P-wave (km/s) = 7.30344 6.20209 6.77518
#
# Compressibility (1/GPa) = 0.02706051
#
# Stress axis : x y z
#
# Youngs Moduli (GPa) = 71.33830 53.35323 28.88929
#
# Poissons Ratio (x) = -0.14200 0.29083
# Poissons Ratio (y) = -0.18987 0.36839
# Poissons Ratio (z) = 0.71817 0.68036
#
# Static dielectric constant tensor:
#      x y z
#    x 1.653520 0.000000 0.000000 
#    y 0.000000 1.671530 0.000000 
#    z 0.000000 0.000000 1.644260 
# 
# From -- ./inp_files/10053.got.cif
#   From: 2010.05.17/outbox.cif.g08.bks.cpg/sg58_6_cif.got.tgz:10053.got - 2010.06.03 14:20:14.
