data_PCOD9445443
_publ_section_title
;
Structure prediction by ZEFSAII (Michael W. Deem and Ramdas Pophale) SiO2 
 PCOD9445443
Probable space group: P N N M
;
_chemical_formula_sum "Si O2"
_cell_formula_units_Z 60
_cell_length_a 20.530668
_cell_length_b 5.121141
_cell_length_c 23.331460
_cell_angle_alpha 90.000000
_cell_angle_beta 90.000000
_cell_angle_gamma 90.000000
_cell_volume 2453.080102
_symmetry_space_group_name_H-M "P N N M"
_symmetry_group_IT_number 58
_symmetry_cell_setting 'orthorhombic'
loop_
_space_group_symop_operation_xyz
x,y,z
-x,-y,z
1/2+x,1/2-y,1/2-z
1/2-x,1/2+y,1/2-z
-x,-y,-z
x,y,-z
1/2-x,1/2+y,1/2+z
1/2+x,1/2-y,1/2+z
loop_
_atom_site_type_symbol
_atom_site_label
_atom_site_fract_x
_atom_site_fract_y
_atom_site_fract_z
Si Si1 0.956254 0.248462 0.500000
Si Si2 0.852683 0.969267 0.871276
Si Si3 0.861099 0.711728 0.760093
Si Si4 0.924916 0.922404 0.655880
Si Si5 0.130335 0.597676 0.603179
Si Si6 0.237349 0.666946 0.182177
Si Si7 0.456055 0.239416 0.566464
Si Si8 0.240976 0.337502 0.934642
O O1 0.912957 0.264208 0.555515
O O2 0.000000 0.500000 0.500000
O O3 0.000000 0.000000 0.500000
O O4 0.787141 0.049593 0.836893
O O5 0.893018 0.208664 0.895404
O O6 0.888040 0.825285 0.819872
O O7 0.829058 0.797007 0.924397
O O8 0.918881 0.763199 0.715485
O O9 0.823205 0.454057 0.782456
O O10 0.801047 0.830870 0.721300
O O11 0.893861 0.697780 0.614099
O O12 0.884276 0.197247 0.654968
O O13 0.000000 0.000000 0.644565
O O14 0.202018 0.625802 0.576763
O O15 0.247445 0.526712 0.120605
O O16 0.500000 0.500000 0.569077
O O17 0.437530 0.195634 0.500000
O O18 0.500000 0.000000 0.585697
O O19 0.246649 0.439236 0.000000
#
# Coordination Sequence:
#
# PCOD9445443 Si02
#       8
#     4   8   8   8   8   8   8   8
#     4  12  24  44  70  96 136 192 242 287 352 427
#     4  11  25  44  72 103 139 187 241 295 364 438
#     4  11  24  41  70  98 137 189 238 294 360 430
#     4  12  27  46  69  99 141 185 242 297 353 417
#     4  12  25  46  68 102 140 186 237 295 357 417
#     4  11  23  44  70 101 138 185 237 296 365 430
#     4  10  24  47  74 104 145 189 234 292 360 436
#     4  11  25  44  70 107 144 182 237 304 362 433
#
# _framework density 24.459043999999999
#
# number of rings (size 3 to 8) (size 9 to 14) (size 15 to 20)
#    0.000    0.800    3.333    3.600    7.467    1.600 
#    0.000    0.000    0.000    0.000    0.000    0.000 
#    0.000    0.000    0.000    0.000    0.000    0.000 
#
# Total GULP energy -334937.786984 kJ/mol
# GULP energy per Si atom -5582.296450 kJ/mol
# Density = 2.440337 g / cm^3
# Si number density = 24.459044 Si / 1000 Ang^3
#
#
#
# Elastic Constant Matrix: (Units=GPa)
#
#
# Indices 1 2 3 4 5 6 
#
# 1 44.2524 0.4741 28.1738 0.0000 0.0000 0.0000
# 2 0.4741 85.6854 16.5381 0.0000 0.0000 0.0000
# 3 28.1738 16.5381 123.2974 0.0000 0.0000 0.0000
# 4 0.0000 0.0000 0.0000 19.7589 0.0000 0.0000
# 5 0.0000 0.0000 0.0000 0.0000 35.0939 0.0000
# 6 0.0000 0.0000 0.0000 0.0000 0.0000 37.9482
#
#
#
# Elastic Compliance Matrix: (Units=1/GPa)
#
#
# Indices 1 2 3 4 5 6 
#
# 1 0.026537 0.001051 -0.006205 0.000000 0.000000 0.000000
# 2 0.001051 0.012022 -0.001853 0.000000 0.000000 0.000000
# 3 -0.006205 -0.001853 0.009777 0.000000 0.000000 0.000000
# 4 0.000000 0.000000 0.000000 0.050610 0.000000 0.000000
# 5 0.000000 0.000000 0.000000 0.000000 0.028495 0.000000
# 6 0.000000 0.000000 0.000000 0.000000 0.000000 0.026352
#
#
# Mechanical properties :
#
#
# Convention : Reuss Voigt Hill
#
# Bulk Modulus (GPa) = 29.13530 38.17857 33.65694
# Shear Modulus (GPa) = 27.89453 32.43014 30.16233
#
# Velocity S-wave (km/s) = 3.38073 3.64524 3.51547
# Velocity P-wave (km/s) = 5.21314 5.77582 5.50168
#
# Compressibility (1/GPa) = 0.03432263
#
# Stress axis : x y z
#
# Youngs Moduli (GPa) = 37.68369 83.17825 102.28342
#
# Poissons Ratio (x) = -0.08740 0.63463
# Poissons Ratio (y) = -0.03960 0.18950
# Poissons Ratio (z) = 0.23381 0.15410
#
# Static dielectric constant tensor:
#      x y z
#    x 2.015570 0.000000 0.000000 
#    y 0.000000 2.022720 0.000000 
#    z 0.000000 0.000000 1.913760 
# 
# From -- ./inp_files/30544.got.cif
#   From: 2010.05.17/outbox.cif.g08.bks.cpg/sg58_16_cif.got.tgz:30544.got - 2010.06.03 14:20:14.
