data_PCOD9445844
_publ_section_title
;
Structure prediction by ZEFSAII (Michael W. Deem and Ramdas Pophale) SiO2 
 PCOD9445844
Probable space group: P N N M
;
_chemical_formula_sum "Si O2"
_cell_formula_units_Z 34
_cell_length_a 7.573324
_cell_length_b 21.526693
_cell_length_c 10.383855
_cell_angle_alpha 90.000000
_cell_angle_beta 90.000000
_cell_angle_gamma 90.000000
_cell_volume 1692.865559
_symmetry_space_group_name_H-M "P N N M"
_symmetry_group_IT_number 58
_symmetry_cell_setting 'orthorhombic'
loop_
_space_group_symop_operation_xyz
x,y,z
-x,-y,z
1/2+x,1/2-y,1/2-z
1/2-x,1/2+y,1/2-z
-x,-y,-z
x,y,-z
1/2-x,1/2+y,1/2+z
1/2+x,1/2-y,1/2+z
loop_
_atom_site_type_symbol
_atom_site_label
_atom_site_fract_x
_atom_site_fract_y
_atom_site_fract_z
Si Si1 0.551656 0.611246 0.790602
Si Si2 0.461561 0.572770 0.500000
Si Si3 0.459806 0.073044 0.000000
Si Si4 0.246679 0.707868 0.854139
Si Si5 0.000000 0.000000 0.500000
Si Si6 0.896132 0.661163 0.281526
O O1 0.537088 0.597089 0.636607
O O2 0.414833 0.666820 0.814940
O O3 0.753217 0.632244 0.815733
O O4 0.504868 0.554520 0.885146
O O5 0.500000 0.500000 0.500000
O O6 0.250669 0.583513 0.500000
O O7 0.545702 0.107164 0.121632
O O8 0.500000 0.000000 0.000000
O O9 0.295532 0.780118 0.842985
O O10 0.076433 0.688976 0.773432
O O11 0.202970 0.692698 0.000000
#
# Coordination Sequence:
#
# PCOD9445844 Si02
#       6
#     8   4   4   8   2   8
#     4  12  26  47  74 107 151 193 247 306 370 444
#     4  12  24  46  74 104 145 199 247 302 360 440
#     4  12  26  45  74 111 144 186 252 303 365 436
#     4  12  26  45  73 109 147 192 249 307 373 435
#     4  12  28  48  70 110 154 196 238 302 382 444
#     4  12  26  47  75 108 144 193 247 309 361 444
#
# _framework density 20.084288999999998
#
# number of rings (size 3 to 8) (size 9 to 14) (size 15 to 20)
#    0.000    0.000    8.235    2.118    1.647    0.000 
#    2.118    1.176    0.000    0.000    0.000    0.000 
#    0.000    0.000    0.000    0.000    0.000    0.000 
#
# Total GULP energy -189470.711082 kJ/mol
# GULP energy per Si atom -5572.667973 kJ/mol
# Density = 2.003858 g / cm^3
# Si number density = 20.084289 Si / 1000 Ang^3
#
#
#
# Elastic Constant Matrix: (Units=GPa)
#
#
# Indices 1 2 3 4 5 6 
#
# 1 134.0919 38.9325 18.6949 0.0000 0.0000 0.0000
# 2 38.9325 148.3624 48.4289 0.0000 0.0000 0.0000
# 3 18.6949 48.4289 106.4683 0.0000 0.0000 0.0000
# 4 0.0000 0.0000 0.0000 59.0401 0.0000 0.0000
# 5 0.0000 0.0000 0.0000 0.0000 -2.6166 0.0000
# 6 0.0000 0.0000 0.0000 0.0000 0.0000 28.5881
#
#
#
# Elastic Compliance Matrix: (Units=1/GPa)
#
#
# Indices 1 2 3 4 5 6 
#
# 1 0.008098 -0.001951 -0.000535 0.000000 0.000000 0.000000
# 2 -0.001951 0.008385 -0.003472 0.000000 0.000000 0.000000
# 3 -0.000535 -0.003472 0.011066 0.000000 0.000000 0.000000
# 4 0.000000 0.000000 0.000000 0.016938 0.000000 0.000000
# 5 0.000000 0.000000 0.000000 0.000000 -0.382172 0.000000
# 6 0.000000 0.000000 0.000000 0.000000 0.000000 0.034980
#
#
# Mechanical properties :
#
#
# Convention : Reuss Voigt Hill
#
# Bulk Modulus (GPa) = 63.95817 66.78169 65.36993
# Shear Modulus (GPa) = -17.50823 35.86007 9.17592
#
# Velocity S-wave (km/s) = -2.95572 4.23008 2.13977
# Velocity P-wave (km/s) = 4.50173 7.56181 6.22280
#
# Compressibility (1/GPa) = 0.01563522
#
# Stress axis : x y z
#
# Youngs Moduli (GPa) = 123.48017 119.25532 90.37069
#
# Poissons Ratio (x) = 0.23262 0.04833
# Poissons Ratio (y) = 0.24086 0.31374
# Poissons Ratio (z) = 0.06603 0.41402
#
# Static dielectric constant tensor:
#      x y z
#    x 1.808020 0.000000 0.000000 
#    y 0.000000 1.688920 0.000000 
#    z 0.000000 0.000000 1.725660 
# 
# From -- ./inp_files/2300.got.cif
#   From: 2010.05.17/outbox.cif.g08.bks.cpg/sg58_2_cif.got.tgz:2300.got - 2010.06.03 14:20:14.
