data_PCOD9445406
_publ_section_title
;
Structure prediction by ZEFSAII (Michael W. Deem and Ramdas Pophale) SiO2 
 PCOD9445406
Probable space group: P N N M
;
_chemical_formula_sum "Si O2"
_cell_formula_units_Z 48
_cell_length_a 8.352755
_cell_length_b 7.740686
_cell_length_c 31.881074
_cell_angle_alpha 90.000000
_cell_angle_beta 90.000000
_cell_angle_gamma 90.000000
_cell_volume 2061.304432
_symmetry_space_group_name_H-M "P N N M"
_symmetry_group_IT_number 58
_symmetry_cell_setting 'orthorhombic'
loop_
_space_group_symop_operation_xyz
x,y,z
-x,-y,z
1/2+x,1/2-y,1/2-z
1/2-x,1/2+y,1/2-z
-x,-y,-z
x,y,-z
1/2-x,1/2+y,1/2+z
1/2+x,1/2-y,1/2+z
loop_
_atom_site_type_symbol
_atom_site_label
_atom_site_fract_x
_atom_site_fract_y
_atom_site_fract_z
Si Si1 0.318906 0.433501 0.089278
Si Si2 0.305896 0.282816 0.609105
Si Si3 0.361808 0.770005 0.803781
Si Si4 0.800405 0.342210 0.273253
Si Si5 0.183897 0.566804 0.452566
Si Si6 0.904554 0.676413 0.839291
O O1 0.500000 0.500000 0.089467
O O2 0.211522 0.605610 0.082268
O O3 0.306426 0.269493 0.058659
O O4 0.253862 0.361794 0.133568
O O5 0.175074 0.262833 0.646884
O O6 0.274133 0.448170 0.580967
O O7 0.474945 0.288119 0.632523
O O8 0.239446 0.659035 0.775839
O O9 0.542663 0.737922 0.788438
O O10 0.324654 0.965587 0.789795
O O11 0.647367 0.264290 0.296695
O O12 0.241285 0.538475 0.500000
O O13 0.000000 0.500000 0.450304
O O14 0.000000 0.500000 0.833336
#
# Coordination Sequence:
#
# PCOD9445406 Si02
#       6
#     8   8   8   8   8   8
#     4  11  22  41  71  99 135 181 235 288 357 424
#     4  11  24  45  70 104 138 189 239 297 362 429
#     4  11  26  42  68 101 144 189 239 290 352 414
#     4  11  25  43  66 100 142 189 239 293 345 414
#     4  11  25  44  72 107 140 181 237 301 368 439
#     4  10  24  43  70  99 141 186 241 295 352 428
#
# _framework density 23.286227
#
# number of rings (size 3 to 8) (size 9 to 14) (size 15 to 20)
#    0.000    1.167    1.667    3.000    9.333    5.667 
#    0.000    1.667    0.000    3.000    0.000    0.000 
#    0.000    0.000    0.000    0.000    0.000    0.000 
#
# Total GULP energy -268751.166350 kJ/mol
# GULP energy per Si atom -5598.982632 kJ/mol
# Density = 2.323323 g / cm^3
# Si number density = 23.286227 Si / 1000 Ang^3
#
#
#
# Elastic Constant Matrix: (Units=GPa)
#
#
# Indices 1 2 3 4 5 6 
#
# 1 88.7984 35.8869 54.8277 0.0000 0.0000 0.0000
# 2 35.8869 112.3483 62.2106 0.0000 0.0000 0.0000
# 3 54.8277 62.2106 135.7096 0.0000 0.0000 0.0000
# 4 0.0000 0.0000 0.0000 28.6626 0.0000 0.0000
# 5 0.0000 0.0000 0.0000 0.0000 21.1822 0.0000
# 6 0.0000 0.0000 0.0000 0.0000 0.0000 38.6205
#
#
#
# Elastic Compliance Matrix: (Units=1/GPa)
#
#
# Indices 1 2 3 4 5 6 
#
# 1 0.015321 -0.001965 -0.005289 0.000000 0.000000 0.000000
# 2 -0.001965 0.012181 -0.004790 0.000000 0.000000 0.000000
# 3 -0.005289 -0.004790 0.011701 0.000000 0.000000 0.000000
# 4 0.000000 0.000000 0.000000 0.034889 0.000000 0.000000
# 5 0.000000 0.000000 0.000000 0.000000 0.047210 0.000000
# 6 0.000000 0.000000 0.000000 0.000000 0.000000 0.025893
#
#
# Mechanical properties :
#
#
# Convention : Reuss Voigt Hill
#
# Bulk Modulus (GPa) = 66.15904 71.41186 68.78545
# Shear Modulus (GPa) = 28.35727 29.95511 29.15619
#
# Velocity S-wave (km/s) = 3.49344 3.59052 3.54231
# Velocity P-wave (km/s) = 6.68918 6.92262 6.80690
#
# Compressibility (1/GPa) = 0.01511509
#
# Stress axis : x y z
#
# Youngs Moduli (GPa) = 65.26812 82.09531 85.46127
#
# Poissons Ratio (x) = 0.16135 0.45201
# Poissons Ratio (y) = 0.12828 0.40935
# Poissons Ratio (z) = 0.34521 0.39322
#
# Static dielectric constant tensor:
#      x y z
#    x 1.919340 0.000000 0.000000 
#    y 0.000000 1.890200 0.000000 
#    z 0.000000 0.000000 1.838310 
# 
# From -- ./inp_files/34559.got.cif
#   From: 2010.05.17/outbox.cif.g08.bks.cpg/sg58_18_cif.got.tgz:34559.got - 2010.06.03 14:20:14.
