data_PCOD9445095
_publ_section_title
;
Structure prediction by ZEFSAII (Michael W. Deem and Ramdas Pophale) SiO2 
 PCOD9445095
Probable space group: P N N M
;
_chemical_formula_sum "Si O2"
_cell_formula_units_Z 48
_cell_length_a 8.434870
_cell_length_b 14.215064
_cell_length_c 19.015846
_cell_angle_alpha 90.000000
_cell_angle_beta 90.000000
_cell_angle_gamma 90.000000
_cell_volume 2280.042091
_symmetry_space_group_name_H-M "P N N M"
_symmetry_group_IT_number 58
_symmetry_cell_setting 'orthorhombic'
loop_
_space_group_symop_operation_xyz
x,y,z
-x,-y,z
1/2+x,1/2-y,1/2-z
1/2-x,1/2+y,1/2-z
-x,-y,-z
x,y,-z
1/2-x,1/2+y,1/2+z
1/2+x,1/2-y,1/2+z
loop_
_atom_site_type_symbol
_atom_site_label
_atom_site_fract_x
_atom_site_fract_y
_atom_site_fract_z
Si Si1 0.750524 0.418637 0.083084
Si Si2 0.965933 0.145995 0.776919
Si Si3 0.000000 0.500000 0.179002
Si Si4 0.479597 0.112468 0.922419
Si Si5 0.158850 0.656242 0.724356
Si Si6 0.500000 0.500000 0.824013
Si Si7 0.169862 0.799336 0.080169
O O1 0.584828 0.427399 0.123560
O O2 0.822665 0.313731 0.092568
O O3 0.854995 0.496873 0.123261
O O4 0.737354 0.435421 0.000000
O O5 0.154245 0.143213 0.763744
O O6 0.895704 0.060446 0.731264
O O7 0.891058 0.240427 0.747214
O O8 0.928428 0.148073 0.859592
O O9 0.048549 0.585093 0.230759
O O10 0.373672 0.142635 0.857671
O O11 0.650861 0.161727 0.915011
O O12 0.500000 0.000000 0.919444
O O13 0.416512 0.137091 0.000000
O O14 0.114410 0.815170 0.000000
#
# Coordination Sequence:
#
# PCOD9445095 Si02
#       7
#     8   8   4   8   8   4   8
#     4  11  24  45  70  98 134 180 225 281 347 405
#     4  12  26  42  68 100 132 178 226 280 342 404
#     4  12  23  44  65 100 126 174 222 282 339 398
#     4  10  22  40  66  96 132 178 219 269 335 402
#     4  12  25  42  68  97 133 175 223 281 336 407
#     4  12  25  40  65 104 134 174 222 278 333 404
#     4  10  23  46  70  98 139 181 229 285 340 408
#
# _framework density 21.052244000000002
#
# number of rings (size 3 to 8) (size 9 to 14) (size 15 to 20)
#    0.000    0.833    4.167    2.500    7.000    0.667 
#    0.000    1.250    0.000    0.000    0.000    0.000 
#    0.000    0.000    0.000    0.000    0.000    0.000 
#
# Total GULP energy -268002.108575 kJ/mol
# GULP energy per Si atom -5583.377262 kJ/mol
# Density = 2.100433 g / cm^3
# Si number density = 21.052244 Si / 1000 Ang^3
#
#
#
# Elastic Constant Matrix: (Units=GPa)
#
#
# Indices 1 2 3 4 5 6 
#
# 1 44.5708 19.5862 36.8817 0.0000 0.0000 0.0000
# 2 19.5862 72.1064 45.2047 0.0000 0.0000 0.0000
# 3 36.8817 45.2047 186.8214 0.0000 0.0000 0.0000
# 4 0.0000 0.0000 0.0000 30.1228 0.0000 0.0000
# 5 0.0000 0.0000 0.0000 0.0000 33.5533 0.0000
# 6 0.0000 0.0000 0.0000 0.0000 0.0000 23.3227
#
#
#
# Elastic Compliance Matrix: (Units=1/GPa)
#
#
# Indices 1 2 3 4 5 6 
#
# 1 0.028224 -0.004920 -0.004381 0.000000 0.000000 0.000000
# 2 -0.004920 0.017206 -0.003192 0.000000 0.000000 0.000000
# 3 -0.004381 -0.003192 0.006990 0.000000 0.000000 0.000000
# 4 0.000000 0.000000 0.000000 0.033197 0.000000 0.000000
# 5 0.000000 0.000000 0.000000 0.000000 0.029803 0.000000
# 6 0.000000 0.000000 0.000000 0.000000 0.000000 0.042877
#
#
# Mechanical properties :
#
#
# Convention : Reuss Voigt Hill
#
# Bulk Modulus (GPa) = 36.45188 56.31597 46.38393
# Shear Modulus (GPa) = 25.98382 30.85485 28.41933
#
# Velocity S-wave (km/s) = 3.51701 3.83251 3.67814
# Velocity P-wave (km/s) = 5.81765 6.81123 6.33395
#
# Compressibility (1/GPa) = 0.02743342
#
# Stress axis : x y z
#
# Youngs Moduli (GPa) = 35.43129 58.11988 143.06049
#
# Poissons Ratio (x) = 0.28592 0.62681
# Poissons Ratio (y) = 0.17431 0.45666
# Poissons Ratio (z) = 0.15524 0.18552
#
# Static dielectric constant tensor:
#      x y z
#    x 1.797920 0.000000 0.000000 
#    y 0.000000 1.745580 0.000000 
#    z 0.000000 0.000000 1.775980 
# 
# From -- ./inp_files/25336.got.cif
#   From: 2010.05.17/outbox.cif.g08.bks.cpg/sg58_13_cif.got.tgz:25336.got - 2010.06.03 14:20:14.
