data_PCOD9445796
_publ_section_title
;
Structure prediction by ZEFSAII (Michael W. Deem and Ramdas Pophale) SiO2 
 PCOD9445796
Probable space group: P N N M
;
_chemical_formula_sum "Si O2"
_cell_formula_units_Z 40
_cell_length_a 4.948802
_cell_length_b 11.541454
_cell_length_c 29.101833
_cell_angle_alpha 90.000000
_cell_angle_beta 90.000000
_cell_angle_gamma 90.000000
_cell_volume 1662.191080
_symmetry_space_group_name_H-M "P N N M"
_symmetry_group_IT_number 58
_symmetry_cell_setting 'orthorhombic'
loop_
_space_group_symop_operation_xyz
x,y,z
-x,-y,z
1/2+x,1/2-y,1/2-z
1/2-x,1/2+y,1/2-z
-x,-y,-z
x,y,-z
1/2-x,1/2+y,1/2+z
1/2+x,1/2-y,1/2+z
loop_
_atom_site_type_symbol
_atom_site_label
_atom_site_fract_x
_atom_site_fract_y
_atom_site_fract_z
Si Si1 0.819163 0.390529 0.109347
Si Si2 0.752088 0.920116 0.093756
Si Si3 0.761939 0.080933 0.263973
Si Si4 0.681028 0.679976 0.052214
Si Si5 0.992555 0.785467 0.179386
O O1 0.523908 0.383669 0.086879
O O2 0.000000 0.500000 0.127010
O O3 0.015996 0.349892 0.067957
O O4 0.811803 0.297014 0.149953
O O5 0.663943 0.817725 0.059625
O O6 0.839253 0.859096 0.141111
O O7 0.500000 0.000000 0.102958
O O8 0.000000 0.000000 0.077192
O O9 0.695713 0.194685 0.293548
O O10 0.863414 0.130976 0.215364
O O11 0.500000 0.000000 0.258703
O O12 0.000000 0.000000 0.283919
O O13 0.629692 0.646454 0.000000
#
# Coordination Sequence:
#
# PCOD9445796 Si02
#       5
#     8   8   8   8   8
#     4  11  25  44  69  97 134 176 217 272 333 395
#     4  11  25  44  69  97 133 178 220 272 336 397
#     4  12  28  46  70 100 136 180 228 283 338 398
#     4  11  25  44  68 101 134 170 221 274 328 399
#     4  11  27  46  68 100 136 175 228 277 331 399
#
# _framework density 24.064620000000001
#
# number of rings (size 3 to 8) (size 9 to 14) (size 15 to 20)
#    0.000    0.800    0.000    6.000    0.000   25.600 
#    0.000    0.000    0.000    0.000    0.000    0.000 
#    0.000    0.000    0.000    0.000    0.000    0.000 
#
# Total GULP energy -224102.415797 kJ/mol
# GULP energy per Si atom -5602.560395 kJ/mol
# Density = 2.400985 g / cm^3
# Si number density = 24.064620 Si / 1000 Ang^3
#
#
#
# Elastic Constant Matrix: (Units=GPa)
#
#
# Indices 1 2 3 4 5 6 
#
# 1 105.2734 25.3475 -5.8863 0.0000 0.0000 0.0000
# 2 25.3475 122.7149 -10.2287 0.0000 0.0000 0.0000
# 3 -5.8863 -10.2287 44.9161 0.0000 0.0000 0.0000
# 4 0.0000 0.0000 0.0000 0.6641 0.0000 0.0000
# 5 0.0000 0.0000 0.0000 0.0000 8.0464 0.0000
# 6 0.0000 0.0000 0.0000 0.0000 0.0000 39.5428
#
#
#
# Elastic Compliance Matrix: (Units=1/GPa)
#
#
# Indices 1 2 3 4 5 6 
#
# 1 0.010029 -0.002000 0.000859 0.000000 0.000000 0.000000
# 2 -0.002000 0.008705 0.001720 0.000000 0.000000 0.000000
# 3 0.000859 0.001720 0.022768 0.000000 0.000000 0.000000
# 4 0.000000 0.000000 0.000000 1.505812 0.000000 0.000000
# 5 0.000000 0.000000 0.000000 0.000000 0.124279 0.000000
# 6 0.000000 0.000000 0.000000 0.000000 0.000000 0.025289
#
#
# Mechanical properties :
#
#
# Convention : Reuss Voigt Hill
#
# Bulk Modulus (GPa) = 23.44073 32.37438 27.90755
# Shear Modulus (GPa) = 2.92407 27.22877 15.07642
#
# Velocity S-wave (km/s) = 1.10351 3.36741 2.50571
# Velocity P-wave (km/s) = 3.37424 5.34804 4.47141
#
# Compressibility (1/GPa) = 0.04266079
#
# Stress axis : x y z
#
# Youngs Moduli (GPa) = 99.71456 114.87044 43.92121
#
# Poissons Ratio (x) = 0.22973 -0.03772
# Poissons Ratio (y) = 0.19942 -0.07556
# Poissons Ratio (z) = -0.08564 -0.19762
#
# Static dielectric constant tensor:
#      x y z
#    x 1.872430 0.000000 0.000000 
#    y 0.000000 1.901360 0.000000 
#    z 0.000000 0.000000 1.875520 
# 
# From -- ./inp_files/32647.got.cif
#   From: 2010.05.17/outbox.cif.g08.bks.cpg/sg58_17_cif.got.tgz:32647.got - 2010.06.03 14:20:14.
