data_PCOD9445645
_publ_section_title
;
Structure prediction by ZEFSAII (Michael W. Deem and Ramdas Pophale) SiO2 
 PCOD9445645
Probable space group: P N N M
;
_chemical_formula_sum "Si O2"
_cell_formula_units_Z 24
_cell_length_a 7.711786
_cell_length_b 10.052941
_cell_length_c 12.915820
_cell_angle_alpha 90.000000
_cell_angle_beta 90.000000
_cell_angle_gamma 90.000000
_cell_volume 1001.313536
_symmetry_space_group_name_H-M "P N N M"
_symmetry_group_IT_number 58
_symmetry_cell_setting 'orthorhombic'
loop_
_space_group_symop_operation_xyz
x,y,z
-x,-y,z
1/2+x,1/2-y,1/2-z
1/2-x,1/2+y,1/2-z
-x,-y,-z
x,y,-z
1/2-x,1/2+y,1/2+z
1/2+x,1/2-y,1/2+z
loop_
_atom_site_type_symbol
_atom_site_label
_atom_site_fract_x
_atom_site_fract_y
_atom_site_fract_z
Si Si1 0.565782 0.230330 0.384689
Si Si2 0.932773 0.146617 0.308711
Si Si3 0.766865 0.951023 0.000000
Si Si4 0.088727 0.287644 0.500000
O O1 0.507075 0.184072 0.500000
O O2 0.440555 0.250894 0.287990
O O3 0.637214 0.380779 0.405125
O O4 0.735896 0.147296 0.351724
O O5 0.061472 0.201851 0.397812
O O6 0.000000 0.000000 0.285975
O O7 0.580397 0.882108 0.000000
O O8 0.746692 0.108098 0.000000
#
# Coordination Sequence:
#
# PCOD9445645 Si02
#       4
#     8   8   4   4
#     4   9  22  40  59  89 123 159 204 244 297 362
#     4  11  22  39  63  89 125 157 200 256 303 352
#     4   7  16  36  54  82 114 154 205 233 274 368
#     4   9  17  34  61  81 111 165 192 235 305 348
#
# _framework density 23.968516000000001
#
# number of rings (size 3 to 8) (size 9 to 14) (size 15 to 20)
#    1.000    1.667    1.667    0.500    4.667    0.667 
#    3.000    0.000    0.000    2.000    0.000    0.000 
#    0.000    0.000    0.000    0.000    0.000    0.000 
#
# Total GULP energy -133867.490146 kJ/mol
# GULP energy per Si atom -5577.812089 kJ/mol
# Density = 2.391396 g / cm^3
# Si number density = 23.968516 Si / 1000 Ang^3
#
#
#
# Elastic Constant Matrix: (Units=GPa)
#
#
# Indices 1 2 3 4 5 6 
#
# 1 47.7828 8.6866 8.0762 0.0000 0.0000 0.0000
# 2 8.6866 60.8357 12.3818 0.0000 0.0000 0.0000
# 3 8.0762 12.3818 148.7690 0.0000 0.0000 0.0000
# 4 0.0000 0.0000 0.0000 37.4570 0.0000 0.0000
# 5 0.0000 0.0000 0.0000 0.0000 43.8511 0.0000
# 6 0.0000 0.0000 0.0000 0.0000 0.0000 23.5956
#
#
#
# Elastic Compliance Matrix: (Units=1/GPa)
#
#
# Indices 1 2 3 4 5 6 
#
# 1 0.021612 -0.002896 -0.000932 0.000000 0.000000 0.000000
# 2 -0.002896 0.017109 -0.001267 0.000000 0.000000 0.000000
# 3 -0.000932 -0.001267 0.006878 0.000000 0.000000 0.000000
# 4 0.000000 0.000000 0.000000 0.026697 0.000000 0.000000
# 5 0.000000 0.000000 0.000000 0.000000 0.022804 0.000000
# 6 0.000000 0.000000 0.000000 0.000000 0.000000 0.042381
#
#
# Mechanical properties :
#
#
# Convention : Reuss Voigt Hill
#
# Bulk Modulus (GPa) = 28.24162 35.07519 31.65841
# Shear Modulus (GPa) = 31.35291 36.19692 33.77491
#
# Velocity S-wave (km/s) = 3.62067 3.89033 3.75792
# Velocity P-wave (km/s) = 5.41178 5.90298 5.66271
#
# Compressibility (1/GPa) = 0.03540873
#
# Stress axis : x y z
#
# Youngs Moduli (GPa) = 46.27032 58.44845 145.39393
#
# Poissons Ratio (x) = 0.16928 0.13554
# Poissons Ratio (y) = 0.13401 0.18418
# Poissons Ratio (z) = 0.04313 0.07404
#
# Static dielectric constant tensor:
#      x y z
#    x 1.986890 0.000000 0.000000 
#    y 0.000000 1.853580 0.000000 
#    z 0.000000 0.000000 1.992730 
# 
# From -- ./inp_files/13571.got.cif
#   From: 2010.05.17/outbox.cif.g08.bks.cpg/sg58_7_cif.got.tgz:13571.got - 2010.06.03 14:20:14.
