data_PCOD9445860
_publ_section_title
;
Structure prediction by ZEFSAII (Michael W. Deem and Ramdas Pophale) SiO2 
 PCOD9445860
Probable space group: P N N M
;
_chemical_formula_sum "Si O2"
_cell_formula_units_Z 48
_cell_length_a 7.098240
_cell_length_b 13.409344
_cell_length_c 22.023463
_cell_angle_alpha 90.000000
_cell_angle_beta 90.000000
_cell_angle_gamma 90.000000
_cell_volume 2096.253596
_symmetry_space_group_name_H-M "P N N M"
_symmetry_group_IT_number 58
_symmetry_cell_setting 'orthorhombic'
loop_
_space_group_symop_operation_xyz
x,y,z
-x,-y,z
1/2+x,1/2-y,1/2-z
1/2-x,1/2+y,1/2-z
-x,-y,-z
x,y,-z
1/2-x,1/2+y,1/2+z
1/2+x,1/2-y,1/2+z
loop_
_atom_site_type_symbol
_atom_site_label
_atom_site_fract_x
_atom_site_fract_y
_atom_site_fract_z
Si Si1 0.950720 0.159668 0.191092
Si Si2 0.778191 0.468769 0.893663
Si Si3 0.315336 0.254793 0.189111
Si Si4 0.107916 0.740542 0.066324
Si Si5 0.294024 0.966059 0.270433
Si Si6 0.337267 0.320265 0.933771
O O1 0.920580 0.238449 0.247141
O O2 0.868865 0.195016 0.127087
O O3 0.840943 0.064293 0.215935
O O4 0.176076 0.161655 0.186059
O O5 0.779055 0.363170 0.926288
O O6 0.718102 0.459970 0.822722
O O7 0.669658 0.560306 0.924462
O O8 0.000000 0.500000 0.892267
O O9 0.199849 0.360471 0.192232
O O10 0.423284 0.267122 0.125688
O O11 0.883760 0.713144 0.066514
O O12 0.148106 0.785439 0.000000
O O13 0.500000 0.000000 0.251308
O O14 0.413088 0.294493 0.000000
#
# Coordination Sequence:
#
# PCOD9445860 Si02
#       6
#     8   8   8   8   8   8
#     4   9  16  26  41  61  84 111 144 177 208 254
#     4   8  12  20  35  59  86 107 133 164 206 249
#     4   8  16  25  40  61  83 111 140 174 212 247
#     4   9  15  22  37  61  89 114 137 173 216 250
#     4   8  14  24  41  60  81 108 143 174 207 245
#     4   8  12  20  35  60  86 108 138 172 205 248
#
# _framework density 22.897993
#
# number of rings (size 3 to 8) (size 9 to 14) (size 15 to 20)
#    1.000    2.667    0.000    3.500    0.000    2.000 
#    0.000    0.000    0.000    5.500    0.000    1.167 
#    0.000    0.000    0.000   33.333    0.000    0.000 
#
# Total GULP energy -267593.276627 kJ/mol
# GULP energy per Si atom -5574.859930 kJ/mol
# Density = 2.284588 g / cm^3
# Si number density = 22.897993 Si / 1000 Ang^3
#
#
#
# Elastic Constant Matrix: (Units=GPa)
#
#
# Indices 1 2 3 4 5 6 
#
# 1 67.3400 17.5366 29.9649 0.0000 0.0000 0.0000
# 2 17.5366 38.5543 39.0648 0.0000 0.0000 0.0000
# 3 29.9649 39.0648 226.0663 0.0000 0.0000 0.0000
# 4 0.0000 0.0000 0.0000 43.8705 0.0000 0.0000
# 5 0.0000 0.0000 0.0000 0.0000 10.1356 0.0000
# 6 0.0000 0.0000 0.0000 0.0000 0.0000 26.0672
#
#
#
# Elastic Compliance Matrix: (Units=1/GPa)
#
#
# Indices 1 2 3 4 5 6 
#
# 1 0.017075 -0.006635 -0.001117 0.000000 0.000000 0.000000
# 2 -0.006635 0.034021 -0.004999 0.000000 0.000000 0.000000
# 3 -0.001117 -0.004999 0.005435 0.000000 0.000000 0.000000
# 4 0.000000 0.000000 0.000000 0.022794 0.000000 0.000000
# 5 0.000000 0.000000 0.000000 0.000000 0.098663 0.000000
# 6 0.000000 0.000000 0.000000 0.000000 0.000000 0.038362
#
#
# Mechanical properties :
#
#
# Convention : Reuss Voigt Hill
#
# Bulk Modulus (GPa) = 32.22804 56.12146 44.17475
# Shear Modulus (GPa) = 19.82584 32.37427 26.10005
#
# Velocity S-wave (km/s) = 2.94570 3.76420 3.37981
# Velocity P-wave (km/s) = 5.06702 6.59202 5.87918
#
# Compressibility (1/GPa) = 0.03102888
#
# Stress axis : x y z
#
# Youngs Moduli (GPa) = 58.56582 29.39354 183.97865
#
# Poissons Ratio (x) = 0.19503 0.20545
# Poissons Ratio (y) = 0.38859 0.91979
# Poissons Ratio (z) = 0.06540 0.14695
#
# Static dielectric constant tensor:
#      x y z
#    x 1.939260 0.000000 0.000000 
#    y 0.000000 1.856480 0.000000 
#    z 0.000000 0.000000 1.927890 
# 
# From -- ./inp_files/29694.got.cif
#   From: 2010.05.17/outbox.cif.g08.bks.cpg/sg58_15_cif.got.tgz:29694.got - 2010.06.03 14:20:14.
