data_PCOD9445964
_publ_section_title
;
Structure prediction by ZEFSAII (Michael W. Deem and Ramdas Pophale) SiO2 
 PCOD9445964
Probable space group: P N N M
;
_chemical_formula_sum "Si O2"
_cell_formula_units_Z 64
_cell_length_a 21.000000
_cell_length_b 18.000000
_cell_length_c 9.000000
_cell_angle_alpha 90.000000
_cell_angle_beta 90.000000
_cell_angle_gamma 90.000000
_cell_volume 3402.000000
_symmetry_space_group_name_H-M "P N N M"
_symmetry_group_IT_number 58
_symmetry_cell_setting 'orthorhombic'
loop_
_space_group_symop_operation_xyz
x,y,z
-x,-y,z
1/2+x,1/2-y,1/2-z
1/2-x,1/2+y,1/2-z
-x,-y,-z
x,y,-z
1/2-x,1/2+y,1/2+z
1/2+x,1/2-y,1/2+z
loop_
_atom_site_type_symbol
_atom_site_label
_atom_site_fract_x
_atom_site_fract_y
_atom_site_fract_z
Si Si1 0.332098 0.581407 0.329606
Si Si2 0.723213 0.549809 0.175640
Si Si3 0.599518 0.781344 0.178962
Si Si4 0.596676 0.619922 0.322260
Si Si5 0.035892 0.115430 0.322824
Si Si6 0.679063 0.151381 0.822181
Si Si7 0.243696 0.722273 0.668393
Si Si8 0.539974 0.205234 0.823692
O O1 0.334117 0.553059 0.500000
O O2 0.286509 0.534549 0.223431
O O3 0.402568 0.583293 0.260522
O O4 0.298705 0.661088 0.334338
O O5 0.660861 0.585949 0.253555
O O6 0.788400 0.581533 0.242754
O O7 0.720310 0.560874 0.000000
O O8 0.598996 0.705485 0.271350
O O9 0.672468 0.809497 0.200323
O O10 0.531931 0.820527 0.222605
O O11 0.593422 0.766938 0.000000
O O12 0.594561 0.612522 0.500000
O O13 0.531241 0.590218 0.247715
O O14 0.037405 0.100461 0.500000
O O15 0.040779 0.205353 0.301958
O O16 0.729432 0.216335 0.780169
O O17 0.607156 0.171346 0.766980
O O18 0.677896 0.142035 0.000000
O O19 0.239423 0.754643 0.500000
O O20 0.542909 0.191985 0.000000
#
# Coordination Sequence:
#
# PCOD9445964 Si02
#       8
#     8   8   8   8   8   8   8   8
#     4  11  23  38  55  82 113 146 187 234 278 329
#     4  12  25  40  55  76 108 151 191 230 279 333
#     4   9  17  33  55  82 112 144 179 220 273 334
#     4  11  21  34  53  81 111 145 184 230 272 322
#     4  10  19  35  55  79 111 151 186 221 269 331
#     4  11  20  34  57  84 111 143 184 230 275 325
#     4  10  20  34  57  84 113 145 180 227 279 331
#     4   8  16  30  53  82 111 141 177 220 267 322
#
# _framework density 18.812463000000001
#
# number of rings (size 3 to 8) (size 9 to 14) (size 15 to 20)
#    0.000    1.750    2.500    4.125    0.000    1.000 
#    0.000    3.125    0.000    0.750    0.000    5.250 
#    0.000    0.000    0.000    0.000    0.000    0.000 
#
# Total GULP energy -356680.745738 kJ/mol
# GULP energy per Si atom -5573.136652 kJ/mol
# Density = 1.876965 g / cm^3
# Si number density = 18.812463 Si / 1000 Ang^3
#
#
#
# Elastic Constant Matrix: (Units=GPa)
#
#
# Indices 1 2 3 4 5 6 
#
# 1 99.8215 -4.9665 17.5733 0.0000 0.0000 0.0000
# 2 -4.9665 14.7592 7.6027 0.0000 0.0000 0.0000
# 3 17.5733 7.6027 89.0726 0.0000 0.0000 0.0000
# 4 0.0000 0.0000 0.0000 17.7978 0.0000 0.0000
# 5 0.0000 0.0000 0.0000 0.0000 28.6644 0.0000
# 6 0.0000 0.0000 0.0000 0.0000 0.0000 27.7240
#
#
#
# Elastic Compliance Matrix: (Units=1/GPa)
#
#
# Indices 1 2 3 4 5 6 
#
# 1 0.010708 0.004907 -0.002531 0.000000 0.000000 0.000000
# 2 0.004907 0.073119 -0.007209 0.000000 0.000000 0.000000
# 3 -0.002531 -0.007209 0.012342 0.000000 0.000000 0.000000
# 4 0.000000 0.000000 0.000000 0.056187 0.000000 0.000000
# 5 0.000000 0.000000 0.000000 0.000000 0.034886 0.000000
# 6 0.000000 0.000000 0.000000 0.000000 0.000000 0.036070
#
#
# Mechanical properties :
#
#
# Convention : Reuss Voigt Hill
#
# Bulk Modulus (GPa) = 11.56052 27.11916 19.33984
# Shear Modulus (GPa) = 19.09768 27.06682 23.08225
#
# Velocity S-wave (km/s) = 3.18962 3.79723 3.50661
# Velocity P-wave (km/s) = 4.44110 5.80276 5.16698
#
# Compressibility (1/GPa) = 0.08650127
#
# Stress axis : x y z
#
# Youngs Moduli (GPa) = 93.39107 13.67634 81.02714
#
# Poissons Ratio (x) = -0.06711 0.20511
# Poissons Ratio (y) = -0.45828 0.58414
# Poissons Ratio (z) = 0.23641 0.09859
#
# Static dielectric constant tensor:
#      x y z
#    x 1.681950 0.000000 0.000000 
#    y 0.000000 1.702220 0.000000 
#    z 0.000000 0.000000 1.636760 
# 
# From -- ./inp_files/9320.got.cif
#   From: 2010.05.17/outbox.ucp.g08.bks.cvg/sg58_5_cif.got.tgz:9320.got - 2010.06.11 16:41:41.
