data_PCOD9445549
_publ_section_title
;
Structure prediction by ZEFSAII (Michael W. Deem and Ramdas Pophale) SiO2 
 PCOD9445549
Probable space group: P N N M
;
_chemical_formula_sum "Si O2"
_cell_formula_units_Z 64
_cell_length_a 23.436630
_cell_length_b 12.753701
_cell_length_c 8.935685
_cell_angle_alpha 90.000000
_cell_angle_beta 90.000000
_cell_angle_gamma 90.000000
_cell_volume 2670.909947
_symmetry_space_group_name_H-M "P N N M"
_symmetry_group_IT_number 58
_symmetry_cell_setting 'orthorhombic'
loop_
_space_group_symop_operation_xyz
x,y,z
-x,-y,z
1/2+x,1/2-y,1/2-z
1/2-x,1/2+y,1/2-z
-x,-y,-z
x,y,-z
1/2-x,1/2+y,1/2+z
1/2+x,1/2-y,1/2+z
loop_
_atom_site_type_symbol
_atom_site_label
_atom_site_fract_x
_atom_site_fract_y
_atom_site_fract_z
Si Si1 0.559743 0.602847 0.328174
Si Si2 0.589516 0.158154 0.819979
Si Si3 0.657058 0.889646 0.831970
Si Si4 0.168829 0.861824 0.665853
Si Si5 0.903484 0.901632 0.323329
Si Si6 0.203102 0.342451 0.175029
Si Si7 0.964442 0.325710 0.681223
Si Si8 0.226446 0.117003 0.323586
O O1 0.542380 0.606249 0.500000
O O2 0.627919 0.620085 0.305723
O O3 0.557216 0.485339 0.260026
O O4 0.536360 0.704981 0.240112
O O5 0.590750 0.281419 0.773816
O O6 0.645593 0.108457 0.745210
O O7 0.525478 0.123402 0.780547
O O8 0.595394 0.153725 0.000000
O O9 0.667971 0.764379 0.845525
O O10 0.592275 0.888360 0.767929
O O11 0.714929 0.922003 0.749669
O O12 0.655848 0.934446 0.000000
O O13 0.145598 0.895297 0.500000
O O14 0.234468 0.895113 0.678611
O O15 0.916395 0.901954 0.500000
O O16 0.836687 0.931997 0.299616
O O17 0.214539 0.235182 0.265001
O O18 0.191674 0.321215 0.000000
O O19 0.960962 0.320908 0.500000
O O20 0.235812 0.119905 0.500000
#
# Coordination Sequence:
#
# PCOD9445549 Si02
#       8
#     8   8   8   8   8   8   8   8
#     4  11  21  29  41  61  82 108 143 181 211 236
#     4   9  18  31  46  61  79 111 149 175 198 239
#     4   8  14  25  42  61  80 103 130 166 210 246
#     4   8  15  28  43  58  79 107 133 161 207 259
#     4   9  18  31  43  56  79 112 144 173 206 243
#     4   9  16  26  42  62  82 103 128 166 214 250
#     4   9  18  32  45  58  82 115 145 170 203 247
#     4   9  16  26  42  61  79 103 135 168 205 250
#
# _framework density 23.961872
#
# number of rings (size 3 to 8) (size 9 to 14) (size 15 to 20)
#    0.000    3.000    0.000    4.125    0.000    8.500 
#    0.000    2.500    0.000    0.000    0.000    0.000 
#    0.000    1.000    0.000   11.250    0.000    5.500 
#
# Total GULP energy -357057.700387 kJ/mol
# GULP energy per Si atom -5579.026569 kJ/mol
# Density = 2.390733 g / cm^3
# Si number density = 23.961872 Si / 1000 Ang^3
#
#
#
# Elastic Constant Matrix: (Units=GPa)
#
#
# Indices 1 2 3 4 5 6 
#
# 1 199.7079 19.5283 43.5556 0.0000 0.0000 0.0000
# 2 19.5283 54.6398 4.6282 0.0000 0.0000 0.0000
# 3 43.5556 4.6282 32.7313 0.0000 0.0000 0.0000
# 4 0.0000 0.0000 0.0000 -193.8987 0.0000 0.0000
# 5 0.0000 0.0000 0.0000 0.0000 25.5066 0.0000
# 6 0.0000 0.0000 0.0000 0.0000 0.0000 31.8031
#
#
#
# Elastic Compliance Matrix: (Units=1/GPa)
#
#
# Indices 1 2 3 4 5 6 
#
# 1 0.007223 -0.001789 -0.009359 0.000000 0.000000 0.000000
# 2 -0.001789 0.018967 -0.000301 0.000000 0.000000 0.000000
# 3 -0.009359 -0.000301 0.043049 0.000000 0.000000 0.000000
# 4 0.000000 0.000000 0.000000 -0.005157 0.000000 0.000000
# 5 0.000000 0.000000 0.000000 0.000000 0.039206 0.000000
# 6 0.000000 0.000000 0.000000 0.000000 0.000000 0.031443
#
#
# Mechanical properties :
#
#
# Convention : Reuss Voigt Hill
#
# Bulk Modulus (GPa) = 21.57975 46.94481 34.26228
# Shear Modulus (GPa) = 28.88896 -12.69334 8.09781
#
# Velocity S-wave (km/s) = 3.47597 -2.30408 1.84032
# Velocity P-wave (km/s) = 5.01351 3.54339 4.34113
#
# Compressibility (1/GPa) = 0.04633974
#
# Stress axis : x y z
#
# Youngs Moduli (GPa) = 138.43738 52.72435 23.22938
#
# Poissons Ratio (x) = 0.09432 0.21741
# Poissons Ratio (y) = 0.24765 0.00700
# Poissons Ratio (z) = 1.29568 0.01589
#
# Static dielectric constant tensor:
#      x y z
#    x 1.996620 0.000000 0.000000 
#    y 0.000000 2.043620 0.000000 
#    z 0.000000 0.000000 1.836360 
# 
# From -- ./inp_files/9487.got.cif
#   From: 2010.05.17/outbox.cif.g08.bks.cpg/sg58_5_cif.got.tgz:9487.got - 2010.06.03 14:20:14.
