data_PCOD9445131
_publ_section_title
;
Structure prediction by ZEFSAII (Michael W. Deem and Ramdas Pophale) SiO2 
 PCOD9445131
Probable space group: P N N M
;
_chemical_formula_sum "Si O2"
_cell_formula_units_Z 56
_cell_length_a 21.265376
_cell_length_b 14.687321
_cell_length_c 8.778847
_cell_angle_alpha 90.000000
_cell_angle_beta 90.000000
_cell_angle_gamma 90.000000
_cell_volume 2741.909605
_symmetry_space_group_name_H-M "P N N M"
_symmetry_group_IT_number 58
_symmetry_cell_setting 'orthorhombic'
loop_
_space_group_symop_operation_xyz
x,y,z
-x,-y,z
1/2+x,1/2-y,1/2-z
1/2-x,1/2+y,1/2-z
-x,-y,-z
x,y,-z
1/2-x,1/2+y,1/2+z
1/2+x,1/2-y,1/2+z
loop_
_atom_site_type_symbol
_atom_site_label
_atom_site_fract_x
_atom_site_fract_y
_atom_site_fract_z
Si Si1 0.265102 0.499790 0.824467
Si Si2 0.630376 0.071199 0.327889
Si Si3 0.520540 0.731538 0.318474
Si Si4 0.445039 0.075289 0.825746
Si Si5 0.390748 0.745074 0.821685
Si Si6 0.851774 0.161930 0.684512
Si Si7 0.743931 0.307076 0.681116
O O1 0.205400 0.432420 0.826477
O O2 0.322489 0.436234 0.774027
O O3 0.248659 0.587248 0.725165
O O4 0.275355 0.529810 0.000000
O O5 0.608698 0.092379 0.500000
O O6 0.606175 0.146831 0.212515
O O7 0.607348 0.972406 0.276994
O O8 0.520418 0.734310 0.500000
O O9 0.532726 0.831832 0.249057
O O10 0.451753 0.701946 0.258782
O O11 0.580094 0.675376 0.257200
O O12 0.500000 0.000000 0.828495
O O13 0.424115 0.091759 0.000000
O O14 0.323276 0.718056 0.754376
O O15 0.393385 0.727055 0.000000
O O16 0.856366 0.165755 0.500000
O O17 0.802274 0.242311 0.731247
O O18 0.739045 0.296087 0.500000
#
# Coordination Sequence:
#
# PCOD9445131 Si02
#       7
#     8   8   8   8   8   8   8
#     4  10  22  41  64  93 126 163 207 259 315 375
#     4  11  21  37  61  90 123 160 204 257 314 371
#     4  12  25  40  61  90 126 166 211 266 319 373
#     4  11  22  35  54  85 122 162 203 246 306 381
#     4  12  24  40  63  90 124 167 210 255 313 379
#     4  10  22  43  66  91 130 171 208 257 320 381
#     4  11  23  42  67  96 128 167 212 264 314 372
#
# _framework density 20.423721
#
# number of rings (size 3 to 8) (size 9 to 14) (size 15 to 20)
#    0.000    1.000    2.857    4.714    0.000    5.714 
#    0.000    0.714    0.000    4.286    0.000    0.000 
#    0.000    0.000    0.000    0.000    0.000    0.000 
#
# Total GULP energy -312971.377241 kJ/mol
# GULP energy per Si atom -5588.774594 kJ/mol
# Density = 2.037724 g / cm^3
# Si number density = 20.423721 Si / 1000 Ang^3
#
#
#
# Elastic Constant Matrix: (Units=GPa)
#
#
# Indices 1 2 3 4 5 6 
#
# 1 93.2284 -4.3319 17.4559 0.0000 0.0000 0.0000
# 2 -4.3319 23.6796 -1.1538 0.0000 0.0000 0.0000
# 3 17.4559 -1.1538 80.0781 0.0000 0.0000 0.0000
# 4 0.0000 0.0000 0.0000 31.1226 0.0000 0.0000
# 5 0.0000 0.0000 0.0000 0.0000 32.3921 0.0000
# 6 0.0000 0.0000 0.0000 0.0000 0.0000 33.6408
#
#
#
# Elastic Compliance Matrix: (Units=1/GPa)
#
#
# Indices 1 2 3 4 5 6 
#
# 1 0.011271 0.001944 -0.002429 0.000000 0.000000 0.000000
# 2 0.001944 0.042595 0.000190 0.000000 0.000000 0.000000
# 3 -0.002429 0.000190 0.013020 0.000000 0.000000 0.000000
# 4 0.000000 0.000000 0.000000 0.032131 0.000000 0.000000
# 5 0.000000 0.000000 0.000000 0.000000 0.030872 0.000000
# 6 0.000000 0.000000 0.000000 0.000000 0.000000 0.029726
#
#
# Mechanical properties :
#
#
# Convention : Reuss Voigt Hill
#
# Bulk Modulus (GPa) = 15.08384 24.54740 19.81562
# Shear Modulus (GPa) = 27.42660 31.76549 29.59604
#
# Velocity S-wave (km/s) = 3.66851 3.94804 3.81084
# Velocity P-wave (km/s) = 5.03442 5.72956 5.39320
#
# Compressibility (1/GPa) = 0.06629614
#
# Stress axis : x y z
#
# Youngs Moduli (GPa) = 88.71967 23.47676 76.80470
#
# Poissons Ratio (x) = -0.04563 0.18656
# Poissons Ratio (y) = -0.17244 -0.01460
# Poissons Ratio (z) = 0.21550 -0.00446
#
# Static dielectric constant tensor:
#      x y z
#    x 1.785100 0.000000 0.000000 
#    y 0.000000 1.742840 0.000000 
#    z 0.000000 0.000000 1.689950 
# 
# From -- ./inp_files/8981.got.cif
#   From: 2010.05.17/outbox.cif.g08.bks.cpg/sg58_5_cif.got.tgz:8981.got - 2010.06.03 14:20:14.
