data_PCOD9445578
_publ_section_title
;
Structure prediction by ZEFSAII (Michael W. Deem and Ramdas Pophale) SiO2 
 PCOD9445578
Probable space group: P N N M
;
_chemical_formula_sum "Si O2"
_cell_formula_units_Z 48
_cell_length_a 20.428513
_cell_length_b 14.441077
_cell_length_c 8.596390
_cell_angle_alpha 90.000000
_cell_angle_beta 90.000000
_cell_angle_gamma 90.000000
_cell_volume 2536.018686
_symmetry_space_group_name_H-M "P N N M"
_symmetry_group_IT_number 58
_symmetry_cell_setting 'orthorhombic'
loop_
_space_group_symop_operation_xyz
x,y,z
-x,-y,z
1/2+x,1/2-y,1/2-z
1/2-x,1/2+y,1/2-z
-x,-y,-z
x,y,-z
1/2-x,1/2+y,1/2+z
1/2+x,1/2-y,1/2+z
loop_
_atom_site_type_symbol
_atom_site_label
_atom_site_fract_x
_atom_site_fract_y
_atom_site_fract_z
Si Si1 0.810686 0.445749 0.187478
Si Si2 0.991895 0.755934 0.187201
Si Si3 0.640990 0.749947 0.813973
Si Si4 0.562037 0.059579 0.310915
Si Si5 0.314414 0.445677 0.684148
Si Si6 0.433305 0.558363 0.821596
O O1 0.823831 0.342801 0.252232
O O2 0.871503 0.510528 0.239069
O O3 0.745380 0.495483 0.246225
O O4 0.810212 0.440742 0.000000
O O5 0.952119 0.664388 0.235699
O O6 0.953006 0.844026 0.249213
O O7 0.066061 0.752428 0.251550
O O8 0.996357 0.758545 0.000000
O O9 0.676855 0.656429 0.757217
O O10 0.639466 0.750809 0.000000
O O11 0.562489 0.058043 0.500000
O O12 0.500000 0.000000 0.258262
O O13 0.306745 0.436445 0.500000
O O14 0.379797 0.502928 0.724513
O O15 0.500000 0.500000 0.823553
O O16 0.410243 0.568249 0.000000
#
# Coordination Sequence:
#
# PCOD9445578 Si02
#       6
#     8   8   8   8   8   8
#     4  11  23  43  68  94 130 171 212 265 324 386
#     4  11  21  37  65  97 128 167 216 266 321 382
#     4  12  24  41  64  94 129 169 215 263 322 387
#     4   9  18  36  63  95 125 161 208 256 309 373
#     4  12  26  44  66  94 129 171 217 265 324 390
#     4  11  23  40  63  93 128 164 211 267 322 380
#
# _framework density 18.927305
#
# number of rings (size 3 to 8) (size 9 to 14) (size 15 to 20)
#    0.000    1.000    3.333    4.500    0.000    2.000 
#    0.000    9.167    0.000    0.000    0.000    0.000 
#    0.000    0.000    0.000    0.000    0.000    0.000 
#
# Total GULP energy -268340.520199 kJ/mol
# GULP energy per Si atom -5590.427504 kJ/mol
# Density = 1.888423 g / cm^3
# Si number density = 18.927305 Si / 1000 Ang^3
#
#
#
# Elastic Constant Matrix: (Units=GPa)
#
#
# Indices 1 2 3 4 5 6 
#
# 1 91.8724 61.4911 17.5617 0.0000 0.0000 0.0000
# 2 61.4911 199.0873 53.3102 0.0000 0.0000 0.0000
# 3 17.5617 53.3102 101.4679 0.0000 0.0000 0.0000
# 4 0.0000 0.0000 0.0000 -4.4214 0.0000 0.0000
# 5 0.0000 0.0000 0.0000 0.0000 25.8306 0.0000
# 6 0.0000 0.0000 0.0000 0.0000 0.0000 29.6640
#
#
#
# Elastic Compliance Matrix: (Units=1/GPa)
#
#
# Indices 1 2 3 4 5 6 
#
# 1 0.013724 -0.004193 -0.000173 0.000000 0.000000 0.000000
# 2 -0.004193 0.007126 -0.003018 0.000000 0.000000 0.000000
# 3 -0.000173 -0.003018 0.011471 0.000000 0.000000 0.000000
# 4 0.000000 0.000000 0.000000 -0.226172 0.000000 0.000000
# 5 0.000000 0.000000 0.000000 0.000000 0.038714 0.000000
# 6 0.000000 0.000000 0.000000 0.000000 0.000000 0.033711
#
#
# Mechanical properties :
#
#
# Convention : Reuss Voigt Hill
#
# Bulk Modulus (GPa) = 56.96717 73.01708 64.99212
# Shear Modulus (GPa) = -49.59934 27.55228 -11.02353
#
# Velocity S-wave (km/s) = -5.12465 3.81949 -2.41594
# Velocity P-wave (km/s) = 2.20292 7.62317 5.16042
#
# Compressibility (1/GPa) = 0.01755397
#
# Stress axis : x y z
#
# Youngs Moduli (GPa) = 72.86619 140.32915 87.17641
#
# Poissons Ratio (x) = 0.58834 0.01504
# Poissons Ratio (y) = 0.30550 0.26313
# Poissons Ratio (z) = 0.01257 0.42356
#
# Static dielectric constant tensor:
#      x y z
#    x 1.631190 0.000000 0.000000 
#    y 0.000000 1.625870 0.000000 
#    z 0.000000 0.000000 1.646730 
# 
# From -- ./inp_files/7727.got.cif
#   From: 2010.05.17/outbox.cif.g08.bks.cpg/sg58_4_cif.got.tgz:7727.got - 2010.06.03 14:20:14.
