data_PCOD9445471
_publ_section_title
;
Structure prediction by ZEFSAII (Michael W. Deem and Ramdas Pophale) SiO2 
 PCOD9445471
Probable space group: P N N M
;
_chemical_formula_sum "Si O2"
_cell_formula_units_Z 30
_cell_length_a 17.080005
_cell_length_b 5.420011
_cell_length_c 15.507528
_cell_angle_alpha 90.000000
_cell_angle_beta 90.000000
_cell_angle_gamma 90.000000
_cell_volume 1435.591028
_symmetry_space_group_name_H-M "P N N M"
_symmetry_group_IT_number 58
_symmetry_cell_setting 'orthorhombic'
loop_
_space_group_symop_operation_xyz
x,y,z
-x,-y,z
1/2+x,1/2-y,1/2-z
1/2-x,1/2+y,1/2-z
-x,-y,-z
x,y,-z
1/2-x,1/2+y,1/2+z
1/2+x,1/2-y,1/2+z
loop_
_atom_site_type_symbol
_atom_site_label
_atom_site_fract_x
_atom_site_fract_y
_atom_site_fract_z
Si Si1 0.000000 0.500000 0.500000
Si Si2 0.913840 0.127593 0.098879
Si Si3 0.799861 0.967877 0.247911
Si Si4 0.000000 0.500000 0.200243
Si Si5 0.562631 0.307010 0.856409
O O1 0.937569 0.585962 0.576159
O O2 0.931538 0.394966 0.140582
O O3 0.852713 0.998272 0.162128
O O4 0.887793 0.140044 0.000000
O O5 0.000000 0.000000 0.099514
O O6 0.749246 0.718907 0.242891
O O7 0.857063 0.934593 0.330294
O O8 0.028241 0.290140 0.265908
O O9 0.500000 0.500000 0.894671
#
# Coordination Sequence:
#
# PCOD9445471 Si02
#       5
#     2   8   8   4   8
#     4  10  26  40  78 102 126 180 262 316 332 406
#     4  11  23  42  71 105 133 180 247 299 336 416
#     4  12  26  46  69 101 151 196 226 284 374 439
#     4  11  17  39  75  98 132 176 229 303 345 401
#     4  11  22  44  71  96 135 183 250 292 350 420
#
# _framework density 20.897319
#
# number of rings (size 3 to 8) (size 9 to 14) (size 15 to 20)
#    0.000    0.800    5.333    2.400    3.733    0.000 
#    4.800    0.000    0.000    0.000    0.000    0.000 
#    0.000    0.000    0.000    0.000    0.000    0.000 
#
# Total GULP energy -167038.568741 kJ/mol
# GULP energy per Si atom -5567.952291 kJ/mol
# Density = 2.084976 g / cm^3
# Si number density = 20.897319 Si / 1000 Ang^3
#
#
#
# Elastic Constant Matrix: (Units=GPa)
#
#
# Indices 1 2 3 4 5 6 
#
# 1 109.0010 53.4035 52.8536 0.0000 0.0000 0.0000
# 2 53.4035 96.0117 32.5171 0.0000 0.0000 0.0000
# 3 52.8536 32.5171 171.9885 0.0000 0.0000 0.0000
# 4 0.0000 0.0000 0.0000 -62.7097 0.0000 0.0000
# 5 0.0000 0.0000 0.0000 0.0000 12.3774 0.0000
# 6 0.0000 0.0000 0.0000 0.0000 0.0000 52.0804
#
#
#
# Elastic Compliance Matrix: (Units=1/GPa)
#
#
# Indices 1 2 3 4 5 6 
#
# 1 0.013930 -0.006729 -0.003009 0.000000 0.000000 0.000000
# 2 -0.006729 0.014379 -0.000651 0.000000 0.000000 0.000000
# 3 -0.003009 -0.000651 0.006862 0.000000 0.000000 0.000000
# 4 0.000000 0.000000 0.000000 -0.015946 0.000000 0.000000
# 5 0.000000 0.000000 0.000000 0.000000 0.080792 0.000000
# 6 0.000000 0.000000 0.000000 0.000000 0.000000 0.019201
#
#
# Mechanical properties :
#
#
# Convention : Reuss Voigt Hill
#
# Bulk Modulus (GPa) = 69.47390 72.72774 71.10082
# Shear Modulus (GPa) = 34.53235 16.23140 25.38188
#
# Velocity S-wave (km/s) = 4.06948 2.79000 3.48889
# Velocity P-wave (km/s) = 7.44301 6.72731 7.09419
#
# Compressibility (1/GPa) = 0.01439390
#
# Stress axis : x y z
#
# Youngs Moduli (GPa) = 71.78808 69.54772 145.73239
#
# Poissons Ratio (x) = 0.46800 0.43844
# Poissons Ratio (y) = 0.48307 0.09481
# Poissons Ratio (z) = 0.21598 0.04525
#
# Static dielectric constant tensor:
#      x y z
#    x 1.780780 0.000000 0.000000 
#    y 0.000000 1.888270 0.000000 
#    z 0.000000 0.000000 1.729670 
# 
# From -- ./inp_files/22508.got.cif
#   From: 2010.05.17/outbox.cif.g08.bks.cpg/sg58_12_cif.got.tgz:22508.got - 2010.06.03 14:20:14.
