data_PCOD9445742
_publ_section_title
;
Structure prediction by ZEFSAII (Michael W. Deem and Ramdas Pophale) SiO2 
 PCOD9445742
Probable space group: P N N M
;
_chemical_formula_sum "Si O2"
_cell_formula_units_Z 58
_cell_length_a 12.363616
_cell_length_b 8.152387
_cell_length_c 25.379419
_cell_angle_alpha 90.000000
_cell_angle_beta 90.000000
_cell_angle_gamma 90.000000
_cell_volume 2558.067331
_symmetry_space_group_name_H-M "P N N M"
_symmetry_group_IT_number 58
_symmetry_cell_setting 'orthorhombic'
loop_
_space_group_symop_operation_xyz
x,y,z
-x,-y,z
1/2+x,1/2-y,1/2-z
1/2-x,1/2+y,1/2-z
-x,-y,-z
x,y,-z
1/2-x,1/2+y,1/2+z
1/2+x,1/2-y,1/2+z
loop_
_atom_site_type_symbol
_atom_site_label
_atom_site_fract_x
_atom_site_fract_y
_atom_site_fract_z
Si Si1 0.168870 0.113179 0.839977
Si Si2 0.235606 0.153158 0.722837
Si Si3 0.829529 0.116977 0.640356
Si Si4 0.958152 0.325486 0.180243
Si Si5 0.961447 0.684085 0.662341
Si Si6 0.635492 0.329987 0.059867
Si Si7 0.500000 0.500000 0.500000
Si Si8 0.133898 0.802422 0.914845
O O1 0.221993 0.100053 0.782616
O O2 0.244973 0.239405 0.872057
O O3 0.053176 0.194237 0.826486
O O4 0.160988 0.948682 0.873519
O O5 0.355307 0.225423 0.714953
O O6 0.136715 0.264889 0.701045
O O7 0.227223 0.997759 0.683794
O O8 0.937484 0.192468 0.665923
O O9 0.860521 0.005134 0.590177
O O10 0.912847 0.342740 0.120930
O O11 0.000000 0.500000 0.199838
O O12 0.923906 0.711107 0.601639
O O13 0.000000 0.500000 0.671013
O O14 0.757284 0.260883 0.058902
O O15 0.593538 0.337160 0.000000
O O16 0.548967 0.622747 0.545419
#
# Coordination Sequence:
#
# PCOD9445742 Si02
#       8
#     8   8   8   8   8   8   2   8
#     4  12  27  43  71 104 145 191 237 297 358 436
#     4  11  26  43  72 102 145 192 234 291 357 426
#     4  11  25  45  69 104 141 187 239 288 358 435
#     4  12  24  47  69 104 144 184 241 291 351 441
#     4  11  25  46  72 105 145 185 241 295 357 433
#     4  11  23  46  73  99 140 186 237 303 363 431
#     4  12  24  44  70 104 136 192 234 316 364 412
#     4  12  24  45  71 101 142 185 241 301 365 423
#
# _framework density 22.673366999999999
#
# number of rings (size 3 to 8) (size 9 to 14) (size 15 to 20)
#    0.000    0.552    6.207    2.483    3.862    3.034 
#    1.241    0.345    0.000    0.000    0.000    0.000 
#    0.000    0.000    0.000    0.000    0.000    0.000 
#
# Total GULP energy -324162.956289 kJ/mol
# GULP energy per Si atom -5589.016488 kJ/mol
# Density = 2.262176 g / cm^3
# Si number density = 22.673367 Si / 1000 Ang^3
#
#
#
# Elastic Constant Matrix: (Units=GPa)
#
#
# Indices 1 2 3 4 5 6 
#
# 1 114.6034 32.2192 9.5738 0.0000 0.0000 0.0000
# 2 32.2192 109.7101 24.3458 0.0000 0.0000 0.0000
# 3 9.5738 24.3458 146.7563 0.0000 0.0000 0.0000
# 4 0.0000 0.0000 0.0000 -7.0349 0.0000 0.0000
# 5 0.0000 0.0000 0.0000 0.0000 6.7386 0.0000
# 6 0.0000 0.0000 0.0000 0.0000 0.0000 40.2322
#
#
#
# Elastic Compliance Matrix: (Units=1/GPa)
#
#
# Indices 1 2 3 4 5 6 
#
# 1 0.009515 -0.002758 -0.000163 0.000000 0.000000 0.000000
# 2 -0.002758 0.010263 -0.001523 0.000000 0.000000 0.000000
# 3 -0.000163 -0.001523 0.007077 0.000000 0.000000 0.000000
# 4 0.000000 0.000000 0.000000 -0.142148 0.000000 0.000000
# 5 0.000000 0.000000 0.000000 0.000000 0.148398 0.000000
# 6 0.000000 0.000000 0.000000 0.000000 0.000000 0.024856
#
#
# Mechanical properties :
#
#
# Convention : Reuss Voigt Hill
#
# Bulk Modulus (GPa) = 55.65708 55.92751 55.79229
# Shear Modulus (GPa) = 68.64627 28.31591 48.48109
#
# Velocity S-wave (km/s) = 5.50835 3.53776 4.62913
# Velocity P-wave (km/s) = 8.06576 6.43489 7.29604
#
# Compressibility (1/GPa) = 0.01796717
#
# Stress axis : x y z
#
# Youngs Moduli (GPa) = 105.09985 97.43942 141.29779
#
# Poissons Ratio (x) = 0.26874 0.02305
# Poissons Ratio (y) = 0.28987 0.21514
# Poissons Ratio (z) = 0.01715 0.14836
#
# Static dielectric constant tensor:
#      x y z
#    x 1.898700 0.000000 0.000000 
#    y 0.000000 1.850100 0.000000 
#    z 0.000000 0.000000 1.815760 
# 
# From -- ./inp_files/33600.got.cif
#   From: 2010.05.17/outbox.cif.g08.bks.cpg/sg58_17_cif.got.tgz:33600.got - 2010.06.03 14:20:14.
