data_PCOD9445785
_publ_section_title
;
Structure prediction by ZEFSAII (Michael W. Deem and Ramdas Pophale) SiO2 
 PCOD9445785
Probable space group: P N N M
;
_chemical_formula_sum "Si O2"
_cell_formula_units_Z 38
_cell_length_a 21.822044
_cell_length_b 5.457610
_cell_length_c 13.565599
_cell_angle_alpha 90.000000
_cell_angle_beta 90.000000
_cell_angle_gamma 90.000000
_cell_volume 1615.611367
_symmetry_space_group_name_H-M "P N N M"
_symmetry_group_IT_number 58
_symmetry_cell_setting 'orthorhombic'
loop_
_space_group_symop_operation_xyz
x,y,z
-x,-y,z
1/2+x,1/2-y,1/2-z
1/2-x,1/2+y,1/2-z
-x,-y,-z
x,y,-z
1/2-x,1/2+y,1/2+z
1/2+x,1/2-y,1/2+z
loop_
_atom_site_type_symbol
_atom_site_label
_atom_site_fract_x
_atom_site_fract_y
_atom_site_fract_z
Si Si1 0.212613 0.337380 0.606357
Si Si2 0.539127 0.752673 0.000000
Si Si3 0.673971 0.878898 0.298968
Si Si4 0.000000 0.000000 0.000000
Si Si5 0.606430 0.512713 0.831358
Si Si6 0.054912 0.304750 0.176933
O O1 0.213353 0.463728 0.500000
O O2 0.274394 0.182836 0.622483
O O3 0.206133 0.511101 0.701081
O O4 0.154717 0.155691 0.611793
O O5 0.500000 0.500000 0.000000
O O6 0.580371 0.722381 0.902234
O O7 0.500000 0.000000 0.000000
O O8 0.640790 0.634719 0.260764
O O9 0.620057 0.058748 0.332938
O O10 0.042269 0.125936 0.913233
O O11 0.556812 0.335568 0.781323
O O12 0.000000 0.500000 0.176121
#
# Coordination Sequence:
#
# PCOD9445785 Si02
#       6
#     8   4   8   2   8   8
#     4  11  24  46  74 106 148 199 261 318 396 466
#     4  12  32  46  77 114 153 210 263 318 401 475
#     4  11  25  46  73 108 149 199 252 325 387 475
#     4  12  26  48  74 108 142 204 254 320 376 462
#     4  11  26  48  73 110 152 198 255 323 386 466
#     4  11  27  48  76 105 154 201 257 315 387 471
#
# _framework density 23.520509000000001
#
# number of rings (size 3 to 8) (size 9 to 14) (size 15 to 20)
#    0.000    0.842    3.158    1.579   13.263    0.000 
#    1.895    0.000    0.000    0.000    0.000    0.000 
#    0.000    0.000    0.000    0.000    0.000    0.000 
#
# Total GULP energy -212377.642769 kJ/mol
# GULP energy per Si atom -5588.885336 kJ/mol
# Density = 2.346698 g / cm^3
# Si number density = 23.520509 Si / 1000 Ang^3
#
#
#
# Elastic Constant Matrix: (Units=GPa)
#
#
# Indices 1 2 3 4 5 6 
#
# 1 92.8281 4.4613 39.1989 0.0000 0.0000 0.0000
# 2 4.4613 36.3581 7.1299 0.0000 0.0000 0.0000
# 3 39.1989 7.1299 117.6281 0.0000 0.0000 0.0000
# 4 0.0000 0.0000 0.0000 41.0374 0.0000 0.0000
# 5 0.0000 0.0000 0.0000 0.0000 35.3293 0.0000
# 6 0.0000 0.0000 0.0000 0.0000 0.0000 29.6130
#
#
#
# Elastic Compliance Matrix: (Units=1/GPa)
#
#
# Indices 1 2 3 4 5 6 
#
# 1 0.012556 -0.000729 -0.004140 0.000000 0.000000 0.000000
# 2 -0.000729 0.027877 -0.001447 0.000000 0.000000 0.000000
# 3 -0.004140 -0.001447 0.009969 0.000000 0.000000 0.000000
# 4 0.000000 0.000000 0.000000 0.024368 0.000000 0.000000
# 5 0.000000 0.000000 0.000000 0.000000 0.028305 0.000000
# 6 0.000000 0.000000 0.000000 0.000000 0.000000 0.033769
#
#
# Mechanical properties :
#
#
# Convention : Reuss Voigt Hill
#
# Bulk Modulus (GPa) = 26.47565 38.71050 32.59307
# Shear Modulus (GPa) = 30.85171 34.26420 32.55796
#
# Velocity S-wave (km/s) = 3.62566 3.82092 3.72457
# Velocity P-wave (km/s) = 5.36731 5.99665 5.69069
#
# Compressibility (1/GPa) = 0.03777056
#
# Stress axis : x y z
#
# Youngs Moduli (GPa) = 79.64422 35.87138 100.31397
#
# Poissons Ratio (x) = 0.02614 0.41530
# Poissons Ratio (y) = 0.05805 0.14514
# Poissons Ratio (z) = 0.32973 0.05190
#
# Static dielectric constant tensor:
#      x y z
#    x 1.928760 0.000000 0.000000 
#    y 0.000000 1.926890 0.000000 
#    z 0.000000 0.000000 1.846580 
# 
# From -- ./inp_files/23443.got.cif
#   From: 2010.05.17/outbox.cif.g08.bks.cpg/sg58_12_cif.got.tgz:23443.got - 2010.06.03 14:20:14.
