data_PCOD9445101
_publ_section_title
;
Structure prediction by ZEFSAII (Michael W. Deem and Ramdas Pophale) SiO2 
 PCOD9445101
Probable space group: P N N M
;
_chemical_formula_sum "Si O2"
_cell_formula_units_Z 40
_cell_length_a 5.011017
_cell_length_b 18.022545
_cell_length_c 18.935238
_cell_angle_alpha 90.000000
_cell_angle_beta 90.000000
_cell_angle_gamma 90.000000
_cell_volume 1710.065569
_symmetry_space_group_name_H-M "P N N M"
_symmetry_group_IT_number 58
_symmetry_cell_setting 'orthorhombic'
loop_
_space_group_symop_operation_xyz
x,y,z
-x,-y,z
1/2+x,1/2-y,1/2-z
1/2-x,1/2+y,1/2-z
-x,-y,-z
x,y,-z
1/2-x,1/2+y,1/2+z
1/2+x,1/2-y,1/2+z
loop_
_atom_site_type_symbol
_atom_site_label
_atom_site_fract_x
_atom_site_fract_y
_atom_site_fract_z
Si Si1 0.928966 0.913337 0.123742
Si Si2 0.746407 0.944912 0.424868
Si Si3 0.042107 0.322918 0.579888
Si Si4 0.932620 0.913603 0.716027
Si Si5 0.211455 0.772352 0.293932
O O1 0.185236 0.861388 0.107671
O O2 0.680571 0.887495 0.078020
O O3 0.831511 0.900728 0.204940
O O4 0.000000 0.000000 0.114987
O O5 0.738571 0.903402 0.500000
O O6 0.757802 0.898636 0.353295
O O7 0.500000 0.000000 0.421426
O O8 0.000000 0.000000 0.426593
O O9 0.083046 0.294220 0.500000
O O10 0.909096 0.263840 0.634553
O O11 0.184768 0.861006 0.704430
O O12 0.000000 0.000000 0.715686
O O13 0.005006 0.748406 0.231781
#
# Coordination Sequence:
#
# PCOD9445101 Si02
#       5
#     8   8   8   8   8
#     4  11  24  42  68 103 136 177 226 276 331 399
#     4   9  19  35  56  88 127 163 204 261 317 367
#     4  12  25  44  68  99 135 179 224 272 338 403
#     4  10  22  40  69  97 130 172 223 271 327 398
#     4  12  24  45  66  94 133 177 218 273 329 394
#
# _framework density 23.390913999999999
#
# number of rings (size 3 to 8) (size 9 to 14) (size 15 to 20)
#    0.000    1.200    4.000    1.200    0.000   11.200 
#    0.000    0.000    0.000    7.200    0.000    0.000 
#    0.000    0.000    0.000    0.000    0.000    0.000 
#
# Total GULP energy -223371.686674 kJ/mol
# GULP energy per Si atom -5584.292167 kJ/mol
# Density = 2.333767 g / cm^3
# Si number density = 23.390914 Si / 1000 Ang^3
#
#
#
# Elastic Constant Matrix: (Units=GPa)
#
#
# Indices 1 2 3 4 5 6 
#
# 1 119.2512 -0.3008 20.4304 0.0000 0.0000 0.0000
# 2 -0.3008 87.9757 13.6160 0.0000 0.0000 0.0000
# 3 20.4304 13.6160 197.4357 0.0000 0.0000 0.0000
# 4 0.0000 0.0000 0.0000 156.1152 0.0000 0.0000
# 5 0.0000 0.0000 0.0000 0.0000 20.5018 0.0000
# 6 0.0000 0.0000 0.0000 0.0000 0.0000 24.5565
#
#
#
# Elastic Compliance Matrix: (Units=1/GPa)
#
#
# Indices 1 2 3 4 5 6 
#
# 1 0.008539 0.000168 -0.000895 0.000000 0.000000 0.000000
# 2 0.000168 0.011493 -0.000810 0.000000 0.000000 0.000000
# 3 -0.000895 -0.000810 0.005213 0.000000 0.000000 0.000000
# 4 0.000000 0.000000 0.000000 0.006406 0.000000 0.000000
# 5 0.000000 0.000000 0.000000 0.000000 0.048776 0.000000
# 6 0.000000 0.000000 0.000000 0.000000 0.000000 0.040722
#
#
# Mechanical properties :
#
#
# Convention : Reuss Voigt Hill
#
# Bulk Modulus (GPa) = 45.10446 52.46154 48.78300
# Shear Modulus (GPa) = 37.98962 64.96249 51.47605
#
# Velocity S-wave (km/s) = 4.03441 5.27568 4.69624
# Velocity P-wave (km/s) = 6.40521 7.71928 7.09274
#
# Compressibility (1/GPa) = 0.02217076
#
# Stress axis : x y z
#
# Youngs Moduli (GPa) = 117.10351 87.01177 191.81217
#
# Poissons Ratio (x) = -0.01460 0.17171
# Poissons Ratio (y) = -0.01964 0.15536
# Poissons Ratio (z) = 0.10483 0.07047
#
# Static dielectric constant tensor:
#      x y z
#    x 1.815840 0.000000 0.000000 
#    y 0.000000 1.991520 0.000000 
#    z 0.000000 0.000000 2.003300 
# 
# From -- ./inp_files/24267.got.cif
#   From: 2010.05.17/outbox.cif.g08.bks.cpg/sg58_13_cif.got.tgz:24267.got - 2010.06.03 14:20:14.
