data_PCOD9445587
_publ_section_title
;
Structure prediction by ZEFSAII (Michael W. Deem and Ramdas Pophale) SiO2 
 PCOD9445587
Probable space group: P N N M
;
_chemical_formula_sum "Si O2"
_cell_formula_units_Z 48
_cell_length_a 8.753056
_cell_length_b 14.656444
_cell_length_c 18.662689
_cell_angle_alpha 90.000000
_cell_angle_beta 90.000000
_cell_angle_gamma 90.000000
_cell_volume 2394.211645
_symmetry_space_group_name_H-M "P N N M"
_symmetry_group_IT_number 58
_symmetry_cell_setting 'orthorhombic'
loop_
_space_group_symop_operation_xyz
x,y,z
-x,-y,z
1/2+x,1/2-y,1/2-z
1/2-x,1/2+y,1/2-z
-x,-y,-z
x,y,-z
1/2-x,1/2+y,1/2+z
1/2+x,1/2-y,1/2+z
loop_
_atom_site_type_symbol
_atom_site_label
_atom_site_fract_x
_atom_site_fract_y
_atom_site_fract_z
Si Si1 0.345386 0.246740 0.332875
Si Si2 0.141625 0.865203 0.312745
Si Si3 0.882281 0.626673 0.416350
Si Si4 0.300676 0.566250 0.787133
Si Si5 0.158977 0.250975 0.080384
Si Si6 0.713337 0.931482 0.123547
O O1 0.341564 0.305443 0.259513
O O2 0.214785 0.291793 0.382657
O O3 0.314597 0.141870 0.314792
O O4 0.506532 0.248518 0.372487
O O5 0.208449 0.806138 0.377759
O O6 0.965252 0.897049 0.313836
O O7 0.228762 0.962168 0.309457
O O8 0.919020 0.642139 0.500000
O O9 0.788078 0.532302 0.409141
O O10 0.037756 0.604281 0.373413
O O11 0.291237 0.566217 0.701077
O O12 0.204656 0.145185 0.077991
O O13 0.136247 0.286177 0.000000
#
# Coordination Sequence:
#
# PCOD9445587 Si02
#       6
#     8   8   8   8   8   8
#     4  12  23  41  67  97 132 172 219 272 321 396
#     4  11  23  45  66  95 129 170 227 269 326 392
#     4  11  24  39  61  98 138 176 211 264 333 401
#     4  11  24  41  68  99 121 171 229 277 317 385
#     4  12  26  43  67 100 138 177 216 274 340 395
#     4  11  21  39  65  94 134 169 220 269 327 391
#
# _framework density 20.048352000000001
#
# number of rings (size 3 to 8) (size 9 to 14) (size 15 to 20)
#    0.000    0.667    5.000    3.500    2.333    1.333 
#    0.000    6.667    0.000    0.000    0.000    0.000 
#    0.000    0.000    0.000    0.000    0.000    0.000 
#
# Total GULP energy -268236.571974 kJ/mol
# GULP energy per Si atom -5588.261916 kJ/mol
# Density = 2.000272 g / cm^3
# Si number density = 20.048352 Si / 1000 Ang^3
#
#
#
# Elastic Constant Matrix: (Units=GPa)
#
#
# Indices 1 2 3 4 5 6 
#
# 1 19.7837 12.8681 0.0860 0.0000 0.0000 0.0000
# 2 12.8681 107.9374 40.9560 0.0000 0.0000 0.0000
# 3 0.0860 40.9560 69.5139 0.0000 0.0000 0.0000
# 4 0.0000 0.0000 0.0000 -102.0405 0.0000 0.0000
# 5 0.0000 0.0000 0.0000 0.0000 -54.9827 0.0000
# 6 0.0000 0.0000 0.0000 0.0000 0.0000 35.1948
#
#
#
# Elastic Compliance Matrix: (Units=1/GPa)
#
#
# Indices 1 2 3 4 5 6 
#
# 1 0.056106 -0.008581 0.004986 0.000000 0.000000 0.000000
# 2 -0.008581 0.013245 -0.007793 0.000000 0.000000 0.000000
# 3 0.004986 -0.007793 0.018971 0.000000 0.000000 0.000000
# 4 0.000000 0.000000 0.000000 -0.009800 0.000000 0.000000
# 5 0.000000 0.000000 0.000000 0.000000 -0.018188 0.000000
# 6 0.000000 0.000000 0.000000 0.000000 0.000000 0.028413
#
#
# Mechanical properties :
#
#
# Convention : Reuss Voigt Hill
#
# Bulk Modulus (GPa) = 15.25631 33.89505 24.57568
# Shear Modulus (GPa) = 37.48944 -14.81070 11.33937
#
# Velocity S-wave (km/s) = 4.32898 -2.72094 2.38082
# Velocity P-wave (km/s) = 5.71079 2.65932 4.45450
#
# Compressibility (1/GPa) = 0.06554665
#
# Stress axis : x y z
#
# Youngs Moduli (GPa) = 17.82335 75.50292 52.71274
#
# Poissons Ratio (x) = 0.64788 -0.26284
# Poissons Ratio (y) = 0.15294 0.41078
# Poissons Ratio (z) = -0.08887 0.58838
#
# Static dielectric constant tensor:
#      x y z
#    x 1.735280 0.000000 0.000000 
#    y 0.000000 1.708400 0.000000 
#    z 0.000000 0.000000 1.704190 
# 
# From -- ./inp_files/25255.got.cif
#   From: 2010.05.17/outbox.cif.g08.bks.cpg/sg58_13_cif.got.tgz:25255.got - 2010.06.03 14:20:14.
