data_PCOD9445439
_publ_section_title
;
Structure prediction by ZEFSAII (Michael W. Deem and Ramdas Pophale) SiO2 
 PCOD9445439
Probable space group: P N N M
;
_chemical_formula_sum "Si O2"
_cell_formula_units_Z 48
_cell_length_a 5.530559
_cell_length_b 13.954303
_cell_length_c 26.803350
_cell_angle_alpha 90.000000
_cell_angle_beta 90.000000
_cell_angle_gamma 90.000000
_cell_volume 2068.551111
_symmetry_space_group_name_H-M "P N N M"
_symmetry_group_IT_number 58
_symmetry_cell_setting 'orthorhombic'
loop_
_space_group_symop_operation_xyz
x,y,z
-x,-y,z
1/2+x,1/2-y,1/2-z
1/2-x,1/2+y,1/2-z
-x,-y,-z
x,y,-z
1/2-x,1/2+y,1/2+z
1/2+x,1/2-y,1/2+z
loop_
_atom_site_type_symbol
_atom_site_label
_atom_site_fract_x
_atom_site_fract_y
_atom_site_fract_z
Si Si1 0.232020 0.168586 0.696439
Si Si2 0.350043 0.091277 0.111706
Si Si3 0.641510 0.599990 0.000000
Si Si4 0.393902 0.714289 0.910537
Si Si5 0.500000 0.500000 0.678479
Si Si6 0.045503 0.727336 0.000000
Si Si7 0.268898 0.874602 0.251678
Si Si8 0.792771 0.920190 0.000000
O O1 0.231489 0.164182 0.636499
O O2 0.475652 0.122029 0.719537
O O3 0.233960 0.276705 0.718929
O O4 0.970034 0.128846 0.713377
O O5 0.465944 0.195760 0.113608
O O6 0.323150 0.069475 0.053516
O O7 0.500000 0.000000 0.130437
O O8 0.102061 0.083504 0.142646
O O9 0.500000 0.500000 0.000000
O O10 0.557240 0.650161 0.052226
O O11 0.929742 0.621373 0.000000
O O12 0.196319 0.748725 0.950480
O O13 0.292378 0.459824 0.714095
O O14 0.843807 0.807147 0.000000
O O15 0.000000 0.000000 0.000000
#
# Coordination Sequence:
#
# PCOD9445439 Si02
#       8
#     8   8   4   8   4   4   8   4
#     4  10  24  46  74  99 141 193 257 305 374 449
#     4  12  25  40  68 107 153 202 248 301 379 468
#     4  11  26  50  75 104 143 188 248 324 387 458
#     4  11  25  44  76 106 138 197 247 314 387 458
#     4  12  28  43  70 106 158 197 246 314 394 470
#     4  11  24  45  69 105 152 183 251 320 385 465
#     4  10  25  44  68 105 144 194 244 317 370 443
#     4  12  21  38  61 105 156 202 243 294 364 465
#
# _framework density 23.204644999999999
#
# number of rings (size 3 to 8) (size 9 to 14) (size 15 to 20)
#    0.000    1.000    2.500    2.750   14.000    1.333 
#    1.500    1.667    0.000    0.000    0.000    0.000 
#    0.000    0.000    0.000    0.000    0.000    0.000 
#
# Total GULP energy -268047.401915 kJ/mol
# GULP energy per Si atom -5584.320873 kJ/mol
# Density = 2.315183 g / cm^3
# Si number density = 23.204645 Si / 1000 Ang^3
#
#
#
# Elastic Constant Matrix: (Units=GPa)
#
#
# Indices 1 2 3 4 5 6 
#
# 1 118.8016 32.8013 72.0417 0.0000 0.0000 0.0000
# 2 32.8013 79.6852 23.0413 0.0000 0.0000 0.0000
# 3 72.0417 23.0413 184.3558 0.0000 0.0000 0.0000
# 4 0.0000 0.0000 0.0000 -13.7573 0.0000 0.0000
# 5 0.0000 0.0000 0.0000 0.0000 -23.0543 0.0000
# 6 0.0000 0.0000 0.0000 0.0000 0.0000 36.2541
#
#
#
# Elastic Compliance Matrix: (Units=1/GPa)
#
#
# Indices 1 2 3 4 5 6 
#
# 1 0.012008 -0.003721 -0.004228 0.000000 0.000000 0.000000
# 2 -0.003721 0.014173 -0.000317 0.000000 0.000000 0.000000
# 3 -0.004228 -0.000317 0.007116 0.000000 0.000000 0.000000
# 4 0.000000 0.000000 0.000000 -0.072689 0.000000 0.000000
# 5 0.000000 0.000000 0.000000 0.000000 -0.043376 0.000000
# 6 0.000000 0.000000 0.000000 0.000000 0.000000 0.027583
#
#
# Mechanical properties :
#
#
# Convention : Reuss Voigt Hill
#
# Bulk Modulus (GPa) = 59.64515 70.95679 65.30097
# Shear Modulus (GPa) = -151.21752 16.88572 -67.16590
#
# Velocity S-wave (km/s) = -8.08136 2.70049 -5.38589
# Velocity P-wave (km/s) = 7.83059 6.35363 3.23647
#
# Compressibility (1/GPa) = 0.01676582
#
# Stress axis : x y z
#
# Youngs Moduli (GPa) = 83.27611 70.55813 140.52890
#
# Poissons Ratio (x) = 0.26252 0.59409
# Poissons Ratio (y) = 0.30984 0.04461
# Poissons Ratio (z) = 0.35205 0.02240
#
# Static dielectric constant tensor:
#      x y z
#    x 2.068170 0.000000 0.000000 
#    y 0.000000 1.952640 0.000000 
#    z 0.000000 0.000000 1.811270 
# 
# From -- ./inp_files/32879.got.cif
#   From: 2010.05.17/outbox.cif.g08.bks.cpg/sg58_17_cif.got.tgz:32879.got - 2010.06.03 14:20:14.
