data_PCOD9445096
_publ_section_title
;
Structure prediction by ZEFSAII (Michael W. Deem and Ramdas Pophale) SiO2 
 PCOD9445096
Probable space group: P N N M
;
_chemical_formula_sum "Si O2"
_cell_formula_units_Z 52
_cell_length_a 26.943554
_cell_length_b 7.322486
_cell_length_c 12.148699
_cell_angle_alpha 90.000000
_cell_angle_beta 90.000000
_cell_angle_gamma 90.000000
_cell_volume 2396.862954
_symmetry_space_group_name_H-M "P N N M"
_symmetry_group_IT_number 58
_symmetry_cell_setting 'orthorhombic'
loop_
_space_group_symop_operation_xyz
x,y,z
-x,-y,z
1/2+x,1/2-y,1/2-z
1/2-x,1/2+y,1/2-z
-x,-y,-z
x,y,-z
1/2-x,1/2+y,1/2+z
1/2+x,1/2-y,1/2+z
loop_
_atom_site_type_symbol
_atom_site_label
_atom_site_fract_x
_atom_site_fract_y
_atom_site_fract_z
Si Si1 0.913869 0.553471 0.500000
Si Si2 0.996030 0.244363 0.500000
Si Si3 0.860315 0.427915 0.283524
Si Si4 0.306745 0.705449 0.293465
Si Si5 0.587579 0.403131 0.376825
Si Si6 0.555120 0.982034 0.624511
Si Si7 0.290560 0.383085 0.126939
Si Si8 0.500000 0.500000 0.208636
O O1 0.958649 0.411155 0.500000
O O2 0.883382 0.518518 0.391762
O O3 0.943943 0.740549 0.500000
O O4 0.986741 0.155165 0.380760
O O5 0.826402 0.592816 0.239057
O O6 0.904206 0.382372 0.197844
O O7 0.831378 0.247341 0.317450
O O8 0.354037 0.599591 0.345741
O O9 0.288456 0.573114 0.194618
O O10 0.259510 0.760623 0.366741
O O11 0.580047 0.480315 0.500000
O O12 0.574575 0.188116 0.382443
O O13 0.547831 0.473851 0.287396
O O14 0.550500 0.908044 0.500000
O O15 0.500000 0.000000 0.673803
O O16 0.302788 0.420176 0.000000
#
# Coordination Sequence:
#
# PCOD9445096 Si02
#       8
#     4   4   8   8   8   8   8   4
#     4  11  24  42  66  92 136 180 226 271 340 401
#     4  10  24  40  62  94 136 186 220 280 328 416
#     4  11  24  43  68 102 138 177 229 282 345 408
#     4  11  25  48  71 100 138 177 229 292 349 413
#     4  10  22  40  66  96 135 175 219 283 345 410
#     4   9  20  39  65  94 132 179 225 273 334 406
#     4  12  26  46  73 101 135 182 232 287 350 422
#     4  11  23  40  62 100 135 175 232 272 346 411
#
# _framework density 21.695022999999999
#
# number of rings (size 3 to 8) (size 9 to 14) (size 15 to 20)
#    0.000    1.385    2.308    2.538    7.538    0.615 
#    1.385    3.077    0.000    0.000    0.000    0.000 
#    0.000    0.000    0.000    0.000    0.000    0.000 
#
# Total GULP energy -290192.738475 kJ/mol
# GULP energy per Si atom -5580.629586 kJ/mol
# Density = 2.164564 g / cm^3
# Si number density = 21.695023 Si / 1000 Ang^3
#
#
#
# Elastic Constant Matrix: (Units=GPa)
#
#
# Indices 1 2 3 4 5 6 
#
# 1 111.9981 5.5844 44.6572 0.0000 0.0000 0.0000
# 2 5.5844 41.1606 16.3829 0.0000 0.0000 0.0000
# 3 44.6572 16.3829 117.0459 0.0000 0.0000 0.0000
# 4 0.0000 0.0000 0.0000 17.3271 0.0000 0.0000
# 5 0.0000 0.0000 0.0000 0.0000 22.9416 0.0000
# 6 0.0000 0.0000 0.0000 0.0000 0.0000 39.6135
#
#
#
# Elastic Compliance Matrix: (Units=1/GPa)
#
#
# Indices 1 2 3 4 5 6 
#
# 1 0.010532 0.000181 -0.004044 0.000000 0.000000 0.000000
# 2 0.000181 0.025732 -0.003671 0.000000 0.000000 0.000000
# 3 -0.004044 -0.003671 0.010600 0.000000 0.000000 0.000000
# 4 0.000000 0.000000 0.000000 0.057713 0.000000 0.000000
# 5 0.000000 0.000000 0.000000 0.000000 0.043589 0.000000
# 6 0.000000 0.000000 0.000000 0.000000 0.000000 0.025244
#
#
# Mechanical properties :
#
#
# Convention : Reuss Voigt Hill
#
# Bulk Modulus (GPa) = 31.44992 44.82818 38.13905
# Shear Modulus (GPa) = 25.11605 29.54843 27.33224
#
# Velocity S-wave (km/s) = 3.40617 3.69452 3.55327
# Velocity P-wave (km/s) = 5.47697 6.23755 5.86959
#
# Compressibility (1/GPa) = 0.03179658
#
# Stress axis : x y z
#
# Youngs Moduli (GPa) = 94.94833 38.86279 94.33777
#
# Poissons Ratio (x) = -0.00702 0.38147
# Poissons Ratio (y) = -0.01714 0.34627
# Poissons Ratio (z) = 0.38394 0.14265
#
# Static dielectric constant tensor:
#      x y z
#    x 3.217250 0.000000 0.000000 
#    y 0.000000 1.945190 0.000000 
#    z 0.000000 0.000000 1.819340 
# 
# From -- ./inp_files/17745.got.cif
#   From: 2010.05.17/outbox.cif.g08.bks.cpg/sg58_9_cif.got.tgz:17745.got - 2010.06.03 14:20:14.
