data_PCOD9445590
_publ_section_title
;
Structure prediction by ZEFSAII (Michael W. Deem and Ramdas Pophale) SiO2 
 PCOD9445590
Probable space group: P N N M
;
_chemical_formula_sum "Si O2"
_cell_formula_units_Z 64
_cell_length_a 11.509322
_cell_length_b 15.165673
_cell_length_c 17.542313
_cell_angle_alpha 90.000000
_cell_angle_beta 90.000000
_cell_angle_gamma 90.000000
_cell_volume 3061.951334
_symmetry_space_group_name_H-M "P N N M"
_symmetry_group_IT_number 58
_symmetry_cell_setting 'orthorhombic'
loop_
_space_group_symop_operation_xyz
x,y,z
-x,-y,z
1/2+x,1/2-y,1/2-z
1/2-x,1/2+y,1/2-z
-x,-y,-z
x,y,-z
1/2-x,1/2+y,1/2+z
1/2+x,1/2-y,1/2+z
loop_
_atom_site_type_symbol
_atom_site_label
_atom_site_fract_x
_atom_site_fract_y
_atom_site_fract_z
Si Si1 0.265291 0.165285 0.863479
Si Si2 0.206701 0.843064 0.169791
Si Si3 0.911818 0.167186 0.671174
Si Si4 0.819411 0.841907 0.307793
Si Si5 0.057279 0.412631 0.091129
Si Si6 0.687668 0.514964 0.088536
Si Si7 0.010525 0.221742 0.910684
Si Si8 0.131693 0.483856 0.588422
O O1 0.359072 0.244425 0.865968
O O2 0.238128 0.144247 0.774817
O O3 0.143106 0.194080 0.898995
O O4 0.308565 0.078593 0.904982
O O5 0.173639 0.854706 0.258228
O O6 0.260961 0.745946 0.158459
O O7 0.295331 0.914856 0.138112
O O8 0.082991 0.841783 0.127262
O O9 0.910168 0.083485 0.615212
O O10 0.043102 0.178219 0.700244
O O11 0.804876 0.927943 0.360080
O O12 0.194417 0.427155 0.097704
O O13 0.007905 0.321435 0.122928
O O14 0.000000 0.500000 0.124601
O O15 0.031850 0.410470 0.000000
O O16 0.677055 0.490781 0.000000
O O17 0.984195 0.224980 0.000000
O O18 0.128783 0.454234 0.500000
O O19 0.000000 0.500000 0.615238
#
# Coordination Sequence:
#
# PCOD9445590 Si02
#       8
#     8   8   8   8   8   8   8   8
#     4  11  23  43  67  94 127 174 219 270 328 393
#     4  11  24  43  66  96 130 173 220 271 325 392
#     4  11  23  42  66  93 133 173 216 266 322 392
#     4  11  24  42  65  94 132 174 216 266 322 394
#     4   9  18  34  58  91 130 162 197 252 315 377
#     4  11  23  39  61  94 128 167 214 263 323 387
#     4  11  21  39  67  97 129 168 215 272 332 386
#     4  11  25  45  67  95 130 171 223 278 330 390
#
# _framework density 20.901703999999999
#
# number of rings (size 3 to 8) (size 9 to 14) (size 15 to 20)
#    0.000    1.250    2.500    3.375    0.000    4.000 
#    0.000    2.500    0.000    0.000    0.000    0.000 
#    0.000    0.000    0.000    0.000    0.000    0.000 
#
# Total GULP energy -357778.826218 kJ/mol
# GULP energy per Si atom -5590.294160 kJ/mol
# Density = 2.085413 g / cm^3
# Si number density = 20.901704 Si / 1000 Ang^3
#
#
#
# Elastic Constant Matrix: (Units=GPa)
#
#
# Indices 1 2 3 4 5 6 
#
# 1 74.2351 22.6453 -1.6838 0.0000 0.0000 0.0000
# 2 22.6453 72.5697 6.3461 0.0000 0.0000 0.0000
# 3 -1.6838 6.3461 32.4818 0.0000 0.0000 0.0000
# 4 0.0000 0.0000 0.0000 18.9926 0.0000 0.0000
# 5 0.0000 0.0000 0.0000 0.0000 23.2920 0.0000
# 6 0.0000 0.0000 0.0000 0.0000 0.0000 31.8311
#
#
#
# Elastic Compliance Matrix: (Units=1/GPa)
#
#
# Indices 1 2 3 4 5 6 
#
# 1 0.014982 -0.004825 0.001719 0.000000 0.000000 0.000000
# 2 -0.004825 0.015574 -0.003293 0.000000 0.000000 0.000000
# 3 0.001719 -0.003293 0.031519 0.000000 0.000000 0.000000
# 4 0.000000 0.000000 0.000000 0.052652 0.000000 0.000000
# 5 0.000000 0.000000 0.000000 0.000000 0.042933 0.000000
# 6 0.000000 0.000000 0.000000 0.000000 0.000000 0.031416
#
#
# Mechanical properties :
#
#
# Convention : Reuss Voigt Hill
#
# Bulk Modulus (GPa) = 20.29362 25.98910 23.14136
# Shear Modulus (GPa) = 22.90441 24.95506 23.92973
#
# Velocity S-wave (km/s) = 3.31390 3.45907 3.38726
# Velocity P-wave (km/s) = 4.93688 5.33053 5.13747
#
# Compressibility (1/GPa) = 0.04927657
#
# Stress axis : x y z
#
# Youngs Moduli (GPa) = 66.74808 64.21140 31.72694
#
# Poissons Ratio (x) = 0.30985 -0.05455
# Poissons Ratio (y) = 0.32209 0.10447
# Poissons Ratio (z) = -0.11477 0.21144
#
# Static dielectric constant tensor:
#      x y z
#    x 1.784050 0.000000 0.000000 
#    y 0.000000 1.741820 0.000000 
#    z 0.000000 0.000000 1.741090 
# 
# From -- ./inp_files/26399.got.cif
#   From: 2010.05.17/outbox.cif.g08.bks.cpg/sg58_14_cif.got.tgz:26399.got - 2010.06.03 14:20:14.
