data_PCOD9445751
_publ_section_title
;
Structure prediction by ZEFSAII (Michael W. Deem and Ramdas Pophale) SiO2 
 PCOD9445751
Probable space group: P N N M
;
_chemical_formula_sum "Si O2"
_cell_formula_units_Z 38
_cell_length_a 11.541307
_cell_length_b 5.588537
_cell_length_c 24.290484
_cell_angle_alpha 90.000000
_cell_angle_beta 90.000000
_cell_angle_gamma 90.000000
_cell_volume 1566.712442
_symmetry_space_group_name_H-M "P N N M"
_symmetry_group_IT_number 58
_symmetry_cell_setting 'orthorhombic'
loop_
_space_group_symop_operation_xyz
x,y,z
-x,-y,z
1/2+x,1/2-y,1/2-z
1/2-x,1/2+y,1/2-z
-x,-y,-z
x,y,-z
1/2-x,1/2+y,1/2+z
1/2+x,1/2-y,1/2+z
loop_
_atom_site_type_symbol
_atom_site_label
_atom_site_fract_x
_atom_site_fract_y
_atom_site_fract_z
Si Si1 0.120392 0.579598 0.698927
Si Si2 0.000000 0.000000 0.868515
Si Si3 0.563542 0.747285 0.917596
Si Si4 0.679120 0.148760 0.413832
Si Si5 0.805199 0.298994 0.814907
Si Si6 0.000000 0.500000 0.000000
O O1 0.076657 0.743179 0.649088
O O2 0.197027 0.671093 0.749280
O O3 0.196148 0.369909 0.671023
O O4 0.000000 0.500000 0.726207
O O5 0.074119 0.825619 0.830386
O O6 0.904637 0.873752 0.906011
O O7 0.500000 0.500000 0.933101
O O8 0.696637 0.725938 0.936620
O O9 0.500000 0.000000 0.932596
O O10 0.602453 0.979580 0.452316
O O11 0.697520 0.030160 0.353824
#
# Coordination Sequence:
#
# PCOD9445751 Si02
#       6
#     8   4   8   8   8   2
#     4  11  24  39  69 106 144 207 243 295 382 473
#     4  12  24  43  72 100 152 196 248 329 380 448
#     4  11  25  46  74 106 153 198 248 311 387 474
#     4  12  25  50  70 109 147 195 263 327 392 456
#     4  12  25  43  67 106 156 197 252 316 383 465
#     4  12  28  50  80 108 146 204 264 338 400 456
#
# _framework density 24.25461
#
# number of rings (size 3 to 8) (size 9 to 14) (size 15 to 20)
#    0.000    0.421    4.211    5.053    4.421    0.421 
#    0.000    1.053    0.000    0.000    0.000    0.737 
#    0.000    0.000    0.000    0.000    0.000    0.000 
#
# Total GULP energy -211933.295526 kJ/mol
# GULP energy per Si atom -5577.191988 kJ/mol
# Density = 2.419941 g / cm^3
# Si number density = 24.254610 Si / 1000 Ang^3
#
#
#
# Elastic Constant Matrix: (Units=GPa)
#
#
# Indices 1 2 3 4 5 6 
#
# 1 213.5227 82.0135 11.6121 0.0000 0.0000 0.0000
# 2 82.0135 110.7041 11.0977 0.0000 0.0000 0.0000
# 3 11.6121 11.0977 107.9337 0.0000 0.0000 0.0000
# 4 0.0000 0.0000 0.0000 -110.3120 0.0000 0.0000
# 5 0.0000 0.0000 0.0000 0.0000 -0.6026 0.0000
# 6 0.0000 0.0000 0.0000 0.0000 0.0000 62.1913
#
#
#
# Elastic Compliance Matrix: (Units=1/GPa)
#
#
# Indices 1 2 3 4 5 6 
#
# 1 0.006551 -0.004832 -0.000208 0.000000 0.000000 0.000000
# 2 -0.004832 0.012692 -0.000785 0.000000 0.000000 0.000000
# 3 -0.000208 -0.000785 0.009368 0.000000 0.000000 0.000000
# 4 0.000000 0.000000 0.000000 -0.009065 0.000000 0.000000
# 5 0.000000 0.000000 0.000000 0.000000 -1.659490 0.000000
# 6 0.000000 0.000000 0.000000 0.000000 0.000000 0.016079
#
#
# Mechanical properties :
#
#
# Convention : Reuss Voigt Hill
#
# Bulk Modulus (GPa) = 58.96205 71.28966 65.12585
# Shear Modulus (GPa) = -3.11224 12.08448 4.48612
#
# Velocity S-wave (km/s) = -1.13399 2.23454 1.36147
# Velocity P-wave (km/s) = 4.75897 6.00946 5.42040
#
# Compressibility (1/GPa) = 0.01696006
#
# Stress axis : x y z
#
# Youngs Moduli (GPa) = 152.65667 78.79242 106.74595
#
# Poissons Ratio (x) = 0.38073 0.02219
# Poissons Ratio (y) = 0.73765 0.08380
# Poissons Ratio (z) = 0.03174 0.06186
#
# Static dielectric constant tensor:
#      x y z
#    x 1.931560 0.000000 0.000000 
#    y 0.000000 2.063480 0.000000 
#    z 0.000000 0.000000 1.899790 
# 
# From -- ./inp_files/33482.got.cif
#   From: 2010.05.17/outbox.cif.g08.bks.cpg/sg58_17_cif.got.tgz:33482.got - 2010.06.03 14:20:14.
