data_PCOD9445884
_publ_section_title
;
Structure prediction by ZEFSAII (Michael W. Deem and Ramdas Pophale) SiO2 
 PCOD9445884
Probable space group: P N N M
;
_chemical_formula_sum "Si O2"
_cell_formula_units_Z 32
_cell_length_a 8.297012
_cell_length_b 7.059266
_cell_length_c 23.893019
_cell_angle_alpha 90.000000
_cell_angle_beta 90.000000
_cell_angle_gamma 90.000000
_cell_volume 1399.433589
_symmetry_space_group_name_H-M "P N N M"
_symmetry_group_IT_number 58
_symmetry_cell_setting 'orthorhombic'
loop_
_space_group_symop_operation_xyz
x,y,z
-x,-y,z
1/2+x,1/2-y,1/2-z
1/2-x,1/2+y,1/2-z
-x,-y,-z
x,y,-z
1/2-x,1/2+y,1/2+z
1/2+x,1/2-y,1/2+z
loop_
_atom_site_type_symbol
_atom_site_label
_atom_site_fract_x
_atom_site_fract_y
_atom_site_fract_z
Si Si1 0.959461 0.224792 0.938465
Si Si2 0.853516 0.787422 0.830586
Si Si3 0.845684 0.631185 0.618452
Si Si4 0.523337 0.770014 0.219626
O O1 0.767771 0.234517 0.926096
O O2 0.064088 0.299376 0.885868
O O3 0.001079 0.298135 0.000000
O O4 0.000000 0.000000 0.940609
O O5 0.698438 0.699634 0.799415
O O6 0.979142 0.800907 0.780442
O O7 0.776062 0.983171 0.852197
O O8 0.908937 0.770888 0.666626
O O9 0.000000 0.500000 0.599324
O O10 0.500000 0.000000 0.223943
#
# Coordination Sequence:
#
# PCOD9445884 Si02
#       4
#     8   8   8   8
#     4   9  16  26  41  61  86 116 146 174 212 259
#     4   9  16  27  42  59  87 113 137 175 215 253
#     4   8  16  27  40  63  87 109 141 178 217 261
#     4   9  17  28  44  66  88 111 143 178 216 262
#
# _framework density 22.866394
#
# number of rings (size 3 to 8) (size 9 to 14) (size 15 to 20)
#    0.000    3.750    0.000    1.500    0.000    2.500 
#    0.000    3.750    0.000    1.500    0.000    0.000 
#    0.000   16.000    0.000    0.000    0.000    0.000 
#
# Total GULP energy -178189.196395 kJ/mol
# GULP energy per Si atom -5568.412387 kJ/mol
# Density = 2.281435 g / cm^3
# Si number density = 22.866394 Si / 1000 Ang^3
#
#
#
# Elastic Constant Matrix: (Units=GPa)
#
#
# Indices 1 2 3 4 5 6 
#
# 1 147.1472 14.1251 109.3737 0.0000 0.0000 0.0000
# 2 14.1251 67.4603 -1.7779 0.0000 0.0000 0.0000
# 3 109.3737 -1.7779 187.4143 0.0000 0.0000 0.0000
# 4 0.0000 0.0000 0.0000 4.9513 0.0000 0.0000
# 5 0.0000 0.0000 0.0000 0.0000 31.4265 0.0000
# 6 0.0000 0.0000 0.0000 0.0000 0.0000 12.9062
#
#
#
# Elastic Compliance Matrix: (Units=1/GPa)
#
#
# Indices 1 2 3 4 5 6 
#
# 1 0.012514 -0.002813 -0.007330 0.000000 0.000000 0.000000
# 2 -0.002813 0.015460 0.001789 0.000000 0.000000 0.000000
# 3 -0.007330 0.001789 0.009630 0.000000 0.000000 0.000000
# 4 0.000000 0.000000 0.000000 0.201967 0.000000 0.000000
# 5 0.000000 0.000000 0.000000 0.000000 0.031820 0.000000
# 6 0.000000 0.000000 0.000000 0.000000 0.000000 0.077482
#
#
# Mechanical properties :
#
#
# Convention : Reuss Voigt Hill
#
# Bulk Modulus (GPa) = 47.85874 71.71820 59.78847
# Shear Modulus (GPa) = 13.42105 28.54352 20.98228
#
# Velocity S-wave (km/s) = 2.42530 3.53692 3.03248
# Velocity P-wave (km/s) = 5.36823 6.93627 6.20201
#
# Compressibility (1/GPa) = 0.02089483
#
# Stress axis : x y z
#
# Youngs Moduli (GPa) = 79.90848 64.68403 103.83725
#
# Poissons Ratio (x) = 0.18199 0.76112
# Poissons Ratio (y) = 0.22482 -0.18572
# Poissons Ratio (z) = 0.58573 -0.11569
#
# Static dielectric constant tensor:
#      x y z
#    x 1.997650 0.000000 0.000000 
#    y 0.000000 1.975020 0.000000 
#    z 0.000000 0.000000 1.903740 
# 
# From -- ./inp_files/25027.got.cif
#   From: 2010.05.17/outbox.cif.g08.bks.cpg/sg58_13_cif.got.tgz:25027.got - 2010.06.03 14:20:14.
