data_PCOD9445901
_publ_section_title
;
Structure prediction by ZEFSAII (Michael W. Deem and Ramdas Pophale) SiO2 
 PCOD9445901
Probable space group: P N N M
;
_chemical_formula_sum "Si O2"
_cell_formula_units_Z 56
_cell_length_a 21.000000
_cell_length_b 9.000000
_cell_length_c 15.000000
_cell_angle_alpha 90.000000
_cell_angle_beta 90.000000
_cell_angle_gamma 90.000000
_cell_volume 2835.000000
_symmetry_space_group_name_H-M "P N N M"
_symmetry_group_IT_number 58
_symmetry_cell_setting 'orthorhombic'
loop_
_space_group_symop_operation_xyz
x,y,z
-x,-y,z
1/2+x,1/2-y,1/2-z
1/2-x,1/2+y,1/2-z
-x,-y,-z
x,y,-z
1/2-x,1/2+y,1/2+z
1/2+x,1/2-y,1/2+z
loop_
_atom_site_type_symbol
_atom_site_label
_atom_site_fract_x
_atom_site_fract_y
_atom_site_fract_z
Si Si1 0.128679 0.387964 0.754668
Si Si2 0.067517 0.919406 0.203354
Si Si3 0.063009 0.603088 0.893798
Si Si4 0.157395 0.138798 0.101667
Si Si5 0.100831 0.838153 0.398274
Si Si6 0.969748 0.664589 0.599002
Si Si7 0.804941 0.445979 0.400660
O O1 0.108626 0.517364 0.823829
O O2 0.150023 0.261010 0.821785
O O3 0.073335 0.330007 0.687161
O O4 0.178572 0.449972 0.682513
O O5 0.053683 0.760295 0.156360
O O6 0.102545 0.917240 0.301061
O O7 0.111822 0.006555 0.133395
O O8 0.000000 0.000000 0.214744
O O9 0.000000 0.500000 0.894442
O O10 0.081866 0.618861 0.000000
O O11 0.231026 0.093284 0.100879
O O12 0.140431 0.187738 0.000000
O O13 0.109921 0.905048 0.500000
O O14 0.150212 0.700222 0.393455
O O15 0.028950 0.775486 0.396775
O O16 0.939849 0.686133 0.500000
O O17 0.000000 0.500000 0.599484
O O18 0.818495 0.509030 0.500000
#
# Coordination Sequence:
#
# PCOD9445901 Si02
#       7
#     8   8   8   8   8   8   8
#     4  12  21  38  67  93 121 161 219 266 312 380
#     4  12  24  42  65  92 131 173 209 261 331 388
#     4  11  23  38  61  92 126 167 222 270 311 371
#     4  11  27  44  62  91 131 173 215 264 323 379
#     4  10  20  37  62  91 126 161 202 258 322 379
#     4  10  17  30  57  94 124 150 191 253 320 376
#     4  10  22  41  65  92 124 165 211 262 322 389
#
# _framework density 19.753086
#
# number of rings (size 3 to 8) (size 9 to 14) (size 15 to 20)
#    0.000    1.143    2.857    4.286    2.000    2.571 
#    0.000    1.429    0.000    2.571    0.000    0.000 
#    0.000    0.000    0.000    0.000    0.000    0.000 
#
# Total GULP energy -312398.785361 kJ/mol
# GULP energy per Si atom -5578.549739 kJ/mol
# Density = 1.970813 g / cm^3
# Si number density = 19.753086 Si / 1000 Ang^3
#
#
#
# Elastic Constant Matrix: (Units=GPa)
#
#
# Indices 1 2 3 4 5 6 
#
# 1 73.6244 30.9068 45.0519 0.0000 0.0000 0.0000
# 2 30.9068 77.0748 46.1262 0.0000 0.0000 0.0000
# 3 45.0519 46.1262 208.5451 0.0000 0.0000 0.0000
# 4 0.0000 0.0000 0.0000 47.4570 0.0000 0.0000
# 5 0.0000 0.0000 0.0000 0.0000 29.0551 0.0000
# 6 0.0000 0.0000 0.0000 0.0000 0.0000 10.3222
#
#
#
# Elastic Compliance Matrix: (Units=1/GPa)
#
#
# Indices 1 2 3 4 5 6 
#
# 1 0.017442 -0.005462 -0.002560 0.000000 0.000000 0.000000
# 2 -0.005462 0.016664 -0.002506 0.000000 0.000000 0.000000
# 3 -0.002560 -0.002506 0.005902 0.000000 0.000000 0.000000
# 4 0.000000 0.000000 0.000000 0.021072 0.000000 0.000000
# 5 0.000000 0.000000 0.000000 0.000000 0.034417 0.000000
# 6 0.000000 0.000000 0.000000 0.000000 0.000000 0.096879
#
#
# Mechanical properties :
#
#
# Convention : Reuss Voigt Hill
#
# Bulk Modulus (GPa) = 52.76246 67.04600 59.90423
# Shear Modulus (GPa) = 22.75316 33.17750 27.96533
#
# Velocity S-wave (km/s) = 3.39762 4.10275 3.76672
# Velocity P-wave (km/s) = 6.49313 7.51393 7.02210
#
# Compressibility (1/GPa) = 0.01895287
#
# Stress axis : x y z
#
# Youngs Moduli (GPa) = 57.33348 60.00822 169.42352
#
# Poissons Ratio (x) = 0.32778 0.43369
# Poissons Ratio (y) = 0.31317 0.42455
# Poissons Ratio (z) = 0.14676 0.15037
#
# Static dielectric constant tensor:
#      x y z
#    x 1.686520 0.000000 0.000000 
#    y 0.000000 1.740710 0.000000 
#    z 0.000000 0.000000 1.713920 
# 
# From -- ./inp_files/23238.got.cif
#   From: 2010.05.17/outbox.ucp.g08.bks.cvg/sg58_12_cif.got.tgz:23238.got - 2010.06.11 16:41:41.
