data_PCOD9445575
_publ_section_title
;
Structure prediction by ZEFSAII (Michael W. Deem and Ramdas Pophale) SiO2 
 PCOD9445575
Probable space group: P N N M
;
_chemical_formula_sum "Si O2"
_cell_formula_units_Z 32
_cell_length_a 17.135987
_cell_length_b 5.008489
_cell_length_c 19.819640
_cell_angle_alpha 90.000000
_cell_angle_beta 90.000000
_cell_angle_gamma 90.000000
_cell_volume 1701.028578
_symmetry_space_group_name_H-M "P N N M"
_symmetry_group_IT_number 58
_symmetry_cell_setting 'orthorhombic'
loop_
_space_group_symop_operation_xyz
x,y,z
-x,-y,z
1/2+x,1/2-y,1/2-z
1/2-x,1/2+y,1/2-z
-x,-y,-z
x,y,-z
1/2-x,1/2+y,1/2+z
1/2+x,1/2-y,1/2+z
loop_
_atom_site_type_symbol
_atom_site_label
_atom_site_fract_x
_atom_site_fract_y
_atom_site_fract_z
Si Si1 0.774594 0.625888 0.707698
Si Si2 0.447112 0.760513 0.766616
Si Si3 0.823186 0.137226 0.075048
Si Si4 0.078778 0.355033 0.106885
O O1 0.772870 0.355504 0.751991
O O2 0.862129 0.736992 0.700233
O O3 0.734144 0.567789 0.636378
O O4 0.500000 0.500000 0.772362
O O5 0.430256 0.812699 0.687167
O O6 0.500000 0.000000 0.792981
O O7 0.853772 0.435123 0.089046
O O8 0.896027 0.931757 0.079081
O O9 0.789376 0.119211 0.000000
O O10 0.000000 0.500000 0.082704
#
# Coordination Sequence:
#
# PCOD9445575 Si02
#       4
#     8   8   8   8
#     4  12  22  40  62  87 115 157 200 248 291 346
#     4  11  21  36  61  87 116 148 196 246 292 341
#     4  12  24  39  58  87 122 161 199 242 294 350
#     4  11  22  37  58  86 124 161 197 232 287 361
#
# _framework density 18.812148000000001
#
# number of rings (size 3 to 8) (size 9 to 14) (size 15 to 20)
#    0.000    0.500    5.000    6.000    0.000    3.000 
#    0.000    0.000    0.000    1.500    0.000    0.000 
#    0.000    0.000    0.000    0.000    0.000    0.000 
#
# Total GULP energy -178843.592998 kJ/mol
# GULP energy per Si atom -5588.862281 kJ/mol
# Density = 1.876933 g / cm^3
# Si number density = 18.812148 Si / 1000 Ang^3
#
#
#
# Elastic Constant Matrix: (Units=GPa)
#
#
# Indices 1 2 3 4 5 6 
#
# 1 93.6981 14.4216 40.6541 0.0000 0.0000 0.0000
# 2 14.4216 107.9437 19.8386 0.0000 0.0000 0.0000
# 3 40.6541 19.8386 107.5601 0.0000 0.0000 0.0000
# 4 0.0000 0.0000 0.0000 107.7154 0.0000 0.0000
# 5 0.0000 0.0000 0.0000 0.0000 3.9828 0.0000
# 6 0.0000 0.0000 0.0000 0.0000 0.0000 26.8298
#
#
#
# Elastic Compliance Matrix: (Units=1/GPa)
#
#
# Indices 1 2 3 4 5 6 
#
# 1 0.012841 -0.000853 -0.004696 0.000000 0.000000 0.000000
# 2 -0.000853 0.009646 -0.001457 0.000000 0.000000 0.000000
# 3 -0.004696 -0.001457 0.011341 0.000000 0.000000 0.000000
# 4 0.000000 0.000000 0.000000 0.009284 0.000000 0.000000
# 5 0.000000 0.000000 0.000000 0.000000 0.251082 0.000000
# 6 0.000000 0.000000 0.000000 0.000000 0.000000 0.037272
#
#
# Mechanical properties :
#
#
# Convention : Reuss Voigt Hill
#
# Bulk Modulus (GPa) = 50.46285 51.00341 50.73313
# Shear Modulus (GPa) = 14.20120 43.32477 28.76298
#
# Velocity S-wave (km/s) = 2.75052 4.80419 3.91443
# Velocity P-wave (km/s) = 6.08029 7.61212 6.88892
#
# Compressibility (1/GPa) = 0.01981656
#
# Stress axis : x y z
#
# Youngs Moduli (GPa) = 77.87255 103.67273 88.17622
#
# Poissons Ratio (x) = 0.08838 0.41411
# Poissons Ratio (y) = 0.06639 0.12846
# Poissons Ratio (z) = 0.36572 0.15104
#
# Static dielectric constant tensor:
#      x y z
#    x 1.639520 0.000000 0.000000 
#    y 0.000000 1.649570 0.000000 
#    z 0.000000 0.000000 1.643310 
# 
# From -- ./inp_files/27138.got.cif
#   From: 2010.05.17/outbox.cif.g08.bks.cpg/sg58_14_cif.got.tgz:27138.got - 2010.06.03 14:20:14.
