data_PCOD9445211
_publ_section_title
;
Structure prediction by ZEFSAII (Michael W. Deem and Ramdas Pophale) SiO2 
 PCOD9445211
Probable space group: P N N M
;
_chemical_formula_sum "Si O2"
_cell_formula_units_Z 26
_cell_length_a 4.820444
_cell_length_b 27.351126
_cell_length_c 7.829384
_cell_angle_alpha 90.000000
_cell_angle_beta 90.000000
_cell_angle_gamma 90.000000
_cell_volume 1032.261776
_symmetry_space_group_name_H-M "P N N M"
_symmetry_group_IT_number 58
_symmetry_cell_setting 'orthorhombic'
loop_
_space_group_symop_operation_xyz
x,y,z
-x,-y,z
1/2+x,1/2-y,1/2-z
1/2-x,1/2+y,1/2-z
-x,-y,-z
x,y,-z
1/2-x,1/2+y,1/2+z
1/2+x,1/2-y,1/2+z
loop_
_atom_site_type_symbol
_atom_site_label
_atom_site_fract_x
_atom_site_fract_y
_atom_site_fract_z
Si Si1 0.296004 0.937831 0.796558
Si Si2 0.000000 0.000000 0.500000
Si Si3 0.986632 0.275297 0.816576
Si Si4 0.295674 0.627978 0.698981
O O1 0.192554 0.974511 0.653018
O O2 0.608800 0.919917 0.766747
O O3 0.107694 0.889090 0.770951
O O4 0.265678 0.952280 0.000000
O O5 0.744324 0.234855 0.805494
O O6 0.825259 0.325917 0.795476
O O7 0.124321 0.272332 0.000000
O O8 0.262961 0.639762 0.500000
#
# Coordination Sequence:
#
# PCOD9445211 Si02
#       4
#     8   2   8   8
#     4  10  24  42  65  96 129 172 214 276 330 393
#     4  12  26  42  72  92 136 166 238 258 344 392
#     4  12  25  41  67  98 135 175 225 274 333 403
#     4  10  22  43  66  91 131 167 215 270 332 386
#
# _framework density 25.187408999999999
#
# number of rings (size 3 to 8) (size 9 to 14) (size 15 to 20)
#    0.000    1.231    0.000    5.077    4.308    4.923 
#    0.000    4.615    0.000    0.000    0.000    0.000 
#    0.000    0.000    0.000    0.000    0.000    0.000 
#
# Total GULP energy -145031.770884 kJ/mol
# GULP energy per Si atom -5578.145034 kJ/mol
# Density = 2.513008 g / cm^3
# Si number density = 25.187409 Si / 1000 Ang^3
#
#
#
# Elastic Constant Matrix: (Units=GPa)
#
#
# Indices 1 2 3 4 5 6 
#
# 1 69.8216 3.1369 5.1454 0.0000 0.0000 0.0000
# 2 3.1369 71.1878 42.3413 0.0000 0.0000 0.0000
# 3 5.1454 42.3413 98.4352 0.0000 0.0000 0.0000
# 4 0.0000 0.0000 0.0000 -110.0758 0.0000 0.0000
# 5 0.0000 0.0000 0.0000 0.0000 1.1637 0.0000
# 6 0.0000 0.0000 0.0000 0.0000 0.0000 36.2352
#
#
#
# Elastic Compliance Matrix: (Units=1/GPa)
#
#
# Indices 1 2 3 4 5 6 
#
# 1 0.014381 -0.000251 -0.000644 0.000000 0.000000 0.000000
# 2 -0.000251 0.018881 -0.008109 0.000000 0.000000 0.000000
# 3 -0.000644 -0.008109 0.013680 0.000000 0.000000 0.000000
# 4 0.000000 0.000000 0.000000 -0.009085 0.000000 0.000000
# 5 0.000000 0.000000 0.000000 0.000000 0.859304 0.000000
# 6 0.000000 0.000000 0.000000 0.000000 0.000000 0.027598
#
#
# Mechanical properties :
#
#
# Convention : Reuss Voigt Hill
#
# Bulk Modulus (GPa) = 34.55864 37.85465 36.20664
# Shear Modulus (GPa) = 5.24983 -1.94731 1.65126
#
# Velocity S-wave (km/s) = 1.44528 -0.88023 0.81056
# Velocity P-wave (km/s) = 4.06639 3.74550 3.90924
#
# Compressibility (1/GPa) = 0.02893633
#
# Stress axis : x y z
#
# Youngs Moduli (GPa) = 69.53656 52.96266 73.09700
#
# Poissons Ratio (x) = 0.01328 0.04706
# Poissons Ratio (y) = 0.01744 0.59271
# Poissons Ratio (z) = 0.04477 0.42945
#
# Static dielectric constant tensor:
#      x y z
#    x 1.887540 0.000000 0.000000 
#    y 0.000000 2.024330 0.000000 
#    z 0.000000 0.000000 2.316230 
# 
# From -- ./inp_files/1272.got.cif
#   From: 2010.05.17/outbox.cif.g08.bks.cpg/sg58_1_cif.got.tgz:1272.got - 2010.06.03 14:20:14.
