data_PCOD9445006
_publ_section_title
;
Structure prediction by ZEFSAII (Michael W. Deem and Ramdas Pophale) SiO2 
 PCOD9445006
Probable space group: P N N M
;
_chemical_formula_sum "Si O2"
_cell_formula_units_Z 32
_cell_length_a 17.542733
_cell_length_b 7.371501
_cell_length_c 12.561019
_cell_angle_alpha 90.000000
_cell_angle_beta 90.000000
_cell_angle_gamma 90.000000
_cell_volume 1624.344173
_symmetry_space_group_name_H-M "P N N M"
_symmetry_group_IT_number 58
_symmetry_cell_setting 'orthorhombic'
loop_
_space_group_symop_operation_xyz
x,y,z
-x,-y,z
1/2+x,1/2-y,1/2-z
1/2-x,1/2+y,1/2-z
-x,-y,-z
x,y,-z
1/2-x,1/2+y,1/2+z
1/2+x,1/2-y,1/2+z
loop_
_atom_site_type_symbol
_atom_site_label
_atom_site_fract_x
_atom_site_fract_y
_atom_site_fract_z
Si Si1 0.415094 0.730034 0.379430
Si Si2 0.302717 0.011508 0.700972
Si Si3 0.586810 0.689988 0.674044
Si Si4 0.830999 0.229582 0.624034
O O1 0.393044 0.778943 0.500000
O O2 0.404121 0.515256 0.363598
O O3 0.505114 0.761205 0.362853
O O4 0.363806 0.849110 0.301686
O O5 0.344240 0.178251 0.640515
O O6 0.293000 0.093767 0.819250
O O7 0.226518 0.935399 0.649562
O O8 0.594632 0.696966 0.802783
O O9 0.843585 0.250436 0.500000
#
# Coordination Sequence:
#
# PCOD9445006 Si02
#       4
#     8   8   8   8
#     4  11  21  39  64  96 127 154 202 261 307 353
#     4  10  22  39  62  89 124 157 209 251 300 368
#     4   9  22  38  62  92 126 152 202 253 299 371
#     4  10  22  41  60  86 124 160 201 249 302 362
#
# _framework density 19.700257000000001
#
# number of rings (size 3 to 8) (size 9 to 14) (size 15 to 20)
#    1.500    0.500    0.000    4.500    0.000    5.000 
#    0.000   12.500    0.000    0.000    0.000    0.000 
#    0.000    0.000    0.000    0.000    0.000    0.000 
#
# Total GULP energy -178294.500856 kJ/mol
# GULP energy per Si atom -5571.703152 kJ/mol
# Density = 1.965542 g / cm^3
# Si number density = 19.700257 Si / 1000 Ang^3
#
#
#
# Elastic Constant Matrix: (Units=GPa)
#
#
# Indices 1 2 3 4 5 6 
#
# 1 18.9964 11.5604 0.5811 0.0000 0.0000 0.0000
# 2 11.5604 74.7016 19.9249 0.0000 0.0000 0.0000
# 3 0.5811 19.9249 113.2874 0.0000 0.0000 0.0000
# 4 0.0000 0.0000 0.0000 16.6413 0.0000 0.0000
# 5 0.0000 0.0000 0.0000 0.0000 5.5559 0.0000
# 6 0.0000 0.0000 0.0000 0.0000 0.0000 42.7683
#
#
#
# Elastic Compliance Matrix: (Units=1/GPa)
#
#
# Indices 1 2 3 4 5 6 
#
# 1 0.058311 -0.009384 0.001351 0.000000 0.000000 0.000000
# 2 -0.009384 0.015556 -0.002688 0.000000 0.000000 0.000000
# 3 0.001351 -0.002688 0.009293 0.000000 0.000000 0.000000
# 4 0.000000 0.000000 0.000000 0.060091 0.000000 0.000000
# 5 0.000000 0.000000 0.000000 0.000000 0.179989 0.000000
# 6 0.000000 0.000000 0.000000 0.000000 0.000000 0.023382
#
#
# Mechanical properties :
#
#
# Convention : Reuss Voigt Hill
#
# Bulk Modulus (GPa) = 16.20267 30.12425 23.16346
# Shear Modulus (GPa) = 12.86550 24.65438 18.75994
#
# Velocity S-wave (km/s) = 2.55828 3.54146 3.08923
# Velocity P-wave (km/s) = 4.11933 5.66101 4.95055
#
# Compressibility (1/GPa) = 0.06171823
#
# Stress axis : x y z
#
# Youngs Moduli (GPa) = 17.14942 64.28482 107.60896
#
# Poissons Ratio (x) = 0.60327 -0.14543
# Poissons Ratio (y) = 0.16094 0.28923
# Poissons Ratio (z) = -0.02318 0.17279
#
# Static dielectric constant tensor:
#      x y z
#    x 1.704530 0.000000 0.000000 
#    y 0.000000 1.713650 0.000000 
#    z 0.000000 0.000000 1.689850 
# 
# From -- ./inp_files/21766.got.cif
#   From: 2010.05.17/outbox.cif.g08.bks.cpg/sg58_11_cif.got.tgz:21766.got - 2010.06.03 14:20:14.
