data_PCOD9445375
_publ_section_title
;
Structure prediction by ZEFSAII (Michael W. Deem and Ramdas Pophale) SiO2 
 PCOD9445375
Probable space group: P N N M
;
_chemical_formula_sum "Si O2"
_cell_formula_units_Z 58
_cell_length_a 11.426972
_cell_length_b 9.712093
_cell_length_c 22.636101
_cell_angle_alpha 90.000000
_cell_angle_beta 90.000000
_cell_angle_gamma 90.000000
_cell_volume 2512.150296
_symmetry_space_group_name_H-M "P N N M"
_symmetry_group_IT_number 58
_symmetry_cell_setting 'orthorhombic'
loop_
_space_group_symop_operation_xyz
x,y,z
-x,-y,z
1/2+x,1/2-y,1/2-z
1/2-x,1/2+y,1/2-z
-x,-y,-z
x,y,-z
1/2-x,1/2+y,1/2+z
1/2+x,1/2-y,1/2+z
loop_
_atom_site_type_symbol
_atom_site_label
_atom_site_fract_x
_atom_site_fract_y
_atom_site_fract_z
Si Si1 0.907786 0.602695 0.831618
Si Si2 0.122007 0.923651 0.810188
Si Si3 0.497389 0.734063 0.218709
Si Si4 0.000000 0.000000 0.000000
Si Si5 0.750885 0.358867 0.832559
Si Si6 0.682072 0.368377 0.400826
Si Si7 0.595954 0.403164 0.065171
Si Si8 0.444931 0.148050 0.906657
O O1 0.967468 0.670045 0.774412
O O2 0.810244 0.496239 0.808545
O O3 0.865562 0.724585 0.874024
O O4 0.000000 0.500000 0.862425
O O5 0.168290 0.776617 0.833992
O O6 0.089200 0.878093 0.743359
O O7 0.205269 0.032547 0.843039
O O8 0.000000 0.000000 0.827296
O O9 0.370046 0.676498 0.200336
O O10 0.548903 0.812451 0.162874
O O11 0.907984 0.938320 0.947479
O O12 0.713478 0.394173 0.898876
O O13 0.811226 0.343974 0.427011
O O14 0.500000 0.500000 0.096374
O O15 0.531860 0.257505 0.064044
O O16 0.617429 0.457996 0.000000
O O17 0.500000 0.000000 0.915942
#
# Coordination Sequence:
#
# PCOD9445375 Si02
#       8
#     8   8   8   2   8   8   8   8
#     4  12  24  45  68 108 148 191 251 309 362 455
#     4  12  24  45  66 103 143 191 236 294 363 453
#     4  11  25  41  69 101 148 189 241 289 370 441
#     4  12  28  52  80 108 142 214 238 318 394 456
#     4  11  26  44  70 106 146 192 242 303 370 440
#     4  12  26  50  74 103 152 188 257 308 372 456
#     4  10  23  49  74 102 140 179 238 304 373 429
#     4  11  26  47  71 111 138 185 249 306 364 443
#
# _framework density 23.087789000000001
#
# number of rings (size 3 to 8) (size 9 to 14) (size 15 to 20)
#    0.000    0.690    3.448    2.897    4.828    2.483 
#    4.966    0.345    0.000    0.000    0.000    0.000 
#    0.000    0.000    0.000    0.000    0.000    0.000 
#
# Total GULP energy -323237.783966 kJ/mol
# GULP energy per Si atom -5573.065241 kJ/mol
# Density = 2.303524 g / cm^3
# Si number density = 23.087789 Si / 1000 Ang^3
#
#
#
# Elastic Constant Matrix: (Units=GPa)
#
#
# Indices 1 2 3 4 5 6 
#
# 1 102.2624 40.7845 29.7147 0.0000 0.0000 0.0000
# 2 40.7845 147.5505 26.5446 0.0000 0.0000 0.0000
# 3 29.7147 26.5446 71.4154 0.0000 0.0000 0.0000
# 4 0.0000 0.0000 0.0000 16.5737 0.0000 0.0000
# 5 0.0000 0.0000 0.0000 0.0000 19.3524 0.0000
# 6 0.0000 0.0000 0.0000 0.0000 0.0000 50.1374
#
#
#
# Elastic Compliance Matrix: (Units=1/GPa)
#
#
# Indices 1 2 3 4 5 6 
#
# 1 0.011980 -0.002588 -0.004023 0.000000 0.000000 0.000000
# 2 -0.002588 0.007822 -0.001831 0.000000 0.000000 0.000000
# 3 -0.004023 -0.001831 0.016357 0.000000 0.000000 0.000000
# 4 0.000000 0.000000 0.000000 0.060337 0.000000 0.000000
# 5 0.000000 0.000000 0.000000 0.000000 0.051673 0.000000
# 6 0.000000 0.000000 0.000000 0.000000 0.000000 0.019945
#
#
# Mechanical properties :
#
#
# Convention : Reuss Voigt Hill
#
# Bulk Modulus (GPa) = 51.87705 57.25732 54.56719
# Shear Modulus (GPa) = 26.12046 32.15834 29.13940
#
# Velocity S-wave (km/s) = 3.36721 3.73617 3.55648
# Velocity P-wave (km/s) = 6.13480 6.59285 6.36794
#
# Compressibility (1/GPa) = 0.01927635
#
# Stress axis : x y z
#
# Youngs Moduli (GPa) = 83.47483 127.84575 61.13658
#
# Poissons Ratio (x) = 0.33082 0.24594
# Poissons Ratio (y) = 0.21600 0.11192
# Poissons Ratio (z) = 0.33580 0.23405
#
# Static dielectric constant tensor:
#      x y z
#    x 1.911540 0.000000 0.000000 
#    y 0.000000 1.878740 0.000000 
#    z 0.000000 0.000000 1.961100 
# 
# From -- ./inp_files/33596.got.cif
#   From: 2010.05.17/outbox.cif.g08.bks.cpg/sg58_17_cif.got.tgz:33596.got - 2010.06.03 14:20:14.
