data_PCOD9445568
_publ_section_title
;
Structure prediction by ZEFSAII (Michael W. Deem and Ramdas Pophale) SiO2 
 PCOD9445568
Probable space group: P N N M
;
_chemical_formula_sum "Si O2"
_cell_formula_units_Z 48
_cell_length_a 14.509303
_cell_length_b 21.078741
_cell_length_c 7.689792
_cell_angle_alpha 90.000000
_cell_angle_beta 90.000000
_cell_angle_gamma 90.000000
_cell_volume 2351.829376
_symmetry_space_group_name_H-M "P N N M"
_symmetry_group_IT_number 58
_symmetry_cell_setting 'orthorhombic'
loop_
_space_group_symop_operation_xyz
x,y,z
-x,-y,z
1/2+x,1/2-y,1/2-z
1/2-x,1/2+y,1/2-z
-x,-y,-z
x,y,-z
1/2-x,1/2+y,1/2+z
1/2+x,1/2-y,1/2+z
loop_
_atom_site_type_symbol
_atom_site_label
_atom_site_fract_x
_atom_site_fract_y
_atom_site_fract_z
Si Si1 0.150057 0.826677 0.200520
Si Si2 0.679922 0.925609 0.787427
Si Si3 0.735188 0.293826 0.300157
Si Si4 0.284077 0.935092 0.213158
Si Si5 0.534883 0.262423 0.798904
Si Si6 0.482422 0.881816 0.788217
O O1 0.219058 0.766625 0.209365
O O2 0.205011 0.887047 0.273777
O O3 0.054625 0.806091 0.286028
O O4 0.128336 0.839850 0.000000
O O5 0.730782 0.861493 0.730194
O O6 0.573040 0.919935 0.733225
O O7 0.723811 0.991965 0.731625
O O8 0.681836 0.926112 0.000000
O O9 0.767728 0.289770 0.500000
O O10 0.625311 0.288483 0.293839
O O11 0.384591 0.909595 0.267888
O O12 0.283198 0.932937 0.000000
O O13 0.509992 0.191724 0.734040
O O14 0.561782 0.255546 0.000000
O O15 0.483054 0.883370 0.000000
#
# Coordination Sequence:
#
# PCOD9445568 Si02
#       6
#     8   8   8   8   8   8
#     4  11  21  35  56  83 112 145 183 225 274 326
#     4   9  17  30  51  80 111 141 179 226 271 319
#     4  11  21  35  56  83 112 145 183 225 274 326
#     4   9  17  30  51  80 111 141 179 226 271 319
#     4  11  21  36  56  82 110 144 187 229 271 321
#     4   9  15  27  50  81 109 133 169 220 273 320
#
# _framework density 20.409644
#
# number of rings (size 3 to 8) (size 9 to 14) (size 15 to 20)
#    0.000    2.000    3.333    2.000    0.000    2.000 
#    0.000    0.833    0.000    9.000    0.000    2.333 
#    0.000    0.000    0.000    0.000    0.000    0.000 
#
# Total GULP energy -268078.476270 kJ/mol
# GULP energy per Si atom -5584.968256 kJ/mol
# Density = 2.036319 g / cm^3
# Si number density = 20.409644 Si / 1000 Ang^3
#
#
#
# Elastic Constant Matrix: (Units=GPa)
#
#
# Indices 1 2 3 4 5 6 
#
# 1 58.7908 -5.3537 -9.3210 0.0000 0.0000 0.0000
# 2 -5.3537 61.7219 -2.1936 0.0000 0.0000 0.0000
# 3 -9.3210 -2.1936 35.6850 0.0000 0.0000 0.0000
# 4 0.0000 0.0000 0.0000 12.7444 0.0000 0.0000
# 5 0.0000 0.0000 0.0000 0.0000 22.3068 0.0000
# 6 0.0000 0.0000 0.0000 0.0000 0.0000 31.4227
#
#
#
# Elastic Compliance Matrix: (Units=1/GPa)
#
#
# Indices 1 2 3 4 5 6 
#
# 1 0.017926 0.001725 0.004788 0.000000 0.000000 0.000000
# 2 0.001725 0.016403 0.001459 0.000000 0.000000 0.000000
# 3 0.004788 0.001459 0.029363 0.000000 0.000000 0.000000
# 4 0.000000 0.000000 0.000000 0.078466 0.000000 0.000000
# 5 0.000000 0.000000 0.000000 0.000000 0.044829 0.000000
# 6 0.000000 0.000000 0.000000 0.000000 0.000000 0.031824
#
#
# Mechanical properties :
#
#
# Convention : Reuss Voigt Hill
#
# Bulk Modulus (GPa) = 12.55702 13.60678 13.08190
# Shear Modulus (GPa) = 21.79480 24.83251 23.31366
#
# Velocity S-wave (km/s) = 3.27137 3.49191 3.38344
# Velocity P-wave (km/s) = 4.52051 4.78950 4.65694
#
# Compressibility (1/GPa) = 0.07963672
#
# Stress axis : x y z
#
# Youngs Moduli (GPa) = 55.78578 60.96379 34.05605
#
# Poissons Ratio (x) = -0.10517 -0.16307
# Poissons Ratio (y) = -0.09623 -0.04968
# Poissons Ratio (z) = -0.26712 -0.08894
#
# Static dielectric constant tensor:
#      x y z
#    x 1.684590 0.000000 0.000000 
#    y 0.000000 1.720910 0.000000 
#    z 0.000000 0.000000 1.767110 
# 
# From -- ./inp_files/5778.got.cif
#   From: 2010.05.17/outbox.cif.g08.bks.cpg/sg58_3_cif.got.tgz:5778.got - 2010.06.03 14:20:14.
