data_PCOD9445688
_publ_section_title
;
Structure prediction by ZEFSAII (Michael W. Deem and Ramdas Pophale) SiO2 
 PCOD9445688
Probable space group: P N N M
;
_chemical_formula_sum "Si O2"
_cell_formula_units_Z 32
_cell_length_a 26.752304
_cell_length_b 5.092791
_cell_length_c 11.091983
_cell_angle_alpha 90.000000
_cell_angle_beta 90.000000
_cell_angle_gamma 90.000000
_cell_volume 1511.214945
_symmetry_space_group_name_H-M "P N N M"
_symmetry_group_IT_number 58
_symmetry_cell_setting 'orthorhombic'
loop_
_space_group_symop_operation_xyz
x,y,z
-x,-y,z
1/2+x,1/2-y,1/2-z
1/2-x,1/2+y,1/2-z
-x,-y,-z
x,y,-z
1/2-x,1/2+y,1/2+z
1/2+x,1/2-y,1/2+z
loop_
_atom_site_type_symbol
_atom_site_label
_atom_site_fract_x
_atom_site_fract_y
_atom_site_fract_z
Si Si1 0.557540 0.949993 0.141697
Si Si2 0.199414 0.683201 0.369165
Si Si3 0.881396 0.960238 0.283854
Si Si4 0.314406 0.844783 0.632048
O O1 0.588412 0.216294 0.161891
O O2 0.500000 0.000000 0.174208
O O3 0.582473 0.711421 0.214261
O O4 0.559406 0.876883 0.000000
O O5 0.187163 0.561665 0.500000
O O6 0.167515 0.950608 0.359713
O O7 0.258733 0.724252 0.365868
O O8 0.184561 0.530801 0.248512
O O9 0.857359 0.868009 0.157835
O O10 0.320782 0.968900 0.500000
#
# Coordination Sequence:
#
# PCOD9445688 Si02
#       4
#     8   8   8   8
#     4  11  24  42  67 101 136 171 225 297 355 398
#     4  11  23  40  65 100 138 181 230 276 327 399
#     4  12  23  41  67 100 134 179 223 273 346 409
#     4  11  25  42  64 100 145 186 227 273 333 410
#
# _framework density 21.175015999999999
#
# number of rings (size 3 to 8) (size 9 to 14) (size 15 to 20)
#    0.000    0.750    5.000    3.000    0.000    6.000 
#    0.000    0.000    0.000    4.500    0.000    0.000 
#    0.000    0.000    0.000    0.000    0.000    0.000 
#
# Total GULP energy -178743.986576 kJ/mol
# GULP energy per Si atom -5585.749581 kJ/mol
# Density = 2.112682 g / cm^3
# Si number density = 21.175016 Si / 1000 Ang^3
#
#
#
# Elastic Constant Matrix: (Units=GPa)
#
#
# Indices 1 2 3 4 5 6 
#
# 1 143.1420 45.8260 37.9547 0.0000 0.0000 0.0000
# 2 45.8260 112.0200 54.3559 0.0000 0.0000 0.0000
# 3 37.9547 54.3559 164.3369 0.0000 0.0000 0.0000
# 4 0.0000 0.0000 0.0000 34.0369 0.0000 0.0000
# 5 0.0000 0.0000 0.0000 0.0000 2304.2753 0.0000
# 6 0.0000 0.0000 0.0000 0.0000 0.0000 33.2772
#
#
#
# Elastic Compliance Matrix: (Units=1/GPa)
#
#
# Indices 1 2 3 4 5 6 
#
# 1 0.008156 -0.002886 -0.000929 0.000000 0.000000 0.000000
# 2 -0.002886 0.011655 -0.003188 0.000000 0.000000 0.000000
# 3 -0.000929 -0.003188 0.007354 0.000000 0.000000 0.000000
# 4 0.000000 0.000000 0.000000 0.029380 0.000000 0.000000
# 5 0.000000 0.000000 0.000000 0.000000 0.000434 0.000000
# 6 0.000000 0.000000 0.000000 0.000000 0.000000 0.030051
#
#
# Mechanical properties :
#
#
# Convention : Reuss Voigt Hill
#
# Bulk Modulus (GPa) = 75.99704 77.30802 76.65253
# Shear Modulus (GPa) = 47.42815 493.07536 270.25175
#
# Velocity S-wave (km/s) = 4.73780 15.27621 11.30950
# Velocity P-wave (km/s) = 8.11769 18.64775 14.38116
#
# Compressibility (1/GPa) = 0.01315841
#
# Stress axis : x y z
#
# Youngs Moduli (GPa) = 122.60428 85.80294 135.97546
#
# Poissons Ratio (x) = 0.24760 0.12636
# Poissons Ratio (y) = 0.35380 0.43354
# Poissons Ratio (z) = 0.11393 0.27357
#
# Static dielectric constant tensor:
#      x y z
#    x 1.768250 0.000000 0.000000 
#    y 0.000000 1.841420 0.000000 
#    z 0.000000 0.000000 1.776550 
# 
# From -- ./inp_files/1381.got.cif
#   From: 2010.05.17/outbox.cif.g08.bks.cpg/sg58_1_cif.got.tgz:1381.got - 2010.06.03 14:20:14.
