data_PCOD9445729
_publ_section_title
;
Structure prediction by ZEFSAII (Michael W. Deem and Ramdas Pophale) SiO2 
 PCOD9445729
Probable space group: P N N M
;
_chemical_formula_sum "Si O2"
_cell_formula_units_Z 30
_cell_length_a 30.635960
_cell_length_b 5.039019
_cell_length_c 9.593300
_cell_angle_alpha 90.000000
_cell_angle_beta 90.000000
_cell_angle_gamma 90.000000
_cell_volume 1480.967458
_symmetry_space_group_name_H-M "P N N M"
_symmetry_group_IT_number 58
_symmetry_cell_setting 'orthorhombic'
loop_
_space_group_symop_operation_xyz
x,y,z
-x,-y,z
1/2+x,1/2-y,1/2-z
1/2-x,1/2+y,1/2-z
-x,-y,-z
x,y,-z
1/2-x,1/2+y,1/2+z
1/2+x,1/2-y,1/2+z
loop_
_atom_site_type_symbol
_atom_site_label
_atom_site_fract_x
_atom_site_fract_y
_atom_site_fract_z
Si Si1 0.000000 0.000000 0.500000
Si Si2 0.578065 0.605758 0.223713
Si Si3 0.870153 0.618293 0.341410
Si Si4 0.731887 0.222601 0.831439
Si Si5 0.531286 0.751041 0.500000
O O1 0.962896 0.067677 0.379292
O O2 0.601115 0.322734 0.247732
O O3 0.560500 0.733476 0.364140
O O4 0.613177 0.818148 0.168299
O O5 0.878510 0.710393 0.500000
O O6 0.819004 0.646459 0.315003
O O7 0.741123 0.499375 0.752841
O O8 0.741096 0.233037 0.000000
O O9 0.500000 0.500000 0.500000
O O10 0.500000 0.000000 0.500000
#
# Coordination Sequence:
#
# PCOD9445729 Si02
#       5
#     2   8   8   8   4
#     4  12  24  40  76  90 128 174 240 266 312 416
#     4  12  25  42  66  97 128 174 226 273 330 394
#     4  11  23  44  68  97 133 169 221 283 333 389
#     4  11  24  46  73 102 139 182 228 287 354 426
#     4  12  26  44  60  88 134 169 208 270 334 380
#
# _framework density 20.257026
#
# number of rings (size 3 to 8) (size 9 to 14) (size 15 to 20)
#    0.000    0.533    4.000    4.000    0.000    5.333 
#   14.400    0.000    0.000    0.000    0.000    0.000 
#    0.000    0.000    0.000    0.000    0.000    0.000 
#
# Total GULP energy -167132.087228 kJ/mol
# GULP energy per Si atom -5571.069574 kJ/mol
# Density = 2.021092 g / cm^3
# Si number density = 20.257026 Si / 1000 Ang^3
#
#
#
# Elastic Constant Matrix: (Units=GPa)
#
#
# Indices 1 2 3 4 5 6 
#
# 1 50.8652 -6.5959 30.3441 0.0000 0.0000 0.0000
# 2 -6.5959 82.7392 -5.0656 0.0000 0.0000 0.0000
# 3 30.3441 -5.0656 114.2361 0.0000 0.0000 0.0000
# 4 0.0000 0.0000 0.0000 8.4775 0.0000 0.0000
# 5 0.0000 0.0000 0.0000 0.0000 21.6949 0.0000
# 6 0.0000 0.0000 0.0000 0.0000 0.0000 35.1628
#
#
#
# Elastic Compliance Matrix: (Units=1/GPa)
#
#
# Indices 1 2 3 4 5 6 
#
# 1 0.023546 0.001498 -0.006188 0.000000 0.000000 0.000000
# 2 0.001498 0.012214 0.000144 0.000000 0.000000 0.000000
# 3 -0.006188 0.000144 0.010404 0.000000 0.000000 0.000000
# 4 0.000000 0.000000 0.000000 0.117959 0.000000 0.000000
# 5 0.000000 0.000000 0.000000 0.000000 0.046094 0.000000
# 6 0.000000 0.000000 0.000000 0.000000 0.000000 0.028439
#
#
# Mechanical properties :
#
#
# Convention : Reuss Voigt Hill
#
# Bulk Modulus (GPa) = 26.97475 31.68952 29.33214
# Shear Modulus (GPa) = 19.22297 28.34423 23.78360
#
# Velocity S-wave (km/s) = 3.08385 3.74469 3.43022
# Velocity P-wave (km/s) = 5.10150 5.86298 5.49545
#
# Compressibility (1/GPa) = 0.03707170
#
# Stress axis : x y z
#
# Youngs Moduli (GPa) = 42.47095 81.87064 96.11844
#
# Poissons Ratio (x) = -0.12266 0.59477
# Poissons Ratio (y) = -0.06363 -0.01381
# Poissons Ratio (z) = 0.26280 -0.01176
#
# Static dielectric constant tensor:
#      x y z
#    x 1.695900 0.000000 0.000000 
#    y 0.000000 1.714250 0.000000 
#    z 0.000000 0.000000 1.834280 
# 
# From -- ./inp_files/1349.got.cif
#   From: 2010.05.17/outbox.cif.g08.bks.cpg/sg58_1_cif.got.tgz:1349.got - 2010.06.03 14:20:14.
