data_PCOD9445520
_publ_section_title
;
Structure prediction by ZEFSAII (Michael W. Deem and Ramdas Pophale) SiO2 
 PCOD9445520
Probable space group: P N N M
;
_chemical_formula_sum "Si O2"
_cell_formula_units_Z 64
_cell_length_a 12.337329
_cell_length_b 11.826484
_cell_length_c 25.271425
_cell_angle_alpha 90.000000
_cell_angle_beta 90.000000
_cell_angle_gamma 90.000000
_cell_volume 3687.283469
_symmetry_space_group_name_H-M "P N N M"
_symmetry_group_IT_number 58
_symmetry_cell_setting 'orthorhombic'
loop_
_space_group_symop_operation_xyz
x,y,z
-x,-y,z
1/2+x,1/2-y,1/2-z
1/2-x,1/2+y,1/2-z
-x,-y,-z
x,y,-z
1/2-x,1/2+y,1/2+z
1/2+x,1/2-y,1/2+z
loop_
_atom_site_type_symbol
_atom_site_label
_atom_site_fract_x
_atom_site_fract_y
_atom_site_fract_z
Si Si1 0.305170 0.859039 0.623893
Si Si2 0.121792 0.548497 0.057747
Si Si3 0.053168 0.620893 0.277761
Si Si4 0.620704 0.515724 0.810885
Si Si5 0.719981 0.361953 0.666885
Si Si6 0.549146 0.824394 0.341647
Si Si7 0.655823 0.267880 0.779868
Si Si8 0.854620 0.103654 0.807250
O O1 0.291753 0.724480 0.618550
O O2 0.426556 0.869467 0.649060
O O3 0.306812 0.939796 0.573219
O O4 0.207819 0.905737 0.660069
O O5 0.117970 0.632055 0.108167
O O6 0.000000 0.500000 0.054021
O O7 0.150532 0.596362 0.000000
O O8 0.155581 0.628804 0.315394
O O9 0.086208 0.631489 0.215931
O O10 0.000000 0.500000 0.284705
O O11 0.962764 0.715458 0.288173
O O12 0.500000 0.500000 0.833918
O O13 0.666827 0.388830 0.807480
O O14 0.608184 0.566489 0.751522
O O15 0.668866 0.297162 0.717825
O O16 0.670366 0.486641 0.662976
O O17 0.562342 0.688798 0.335732
O O18 0.745038 0.177076 0.798188
#
# Coordination Sequence:
#
# PCOD9445520 Si02
#       8
#     8   8   8   8   8   8   8   8
#     4  11  20  35  52  73 101 139 175 214 270 318
#     4   9  20  36  58  82  99 123 171 229 274 317
#     4  12  20  31  47  71 107 153 181 213 250 317
#     4  11  22  32  47  73 111 143 178 218 253 302
#     4  11  22  30  46  70 109 143 184 213 252 313
#     4  11  20  31  53  73 103 136 179 213 265 314
#     4  11  20  31  44  67 104 146 186 214 244 297
#     4  11  21  32  45  74 107 148 181 212 247 309
#
# _framework density 17.356950999999999
#
# number of rings (size 3 to 8) (size 9 to 14) (size 15 to 20)
#    0.000    1.125    5.000    3.375    5.250    0.000 
#    0.000    0.000    0.000    1.125    0.000    3.500 
#    0.000    0.500    0.000    0.375    0.000    0.000 
#
# Total GULP energy -357078.122332 kJ/mol
# GULP energy per Si atom -5579.345661 kJ/mol
# Density = 1.731745 g / cm^3
# Si number density = 17.356951 Si / 1000 Ang^3
#
#
#
# Elastic Constant Matrix: (Units=GPa)
#
#
# Indices 1 2 3 4 5 6 
#
# 1 76.8623 24.3220 12.1657 0.0000 0.0000 0.0000
# 2 24.3220 112.2281 19.4927 0.0000 0.0000 0.0000
# 3 12.1657 19.4927 46.6403 0.0000 0.0000 0.0000
# 4 0.0000 0.0000 0.0000 12.5617 0.0000 0.0000
# 5 0.0000 0.0000 0.0000 0.0000 4.3337 0.0000
# 6 0.0000 0.0000 0.0000 0.0000 0.0000 41.6670
#
#
#
# Elastic Compliance Matrix: (Units=1/GPa)
#
#
# Indices 1 2 3 4 5 6 
#
# 1 0.014259 -0.002635 -0.002618 0.000000 0.000000 0.000000
# 2 -0.002635 0.010095 -0.003532 0.000000 0.000000 0.000000
# 3 -0.002618 -0.003532 0.023600 0.000000 0.000000 0.000000
# 4 0.000000 0.000000 0.000000 0.079607 0.000000 0.000000
# 5 0.000000 0.000000 0.000000 0.000000 0.230751 0.000000
# 6 0.000000 0.000000 0.000000 0.000000 0.000000 0.024000
#
#
# Mechanical properties :
#
#
# Convention : Reuss Voigt Hill
#
# Bulk Modulus (GPa) = 32.91274 38.63240 35.77257
# Shear Modulus (GPa) = 12.19486 23.69581 17.94534
#
# Velocity S-wave (km/s) = 2.65352 3.69888 3.21892
# Velocity P-wave (km/s) = 5.32838 6.36774 5.87111
#
# Compressibility (1/GPa) = 0.03038337
#
# Stress axis : x y z
#
# Youngs Moduli (GPa) = 70.13326 99.05914 42.37374
#
# Poissons Ratio (x) = 0.26106 0.11093
# Poissons Ratio (y) = 0.18483 0.14965
# Poissons Ratio (z) = 0.18359 0.34984
#
# Static dielectric constant tensor:
#      x y z
#    x 1.658960 0.000000 0.000000 
#    y 0.000000 1.648580 0.000000 
#    z 0.000000 0.000000 1.577590 
# 
# From -- ./inp_files/32060.got.cif
#   From: 2010.05.17/outbox.cif.g08.bks.cpg/sg58_17_cif.got.tgz:32060.got - 2010.06.03 14:20:14.
