data_PCOD9445685
_publ_section_title
;
Structure prediction by ZEFSAII (Michael W. Deem and Ramdas Pophale) SiO2 
 PCOD9445685
Probable space group: P N N M
;
_chemical_formula_sum "Si O2"
_cell_formula_units_Z 58
_cell_length_a 26.251413
_cell_length_b 11.158255
_cell_length_c 9.287984
_cell_angle_alpha 90.000000
_cell_angle_beta 90.000000
_cell_angle_gamma 90.000000
_cell_volume 2720.635905
_symmetry_space_group_name_H-M "P N N M"
_symmetry_group_IT_number 58
_symmetry_cell_setting 'orthorhombic'
loop_
_space_group_symop_operation_xyz
x,y,z
-x,-y,z
1/2+x,1/2-y,1/2-z
1/2-x,1/2+y,1/2-z
-x,-y,-z
x,y,-z
1/2-x,1/2+y,1/2+z
1/2+x,1/2-y,1/2+z
loop_
_atom_site_type_symbol
_atom_site_label
_atom_site_fract_x
_atom_site_fract_y
_atom_site_fract_z
Si Si1 0.610282 0.350412 0.327377
Si Si2 0.459406 0.862396 0.274598
Si Si3 0.942905 0.048214 0.332733
Si Si4 0.137931 0.511824 0.157162
Si Si5 0.766051 0.544029 0.329324
Si Si6 0.500000 0.000000 0.000000
Si Si7 0.065633 0.725383 0.843765
Si Si8 0.215933 0.186356 0.326214
O O1 0.614489 0.345214 0.500000
O O2 0.562423 0.271862 0.274357
O O3 0.597303 0.481770 0.269100
O O4 0.660940 0.303870 0.249903
O O5 0.469527 0.924184 0.123909
O O6 0.514884 0.855862 0.345702
O O7 0.412495 0.931408 0.345504
O O8 0.930737 0.028663 0.500000
O O9 0.940902 0.186449 0.288876
O O10 0.000000 0.000000 0.306708
O O11 0.175043 0.474759 0.284226
O O12 0.115623 0.645009 0.173032
O O13 0.163825 0.500856 0.000000
O O14 0.757659 0.526673 0.500000
O O15 0.755277 0.685741 0.296380
O O16 0.739044 0.436266 0.240995
O O17 0.067588 0.787868 0.000000
O O18 0.211849 0.176727 0.500000
#
# Coordination Sequence:
#
# PCOD9445685 Si02
#       8
#     8   8   8   8   8   2   8   8
#     4  12  25  43  71  99 132 177 231 280 339 414
#     4  12  24  38  64  96 135 181 223 275 335 398
#     4  11  25  40  60  91 131 180 227 274 331 397
#     4  11  23  41  66  99 133 174 221 275 341 408
#     4  11  26  46  74 105 137 178 227 285 354 422
#     4  12  28  36  62 102 148 180 226 292 322 408
#     4  11  23  40  62  94 138 180 230 280 330 398
#     4  11  26  48  75 106 139 177 230 294 357 428
#
# _framework density 21.318545
#
# number of rings (size 3 to 8) (size 9 to 14) (size 15 to 20)
#    0.000    0.690    4.138    2.897    3.862    4.966 
#    0.000    1.379    0.000    0.000    0.000    0.000 
#    0.000    0.000    0.000    0.000    0.000    0.000 
#
# Total GULP energy -323270.622531 kJ/mol
# GULP energy per Si atom -5573.631423 kJ/mol
# Density = 2.127002 g / cm^3
# Si number density = 21.318545 Si / 1000 Ang^3
#
#
#
# Elastic Constant Matrix: (Units=GPa)
#
#
# Indices 1 2 3 4 5 6 
#
# 1 44.7410 26.5941 28.6982 0.0000 0.0000 0.0000
# 2 26.5941 85.8455 54.8164 0.0000 0.0000 0.0000
# 3 28.6982 54.8164 133.9224 0.0000 0.0000 0.0000
# 4 0.0000 0.0000 0.0000 41.4163 0.0000 0.0000
# 5 0.0000 0.0000 0.0000 0.0000 7.1280 0.0000
# 6 0.0000 0.0000 0.0000 0.0000 0.0000 31.8221
#
#
#
# Elastic Compliance Matrix: (Units=1/GPa)
#
#
# Indices 1 2 3 4 5 6 
#
# 1 0.028478 -0.006668 -0.003373 0.000000 0.000000 0.000000
# 2 -0.006668 0.017332 -0.005665 0.000000 0.000000 0.000000
# 3 -0.003373 -0.005665 0.010509 0.000000 0.000000 0.000000
# 4 0.000000 0.000000 0.000000 0.024145 0.000000 0.000000
# 5 0.000000 0.000000 0.000000 0.000000 0.140292 0.000000
# 6 0.000000 0.000000 0.000000 0.000000 0.000000 0.031425
#
#
# Mechanical properties :
#
#
# Convention : Reuss Voigt Hill
#
# Bulk Modulus (GPa) = 40.15190 53.85849 47.00520
# Shear Modulus (GPa) = 17.12934 26.36662 21.74798
#
# Velocity S-wave (km/s) = 2.83767 3.52062 3.19743
# Velocity P-wave (km/s) = 5.44166 6.46876 5.97731
#
# Compressibility (1/GPa) = 0.02490542
#
# Stress axis : x y z
#
# Youngs Moduli (GPa) = 35.11465 57.69587 95.15871
#
# Poissons Ratio (x) = 0.38474 0.32098
# Poissons Ratio (y) = 0.23416 0.53911
# Poissons Ratio (z) = 0.11845 0.32687
#
# Static dielectric constant tensor:
#      x y z
#    x 1.761160 0.000000 0.000000 
#    y 0.000000 1.867490 0.000000 
#    z 0.000000 0.000000 1.732810 
# 
# From -- ./inp_files/10436.got.cif
#   From: 2010.05.17/outbox.cif.g08.bks.cpg/sg58_6_cif.got.tgz:10436.got - 2010.06.03 14:20:14.
