data_PCOD9445930
_publ_section_title
;
Structure prediction by ZEFSAII (Michael W. Deem and Ramdas Pophale) SiO2 
 PCOD9445930
Probable space group: P N N M
;
_chemical_formula_sum "Si O2"
_cell_formula_units_Z 64
_cell_length_a 15.000000
_cell_length_b 24.000000
_cell_length_c 9.000000
_cell_angle_alpha 90.000000
_cell_angle_beta 90.000000
_cell_angle_gamma 90.000000
_cell_volume 3240.000000
_symmetry_space_group_name_H-M "P N N M"
_symmetry_group_IT_number 58
_symmetry_cell_setting 'orthorhombic'
loop_
_space_group_symop_operation_xyz
x,y,z
-x,-y,z
1/2+x,1/2-y,1/2-z
1/2-x,1/2+y,1/2-z
-x,-y,-z
x,y,-z
1/2-x,1/2+y,1/2+z
1/2+x,1/2-y,1/2+z
loop_
_atom_site_type_symbol
_atom_site_label
_atom_site_fract_x
_atom_site_fract_y
_atom_site_fract_z
Si Si1 0.565341 0.620316 0.327130
Si Si2 0.194413 0.271563 0.676091
Si Si3 0.957210 0.364167 0.829080
Si Si4 0.865756 0.923338 0.827064
Si Si5 0.516157 0.262906 0.670536
Si Si6 0.849283 0.613174 0.820424
Si Si7 0.229813 0.658248 0.180233
Si Si8 0.694271 0.536858 0.175535
O O1 0.595357 0.616918 0.500000
O O2 0.470721 0.588800 0.315161
O O3 0.546181 0.684995 0.292057
O O4 0.632591 0.588866 0.220649
O O5 0.201922 0.279997 0.500000
O O6 0.196527 0.331132 0.755789
O O7 0.263131 0.223309 0.723057
O O8 0.098915 0.244761 0.719798
O O9 0.969546 0.297113 0.832509
O O10 0.859811 0.371706 0.762242
O O11 0.048751 0.387728 0.763753
O O12 0.953509 0.384249 0.000000
O O13 0.813361 0.875649 0.739523
O O14 0.838664 0.982907 0.762134
O O15 0.842195 0.920406 0.000000
O O16 0.548790 0.273576 0.500000
O O17 0.793397 0.558194 0.786214
O O18 0.851792 0.619832 0.000000
O O19 0.229024 0.657034 0.000000
O O20 0.689543 0.526075 0.000000
#
# Coordination Sequence:
#
# PCOD9445930 Si02
#       8
#     8   8   8   8   8   8   8   8
#     4  10  21  36  57  83 113 151 189 225 276 344
#     4  10  19  30  52  84 116 144 179 229 279 323
#     4   8  16  33  57  80 108 147 188 225 268 330
#     4  11  23  40  59  81 111 150 190 229 280 343
#     4   9  17  33  55  78 112 153 187 219 267 336
#     4   9  20  39  58  78 111 152 191 228 279 339
#     4  10  20  34  56  85 112 143 185 232 277 324
#     4  11  24  39  58  83 110 147 192 243 288 328
#
# _framework density 19.753086
#
# number of rings (size 3 to 8) (size 9 to 14) (size 15 to 20)
#    0.000    2.250    1.250    2.250    1.750    4.500 
#    0.000    3.125    0.000    3.750    0.000    0.000 
#    0.000    0.000    0.000    0.000    0.000    0.000 
#
# Total GULP energy -356992.052798 kJ/mol
# GULP energy per Si atom -5578.000825 kJ/mol
# Density = 1.970813 g / cm^3
# Si number density = 19.753086 Si / 1000 Ang^3
#
#
#
# Elastic Constant Matrix: (Units=GPa)
#
#
# Indices 1 2 3 4 5 6 
#
# 1 45.2986 -21.7242 5.2697 0.0000 0.0000 0.0000
# 2 -21.7242 5.3732 -6.6718 0.0000 0.0000 0.0000
# 3 5.2697 -6.6718 9.6709 0.0000 0.0000 0.0000
# 4 0.0000 0.0000 0.0000 20.9786 0.0000 0.0000
# 5 0.0000 0.0000 0.0000 0.0000 13.4218 0.0000
# 6 0.0000 0.0000 0.0000 0.0000 0.0000 0.1279
#
#
#
# Elastic Compliance Matrix: (Units=1/GPa)
#
#
# Indices 1 2 3 4 5 6 
#
# 1 -0.002616 -0.061419 -0.040947 0.000000 0.000000 0.000000
# 2 -0.061419 -0.144059 -0.065917 0.000000 0.000000 0.000000
# 3 -0.040947 -0.065917 0.080240 0.000000 0.000000 0.000000
# 4 0.000000 0.000000 0.000000 0.047668 0.000000 0.000000
# 5 0.000000 0.000000 0.000000 0.000000 0.074506 0.000000
# 6 0.000000 0.000000 0.000000 0.000000 0.000000 7.819893
#
#
# Mechanical properties :
#
#
# Convention : Reuss Voigt Hill
#
# Bulk Modulus (GPa) = -2.48139 1.56557 -0.45791
# Shear Modulus (GPa) = 0.61898 12.47026 6.54462
#
# Velocity S-wave (km/s) = 0.56039 2.51531 1.82220
# Velocity P-wave (km/s) = 0.91663 3.03809 2.04814
#
# Compressibility (1/GPa) = -0.40299937
#
# Stress axis : x y z
#
# Youngs Moduli (GPa) = -382.28200 -6.94162 12.46256
#
# Poissons Ratio (x) = -0.42635 0.51030
# Poissons Ratio (y) = -23.47933 0.82149
# Poissons Ratio (z) = -15.65323 -0.45757
#
# Static dielectric constant tensor:
#      x y z
#    x 1.753410 0.000000 0.000000 
#    y 0.000000 1.685930 0.000000 
#    z 0.000000 0.000000 1.661140 
# 
# From -- ./inp_files/6733.got.cif
#   From: 2010.05.17/outbox.ucp.g08.bks.cvg/sg58_4_cif.got.tgz:6733.got - 2010.06.11 16:41:41.
