data_PCOD9445301
_publ_section_title
;
Structure prediction by ZEFSAII (Michael W. Deem and Ramdas Pophale) SiO2 
 PCOD9445301
Probable space group: P N N M
;
_chemical_formula_sum "Si O2"
_cell_formula_units_Z 48
_cell_length_a 18.909302
_cell_length_b 15.015101
_cell_length_c 8.964960
_cell_angle_alpha 90.000000
_cell_angle_beta 90.000000
_cell_angle_gamma 90.000000
_cell_volume 2545.376980
_symmetry_space_group_name_H-M "P N N M"
_symmetry_group_IT_number 58
_symmetry_cell_setting 'orthorhombic'
loop_
_space_group_symop_operation_xyz
x,y,z
-x,-y,z
1/2+x,1/2-y,1/2-z
1/2-x,1/2+y,1/2-z
-x,-y,-z
x,y,-z
1/2-x,1/2+y,1/2+z
1/2+x,1/2-y,1/2+z
loop_
_atom_site_type_symbol
_atom_site_label
_atom_site_fract_x
_atom_site_fract_y
_atom_site_fract_z
Si Si1 0.428512 0.053156 0.178928
Si Si2 0.677799 0.394291 0.176863
Si Si3 0.765099 0.214615 0.177473
Si Si4 0.974287 0.900470 0.822067
Si Si5 0.917970 0.238650 0.678591
Si Si6 0.206558 0.458674 0.178137
O O1 0.434004 0.157907 0.215524
O O2 0.500000 0.000000 0.216410
O O3 0.362137 0.009418 0.261329
O O4 0.417684 0.046008 0.000000
O O5 0.726466 0.308348 0.205498
O O6 0.606053 0.390441 0.268530
O O7 0.724772 0.480734 0.211803
O O8 0.661043 0.395595 0.000000
O O9 0.841439 0.214886 0.254858
O O10 0.717865 0.135462 0.243054
O O11 0.773640 0.203834 0.000000
O O12 0.023697 0.827231 0.744985
O O13 0.979331 0.890816 0.000000
O O14 0.000000 0.000000 0.781772
O O15 0.916244 0.229961 0.500000
O O16 0.201768 0.448528 0.000000
#
# Coordination Sequence:
#
# PCOD9445301 Si02
#       6
#     8   8   8   8   8   8
#     4  10  23  42  63  90 126 168 210 255 311 375
#     4  10  23  42  63  89 125 163 204 254 309 369
#     4  11  23  41  64  91 125 164 206 256 314 369
#     4  11  25  42  63  92 126 165 208 257 314 371
#     4  11  23  41  66  94 127 167 210 256 312 372
#     4  11  23  41  65  95 125 161 208 258 312 371
#
# _framework density 18.857717999999998
#
# number of rings (size 3 to 8) (size 9 to 14) (size 15 to 20)
#    0.000    1.333    1.667    3.000    2.333    7.667 
#    0.000    0.000    0.000    0.000    0.000    0.000 
#    0.000    0.000    0.000    0.000    0.000    0.000 
#
# Total GULP energy -268466.192235 kJ/mol
# GULP energy per Si atom -5593.045672 kJ/mol
# Density = 1.881480 g / cm^3
# Si number density = 18.857718 Si / 1000 Ang^3
#
#
#
# Elastic Constant Matrix: (Units=GPa)
#
#
# Indices 1 2 3 4 5 6 
#
# 1 89.5705 2.2102 32.3254 0.0000 0.0000 0.0000
# 2 2.2102 60.4497 23.8491 0.0000 0.0000 0.0000
# 3 32.3254 23.8491 38.2698 0.0000 0.0000 0.0000
# 4 0.0000 0.0000 0.0000 31.8950 0.0000 0.0000
# 5 0.0000 0.0000 0.0000 0.0000 50.0119 0.0000
# 6 0.0000 0.0000 0.0000 0.0000 0.0000 34.2696
#
#
#
# Elastic Compliance Matrix: (Units=1/GPa)
#
#
# Indices 1 2 3 4 5 6 
#
# 1 0.018112 0.007126 -0.019739 0.000000 0.000000 0.000000
# 2 0.007126 0.024739 -0.021436 0.000000 0.000000 0.000000
# 3 -0.019739 -0.021436 0.056162 0.000000 0.000000 0.000000
# 4 0.000000 0.000000 0.000000 0.031353 0.000000 0.000000
# 5 0.000000 0.000000 0.000000 0.000000 0.019995 0.000000
# 6 0.000000 0.000000 0.000000 0.000000 0.000000 0.029180
#
#
# Mechanical properties :
#
#
# Convention : Reuss Voigt Hill
#
# Bulk Modulus (GPa) = 32.34766 33.89549 33.12157
# Shear Modulus (GPa) = 19.38390 31.89567 25.63979
#
# Velocity S-wave (km/s) = 3.20957 4.11711 3.69134
# Velocity P-wave (km/s) = 5.56111 6.37292 5.98080
#
# Compressibility (1/GPa) = 0.03091414
#
# Stress axis : x y z
#
# Youngs Moduli (GPa) = 55.21081 40.42177 17.80565
#
# Poissons Ratio (x) = -0.28803 0.35147
# Poissons Ratio (y) = -0.39341 0.38168
# Poissons Ratio (z) = 1.08983 0.86647
#
# Static dielectric constant tensor:
#      x y z
#    x 1.607950 0.000000 0.000000 
#    y 0.000000 1.633420 0.000000 
#    z 0.000000 0.000000 1.628680 
# 
# From -- ./inp_files/5827.got.cif
#   From: 2010.05.17/outbox.cif.g08.bks.cpg/sg58_3_cif.got.tgz:5827.got - 2010.06.03 14:20:14.
