data_PCOD9445278
_publ_section_title
;
Structure prediction by ZEFSAII (Michael W. Deem and Ramdas Pophale) SiO2 
 PCOD9445278
Probable space group: P N N M
;
_chemical_formula_sum "Si O2"
_cell_formula_units_Z 48
_cell_length_a 10.154225
_cell_length_b 26.276623
_cell_length_c 8.624413
_cell_angle_alpha 90.000000
_cell_angle_beta 90.000000
_cell_angle_gamma 90.000000
_cell_volume 2301.155029
_symmetry_space_group_name_H-M "P N N M"
_symmetry_group_IT_number 58
_symmetry_cell_setting 'orthorhombic'
loop_
_space_group_symop_operation_xyz
x,y,z
-x,-y,z
1/2+x,1/2-y,1/2-z
1/2-x,1/2+y,1/2-z
-x,-y,-z
x,y,-z
1/2-x,1/2+y,1/2+z
1/2+x,1/2-y,1/2+z
loop_
_atom_site_type_symbol
_atom_site_label
_atom_site_fract_x
_atom_site_fract_y
_atom_site_fract_z
Si Si1 0.108898 0.789325 0.182814
Si Si2 0.331843 0.871013 0.813535
Si Si3 0.350599 0.984032 0.684750
Si Si4 0.884576 0.322464 0.317079
Si Si5 0.384125 0.648176 0.178345
Si Si6 0.108472 0.043849 0.178593
O O1 0.216716 0.831582 0.230899
O O2 0.121403 0.736962 0.274707
O O3 0.966647 0.813288 0.216493
O O4 0.126978 0.779228 0.000000
O O5 0.324294 0.925813 0.733844
O O6 0.472565 0.845309 0.778473
O O7 0.322399 0.878473 0.000000
O O8 0.334056 0.989585 0.500000
O O9 0.500000 0.000000 0.724891
O O10 0.247070 0.020155 0.770722
O O11 0.862856 0.329781 0.500000
O O12 0.768861 0.349241 0.222351
O O13 0.429532 0.591192 0.215095
O O14 0.404563 0.661772 0.000000
O O15 0.114203 0.061467 0.000000
O O16 0.000000 0.000000 0.190213
#
# Coordination Sequence:
#
# PCOD9445278 Si02
#       6
#     8   8   8   8   8   8
#     4  11  23  41  64  92 125 160 203 254 307 365
#     4  10  23  41  62  89 121 158 201 249 303 364
#     4  11  24  40  61  91 123 157 200 248 301 364
#     4  11  23  41  65  93 124 161 205 253 309 366
#     4  12  25  41  62  91 126 164 207 252 302 364
#     4  11  24  42  64  90 121 159 204 254 308 363
#
# _framework density 20.859089999999998
#
# number of rings (size 3 to 8) (size 9 to 14) (size 15 to 20)
#    0.000    1.000    0.000    6.500    0.000   13.333 
#    0.000    0.000    0.000    0.000    0.000    0.000 
#    0.000    0.000    0.000    0.000    0.000    0.000 
#
# Total GULP energy -268748.603601 kJ/mol
# GULP energy per Si atom -5598.929242 kJ/mol
# Density = 2.081161 g / cm^3
# Si number density = 20.859090 Si / 1000 Ang^3
#
#
#
# Elastic Constant Matrix: (Units=GPa)
#
#
# Indices 1 2 3 4 5 6 
#
# 1 51.3594 -21.7829 6.0028 0.0000 0.0000 0.0000
# 2 -21.7829 56.5764 -4.3296 0.0000 0.0000 0.0000
# 3 6.0028 -4.3296 23.5484 0.0000 0.0000 0.0000
# 4 0.0000 0.0000 0.0000 17.2498 0.0000 0.0000
# 5 0.0000 0.0000 0.0000 0.0000 40.2890 0.0000
# 6 0.0000 0.0000 0.0000 0.0000 0.0000 34.7850
#
#
#
# Elastic Compliance Matrix: (Units=1/GPa)
#
#
# Indices 1 2 3 4 5 6 
#
# 1 0.023718 0.008793 -0.004429 0.000000 0.000000 0.000000
# 2 0.008793 0.021187 0.001654 0.000000 0.000000 0.000000
# 3 -0.004429 0.001654 0.043899 0.000000 0.000000 0.000000
# 4 0.000000 0.000000 0.000000 0.057972 0.000000 0.000000
# 5 0.000000 0.000000 0.000000 0.000000 0.024821 0.000000
# 6 0.000000 0.000000 0.000000 0.000000 0.000000 0.028748
#
#
# Mechanical properties :
#
#
# Convention : Reuss Voigt Hill
#
# Bulk Modulus (GPa) = 9.91686 10.14055 10.02871
# Shear Modulus (GPa) = 22.53045 28.57101 25.55073
#
# Velocity S-wave (km/s) = 3.29009 3.70498 3.50368
# Velocity P-wave (km/s) = 4.38149 4.81399 4.60283
#
# Compressibility (1/GPa) = 0.10083840
#
# Stress axis : x y z
#
# Youngs Moduli (GPa) = 42.16293 47.19848 22.77963
#
# Poissons Ratio (x) = -0.41500 0.10090
# Poissons Ratio (y) = -0.37073 -0.03768
# Poissons Ratio (z) = 0.18675 -0.07807
#
# Static dielectric constant tensor:
#      x y z
#    x 1.747040 0.000000 0.000000 
#    y 0.000000 1.714500 0.000000 
#    z 0.000000 0.000000 1.700450 
# 
# From -- ./inp_files/4185.got.cif
#   From: 2010.05.17/outbox.cif.g08.bks.cpg/sg58_3_cif.got.tgz:4185.got - 2010.06.03 14:20:14.
