data_PCOD9445376
_publ_section_title
;
Structure prediction by ZEFSAII (Michael W. Deem and Ramdas Pophale) SiO2 
 PCOD9445376
Probable space group: P N N M
;
_chemical_formula_sum "Si O2"
_cell_formula_units_Z 48
_cell_length_a 10.615891
_cell_length_b 15.844377
_cell_length_c 15.899697
_cell_angle_alpha 90.000000
_cell_angle_beta 90.000000
_cell_angle_gamma 90.000000
_cell_volume 2674.363684
_symmetry_space_group_name_H-M "P N N M"
_symmetry_group_IT_number 58
_symmetry_cell_setting 'orthorhombic'
loop_
_space_group_symop_operation_xyz
x,y,z
-x,-y,z
1/2+x,1/2-y,1/2-z
1/2-x,1/2+y,1/2-z
-x,-y,-z
x,y,-z
1/2-x,1/2+y,1/2+z
1/2+x,1/2-y,1/2+z
loop_
_atom_site_type_symbol
_atom_site_label
_atom_site_fract_x
_atom_site_fract_y
_atom_site_fract_z
Si Si1 0.695689 0.521912 0.317967
Si Si2 0.565510 0.085504 0.713349
Si Si3 0.454954 0.636989 0.706480
Si Si4 0.817625 0.729920 0.899657
Si Si5 0.457001 0.223072 0.830390
Si Si6 0.013243 0.357898 0.500000
Si Si7 0.207191 0.512580 0.500000
O O1 0.822507 0.556556 0.276144
O O2 0.643323 0.437446 0.274030
O O3 0.587360 0.592087 0.312387
O O4 0.716404 0.495522 0.414435
O O5 0.624084 0.145238 0.641563
O O6 0.468832 0.142594 0.768239
O O7 0.500000 0.000000 0.682294
O O8 0.407290 0.692993 0.628452
O O9 0.473956 0.701003 0.783162
O O10 0.683951 0.749820 0.855075
O O11 0.804099 0.723793 0.000000
O O12 0.524243 0.196519 0.916433
O O13 0.111059 0.434024 0.500000
O O14 0.875556 0.402337 0.500000
#
# Coordination Sequence:
#
# PCOD9445376 Si02
#       7
#     8   8   8   8   8   4   4
#     4  11  22  39  59  86 124 156 194 247 302 368
#     4  11  22  39  63  87 118 162 204 243 294 359
#     4  10  24  38  59  86 121 158 194 242 308 359
#     4  11  23  39  62  88 121 156 202 249 300 353
#     4  11  21  39  62  91 116 156 203 249 296 358
#     4  11  20  34  62  89 121 147 203 250 299 353
#     4  11  22  33  56  96 120 152 192 249 309 363
#
# _framework density 17.948194000000001
#
# number of rings (size 3 to 8) (size 9 to 14) (size 15 to 20)
#    0.000    1.167    4.167    3.000    2.333    1.000 
#    0.000    0.000    1.833    2.000    0.000    0.000 
#    0.000    0.000    0.000    0.000    0.000    0.000 
#
# Total GULP energy -268136.609308 kJ/mol
# GULP energy per Si atom -5586.179361 kJ/mol
# Density = 1.790734 g / cm^3
# Si number density = 17.948194 Si / 1000 Ang^3
#
#
#
# Elastic Constant Matrix: (Units=GPa)
#
#
# Indices 1 2 3 4 5 6 
#
# 1 66.9825 47.7949 35.8249 0.0000 0.0000 0.0000
# 2 47.7949 133.9437 60.7181 0.0000 0.0000 0.0000
# 3 35.8249 60.7181 107.2857 0.0000 0.0000 0.0000
# 4 0.0000 0.0000 0.0000 19.9203 0.0000 0.0000
# 5 0.0000 0.0000 0.0000 0.0000 21.6048 0.0000
# 6 0.0000 0.0000 0.0000 0.0000 0.0000 29.4007
#
#
#
# Elastic Compliance Matrix: (Units=1/GPa)
#
#
# Indices 1 2 3 4 5 6 
#
# 1 0.021091 -0.005829 -0.003744 0.000000 0.000000 0.000000
# 2 -0.005829 0.011653 -0.004649 0.000000 0.000000 0.000000
# 3 -0.003744 -0.004649 0.013202 0.000000 0.000000 0.000000
# 4 0.000000 0.000000 0.000000 0.050200 0.000000 0.000000
# 5 0.000000 0.000000 0.000000 0.000000 0.046286 0.000000
# 6 0.000000 0.000000 0.000000 0.000000 0.000000 0.034013
#
#
# Mechanical properties :
#
#
# Convention : Reuss Voigt Hill
#
# Bulk Modulus (GPa) = 57.13241 66.32085 61.72663
# Shear Modulus (GPa) = 23.72806 25.11010 24.41908
#
# Velocity S-wave (km/s) = 3.63992 3.74442 3.69254
# Velocity P-wave (km/s) = 7.04033 7.46497 7.25576
#
# Compressibility (1/GPa) = 0.01750320
#
# Stress axis : x y z
#
# Youngs Moduli (GPa) = 47.41452 85.81550 75.74622
#
# Poissons Ratio (x) = 0.50018 0.28359
# Poissons Ratio (y) = 0.27636 0.35212
# Poissons Ratio (z) = 0.17752 0.39893
#
# Static dielectric constant tensor:
#      x y z
#    x 1.627680 0.000000 0.000000 
#    y 0.000000 1.619260 0.000000 
#    z 0.000000 0.000000 1.582230 
# 
# From -- ./inp_files/21212.got.cif
#   From: 2010.05.17/outbox.cif.g08.bks.cpg/sg58_11_cif.got.tgz:21212.got - 2010.06.03 14:20:14.
