data_PCOD9445126
_publ_section_title
;
Structure prediction by ZEFSAII (Michael W. Deem and Ramdas Pophale) SiO2 
 PCOD9445126
Probable space group: P N N M
;
_chemical_formula_sum "Si O2"
_cell_formula_units_Z 40
_cell_length_a 13.859778
_cell_length_b 18.928852
_cell_length_c 7.661787
_cell_angle_alpha 90.000000
_cell_angle_beta 90.000000
_cell_angle_gamma 90.000000
_cell_volume 2010.067418
_symmetry_space_group_name_H-M "P N N M"
_symmetry_group_IT_number 58
_symmetry_cell_setting 'orthorhombic'
loop_
_space_group_symop_operation_xyz
x,y,z
-x,-y,z
1/2+x,1/2-y,1/2-z
1/2-x,1/2+y,1/2-z
-x,-y,-z
x,y,-z
1/2-x,1/2+y,1/2+z
1/2+x,1/2-y,1/2+z
loop_
_atom_site_type_symbol
_atom_site_label
_atom_site_fract_x
_atom_site_fract_y
_atom_site_fract_z
Si Si1 0.857044 0.133518 0.290733
Si Si2 0.075432 0.145279 0.798022
Si Si3 0.205125 0.023259 0.698313
Si Si4 0.657121 0.203042 0.710588
Si Si5 0.148097 0.545990 0.500000
Si Si6 0.944129 0.610442 0.500000
O O1 0.865947 0.132982 0.500000
O O2 0.767964 0.184276 0.246173
O O3 0.960984 0.153928 0.219460
O O4 0.828483 0.053856 0.237263
O O5 0.115686 0.077111 0.699770
O O6 0.128594 0.217043 0.743869
O O7 0.098615 0.133007 0.000000
O O8 0.241492 0.015509 0.500000
O O9 0.285743 0.052469 0.828839
O O10 0.643829 0.193187 0.500000
O O11 0.592016 0.151740 0.828347
O O12 0.104213 0.466912 0.500000
O O13 0.058902 0.599575 0.500000
#
# Coordination Sequence:
#
# PCOD9445126 Si02
#       6
#     8   8   8   8   4   4
#     4  10  22  41  64  89 127 174 209 260 325 380
#     4  11  24  39  64  99 130 166 220 267 316 390
#     4  11  23  42  65  95 134 168 211 269 324 381
#     4  10  24  44  62  92 133 170 215 263 323 389
#     4  11  24  42  66 103 122 167 223 270 318 385
#     4  11  24  42  71  90 128 174 216 262 332 386
#
# _framework density 19.899830999999999
#
# number of rings (size 3 to 8) (size 9 to 14) (size 15 to 20)
#    0.000    1.400    3.000    1.200    5.600    4.800 
#    0.000    4.000    0.000    0.000    0.000    0.000 
#    0.000    0.000    0.000    0.000    0.000    0.000 
#
# Total GULP energy -223552.877912 kJ/mol
# GULP energy per Si atom -5588.821948 kJ/mol
# Density = 1.985454 g / cm^3
# Si number density = 19.899831 Si / 1000 Ang^3
#
#
#
# Elastic Constant Matrix: (Units=GPa)
#
#
# Indices 1 2 3 4 5 6 
#
# 1 143.6473 64.6228 30.1763 0.0000 0.0000 0.0000
# 2 64.6228 67.3629 18.1728 0.0000 0.0000 0.0000
# 3 30.1763 18.1728 60.2891 0.0000 0.0000 0.0000
# 4 0.0000 0.0000 0.0000 17.2653 0.0000 0.0000
# 5 0.0000 0.0000 0.0000 0.0000 7.2061 0.0000
# 6 0.0000 0.0000 0.0000 0.0000 0.0000 22.7121
#
#
#
# Elastic Compliance Matrix: (Units=1/GPa)
#
#
# Indices 1 2 3 4 5 6 
#
# 1 0.012703 -0.011398 -0.002923 0.000000 0.000000 0.000000
# 2 -0.011398 0.026386 -0.002248 0.000000 0.000000 0.000000
# 3 -0.002923 -0.002248 0.018727 0.000000 0.000000 0.000000
# 4 0.000000 0.000000 0.000000 0.057920 0.000000 0.000000
# 5 0.000000 0.000000 0.000000 0.000000 0.138771 0.000000
# 6 0.000000 0.000000 0.000000 0.000000 0.000000 0.044029
#
#
# Mechanical properties :
#
#
# Convention : Reuss Voigt Hill
#
# Bulk Modulus (GPa) = 40.52141 55.24924 47.88533
# Shear Modulus (GPa) = 14.71018 19.99184 17.35101
#
# Velocity S-wave (km/s) = 2.72179 3.17302 2.95603
# Velocity P-wave (km/s) = 5.50313 6.42246 5.98049
#
# Compressibility (1/GPa) = 0.02467831
#
# Stress axis : x y z
#
# Youngs Moduli (GPa) = 78.72141 37.89917 53.39787
#
# Poissons Ratio (x) = 0.43197 0.15606
# Poissons Ratio (y) = 0.89726 0.12006
# Poissons Ratio (z) = 0.23007 0.08522
#
# Static dielectric constant tensor:
#      x y z
#    x 1.681310 0.000000 0.000000 
#    y 0.000000 1.694510 0.000000 
#    z 0.000000 0.000000 1.720740 
# 
# From -- ./inp_files/3850.got.cif
#   From: 2010.05.17/outbox.cif.g08.bks.cpg/sg58_2_cif.got.tgz:3850.got - 2010.06.03 14:20:14.
