data_PCOD9445122
_publ_section_title
;
Structure prediction by ZEFSAII (Michael W. Deem and Ramdas Pophale) SiO2 
 PCOD9445122
Probable space group: P N N M
;
_chemical_formula_sum "Si O2"
_cell_formula_units_Z 64
_cell_length_a 22.511944
_cell_length_b 16.882066
_cell_length_c 8.896851
_cell_angle_alpha 90.000000
_cell_angle_beta 90.000000
_cell_angle_gamma 90.000000
_cell_volume 3381.231536
_symmetry_space_group_name_H-M "P N N M"
_symmetry_group_IT_number 58
_symmetry_cell_setting 'orthorhombic'
loop_
_space_group_symop_operation_xyz
x,y,z
-x,-y,z
1/2+x,1/2-y,1/2-z
1/2-x,1/2+y,1/2-z
-x,-y,-z
x,y,-z
1/2-x,1/2+y,1/2+z
1/2+x,1/2-y,1/2+z
loop_
_atom_site_type_symbol
_atom_site_label
_atom_site_fract_x
_atom_site_fract_y
_atom_site_fract_z
Si Si1 0.730173 0.087339 0.679955
Si Si2 0.138691 0.151761 0.178829
Si Si3 0.381641 0.177019 0.678778
Si Si4 0.619141 0.179104 0.179624
Si Si5 0.930115 0.994737 0.679683
Si Si6 0.004692 0.592745 0.319760
Si Si7 0.269436 0.087372 0.179735
Si Si8 0.859334 0.155054 0.320240
O O1 0.726052 0.079844 0.500000
O O2 0.673479 0.133207 0.743393
O O3 0.790743 0.134858 0.714189
O O4 0.733811 0.000519 0.752273
O O5 0.119172 0.231143 0.262589
O O6 0.207708 0.132327 0.211831
O O7 0.100496 0.077156 0.233838
O O8 0.132701 0.162277 0.000000
O O9 0.378193 0.173066 0.500000
O O10 0.440650 0.133717 0.737083
O O11 0.324714 0.133616 0.750385
O O12 0.380684 0.267547 0.734306
O O13 0.557117 0.136126 0.216053
O O14 0.626769 0.176965 0.000000
O O15 0.922642 0.981868 0.500000
O O16 0.897861 0.077368 0.716724
O O17 0.000000 0.000000 0.711767
O O18 0.014336 0.598605 0.500000
O O19 0.000000 0.500000 0.281488
O O20 0.276544 0.082448 0.000000
O O21 0.864193 0.168944 0.500000
#
# Coordination Sequence:
#
# PCOD9445122 Si02
#       8
#     8   8   8   8   8   8   8   8
#     4  11  22  39  65  95 127 162 205 262 317 364
#     4  11  24  41  63  93 128 165 208 262 314 365
#     4  12  26  40  63  95 127 163 208 263 312 364
#     4  11  24  40  64  93 125 166 210 256 309 378
#     4  10  22  41  66  93 125 169 214 255 308 377
#     4  10  23  45  68  90 121 164 209 253 310 378
#     4  11  23  41  64  90 125 168 210 253 312 376
#     4  10  22  41  63  91 129 167 207 255 310 374
#
# _framework density 18.928014000000001
#
# number of rings (size 3 to 8) (size 9 to 14) (size 15 to 20)
#    0.000    1.250    1.250    4.125    1.750    8.500 
#    0.000    0.000    0.000    0.000    0.000    0.000 
#    0.000    0.000    0.000    0.000    0.000    0.000 
#
# Total GULP energy -358081.889099 kJ/mol
# GULP energy per Si atom -5595.029517 kJ/mol
# Density = 1.888493 g / cm^3
# Si number density = 18.928014 Si / 1000 Ang^3
#
#
#
# Elastic Constant Matrix: (Units=GPa)
#
#
# Indices 1 2 3 4 5 6 
#
# 1 160.4456 87.7151 83.6117 0.0000 0.0000 0.0000
# 2 87.7151 157.1021 73.3945 0.0000 0.0000 0.0000
# 3 83.6117 73.3945 74.4734 0.0000 0.0000 0.0000
# 4 0.0000 0.0000 0.0000 35.2985 0.0000 0.0000
# 5 0.0000 0.0000 0.0000 0.0000 30.9471 0.0000
# 6 0.0000 0.0000 0.0000 0.0000 0.0000 -4.9791
#
#
#
# Elastic Compliance Matrix: (Units=1/GPa)
#
#
# Indices 1 2 3 4 5 6 
#
# 1 0.015096 -0.000946 -0.016016 0.000000 0.000000 0.000000
# 2 -0.000946 0.011856 -0.010621 0.000000 0.000000 0.000000
# 3 -0.016016 -0.010621 0.041877 0.000000 0.000000 0.000000
# 4 0.000000 0.000000 0.000000 0.028330 0.000000 0.000000
# 5 0.000000 0.000000 0.000000 0.000000 0.032313 0.000000
# 6 0.000000 0.000000 0.000000 0.000000 0.000000 -0.200840
#
#
# Mechanical properties :
#
#
# Convention : Reuss Voigt Hill
#
# Bulk Modulus (GPa) = 73.20230 97.94042 85.57136
# Shear Modulus (GPa) = -429.32785 22.07328 -203.62728
#
# Velocity S-wave (km/s) = -15.07693 3.41863 -10.38332
# Velocity P-wave (km/s) = 16.25814 8.21210 9.92191
#
# Compressibility (1/GPa) = 0.01366077
#
# Stress axis : x y z
#
# Youngs Moduli (GPa) = 66.24104 84.34658 23.87972
#
# Poissons Ratio (x) = 0.07983 0.38246
# Poissons Ratio (y) = 0.06269 0.25364
# Poissons Ratio (z) = 1.06092 0.89589
#
# Static dielectric constant tensor:
#      x y z
#    x 1.627390 0.000000 0.000000 
#    y 0.000000 1.620370 0.000000 
#    z 0.000000 0.000000 1.633880 
# 
# From -- ./inp_files/9218.got.cif
#   From: 2010.05.17/outbox.cif.g08.bks.cpg/sg58_5_cif.got.tgz:9218.got - 2010.06.03 14:20:14.
