data_PCOD9445118
_publ_section_title
;
Structure prediction by ZEFSAII (Michael W. Deem and Ramdas Pophale) SiO2 
 PCOD9445118
Probable space group: P N N M
;
_chemical_formula_sum "Si O2"
_cell_formula_units_Z 64
_cell_length_a 28.844468
_cell_length_b 12.594820
_cell_length_c 8.263709
_cell_angle_alpha 90.000000
_cell_angle_beta 90.000000
_cell_angle_gamma 90.000000
_cell_volume 3002.130135
_symmetry_space_group_name_H-M "P N N M"
_symmetry_group_IT_number 58
_symmetry_cell_setting 'orthorhombic'
loop_
_space_group_symop_operation_xyz
x,y,z
-x,-y,z
1/2+x,1/2-y,1/2-z
1/2-x,1/2+y,1/2-z
-x,-y,-z
x,y,-z
1/2-x,1/2+y,1/2+z
1/2+x,1/2-y,1/2+z
loop_
_atom_site_type_symbol
_atom_site_label
_atom_site_fract_x
_atom_site_fract_y
_atom_site_fract_z
Si Si1 0.595205 0.418193 0.807512
Si Si2 0.712828 0.930219 0.692846
Si Si3 0.969137 0.732286 0.191774
Si Si4 0.556035 0.638028 0.190044
Si Si5 0.618162 0.812113 0.304076
Si Si6 0.931886 0.520752 0.186600
Si Si7 0.188956 0.154034 0.810044
Si Si8 0.341456 0.879402 0.815631
O O1 0.570102 0.307169 0.769067
O O2 0.563210 0.517079 0.754580
O O3 0.645132 0.421744 0.723948
O O4 0.601490 0.427112 0.000000
O O5 0.711646 0.947778 0.500000
O O6 0.670370 0.849904 0.731707
O O7 0.762645 0.889126 0.745031
O O8 0.699787 0.038436 0.783159
O O9 0.967293 0.609781 0.253263
O O10 0.016562 0.794314 0.222488
O O11 0.960722 0.726639 0.000000
O O12 0.603017 0.703312 0.222274
O O13 0.544438 0.636072 0.000000
O O14 0.613951 0.803934 0.500000
O O15 0.583053 0.906215 0.245236
O O16 0.883160 0.584875 0.198858
O O17 0.944480 0.500215 0.000000
O O18 0.175837 0.262332 0.719566
O O19 0.192502 0.174884 0.000000
O O20 0.358211 0.888897 0.000000
#
# Coordination Sequence:
#
# PCOD9445118 Si02
#       8
#     8   8   8   8   8   8   8   8
#     4  11  24  42  61  86 122 162 206 258 312 365
#     4  10  22  41  63  89 122 159 202 255 310 366
#     4  11  22  38  64  92 120 158 206 255 311 371
#     4  11  25  41  59  86 126 166 203 252 310 367
#     4   9  20  40  63  86 119 160 202 249 305 365
#     4   9  19  37  61  89 119 154 199 254 304 353
#     4  12  24  39  62  92 122 157 204 254 306 370
#     4  11  21  36  60  88 119 157 197 246 304 364
#
# _framework density 21.318194999999999
#
# number of rings (size 3 to 8) (size 9 to 14) (size 15 to 20)
#    0.000    1.500    1.250    4.875    0.000    8.000 
#    0.000    5.000    0.000    0.000    0.000    0.000 
#    0.000    0.000    0.000    0.000    0.000    0.000 
#
# Total GULP energy -357688.645878 kJ/mol
# GULP energy per Si atom -5588.885092 kJ/mol
# Density = 2.126967 g / cm^3
# Si number density = 21.318195 Si / 1000 Ang^3
#
#
#
# Elastic Constant Matrix: (Units=GPa)
#
#
# Indices 1 2 3 4 5 6 
#
# 1 77.4599 -6.0279 5.4987 0.0000 0.0000 0.0000
# 2 -6.0279 61.5430 -4.0529 0.0000 0.0000 0.0000
# 3 5.4987 -4.0529 45.4272 0.0000 0.0000 0.0000
# 4 0.0000 0.0000 0.0000 100.9447 0.0000 0.0000
# 5 0.0000 0.0000 0.0000 0.0000 32.4652 0.0000
# 6 0.0000 0.0000 0.0000 0.0000 0.0000 31.3205
#
#
#
# Elastic Compliance Matrix: (Units=1/GPa)
#
#
# Indices 1 2 3 4 5 6 
#
# 1 0.013107 0.001186 -0.001481 0.000000 0.000000 0.000000
# 2 0.001186 0.016452 0.001324 0.000000 0.000000 0.000000
# 3 -0.001481 0.001324 0.022311 0.000000 0.000000 0.000000
# 4 0.000000 0.000000 0.000000 0.009906 0.000000 0.000000
# 5 0.000000 0.000000 0.000000 0.000000 0.030802 0.000000
# 6 0.000000 0.000000 0.000000 0.000000 0.000000 0.031928
#
#
# Mechanical properties :
#
#
# Convention : Reuss Voigt Hill
#
# Bulk Modulus (GPa) = 18.54265 19.47400 19.00833
# Shear Modulus (GPa) = 35.60649 45.54687 40.57668
#
# Velocity S-wave (km/s) = 4.09129 4.62727 4.36751
# Velocity P-wave (km/s) = 5.57092 6.14033 5.86254
#
# Compressibility (1/GPa) = 0.05392972
#
# Stress axis : x y z
#
# Youngs Moduli (GPa) = 76.29314 60.78215 44.82169
#
# Poissons Ratio (x) = -0.07211 0.06637
# Poissons Ratio (y) = -0.09051 -0.05935
# Poissons Ratio (z) = 0.11297 -0.08049
#
# Static dielectric constant tensor:
#      x y z
#    x 1.791270 0.000000 0.000000 
#    y 0.000000 1.773370 0.000000 
#    z 0.000000 0.000000 1.749200 
# 
# From -- ./inp_files/10938.got.cif
#   From: 2010.05.17/outbox.cif.g08.bks.cpg/sg58_6_cif.got.tgz:10938.got - 2010.06.03 14:20:14.
