data_PCOD9445143
_publ_section_title
;
Structure prediction by ZEFSAII (Michael W. Deem and Ramdas Pophale) SiO2 
 PCOD9445143
Probable space group: P N N M
;
_chemical_formula_sum "Si O2"
_cell_formula_units_Z 64
_cell_length_a 18.165730
_cell_length_b 13.169725
_cell_length_c 13.461963
_cell_angle_alpha 90.000000
_cell_angle_beta 90.000000
_cell_angle_gamma 90.000000
_cell_volume 3220.608642
_symmetry_space_group_name_H-M "P N N M"
_symmetry_group_IT_number 58
_symmetry_cell_setting 'orthorhombic'
loop_
_space_group_symop_operation_xyz
x,y,z
-x,-y,z
1/2+x,1/2-y,1/2-z
1/2-x,1/2+y,1/2-z
-x,-y,-z
x,y,-z
1/2-x,1/2+y,1/2+z
1/2+x,1/2-y,1/2+z
loop_
_atom_site_type_symbol
_atom_site_label
_atom_site_fract_x
_atom_site_fract_y
_atom_site_fract_z
Si Si1 0.423048 0.058344 0.385542
Si Si2 0.946233 0.083661 0.739293
Si Si3 0.162093 0.765662 0.620190
Si Si4 0.168122 0.025731 0.116203
Si Si5 0.671789 0.230048 0.612860
Si Si6 0.048015 0.398143 0.608615
Si Si7 0.016109 0.279087 0.199035
Si Si8 0.170372 0.532753 0.306111
O O1 0.403979 0.040629 0.500000
O O2 0.451271 0.172622 0.366363
O O3 0.359679 0.034193 0.306718
O O4 0.500000 0.000000 0.361630
O O5 0.894659 0.155267 0.669916
O O6 0.001104 0.160921 0.794427
O O7 0.894947 0.028652 0.820558
O O8 0.000000 0.000000 0.689147
O O9 0.158076 0.769959 0.500000
O O10 0.246483 0.792294 0.652995
O O11 0.152982 0.646371 0.650732
O O12 0.162056 0.148067 0.113631
O O13 0.244818 0.010417 0.174141
O O14 0.171177 0.992730 0.000000
O O15 0.671653 0.193567 0.500000
O O16 0.597025 0.191533 0.661259
O O17 0.047916 0.350537 0.500000
O O18 0.015195 0.324912 0.690678
O O19 0.126620 0.443767 0.637806
O O20 0.000000 0.500000 0.607213
#
# Coordination Sequence:
#
# PCOD9445143 Si02
#       8
#     8   8   8   8   8   8   8   8
#     4  11  22  37  60  96 132 162 198 252 329 392
#     4  12  25  41  61  94 132 170 213 263 316 377
#     4  10  22  41  66  92 124 174 220 261 318 382
#     4  10  23  41  64  89 120 164 213 266 314 366
#     4   9  20  39  64  89 116 161 216 261 307 373
#     4  11  21  35  61  93 123 158 205 263 320 371
#     4  12  21  39  59  92 128 166 208 259 322 382
#     4  11  19  42  65  94 124 157 214 274 319 376
#
# _framework density 19.872019999999999
#
# number of rings (size 3 to 8) (size 9 to 14) (size 15 to 20)
#    0.000    1.250    5.000    2.250    1.750    3.000 
#    0.000    0.625    0.000    3.000    0.000    0.000 
#    0.000    0.000    0.000    0.000    0.000    0.000 
#
# Total GULP energy -357128.283865 kJ/mol
# GULP energy per Si atom -5580.129435 kJ/mol
# Density = 1.982679 g / cm^3
# Si number density = 19.872020 Si / 1000 Ang^3
#
#
#
# Elastic Constant Matrix: (Units=GPa)
#
#
# Indices 1 2 3 4 5 6 
#
# 1 126.8091 32.7974 53.3510 0.0000 0.0000 0.0000
# 2 32.7974 75.1021 17.6098 0.0000 0.0000 0.0000
# 3 53.3510 17.6098 118.6293 0.0000 0.0000 0.0000
# 4 0.0000 0.0000 0.0000 32.4741 0.0000 0.0000
# 5 0.0000 0.0000 0.0000 0.0000 13.8693 0.0000
# 6 0.0000 0.0000 0.0000 0.0000 0.0000 33.8323
#
#
#
# Elastic Compliance Matrix: (Units=1/GPa)
#
#
# Indices 1 2 3 4 5 6 
#
# 1 0.010607 -0.003640 -0.004230 0.000000 0.000000 0.000000
# 2 -0.003640 0.015045 -0.000596 0.000000 0.000000 0.000000
# 3 -0.004230 -0.000596 0.010420 0.000000 0.000000 0.000000
# 4 0.000000 0.000000 0.000000 0.030794 0.000000 0.000000
# 5 0.000000 0.000000 0.000000 0.000000 0.072102 0.000000
# 6 0.000000 0.000000 0.000000 0.000000 0.000000 0.029558
#
#
# Mechanical properties :
#
#
# Convention : Reuss Voigt Hill
#
# Bulk Modulus (GPa) = 52.24810 58.67299 55.46054
# Shear Modulus (GPa) = 26.06370 30.48729 28.27550
#
# Velocity S-wave (km/s) = 3.62550 3.92111 3.77620
# Velocity P-wave (km/s) = 6.62382 7.07741 6.85437
#
# Compressibility (1/GPa) = 0.01913945
#
# Stress axis : x y z
#
# Youngs Moduli (GPa) = 94.27760 66.46845 95.96553
#
# Poissons Ratio (x) = 0.24197 0.40592
# Poissons Ratio (y) = 0.34320 0.05721
# Poissons Ratio (z) = 0.39878 0.03963
#
# Static dielectric constant tensor:
#      x y z
#    x 1.772480 0.000000 0.000000 
#    y 0.000000 1.742660 0.000000 
#    z 0.000000 0.000000 1.704960 
# 
# From -- ./inp_files/22960.got.cif
#   From: 2010.05.17/outbox.cif.g08.bks.cpg/sg58_12_cif.got.tgz:22960.got - 2010.06.03 14:20:14.
