data_PCOD9445192
_publ_section_title
;
Structure prediction by ZEFSAII (Michael W. Deem and Ramdas Pophale) SiO2 
 PCOD9445192
Probable space group: P N N M
;
_chemical_formula_sum "Si O2"
_cell_formula_units_Z 40
_cell_length_a 23.174820
_cell_length_b 7.656375
_cell_length_c 9.919107
_cell_angle_alpha 90.000000
_cell_angle_beta 90.000000
_cell_angle_gamma 90.000000
_cell_volume 1759.997866
_symmetry_space_group_name_H-M "P N N M"
_symmetry_group_IT_number 58
_symmetry_cell_setting 'orthorhombic'
loop_
_space_group_symop_operation_xyz
x,y,z
-x,-y,z
1/2+x,1/2-y,1/2-z
1/2-x,1/2+y,1/2-z
-x,-y,-z
x,y,-z
1/2-x,1/2+y,1/2+z
1/2+x,1/2-y,1/2+z
loop_
_atom_site_type_symbol
_atom_site_label
_atom_site_fract_x
_atom_site_fract_y
_atom_site_fract_z
Si Si1 0.697297 0.329286 0.349596
Si Si2 0.403928 0.559322 0.838080
Si Si3 0.087943 0.756828 0.853453
Si Si4 0.559360 0.056669 0.800036
Si Si5 0.319901 0.051814 0.761117
O O1 0.675073 0.368859 0.500000
O O2 0.658698 0.414199 0.231658
O O3 0.693074 0.121769 0.323931
O O4 0.763020 0.390259 0.336688
O O5 0.428779 0.388095 0.765606
O O6 0.437165 0.735780 0.795557
O O7 0.402179 0.545531 0.000000
O O8 0.059709 0.566039 0.833168
O O9 0.155500 0.707324 0.832254
O O10 0.075665 0.828892 0.000000
O O11 0.623264 0.996909 0.850400
O O12 0.500000 0.000000 0.866675
#
# Coordination Sequence:
#
# PCOD9445192 Si02
#       5
#     8   8   8   8   8
#     4  11  22  41  66  94 134 177 226 284 340 411
#     4  11  25  42  68 104 139 181 228 284 347 414
#     4  10  22  42  69  99 133 177 226 280 340 408
#     4   9  23  46  68  99 141 184 233 287 344 410
#     4   9  22  37  66 100 133 174 223 287 347 406
#
# _framework density 22.727298999999999
#
# number of rings (size 3 to 8) (size 9 to 14) (size 15 to 20)
#    1.200    0.800    0.000    2.400    0.000   10.400 
#    0.000    2.000    0.000    0.000    0.000    0.000 
#    0.000    0.000    0.000    0.000    0.000    0.000 
#
# Total GULP energy -222724.795558 kJ/mol
# GULP energy per Si atom -5568.119889 kJ/mol
# Density = 2.267557 g / cm^3
# Si number density = 22.727299 Si / 1000 Ang^3
#
#
#
# Elastic Constant Matrix: (Units=GPa)
#
#
# Indices 1 2 3 4 5 6 
#
# 1 136.8623 29.7351 31.4109 0.0000 0.0000 0.0000
# 2 29.7351 117.0746 75.4867 0.0000 0.0000 0.0000
# 3 31.4109 75.4867 151.2633 0.0000 0.0000 0.0000
# 4 0.0000 0.0000 0.0000 12.7036 0.0000 0.0000
# 5 0.0000 0.0000 0.0000 0.0000 -42.0630 0.0000
# 6 0.0000 0.0000 0.0000 0.0000 0.0000 27.2451
#
#
#
# Elastic Compliance Matrix: (Units=1/GPa)
#
#
# Indices 1 2 3 4 5 6 
#
# 1 0.007822 -0.001385 -0.000933 0.000000 0.000000 0.000000
# 2 -0.001385 0.012839 -0.006120 0.000000 0.000000 0.000000
# 3 -0.000933 -0.006120 0.009859 0.000000 0.000000 0.000000
# 4 0.000000 0.000000 0.000000 0.078718 0.000000 0.000000
# 5 0.000000 0.000000 0.000000 0.000000 -0.023774 0.000000
# 6 0.000000 0.000000 0.000000 0.000000 0.000000 0.036704
#
#
# Mechanical properties :
#
#
# Convention : Reuss Voigt Hill
#
# Bulk Modulus (GPa) = 73.29166 75.38506 74.33836
# Shear Modulus (GPa) = 34.82118 17.48164 26.15141
#
# Velocity S-wave (km/s) = 3.91849 2.77644 3.39582
# Velocity P-wave (km/s) = 7.26575 6.59693 6.93940
#
# Compressibility (1/GPa) = 0.01364412
#
# Stress axis : x y z
#
# Youngs Moduli (GPa) = 127.85011 77.88695 101.43312
#
# Poissons Ratio (x) = 0.10787 0.09464
# Poissons Ratio (y) = 0.17707 0.62074
# Poissons Ratio (z) = 0.11929 0.47664
#
# Static dielectric constant tensor:
#      x y z
#    x 1.894300 0.000000 0.000000 
#    y 0.000000 1.872390 0.000000 
#    z 0.000000 0.000000 1.825150 
# 
# From -- ./inp_files/10274.got.cif
#   From: 2010.05.17/outbox.cif.g08.bks.cpg/sg58_6_cif.got.tgz:10274.got - 2010.06.03 14:20:14.
