data_PCOD9445544
_publ_section_title
;
Structure prediction by ZEFSAII (Michael W. Deem and Ramdas Pophale) SiO2 
 PCOD9445544
Probable space group: P N N M
;
_chemical_formula_sum "Si O2"
_cell_formula_units_Z 48
_cell_length_a 12.028931
_cell_length_b 10.997925
_cell_length_c 20.346059
_cell_angle_alpha 90.000000
_cell_angle_beta 90.000000
_cell_angle_gamma 90.000000
_cell_volume 2691.646900
_symmetry_space_group_name_H-M "P N N M"
_symmetry_group_IT_number 58
_symmetry_cell_setting 'orthorhombic'
loop_
_space_group_symop_operation_xyz
x,y,z
-x,-y,z
1/2+x,1/2-y,1/2-z
1/2-x,1/2+y,1/2-z
-x,-y,-z
x,y,-z
1/2-x,1/2+y,1/2+z
1/2+x,1/2-y,1/2+z
loop_
_atom_site_type_symbol
_atom_site_label
_atom_site_fract_x
_atom_site_fract_y
_atom_site_fract_z
Si Si1 0.170004 0.460374 0.119785
Si Si2 0.418492 0.385659 0.310090
Si Si3 0.170484 0.463858 0.278183
Si Si4 0.039300 0.696789 0.076804
Si Si5 0.037379 0.701443 0.309875
Si Si6 0.082694 0.887665 0.422809
O O1 0.167814 0.465269 0.198835
O O2 0.127502 0.589496 0.092376
O O3 0.292270 0.427670 0.095221
O O4 0.079975 0.361479 0.095775
O O5 0.500000 0.500000 0.307420
O O6 0.292581 0.430852 0.302195
O O7 0.435777 0.309987 0.376628
O O8 0.445367 0.295286 0.249778
O O9 0.128576 0.594863 0.302940
O O10 0.081063 0.364461 0.302008
O O11 0.041707 0.725974 0.000000
O O12 0.049734 0.775177 0.376978
O O13 0.075709 0.858994 0.500000
O O14 0.000000 0.000000 0.408910
#
# Coordination Sequence:
#
# PCOD9445544 Si02
#       6
#     8   8   8   8   8   8
#     4  11  20  41  68  94 124 165 209 263 313 362
#     4  12  26  38  65  95 125 167 208 259 312 366
#     4  11  24  41  67  95 125 164 212 256 317 375
#     4  11  23  41  64  94 130 163 207 257 317 374
#     4  11  23  44  63  91 128 165 209 260 311 371
#     4  11  25  41  65  96 127 166 214 258 306 366
#
# _framework density 17.832947999999998
#
# number of rings (size 3 to 8) (size 9 to 14) (size 15 to 20)
#    0.000    0.833    5.000    3.500    7.000    0.333 
#    0.000    2.500    0.000    0.000    0.000    0.000 
#    0.000    0.000    0.000    0.000    0.000    0.000 
#
# Total GULP energy -268468.417039 kJ/mol
# GULP energy per Si atom -5593.092022 kJ/mol
# Density = 1.779236 g / cm^3
# Si number density = 17.832948 Si / 1000 Ang^3
#
#
#
# Elastic Constant Matrix: (Units=GPa)
#
#
# Indices 1 2 3 4 5 6 
#
# 1 131.1297 93.7841 76.1925 0.0000 0.0000 0.0000
# 2 93.7841 152.6857 98.7376 0.0000 0.0000 0.0000
# 3 76.1925 98.7376 150.3429 0.0000 0.0000 0.0000
# 4 0.0000 0.0000 0.0000 37.2798 0.0000 0.0000
# 5 0.0000 0.0000 0.0000 0.0000 -10.8148 0.0000
# 6 0.0000 0.0000 0.0000 0.0000 0.0000 9.8830
#
#
#
# Elastic Compliance Matrix: (Units=1/GPa)
#
#
# Indices 1 2 3 4 5 6 
#
# 1 0.014138 -0.007041 -0.002541 0.000000 0.000000 0.000000
# 2 -0.007041 0.014891 -0.006211 0.000000 0.000000 0.000000
# 3 -0.002541 -0.006211 0.012018 0.000000 0.000000 0.000000
# 4 0.000000 0.000000 0.000000 0.026824 0.000000 0.000000
# 5 0.000000 0.000000 0.000000 0.000000 -0.092466 0.000000
# 6 0.000000 0.000000 0.000000 0.000000 0.000000 0.101184
#
#
# Mechanical properties :
#
#
# Convention : Reuss Voigt Hill
#
# Bulk Modulus (GPa) = 105.69584 107.95409 106.82497
# Shear Modulus (GPa) = 44.91151 18.29919 31.60535
#
# Velocity S-wave (km/s) = 5.02387 3.20682 4.21444
# Velocity P-wave (km/s) = 9.64629 8.62435 9.14960
#
# Compressibility (1/GPa) = 0.00946111
#
# Stress axis : x y z
#
# Youngs Moduli (GPa) = 70.73088 67.15587 83.20551
#
# Poissons Ratio (x) = 0.47283 0.21142
# Poissons Ratio (y) = 0.49801 0.51681
# Poissons Ratio (z) = 0.17973 0.41712
#
# Static dielectric constant tensor:
#      x y z
#    x 1.591320 0.000000 0.000000 
#    y 0.000000 1.582730 0.000000 
#    z 0.000000 0.000000 1.588240 
# 
# From -- ./inp_files/26159.got.cif
#   From: 2010.05.17/outbox.cif.g08.bks.cpg/sg58_14_cif.got.tgz:26159.got - 2010.06.03 14:20:14.
