data_PCOD9445817
_publ_section_title
;
Structure prediction by ZEFSAII (Michael W. Deem and Ramdas Pophale) SiO2 
 PCOD9445817
Probable space group: P N N M
;
_chemical_formula_sum "Si O2"
_cell_formula_units_Z 32
_cell_length_a 5.018887
_cell_length_b 8.696460
_cell_length_c 30.302234
_cell_angle_alpha 90.000000
_cell_angle_beta 90.000000
_cell_angle_gamma 90.000000
_cell_volume 1322.587973
_symmetry_space_group_name_H-M "P N N M"
_symmetry_group_IT_number 58
_symmetry_cell_setting 'orthorhombic'
loop_
_space_group_symop_operation_xyz
x,y,z
-x,-y,z
1/2+x,1/2-y,1/2-z
1/2-x,1/2+y,1/2-z
-x,-y,-z
x,y,-z
1/2-x,1/2+y,1/2+z
1/2+x,1/2-y,1/2+z
loop_
_atom_site_type_symbol
_atom_site_label
_atom_site_fract_x
_atom_site_fract_y
_atom_site_fract_z
Si Si1 0.383938 0.670881 0.047305
Si Si2 0.258204 0.105261 0.091244
Si Si3 0.567942 0.824744 0.360424
Si Si4 0.099652 0.822513 0.772165
O O1 0.500000 0.500000 0.047268
O O2 0.621824 0.793806 0.051707
O O3 0.213601 0.680940 0.091989
O O4 0.243605 0.695143 0.000000
O O5 0.192918 0.225366 0.129443
O O6 0.500000 0.000000 0.105668
O O7 0.000000 0.000000 0.081712
O O8 0.699671 0.736186 0.319997
O O9 0.500000 0.000000 0.350081
O O10 0.345452 0.784433 0.740004
O O11 0.000000 0.000000 0.771763
#
# Coordination Sequence:
#
# PCOD9445817 Si02
#       4
#     8   8   8   8
#     4  11  26  48  77 114 158 212 270 320 382 463
#     4  12  26  46  73 111 152 201 254 321 387 448
#     4  12  26  48  81 112 157 207 263 319 389 462
#     4  12  29  52  83 119 156 200 257 322 394 471
#
# _framework density 24.194989
#
# number of rings (size 3 to 8) (size 9 to 14) (size 15 to 20)
#    0.000    0.250    5.000    3.000    3.500    3.500 
#    0.000    0.000    0.000    0.000    0.000    0.000 
#    0.000    0.000    0.000    0.000    0.000    0.000 
#
# Total GULP energy -179016.287721 kJ/mol
# GULP energy per Si atom -5594.258991 kJ/mol
# Density = 2.413992 g / cm^3
# Si number density = 24.194989 Si / 1000 Ang^3
#
#
#
# Elastic Constant Matrix: (Units=GPa)
#
#
# Indices 1 2 3 4 5 6 
#
# 1 118.6678 53.3026 37.3529 0.0000 0.0000 0.0000
# 2 53.3026 185.2874 42.3620 0.0000 0.0000 0.0000
# 3 37.3529 42.3620 155.1762 0.0000 0.0000 0.0000
# 4 0.0000 0.0000 0.0000 75.0046 0.0000 0.0000
# 5 0.0000 0.0000 0.0000 0.0000 34.9441 0.0000
# 6 0.0000 0.0000 0.0000 0.0000 0.0000 23.0606
#
#
#
# Elastic Compliance Matrix: (Units=1/GPa)
#
#
# Indices 1 2 3 4 5 6 
#
# 1 0.010103 -0.002507 -0.001748 0.000000 0.000000 0.000000
# 2 -0.002507 0.006378 -0.001138 0.000000 0.000000 0.000000
# 3 -0.001748 -0.001138 0.007176 0.000000 0.000000 0.000000
# 4 0.000000 0.000000 0.000000 0.013333 0.000000 0.000000
# 5 0.000000 0.000000 0.000000 0.000000 0.028617 0.000000
# 6 0.000000 0.000000 0.000000 0.000000 0.000000 0.043364
#
#
# Mechanical properties :
#
#
# Convention : Reuss Voigt Hill
#
# Bulk Modulus (GPa) = 77.68540 80.57405 79.12973
# Shear Modulus (GPa) = 40.30770 48.34279 44.32525
#
# Velocity S-wave (km/s) = 4.08604 4.47480 4.28483
# Velocity P-wave (km/s) = 7.37826 7.75066 7.56675
#
# Compressibility (1/GPa) = 0.01287243
#
# Stress axis : x y z
#
# Youngs Moduli (GPa) = 98.98079 156.78140 139.36185
#
# Poissons Ratio (x) = 0.39302 0.24354
# Poissons Ratio (y) = 0.24813 0.15857
# Poissons Ratio (z) = 0.17298 0.17839
#
# Static dielectric constant tensor:
#      x y z
#    x 2.075150 0.000000 0.000000 
#    y 0.000000 1.927170 0.000000 
#    z 0.000000 0.000000 2.001190 
# 
# From -- ./inp_files/33930.got.cif
#   From: 2010.05.17/outbox.cif.g08.bks.cpg/sg58_17_cif.got.tgz:33930.got - 2010.06.03 14:20:14.
