data_PCOD9445506
_publ_section_title
;
Structure prediction by ZEFSAII (Michael W. Deem and Ramdas Pophale) SiO2 
 PCOD9445506
Probable space group: P N N M
;
_chemical_formula_sum "Si O2"
_cell_formula_units_Z 52
_cell_length_a 20.080292
_cell_length_b 5.821869
_cell_length_c 20.333019
_cell_angle_alpha 90.000000
_cell_angle_beta 90.000000
_cell_angle_gamma 90.000000
_cell_volume 2377.028120
_symmetry_space_group_name_H-M "P N N M"
_symmetry_group_IT_number 58
_symmetry_cell_setting 'orthorhombic'
loop_
_space_group_symop_operation_xyz
x,y,z
-x,-y,z
1/2+x,1/2-y,1/2-z
1/2-x,1/2+y,1/2-z
-x,-y,-z
x,y,-z
1/2-x,1/2+y,1/2+z
1/2+x,1/2-y,1/2+z
loop_
_atom_site_type_symbol
_atom_site_label
_atom_site_fract_x
_atom_site_fract_y
_atom_site_fract_z
Si Si1 0.656631 0.115572 0.702059
Si Si2 0.250458 0.457349 0.000000
Si Si3 0.853782 0.191322 0.393381
Si Si4 0.261720 0.999839 0.172272
Si Si5 0.364892 0.291158 0.635465
Si Si6 0.077378 0.020037 0.266476
Si Si7 0.964438 0.249997 0.500000
Si Si8 0.829263 0.045920 0.000000
O O1 0.705493 0.303833 0.671936
O O2 0.599187 0.224169 0.747490
O O3 0.704515 0.003785 0.757084
O O4 0.623038 0.978831 0.642489
O O5 0.300055 0.444473 0.937198
O O6 0.213135 0.707120 0.000000
O O7 0.208647 0.206933 0.000000
O O8 0.818516 0.433042 0.377863
O O9 0.918281 0.238785 0.435972
O O10 0.875543 0.070812 0.325292
O O11 0.214856 0.792756 0.151855
O O12 0.404459 0.388504 0.698487
O O13 0.371663 0.421061 0.567043
O O14 0.000000 0.000000 0.283105
O O15 0.000000 0.500000 0.500000
O O16 0.000000 0.000000 0.500000
#
# Coordination Sequence:
#
# PCOD9445506 Si02
#       8
#     8   4   8   8   8   8   4   4
#     4  11  21  37  66  95 138 171 229 300 370 429
#     4  11  26  42  68 109 150 183 231 279 368 459
#     4  11  23  43  69 101 142 193 235 302 351 432
#     4  11  19  35  62 103 130 170 220 288 372 419
#     4  11  24  41  66  99 141 178 228 307 365 448
#     4  11  26  44  66  98 136 189 253 298 354 423
#     4  11  28  51  68  98 151 206 255 285 339 424
#     4  12  26  43  71 106 150 184 225 292 382 459
#
# _framework density 21.876055000000001
#
# number of rings (size 3 to 8) (size 9 to 14) (size 15 to 20)
#    0.000    0.923    4.615    2.308    4.308    5.538 
#    0.000    0.385    0.000    0.923    0.000    0.000 
#    0.000    0.000    0.000    0.000    0.000    0.000 
#
# Total GULP energy -289686.393232 kJ/mol
# GULP energy per Si atom -5570.892178 kJ/mol
# Density = 2.182626 g / cm^3
# Si number density = 21.876055 Si / 1000 Ang^3
#
#
#
# Elastic Constant Matrix: (Units=GPa)
#
#
# Indices 1 2 3 4 5 6 
#
# 1 21.9273 1.1685 2.5197 0.0000 0.0000 0.0000
# 2 1.1685 52.9691 5.5984 0.0000 0.0000 0.0000
# 3 2.5197 5.5984 112.3036 0.0000 0.0000 0.0000
# 4 0.0000 0.0000 0.0000 28.4232 0.0000 0.0000
# 5 0.0000 0.0000 0.0000 0.0000 38.7486 0.0000
# 6 0.0000 0.0000 0.0000 0.0000 0.0000 24.3663
#
#
#
# Elastic Compliance Matrix: (Units=1/GPa)
#
#
# Indices 1 2 3 4 5 6 
#
# 1 0.045766 -0.000906 -0.000982 0.000000 0.000000 0.000000
# 2 -0.000906 0.018997 -0.000927 0.000000 0.000000 0.000000
# 3 -0.000982 -0.000927 0.008973 0.000000 0.000000 0.000000
# 4 0.000000 0.000000 0.000000 0.035182 0.000000 0.000000
# 5 0.000000 0.000000 0.000000 0.000000 0.025807 0.000000
# 6 0.000000 0.000000 0.000000 0.000000 0.000000 0.041040
#
#
# Mechanical properties :
#
#
# Convention : Reuss Voigt Hill
#
# Bulk Modulus (GPa) = 14.68268 22.86369 18.77319
# Shear Modulus (GPa) = 24.49817 30.16852 27.33335
#
# Velocity S-wave (km/s) = 3.35006 3.71761 3.53861
# Velocity P-wave (km/s) = 4.65728 5.37602 5.02951
#
# Compressibility (1/GPa) = 0.06810745
#
# Stress axis : x y z
#
# Youngs Moduli (GPa) = 21.85011 52.64034 111.44974
#
# Poissons Ratio (x) = 0.04768 0.10941
# Poissons Ratio (y) = 0.01979 0.10328
# Poissons Ratio (z) = 0.02145 0.04878
#
# Static dielectric constant tensor:
#      x y z
#    x 1.816630 0.000000 0.000000 
#    y 0.000000 2.033860 0.000000 
#    z 0.000000 0.000000 1.847630 
# 
# From -- ./inp_files/30396.got.cif
#   From: 2010.05.17/outbox.cif.g08.bks.cpg/sg58_16_cif.got.tgz:30396.got - 2010.06.03 14:20:14.
