data_PCOD9445008
_publ_section_title
;
Structure prediction by ZEFSAII (Michael W. Deem and Ramdas Pophale) SiO2 
 PCOD9445008
Probable space group: P N N M
;
_chemical_formula_sum "Si O2"
_cell_formula_units_Z 56
_cell_length_a 8.450697
_cell_length_b 14.487328
_cell_length_c 20.429716
_cell_angle_alpha 90.000000
_cell_angle_beta 90.000000
_cell_angle_gamma 90.000000
_cell_volume 2501.169664
_symmetry_space_group_name_H-M "P N N M"
_symmetry_group_IT_number 58
_symmetry_cell_setting 'orthorhombic'
loop_
_space_group_symop_operation_xyz
x,y,z
-x,-y,z
1/2+x,1/2-y,1/2-z
1/2-x,1/2+y,1/2-z
-x,-y,-z
x,y,-z
1/2-x,1/2+y,1/2+z
1/2+x,1/2-y,1/2+z
loop_
_atom_site_type_symbol
_atom_site_label
_atom_site_fract_x
_atom_site_fract_y
_atom_site_fract_z
Si Si1 0.623485 0.165391 0.074278
Si Si2 0.316228 0.660518 0.305971
Si Si3 0.455818 0.098176 0.388017
Si Si4 0.345073 0.965389 0.191862
Si Si5 0.778099 0.140055 0.690713
Si Si6 0.894062 0.854828 0.344911
Si Si7 0.483355 0.299624 0.567770
O O1 0.586981 0.088266 0.128687
O O2 0.598682 0.265853 0.107271
O O3 0.812100 0.155286 0.067654
O O4 0.555959 0.158527 0.000000
O O5 0.249023 0.559309 0.318400
O O6 0.200641 0.748967 0.310296
O O7 0.382331 0.667791 0.232537
O O8 0.436336 0.675518 0.364827
O O9 0.606239 0.118284 0.340254
O O10 0.275807 0.096143 0.359177
O O11 0.457722 0.189622 0.431419
O O12 0.500000 0.000000 0.418569
O O13 0.238707 0.898195 0.235900
O O14 0.500000 0.000000 0.230684
O O15 0.930457 0.099758 0.652733
O O16 0.569575 0.325237 0.500000
#
# Coordination Sequence:
#
# PCOD9445008 Si02
#       7
#     8   8   8   8   8   8   8
#     4  10  22  42  66  95 138 185 227 278 344 417
#     4  11  23  36  65  97 127 175 222 278 339 405
#     4  10  22  39  62  94 127 167 223 277 335 395
#     4  12  24  40  64  98 135 175 227 283 345 408
#     4  11  23  40  62  95 137 167 216 282 337 395
#     4  11  22  40  66  94 133 177 223 276 342 402
#     4   9  21  41  63  91 133 178 222 278 344 408
#
# _framework density 22.389524000000002
#
# number of rings (size 3 to 8) (size 9 to 14) (size 15 to 20)
#    0.000    1.429    1.429    3.857    4.000    5.143 
#    0.000    7.143    0.000    0.000    0.000   12.000 
#    0.000    0.000    0.000    0.000    0.000    0.000 
#
# Total GULP energy -312158.412946 kJ/mol
# GULP energy per Si atom -5574.257374 kJ/mol
# Density = 2.233856 g / cm^3
# Si number density = 22.389524 Si / 1000 Ang^3
#
#
#
# Elastic Constant Matrix: (Units=GPa)
#
#
# Indices 1 2 3 4 5 6 
#
# 1 124.6459 21.5717 45.8458 0.0000 0.0000 0.0000
# 2 21.5717 65.2192 19.0834 0.0000 0.0000 0.0000
# 3 45.8458 19.0834 116.2960 0.0000 0.0000 0.0000
# 4 0.0000 0.0000 0.0000 18.2994 0.0000 0.0000
# 5 0.0000 0.0000 0.0000 0.0000 21.1681 0.0000
# 6 0.0000 0.0000 0.0000 0.0000 0.0000 29.5544
#
#
#
# Elastic Compliance Matrix: (Units=1/GPa)
#
#
# Indices 1 2 3 4 5 6 
#
# 1 0.009672 -0.002188 -0.003454 0.000000 0.000000 0.000000
# 2 -0.002188 0.016601 -0.001861 0.000000 0.000000 0.000000
# 3 -0.003454 -0.001861 0.010266 0.000000 0.000000 0.000000
# 4 0.000000 0.000000 0.000000 0.054647 0.000000 0.000000
# 5 0.000000 0.000000 0.000000 0.000000 0.047241 0.000000
# 6 0.000000 0.000000 0.000000 0.000000 0.000000 0.033836
#
#
# Mechanical properties :
#
#
# Convention : Reuss Voigt Hill
#
# Bulk Modulus (GPa) = 46.44306 53.24032 49.84169
# Shear Modulus (GPa) = 25.71398 28.44839 27.08118
#
# Velocity S-wave (km/s) = 3.39260 3.56843 3.48163
# Velocity P-wave (km/s) = 6.01121 6.38819 6.20256
#
# Compressibility (1/GPa) = 0.02153174
#
# Stress axis : x y z
#
# Youngs Moduli (GPa) = 103.39389 60.23576 97.41185
#
# Poissons Ratio (x) = 0.13182 0.33643
# Poissons Ratio (y) = 0.22627 0.18133
# Poissons Ratio (z) = 0.35709 0.11213
#
# Static dielectric constant tensor:
#      x y z
#    x 1.903220 0.000000 0.000000 
#    y 0.000000 1.841360 0.000000 
#    z 0.000000 0.000000 1.884550 
# 
# From -- ./inp_files/28937.got.cif
#   From: 2010.05.17/outbox.cif.g08.bks.cpg/sg58_15_cif.got.tgz:28937.got - 2010.06.03 14:20:14.
