data_PCOD9445784
_publ_section_title
;
Structure prediction by ZEFSAII (Michael W. Deem and Ramdas Pophale) SiO2 
 PCOD9445784
Probable space group: P N N M
;
_chemical_formula_sum "Si O2"
_cell_formula_units_Z 58
_cell_length_a 12.485462
_cell_length_b 7.847716
_cell_length_c 27.229592
_cell_angle_alpha 90.000000
_cell_angle_beta 90.000000
_cell_angle_gamma 90.000000
_cell_volume 2668.019683
_symmetry_space_group_name_H-M "P N N M"
_symmetry_group_IT_number 58
_symmetry_cell_setting 'orthorhombic'
loop_
_space_group_symop_operation_xyz
x,y,z
-x,-y,z
1/2+x,1/2-y,1/2-z
1/2-x,1/2+y,1/2-z
-x,-y,-z
x,y,-z
1/2-x,1/2+y,1/2+z
1/2+x,1/2-y,1/2+z
loop_
_atom_site_type_symbol
_atom_site_label
_atom_site_fract_x
_atom_site_fract_y
_atom_site_fract_z
Si Si1 0.944601 0.815797 0.325413
Si Si2 0.500000 0.500000 0.000000
Si Si3 0.258853 0.612986 0.622521
Si Si4 0.018079 0.301677 0.141327
Si Si5 0.528728 0.808071 0.921620
Si Si6 0.396207 0.379069 0.444824
Si Si7 0.285067 0.902671 0.222265
Si Si8 0.411034 0.201345 0.742390
O O1 0.833222 0.775107 0.298797
O O2 0.944041 0.733333 0.378696
O O3 0.020372 0.703462 0.291101
O O4 0.000000 0.000000 0.327264
O O5 0.480180 0.349682 0.041788
O O6 0.361064 0.738537 0.630790
O O7 0.147540 0.690898 0.603047
O O8 0.300162 0.484322 0.579888
O O9 0.239442 0.517429 0.674276
O O10 0.000000 0.500000 0.144073
O O11 0.939039 0.245697 0.097276
O O12 0.975967 0.239540 0.194338
O O13 0.500000 0.000000 0.939793
O O14 0.500000 0.500000 0.450096
O O15 0.370550 0.313950 0.500000
O O16 0.179377 0.843154 0.249179
O O17 0.359215 0.013285 0.258481
#
# Coordination Sequence:
#
# PCOD9445784 Si02
#       8
#     8   2   8   8   8   8   8   8
#     4  12  25  43  70  98 143 193 247 306 369 458
#     4  12  30  52  80 118 148 194 258 328 398 450
#     4  11  24  45  73  99 139 197 247 301 379 454
#     4  11  25  42  67 106 151 185 243 315 369 450
#     4  12  25  52  77 106 153 192 252 317 382 462
#     4   9  20  43  70  97 133 183 237 292 368 441
#     4  12  25  44  68 104 144 202 246 302 385 453
#     4  12  26  41  68 102 149 190 249 304 378 450
#
# _framework density 21.738969000000001
#
# number of rings (size 3 to 8) (size 9 to 14) (size 15 to 20)
#    0.000    0.690    4.828    2.276    6.759    1.379 
#    2.483    0.000    0.000    0.000    0.000    0.000 
#    0.000    0.000    0.000    0.000    0.000    0.000 
#
# Total GULP energy -323270.429254 kJ/mol
# GULP energy per Si atom -5573.628091 kJ/mol
# Density = 2.168949 g / cm^3
# Si number density = 21.738969 Si / 1000 Ang^3
#
#
#
# Elastic Constant Matrix: (Units=GPa)
#
#
# Indices 1 2 3 4 5 6 
#
# 1 60.0545 28.3934 17.5989 0.0000 0.0000 0.0000
# 2 28.3934 117.6111 22.3749 0.0000 0.0000 0.0000
# 3 17.5989 22.3749 111.8608 0.0000 0.0000 0.0000
# 4 0.0000 0.0000 0.0000 32.1303 0.0000 0.0000
# 5 0.0000 0.0000 0.0000 0.0000 -321.7234 0.0000
# 6 0.0000 0.0000 0.0000 0.0000 0.0000 35.4936
#
#
#
# Elastic Compliance Matrix: (Units=1/GPa)
#
#
# Indices 1 2 3 4 5 6 
#
# 1 0.019299 -0.004243 -0.002188 0.000000 0.000000 0.000000
# 2 -0.004243 0.009772 -0.001287 0.000000 0.000000 0.000000
# 3 -0.002188 -0.001287 0.009541 0.000000 0.000000 0.000000
# 4 0.000000 0.000000 0.000000 0.031123 0.000000 0.000000
# 5 0.000000 0.000000 0.000000 0.000000 -0.003108 0.000000
# 6 0.000000 0.000000 0.000000 0.000000 0.000000 0.028174
#
#
# Mechanical properties :
#
#
# Convention : Reuss Voigt Hill
#
# Bulk Modulus (GPa) = 43.14676 47.36232 45.25454
# Shear Modulus (GPa) = 42.38678 -36.07596 3.15541
#
# Velocity S-wave (km/s) = 4.42045 -4.07812 1.20609
# Velocity P-wave (km/s) = 6.77824 0.58367 4.77514
#
# Compressibility (1/GPa) = 0.02317671
#
# Stress axis : x y z
#
# Youngs Moduli (GPa) = 51.81719 102.33572 104.80765
#
# Poissons Ratio (x) = 0.43420 0.22927
# Poissons Ratio (y) = 0.21985 0.13489
# Poissons Ratio (z) = 0.11335 0.13171
#
# Static dielectric constant tensor:
#      x y z
#    x 1.855810 0.000000 0.000000 
#    y 0.000000 1.821020 0.000000 
#    z 0.000000 0.000000 1.804310 
# 
# From -- ./inp_files/33578.got.cif
#   From: 2010.05.17/outbox.cif.g08.bks.cpg/sg58_17_cif.got.tgz:33578.got - 2010.06.03 14:20:14.
