data_PCOD9445903
_publ_section_title
;
Structure prediction by ZEFSAII (Michael W. Deem and Ramdas Pophale) SiO2 
 PCOD9445903
Probable space group: P N N M
;
_chemical_formula_sum "Si O2"
_cell_formula_units_Z 64
_cell_length_a 24.000000
_cell_length_b 18.000000
_cell_length_c 9.000000
_cell_angle_alpha 90.000000
_cell_angle_beta 90.000000
_cell_angle_gamma 90.000000
_cell_volume 3888.000000
_symmetry_space_group_name_H-M "P N N M"
_symmetry_group_IT_number 58
_symmetry_cell_setting 'orthorhombic'
loop_
_space_group_symop_operation_xyz
x,y,z
-x,-y,z
1/2+x,1/2-y,1/2-z
1/2-x,1/2+y,1/2-z
-x,-y,-z
x,y,-z
1/2-x,1/2+y,1/2+z
1/2+x,1/2-y,1/2+z
loop_
_atom_site_type_symbol
_atom_site_label
_atom_site_fract_x
_atom_site_fract_y
_atom_site_fract_z
Si Si1 0.763623 0.651991 0.673268
Si Si2 0.905294 0.008326 0.678669
Si Si3 0.337625 0.739583 0.332580
Si Si4 0.273665 0.488551 0.829150
Si Si5 0.445514 0.332380 0.818915
Si Si6 0.264798 0.123833 0.165631
Si Si7 0.065178 0.153579 0.678883
Si Si8 0.164866 0.757379 0.675824
O O1 0.769043 0.663946 0.500000
O O2 0.815868 0.686138 0.757987
O O3 0.755261 0.567879 0.718984
O O4 0.708805 0.693936 0.734019
O O5 0.913289 0.008854 0.500000
O O6 0.930816 0.931532 0.733531
O O7 0.839342 0.008036 0.705109
O O8 0.931126 0.084599 0.734579
O O9 0.356403 0.751764 0.500000
O O10 0.284617 0.684376 0.336135
O O11 0.383959 0.699603 0.238135
O O12 0.247921 0.568015 0.796305
O O13 0.267587 0.465040 0.000000
O O14 0.507014 0.312088 0.771819
O O15 0.396518 0.278084 0.774785
O O16 0.445369 0.334552 0.000000
O O17 0.320023 0.171554 0.189353
O O18 0.265286 0.089346 0.000000
O O19 0.067436 0.151408 0.500000
O O20 0.171640 0.776803 0.500000
#
# Coordination Sequence:
#
# PCOD9445903 Si02
#       8
#     8   8   8   8   8   8   8   8
#     4  11  21  32  49  71  95 122 160 204 244 288
#     4   9  16  26  43  68  98 130 166 200 228 271
#     4  10  20  34  49  67  96 130 161 199 246 290
#     4  11  19  30  49  70  96 129 161 193 242 295
#     4   9  16  28  48  70  96 130 170 204 234 275
#     4   9  18  30  46  67  94 124 160 200 241 285
#     4  10  18  29  48  73  96 128 172 208 232 271
#     4   9  17  32  49  69  96 130 164 200 244 287
#
# _framework density 16.460905
#
# number of rings (size 3 to 8) (size 9 to 14) (size 15 to 20)
#    0.000    2.250    2.500    3.000    0.000    3.500 
#    0.000    0.625    0.000    0.750    0.000    0.875 
#    0.000    7.000    0.000    0.000    0.000    0.000 
#
# Total GULP energy -356369.007541 kJ/mol
# GULP energy per Si atom -5568.265743 kJ/mol
# Density = 1.642344 g / cm^3
# Si number density = 16.460905 Si / 1000 Ang^3
#
#
#
# Elastic Constant Matrix: (Units=GPa)
#
#
# Indices 1 2 3 4 5 6 
#
# 1 65.4284 2.4536 6.2848 0.0000 0.0000 0.0000
# 2 2.4536 -7.2907 10.4928 0.0000 0.0000 0.0000
# 3 6.2848 10.4928 3.2839 0.0000 0.0000 0.0000
# 4 0.0000 0.0000 0.0000 19.2325 0.0000 0.0000
# 5 0.0000 0.0000 0.0000 0.0000 14.3661 0.0000
# 6 0.0000 0.0000 0.0000 0.0000 0.0000 19.4304
#
#
#
# Elastic Compliance Matrix: (Units=1/GPa)
#
#
# Indices 1 2 3 4 5 6 
#
# 1 0.016390 -0.007078 -0.008751 0.000000 0.000000 0.000000
# 2 -0.007078 -0.021442 0.082060 0.000000 0.000000 0.000000
# 3 -0.008751 0.082060 0.059064 0.000000 0.000000 0.000000
# 4 0.000000 0.000000 0.000000 0.051995 0.000000 0.000000
# 5 0.000000 0.000000 0.000000 0.000000 0.069608 0.000000
# 6 0.000000 0.000000 0.000000 0.000000 0.000000 0.051466
#
#
# Mechanical properties :
#
#
# Convention : Reuss Voigt Hill
#
# Bulk Modulus (GPa) = 5.36268 11.09820 8.23044
# Shear Modulus (GPa) = 31.89259 13.41850 22.65555
#
# Velocity S-wave (km/s) = 4.40645 2.85822 3.71391
# Velocity P-wave (km/s) = 5.39944 4.20112 4.83753
#
# Compressibility (1/GPa) = 0.18647400
#
# Stress axis : x y z
#
# Youngs Moduli (GPa) = 61.01330 -46.63688 16.93082
#
# Poissons Ratio (x) = -0.33011 0.14816
# Poissons Ratio (y) = 0.43187 -1.38935
# Poissons Ratio (z) = 0.53391 3.82703
#
# Static dielectric constant tensor:
#      x y z
#    x 1.676370 0.000000 0.000000 
#    y 0.000000 1.577040 0.000000 
#    z 0.000000 0.000000 1.538860 
# 
# From -- ./inp_files/8481.got.cif
#   From: 2010.05.17/outbox.ucp.g08.bks.cvg/sg58_5_cif.got.tgz:8481.got - 2010.06.11 16:41:41.
