data_PCOD9445804
_publ_section_title
;
Structure prediction by ZEFSAII (Michael W. Deem and Ramdas Pophale) SiO2 
 PCOD9445804
Probable space group: P N N M
;
_chemical_formula_sum "Si O2"
_cell_formula_units_Z 24
_cell_length_a 5.155391
_cell_length_b 9.247754
_cell_length_c 19.796730
_cell_angle_alpha 90.000000
_cell_angle_beta 90.000000
_cell_angle_gamma 90.000000
_cell_volume 943.824697
_symmetry_space_group_name_H-M "P N N M"
_symmetry_group_IT_number 58
_symmetry_cell_setting 'orthorhombic'
loop_
_space_group_symop_operation_xyz
x,y,z
-x,-y,z
1/2+x,1/2-y,1/2-z
1/2-x,1/2+y,1/2-z
-x,-y,-z
x,y,-z
1/2-x,1/2+y,1/2+z
1/2+x,1/2-y,1/2+z
loop_
_atom_site_type_symbol
_atom_site_label
_atom_site_fract_x
_atom_site_fract_y
_atom_site_fract_z
Si Si1 0.403805 0.169237 0.277390
Si Si2 0.560772 0.833597 0.426788
Si Si3 0.254566 0.075007 0.920182
O O1 0.157376 0.228505 0.234932
O O2 0.304450 0.186729 0.355173
O O3 0.500000 0.000000 0.269186
O O4 0.677689 0.786990 0.500000
O O5 0.293520 0.744492 0.418791
O O6 0.500000 0.000000 0.431681
O O7 0.500000 0.000000 0.888358
O O8 0.257593 0.039861 0.000000
O O9 0.000000 0.000000 0.891239
#
# Coordination Sequence:
#
# PCOD9445804 Si02
#       3
#     8   8   8
#     4  11  25  46  71 100 138 184 231 282 344 414
#     4   9  20  41  68  98 132 173 225 283 340 401
#     4   9  18  33  54  84 121 158 199 251 313 378
#
# _framework density 25.428453999999999
#
# number of rings (size 3 to 8) (size 9 to 14) (size 15 to 20)
#    0.000    2.333    0.000    1.000    0.000    6.667 
#    0.000   10.000    0.000   27.000    0.000    0.000 
#    0.000    0.000    0.000    0.000    0.000    0.000 
#
# Total GULP energy -133875.611783 kJ/mol
# GULP energy per Si atom -5578.150491 kJ/mol
# Density = 2.537058 g / cm^3
# Si number density = 25.428454 Si / 1000 Ang^3
#
#
#
# Elastic Constant Matrix: (Units=GPa)
#
#
# Indices 1 2 3 4 5 6 
#
# 1 145.8459 68.1392 7.3935 0.0000 0.0000 0.0000
# 2 68.1392 217.4601 9.6113 0.0000 0.0000 0.0000
# 3 7.3935 9.6113 198.1990 0.0000 0.0000 0.0000
# 4 0.0000 0.0000 0.0000 49.3993 0.0000 0.0000
# 5 0.0000 0.0000 0.0000 0.0000 17.0803 0.0000
# 6 0.0000 0.0000 0.0000 0.0000 0.0000 25.8673
#
#
#
# Elastic Compliance Matrix: (Units=1/GPa)
#
#
# Indices 1 2 3 4 5 6 
#
# 1 0.008039 -0.002511 -0.000178 0.000000 0.000000 0.000000
# 2 -0.002511 0.005393 -0.000168 0.000000 0.000000 0.000000
# 3 -0.000178 -0.000168 0.005060 0.000000 0.000000 0.000000
# 4 0.000000 0.000000 0.000000 0.020243 0.000000 0.000000
# 5 0.000000 0.000000 0.000000 0.000000 0.058547 0.000000
# 6 0.000000 0.000000 0.000000 0.000000 0.000000 0.038659
#
#
# Mechanical properties :
#
#
# Convention : Reuss Voigt Hill
#
# Bulk Modulus (GPa) = 78.26064 81.31034 79.78549
# Shear Modulus (GPa) = 34.26676 50.22678 42.24677
#
# Velocity S-wave (km/s) = 3.67492 4.44917 4.08045
# Velocity P-wave (km/s) = 6.98930 7.64454 7.32425
#
# Compressibility (1/GPa) = 0.01277781
#
# Stress axis : x y z
#
# Youngs Moduli (GPa) = 124.39794 185.43380 197.62000
#
# Poissons Ratio (x) = 0.46562 0.03520
# Poissons Ratio (y) = 0.31236 0.03317
# Poissons Ratio (z) = 0.02216 0.03112
#
# Static dielectric constant tensor:
#      x y z
#    x 1.932090 0.000000 0.000000 
#    y 0.000000 2.098080 0.000000 
#    z 0.000000 0.000000 2.090200 
# 
# From -- ./inp_files/30685.got.cif
#   From: 2010.05.17/outbox.cif.g08.bks.cpg/sg58_16_cif.got.tgz:30685.got - 2010.06.03 14:20:14.
