data_PCOD9445389
_publ_section_title
;
Structure prediction by ZEFSAII (Michael W. Deem and Ramdas Pophale) SiO2 
 PCOD9445389
Probable space group: P N N M
;
_chemical_formula_sum "Si O2"
_cell_formula_units_Z 64
_cell_length_a 17.369144
_cell_length_b 9.486349
_cell_length_c 22.135929
_cell_angle_alpha 90.000000
_cell_angle_beta 90.000000
_cell_angle_gamma 90.000000
_cell_volume 3647.331749
_symmetry_space_group_name_H-M "P N N M"
_symmetry_group_IT_number 58
_symmetry_cell_setting 'orthorhombic'
loop_
_space_group_symop_operation_xyz
x,y,z
-x,-y,z
1/2+x,1/2-y,1/2-z
1/2-x,1/2+y,1/2-z
-x,-y,-z
x,y,-z
1/2-x,1/2+y,1/2+z
1/2+x,1/2-y,1/2+z
loop_
_atom_site_type_symbol
_atom_site_label
_atom_site_fract_x
_atom_site_fract_y
_atom_site_fract_z
Si Si1 0.097505 0.248280 0.241719
Si Si2 0.924094 0.411127 0.375711
Si Si3 0.919395 0.275728 0.751562
Si Si4 0.312127 0.857706 0.141112
Si Si5 0.804719 0.027455 0.237280
Si Si6 0.571740 0.595998 0.927288
Si Si7 0.337188 0.008365 0.672193
Si Si8 0.726911 0.425739 0.928094
O O1 0.128329 0.299058 0.307639
O O2 0.144234 0.108801 0.225399
O O3 0.118506 0.369042 0.193442
O O4 0.006569 0.224388 0.243409
O O5 0.917541 0.385431 0.303753
O O6 0.852512 0.510942 0.392110
O O7 0.928940 0.255435 0.403366
O O8 0.000000 0.500000 0.390029
O O9 0.890105 0.359332 0.810228
O O10 0.859940 0.150566 0.738520
O O11 0.289794 0.729984 0.097824
O O12 0.239384 0.913821 0.178807
O O13 0.738508 0.985771 0.284734
O O14 0.500000 0.500000 0.904874
O O15 0.652092 0.520156 0.912021
O O16 0.565865 0.601521 0.000000
O O17 0.302167 0.015044 0.605695
O O18 0.734732 0.424207 0.000000
#
# Coordination Sequence:
#
# PCOD9445389 Si02
#       8
#     8   8   8   8   8   8   8   8
#     4  11  22  35  57  88 124 154 187 249 309 366
#     4  12  22  35  58  86 121 160 197 240 296 358
#     4  12  21  36  55  90 122 153 192 240 307 373
#     4  11  22  37  56  89 120 155 201 245 302 354
#     4  11  21  34  58  87 120 155 193 243 308 356
#     4  10  24  41  59  84 117 163 210 249 287 345
#     4  11  20  38  58  84 119 154 195 252 297 356
#     4  11  23  42  63  84 117 164 210 249 294 359
#
# _framework density 17.547073999999999
#
# number of rings (size 3 to 8) (size 9 to 14) (size 15 to 20)
#    0.000    0.875    6.250    3.000    1.750    0.750 
#    0.000    0.000    0.000    1.500    0.000    0.875 
#    0.000    0.000    0.000    0.000    0.000    0.000 
#
# Total GULP energy -357616.060781 kJ/mol
# GULP energy per Si atom -5587.750950 kJ/mol
# Density = 1.750714 g / cm^3
# Si number density = 17.547074 Si / 1000 Ang^3
#
#
#
# Elastic Constant Matrix: (Units=GPa)
#
#
# Indices 1 2 3 4 5 6 
#
# 1 57.9799 2.8438 -3.6831 0.0000 0.0000 0.0000
# 2 2.8438 78.2036 4.2996 0.0000 0.0000 0.0000
# 3 -3.6831 4.2996 40.1790 0.0000 0.0000 0.0000
# 4 0.0000 0.0000 0.0000 20.0527 0.0000 0.0000
# 5 0.0000 0.0000 0.0000 0.0000 14.6148 0.0000
# 6 0.0000 0.0000 0.0000 0.0000 0.0000 27.6359
#
#
#
# Elastic Compliance Matrix: (Units=1/GPa)
#
#
# Indices 1 2 3 4 5 6 
#
# 1 0.017389 -0.000724 0.001672 0.000000 0.000000 0.000000
# 2 -0.000724 0.012893 -0.001446 0.000000 0.000000 0.000000
# 3 0.001672 -0.001446 0.025197 0.000000 0.000000 0.000000
# 4 0.000000 0.000000 0.000000 0.049868 0.000000 0.000000
# 5 0.000000 0.000000 0.000000 0.000000 0.068424 0.000000
# 6 0.000000 0.000000 0.000000 0.000000 0.000000 0.036185
#
#
# Mechanical properties :
#
#
# Convention : Reuss Voigt Hill
#
# Bulk Modulus (GPa) = 18.35501 20.36478 19.35989
# Shear Modulus (GPa) = 21.82322 23.98750 22.90536
#
# Velocity S-wave (km/s) = 3.53043 3.70136 3.61690
# Velocity P-wave (km/s) = 5.20593 5.46788 5.33851
#
# Compressibility (1/GPa) = 0.05448105
#
# Stress axis : x y z
#
# Youngs Moduli (GPa) = 57.50740 77.56167 39.68789
#
# Poissons Ratio (x) = 0.05617 -0.06634
# Poissons Ratio (y) = 0.04165 0.05739
# Poissons Ratio (z) = -0.09612 0.11216
#
# Static dielectric constant tensor:
#      x y z
#    x 1.599530 0.000000 0.000000 
#    y 0.000000 1.613500 0.000000 
#    z 0.000000 0.000000 1.592820 
# 
# From -- ./inp_files/30275.got.cif
#   From: 2010.05.17/outbox.cif.g08.bks.cpg/sg58_16_cif.got.tgz:30275.got - 2010.06.03 14:20:14.
