data_PCOD9445650
_publ_section_title
;
Structure prediction by ZEFSAII (Michael W. Deem and Ramdas Pophale) SiO2 
 PCOD9445650
Probable space group: P N N M
;
_chemical_formula_sum "Si O2"
_cell_formula_units_Z 44
_cell_length_a 13.836566
_cell_length_b 7.370159
_cell_length_c 17.791730
_cell_angle_alpha 90.000000
_cell_angle_beta 90.000000
_cell_angle_gamma 90.000000
_cell_volume 1814.359552
_symmetry_space_group_name_H-M "P N N M"
_symmetry_group_IT_number 58
_symmetry_cell_setting 'orthorhombic'
loop_
_space_group_symop_operation_xyz
x,y,z
-x,-y,z
1/2+x,1/2-y,1/2-z
1/2-x,1/2+y,1/2-z
-x,-y,-z
x,y,-z
1/2-x,1/2+y,1/2+z
1/2+x,1/2-y,1/2+z
loop_
_atom_site_type_symbol
_atom_site_label
_atom_site_fract_x
_atom_site_fract_y
_atom_site_fract_z
Si Si1 0.552839 0.242681 0.717515
Si Si2 0.494449 0.722451 0.112902
Si Si3 0.352386 0.361825 0.712237
Si Si4 0.170318 0.686114 0.500000
Si Si5 0.779086 0.754311 0.418301
Si Si6 0.761822 0.658078 0.136131
O O1 0.519973 0.205137 0.802608
O O2 0.447731 0.261823 0.680706
O O3 0.609142 0.434775 0.723079
O O4 0.632173 0.130260 0.672677
O O5 0.500000 0.500000 0.114458
O O6 0.584587 0.791092 0.065396
O O7 0.392807 0.779726 0.077565
O O8 0.268652 0.342605 0.651925
O O9 0.308177 0.302912 0.792503
O O10 0.251737 0.700979 0.431778
O O11 0.738290 0.705389 0.500000
O O12 0.768353 0.968409 0.402434
#
# Coordination Sequence:
#
# PCOD9445650 Si02
#       6
#     8   8   8   4   8   8
#     4  11  22  40  63  90 126 175 218 255 321 396
#     4  12  17  34  68  96 122 158 211 265 321 380
#     4  11  22  42  64  92 128 178 219 258 321 406
#     4  12  21  34  66 107 130 152 218 283 329 372
#     4  12  23  39  64 100 127 163 216 275 323 380
#     4  12  21  38  67 100 130 165 212 278 331 381
#
# _framework density 24.250980999999999
#
# number of rings (size 3 to 8) (size 9 to 14) (size 15 to 20)
#    0.000    0.364   10.909    0.273    0.000    0.727 
#    3.273    1.818    0.000    2.182    0.000    0.000 
#    0.000    0.000    0.000    0.000    0.000    0.000 
#
# Total GULP energy -245104.896177 kJ/mol
# GULP energy per Si atom -5570.565822 kJ/mol
# Density = 2.419578 g / cm^3
# Si number density = 24.250981 Si / 1000 Ang^3
#
#
#
# Elastic Constant Matrix: (Units=GPa)
#
#
# Indices 1 2 3 4 5 6 
#
# 1 251.9034 -85.9435 82.6005 0.0000 0.0000 0.0000
# 2 -85.9435 142.0939 -6.3850 0.0000 0.0000 0.0000
# 3 82.6005 -6.3850 198.3271 0.0000 0.0000 0.0000
# 4 0.0000 0.0000 0.0000 191.4158 0.0000 0.0000
# 5 0.0000 0.0000 0.0000 0.0000 106.3438 0.0000
# 6 0.0000 0.0000 0.0000 0.0000 0.0000 20.4472
#
#
#
# Elastic Compliance Matrix: (Units=1/GPa)
#
#
# Indices 1 2 3 4 5 6 
#
# 1 0.005931 0.003481 -0.002358 0.000000 0.000000 0.000000
# 2 0.003481 0.009091 -0.001157 0.000000 0.000000 0.000000
# 3 -0.002358 -0.001157 0.005987 0.000000 0.000000 0.000000
# 4 0.000000 0.000000 0.000000 0.005224 0.000000 0.000000
# 5 0.000000 0.000000 0.000000 0.000000 0.009403 0.000000
# 6 0.000000 0.000000 0.000000 0.000000 0.000000 0.048906
#
#
# Mechanical properties :
#
#
# Convention : Reuss Voigt Hill
#
# Bulk Modulus (GPa) = 47.75388 63.65206 55.70297
# Shear Modulus (GPa) = 54.59043 103.77818 79.18430
#
# Velocity S-wave (km/s) = 4.74968 6.54876 5.72039
# Velocity P-wave (km/s) = 7.05787 9.13706 8.16393
#
# Compressibility (1/GPa) = 0.02094071
#
# Stress axis : x y z
#
# Youngs Moduli (GPa) = 168.61605 109.99766 167.02917
#
# Poissons Ratio (x) = -0.38291 0.39385
# Poissons Ratio (y) = -0.58697 0.19328
# Poissons Ratio (z) = 0.39759 0.12728
#
# Static dielectric constant tensor:
#      x y z
#    x 1.925170 0.000000 0.000000 
#    y 0.000000 2.177420 0.000000 
#    z 0.000000 0.000000 1.915120 
# 
# From -- ./inp_files/26756.got.cif
#   From: 2010.05.17/outbox.cif.g08.bks.cpg/sg58_14_cif.got.tgz:26756.got - 2010.06.03 14:20:14.
