data_PCOD9445574
_publ_section_title
;
Structure prediction by ZEFSAII (Michael W. Deem and Ramdas Pophale) SiO2 
 PCOD9445574
Probable space group: P N N M
;
_chemical_formula_sum "Si O2"
_cell_formula_units_Z 48
_cell_length_a 7.755902
_cell_length_b 13.302268
_cell_length_c 23.205412
_cell_angle_alpha 90.000000
_cell_angle_beta 90.000000
_cell_angle_gamma 90.000000
_cell_volume 2394.127580
_symmetry_space_group_name_H-M "P N N M"
_symmetry_group_IT_number 58
_symmetry_cell_setting 'orthorhombic'
loop_
_space_group_symop_operation_xyz
x,y,z
-x,-y,z
1/2+x,1/2-y,1/2-z
1/2-x,1/2+y,1/2-z
-x,-y,-z
x,y,-z
1/2-x,1/2+y,1/2+z
1/2+x,1/2-y,1/2+z
loop_
_atom_site_type_symbol
_atom_site_label
_atom_site_fract_x
_atom_site_fract_y
_atom_site_fract_z
Si Si1 0.829870 0.094614 0.656585
Si Si2 0.141837 0.217662 0.295665
Si Si3 0.812954 0.445803 0.935542
Si Si4 0.342466 0.950664 0.230720
Si Si5 0.625262 0.405865 0.676862
Si Si6 0.480546 0.218122 0.367648
O O1 0.806035 0.051517 0.720961
O O2 0.657362 0.159082 0.644763
O O3 0.996998 0.167003 0.662884
O O4 0.808349 0.004693 0.610131
O O5 0.122936 0.337952 0.289607
O O6 0.126969 0.165356 0.233372
O O7 0.337997 0.206335 0.317386
O O8 0.870849 0.332971 0.918745
O O9 0.000000 0.500000 0.934654
O O10 0.740999 0.451498 0.000000
O O11 0.500000 0.000000 0.264420
O O12 0.303658 0.032162 0.180643
O O13 0.500000 0.500000 0.678950
O O14 0.549208 0.332058 0.628340
#
# Coordination Sequence:
#
# PCOD9445574 Si02
#       6
#     8   8   8   8   8   8
#     4  11  21  36  58  83 116 156 196 240 298 352
#     4  12  23  36  54  86 120 158 200 231 287 366
#     4   9  20  39  63  88 114 150 200 254 308 351
#     4  12  23  35  55  81 122 163 197 233 291 362
#     4  12  22  35  50  80 118 155 194 235 282 357
#     4  11  22  37  56  81 116 154 194 243 293 350
#
# _framework density 20.049057000000001
#
# number of rings (size 3 to 8) (size 9 to 14) (size 15 to 20)
#    0.000    0.833    5.000    4.500    0.000    0.000 
#    0.000    1.667    0.000    0.500    0.000    0.000 
#    0.000    7.333    0.000    0.000    0.000    0.000 
#
# Total GULP energy -267389.551991 kJ/mol
# GULP energy per Si atom -5570.615666 kJ/mol
# Density = 2.000342 g / cm^3
# Si number density = 20.049057 Si / 1000 Ang^3
#
#
#
# Elastic Constant Matrix: (Units=GPa)
#
#
# Indices 1 2 3 4 5 6 
#
# 1 103.1930 55.8582 13.2667 0.0000 0.0000 0.0000
# 2 55.8582 171.7104 57.7019 0.0000 0.0000 0.0000
# 3 13.2667 57.7019 60.1664 0.0000 0.0000 0.0000
# 4 0.0000 0.0000 0.0000 13.8720 0.0000 0.0000
# 5 0.0000 0.0000 0.0000 0.0000 5.7102 0.0000
# 6 0.0000 0.0000 0.0000 0.0000 0.0000 45.4866
#
#
#
# Elastic Compliance Matrix: (Units=1/GPa)
#
#
# Indices 1 2 3 4 5 6 
#
# 1 0.011865 -0.004398 0.001602 0.000000 0.000000 0.000000
# 2 -0.004398 0.010223 -0.008835 0.000000 0.000000 0.000000
# 3 0.001602 -0.008835 0.024740 0.000000 0.000000 0.000000
# 4 0.000000 0.000000 0.000000 0.072088 0.000000 0.000000
# 5 0.000000 0.000000 0.000000 0.000000 0.175126 0.000000
# 6 0.000000 0.000000 0.000000 0.000000 0.000000 0.021984
#
#
# Mechanical properties :
#
#
# Convention : Reuss Voigt Hill
#
# Bulk Modulus (GPa) = 42.43314 65.41370 53.92342
# Shear Modulus (GPa) = 14.40319 26.89662 20.64991
#
# Velocity S-wave (km/s) = 2.68320 3.66668 3.21279
# Velocity P-wave (km/s) = 5.55068 7.11503 6.38098
#
# Compressibility (1/GPa) = 0.02356649
#
# Stress axis : x y z
#
# Youngs Moduli (GPa) = 84.27919 97.81554 40.41982
#
# Poissons Ratio (x) = 0.43020 -0.06474
# Poissons Ratio (y) = 0.37066 0.35710
# Poissons Ratio (z) = -0.13498 0.86418
#
# Static dielectric constant tensor:
#      x y z
#    x 1.929230 0.000000 0.000000 
#    y 0.000000 1.799900 0.000000 
#    z 0.000000 0.000000 1.717360 
# 
# From -- ./inp_files/31465.got.cif
#   From: 2010.05.17/outbox.cif.g08.bks.cpg/sg58_16_cif.got.tgz:31465.got - 2010.06.03 14:20:14.
