data_PCOD9445033
_publ_section_title
;
Structure prediction by ZEFSAII (Michael W. Deem and Ramdas Pophale) SiO2 
 PCOD9445033
Probable space group: P N N M
;
_chemical_formula_sum "Si O2"
_cell_formula_units_Z 38
_cell_length_a 9.192316
_cell_length_b 12.042751
_cell_length_c 17.654272
_cell_angle_alpha 90.000000
_cell_angle_beta 90.000000
_cell_angle_gamma 90.000000
_cell_volume 1954.341552
_symmetry_space_group_name_H-M "P N N M"
_symmetry_group_IT_number 58
_symmetry_cell_setting 'orthorhombic'
loop_
_space_group_symop_operation_xyz
x,y,z
-x,-y,z
1/2+x,1/2-y,1/2-z
1/2-x,1/2+y,1/2-z
-x,-y,-z
x,y,-z
1/2-x,1/2+y,1/2+z
1/2+x,1/2-y,1/2+z
loop_
_atom_site_type_symbol
_atom_site_label
_atom_site_fract_x
_atom_site_fract_y
_atom_site_fract_z
Si Si1 0.525423 0.681784 0.753503
Si Si2 0.500000 0.000000 0.500000
Si Si3 0.737516 0.484728 0.255764
Si Si4 0.919696 0.740911 0.416247
Si Si5 0.500000 0.000000 0.870505
Si Si6 0.121750 0.648109 0.869267
O O1 0.389775 0.604693 0.730032
O O2 0.668593 0.606556 0.744391
O O3 0.501780 0.712613 0.841611
O O4 0.539000 0.784852 0.696860
O O5 0.473894 0.095573 0.565744
O O6 0.798754 0.453239 0.173765
O O7 0.863368 0.473280 0.316771
O O8 0.961620 0.785155 0.500000
O O9 0.750871 0.773840 0.402379
O O10 0.952143 0.609776 0.414933
#
# Coordination Sequence:
#
# PCOD9445033 Si02
#       6
#     8   2   8   8   4   8
#     4  10  22  42  67  92 133 172 220 272 331 396
#     4  12  26  40  62  98 134 178 216 270 332 402
#     4  10  22  39  67  99 122 171 227 266 320 404
#     4  11  23  41  64  98 134 172 220 288 333 388
#     4  12  20  38  69  93 130 168 226 274 332 401
#     4  11  22  41  65  93 135 176 221 272 332 402
#
# _framework density 19.443888000000001
#
# number of rings (size 3 to 8) (size 9 to 14) (size 15 to 20)
#    0.000    1.263    5.263    0.947    0.000    0.000 
#    1.895    2.105    2.316    2.526    0.000    0.000 
#    0.000    0.000    0.000    0.000    0.000    0.000 
#
# Total GULP energy -211578.930816 kJ/mol
# GULP energy per Si atom -5567.866600 kJ/mol
# Density = 1.939963 g / cm^3
# Si number density = 19.443888 Si / 1000 Ang^3
#
#
#
# Elastic Constant Matrix: (Units=GPa)
#
#
# Indices 1 2 3 4 5 6 
#
# 1 53.8043 25.4264 50.7171 0.0000 0.0000 0.0000
# 2 25.4264 90.7176 59.4327 0.0000 0.0000 0.0000
# 3 50.7171 59.4327 159.5688 0.0000 0.0000 0.0000
# 4 0.0000 0.0000 0.0000 -7.5013 0.0000 0.0000
# 5 0.0000 0.0000 0.0000 0.0000 0.3175 0.0000
# 6 0.0000 0.0000 0.0000 0.0000 0.0000 21.5874
#
#
#
# Elastic Compliance Matrix: (Units=1/GPa)
#
#
# Indices 1 2 3 4 5 6 
#
# 1 0.026982 -0.002572 -0.007618 0.000000 0.000000 0.000000
# 2 -0.002572 0.014826 -0.004705 0.000000 0.000000 0.000000
# 3 -0.007618 -0.004705 0.010441 0.000000 0.000000 0.000000
# 4 0.000000 0.000000 0.000000 -0.133311 0.000000 0.000000
# 5 0.000000 0.000000 0.000000 0.000000 3.149595 0.000000
# 6 0.000000 0.000000 0.000000 0.000000 0.000000 0.046323
#
#
# Mechanical properties :
#
#
# Convention : Reuss Voigt Hill
#
# Bulk Modulus (GPa) = 44.52384 63.91590 54.21987
# Shear Modulus (GPa) = 1.58623 14.11502 7.85062
#
# Velocity S-wave (km/s) = 0.90419 2.69724 2.01155
# Velocity P-wave (km/s) = 4.90290 6.53020 5.77416
#
# Compressibility (1/GPa) = 0.02245988
#
# Stress axis : x y z
#
# Youngs Moduli (GPa) = 37.06142 67.44765 95.78010
#
# Poissons Ratio (x) = 0.17345 0.72967
# Poissons Ratio (y) = 0.09531 0.45063
# Poissons Ratio (z) = 0.28234 0.31733
#
# Static dielectric constant tensor:
#      x y z
#    x 1.699240 0.000000 0.000000 
#    y 0.000000 1.696420 0.000000 
#    z 0.000000 0.000000 1.664060 
# 
# From -- ./inp_files/24985.got.cif
#   From: 2010.05.17/outbox.cif.g08.bks.cpg/sg58_13_cif.got.tgz:24985.got - 2010.06.03 14:20:14.
