data_PCOD9445723
_publ_section_title
;
Structure prediction by ZEFSAII (Michael W. Deem and Ramdas Pophale) SiO2 
 PCOD9445723
Probable space group: P N N M
;
_chemical_formula_sum "Si O2"
_cell_formula_units_Z 32
_cell_length_a 6.669693
_cell_length_b 16.269235
_cell_length_c 12.095799
_cell_angle_alpha 90.000000
_cell_angle_beta 90.000000
_cell_angle_gamma 90.000000
_cell_volume 1312.524860
_symmetry_space_group_name_H-M "P N N M"
_symmetry_group_IT_number 58
_symmetry_cell_setting 'orthorhombic'
loop_
_space_group_symop_operation_xyz
x,y,z
-x,-y,z
1/2+x,1/2-y,1/2-z
1/2-x,1/2+y,1/2-z
-x,-y,-z
x,y,-z
1/2-x,1/2+y,1/2+z
1/2+x,1/2-y,1/2+z
loop_
_atom_site_type_symbol
_atom_site_label
_atom_site_fract_x
_atom_site_fract_y
_atom_site_fract_z
Si Si1 0.453322 0.639045 0.204505
Si Si2 0.603341 0.765854 0.379990
Si Si3 0.641001 0.073688 0.318418
Si Si4 0.266005 0.523220 0.623775
O O1 0.574131 0.699542 0.285302
O O2 0.323320 0.694540 0.123946
O O3 0.452872 0.841087 0.356648
O O4 0.622108 0.579969 0.152443
O O5 0.561339 0.728708 0.500000
O O6 0.788598 0.906357 0.217214
O O7 0.500000 0.000000 0.364094
O O8 0.655880 0.052513 0.186002
O O9 0.500000 0.500000 0.612981
O O10 0.196033 0.543683 0.500000
#
# Coordination Sequence:
#
# PCOD9445723 Si02
#       4
#     8   8   8   8
#     4  11  23  47  66 100 138 175 237 287 337 418
#     4  12  26  45  71 100 138 186 228 283 350 410
#     4  11  23  43  68 102 141 173 228 285 335 420
#     4   9  19  38  67  98 133 177 223 285 340 382
#
# _framework density 24.380490000000002
#
# number of rings (size 3 to 8) (size 9 to 14) (size 15 to 20)
#    0.000    1.250    5.000    0.750    0.000    3.000 
#    0.000    1.250    0.000    0.000    0.000    0.000 
#    0.000    0.000    0.000    0.000    0.000    0.000 
#
# Total GULP energy -178608.480176 kJ/mol
# GULP energy per Si atom -5581.515006 kJ/mol
# Density = 2.432500 g / cm^3
# Si number density = 24.380490 Si / 1000 Ang^3
#
#
#
# Elastic Constant Matrix: (Units=GPa)
#
#
# Indices 1 2 3 4 5 6 
#
# 1 124.0817 26.7396 15.6654 0.0000 0.0000 0.0000
# 2 26.7396 71.7336 -2.3778 0.0000 0.0000 0.0000
# 3 15.6654 -2.3778 89.9103 0.0000 0.0000 0.0000
# 4 0.0000 0.0000 0.0000 5.7714 0.0000 0.0000
# 5 0.0000 0.0000 0.0000 0.0000 11.9196 0.0000
# 6 0.0000 0.0000 0.0000 0.0000 0.0000 54.7493
#
#
#
# Elastic Compliance Matrix: (Units=1/GPa)
#
#
# Indices 1 2 3 4 5 6 
#
# 1 0.009004 -0.003411 -0.001659 0.000000 0.000000 0.000000
# 2 -0.003411 0.015245 0.000998 0.000000 0.000000 0.000000
# 3 -0.001659 0.000998 0.011438 0.000000 0.000000 0.000000
# 4 0.000000 0.000000 0.000000 0.173268 0.000000 0.000000
# 5 0.000000 0.000000 0.000000 0.000000 0.083895 0.000000
# 6 0.000000 0.000000 0.000000 0.000000 0.000000 0.018265
#
#
# Mechanical properties :
#
#
# Convention : Reuss Voigt Hill
#
# Bulk Modulus (GPa) = 36.30933 40.64222 38.47577
# Shear Modulus (GPa) = 15.22346 30.86797 23.04571
#
# Velocity S-wave (km/s) = 2.50153 3.56208 3.07783
# Velocity P-wave (km/s) = 4.82376 5.79863 5.33351
#
# Compressibility (1/GPa) = 0.02754113
#
# Stress axis : x y z
#
# Youngs Moduli (GPa) = 111.06452 65.59478 87.43071
#
# Poissons Ratio (x) = 0.22376 0.14505
# Poissons Ratio (y) = 0.37887 -0.08722
# Poissons Ratio (z) = 0.18425 -0.06543
#
# Static dielectric constant tensor:
#      x y z
#    x 2.055050 0.000000 0.000000 
#    y 0.000000 1.948790 0.000000 
#    z 0.000000 0.000000 1.911920 
# 
# From -- ./inp_files/12347.got.cif
#   From: 2010.05.17/outbox.cif.g08.bks.cpg/sg58_7_cif.got.tgz:12347.got - 2010.06.03 14:20:14.
