data_PCOD9445193
_publ_section_title
;
Structure prediction by ZEFSAII (Michael W. Deem and Ramdas Pophale) SiO2 
 PCOD9445193
Probable space group: P N N M
;
_chemical_formula_sum "Si O2"
_cell_formula_units_Z 64
_cell_length_a 9.358578
_cell_length_b 11.336410
_cell_length_c 30.158416
_cell_angle_alpha 90.000000
_cell_angle_beta 90.000000
_cell_angle_gamma 90.000000
_cell_volume 3199.587094
_symmetry_space_group_name_H-M "P N N M"
_symmetry_group_IT_number 58
_symmetry_cell_setting 'orthorhombic'
loop_
_space_group_symop_operation_xyz
x,y,z
-x,-y,z
1/2+x,1/2-y,1/2-z
1/2-x,1/2+y,1/2-z
-x,-y,-z
x,y,-z
1/2-x,1/2+y,1/2+z
1/2+x,1/2-y,1/2+z
loop_
_atom_site_type_symbol
_atom_site_label
_atom_site_fract_x
_atom_site_fract_y
_atom_site_fract_z
Si Si1 0.828197 0.996912 0.739419
Si Si2 0.085263 0.792547 0.686247
Si Si3 0.008183 0.641017 0.551712
Si Si4 0.820019 0.763511 0.373613
Si Si5 0.167458 0.971066 0.839945
Si Si6 0.022675 0.640037 0.870335
Si Si7 0.729445 0.309055 0.393608
Si Si8 0.563373 0.868624 0.729164
O O1 0.811241 0.106440 0.706216
O O2 0.776842 0.006571 0.790090
O O3 0.733728 0.888151 0.723393
O O4 0.000000 0.000000 0.739913
O O5 0.180082 0.726902 0.649993
O O6 0.039563 0.714876 0.728899
O O7 0.942117 0.821445 0.657906
O O8 0.977488 0.658027 0.500000
O O9 0.165204 0.689756 0.564730
O O10 0.000000 0.500000 0.561149
O O11 0.900669 0.710102 0.583906
O O12 0.737228 0.653876 0.350866
O O13 0.686233 0.844582 0.385565
O O14 0.199189 0.055873 0.881234
O O15 0.000000 0.000000 0.834612
O O16 0.010198 0.677561 0.818175
O O17 0.000000 0.500000 0.872232
O O18 0.908337 0.723692 0.895283
O O19 0.500000 0.000000 0.736011
#
# Coordination Sequence:
#
# PCOD9445193 Si02
#       8
#     8   8   8   8   8   8   8   8
#     4  11  23  35  50  78 119 163 216 257 286 345
#     4  11  23  34  54  83 118 171 212 255 307 348
#     4  10  22  42  70 102 129 149 188 257 335 405
#     4  11  22  38  64  89 125 161 206 258 315 382
#     4  11  20  35  57  88 126 164 208 258 316 366
#     4  11  24  40  60  87 124 176 214 256 300 363
#     4  11  22  39  63  90 125 165 207 255 321 379
#     4  11  22  35  51  76 117 158 215 255 290 339
#
# _framework density 20.002580999999999
#
# number of rings (size 3 to 8) (size 9 to 14) (size 15 to 20)
#    0.000    1.125    3.750    3.750    1.750    2.000 
#    0.000    2.500    0.000    4.500    0.000    0.000 
#    0.000    0.000    0.000    0.000    0.000    0.000 
#
# Total GULP energy -356758.232056 kJ/mol
# GULP energy per Si atom -5574.347376 kJ/mol
# Density = 1.995705 g / cm^3
# Si number density = 20.002581 Si / 1000 Ang^3
#
#
#
# Elastic Constant Matrix: (Units=GPa)
#
#
# Indices 1 2 3 4 5 6 
#
# 1 116.7182 25.6013 35.3564 0.0000 0.0000 0.0000
# 2 25.6013 43.5120 17.4948 0.0000 0.0000 0.0000
# 3 35.3564 17.4948 78.5785 0.0000 0.0000 0.0000
# 4 0.0000 0.0000 0.0000 18.0148 0.0000 0.0000
# 5 0.0000 0.0000 0.0000 0.0000 17.7132 0.0000
# 6 0.0000 0.0000 0.0000 0.0000 0.0000 35.6173
#
#
#
# Elastic Compliance Matrix: (Units=1/GPa)
#
#
# Indices 1 2 3 4 5 6 
#
# 1 0.010767 -0.004819 -0.003772 0.000000 0.000000 0.000000
# 2 -0.004819 0.027398 -0.003932 0.000000 0.000000 0.000000
# 3 -0.003772 -0.003932 0.015299 0.000000 0.000000 0.000000
# 4 0.000000 0.000000 0.000000 0.055510 0.000000 0.000000
# 5 0.000000 0.000000 0.000000 0.000000 0.056455 0.000000
# 6 0.000000 0.000000 0.000000 0.000000 0.000000 0.028076
#
#
# Mechanical properties :
#
#
# Convention : Reuss Voigt Hill
#
# Bulk Modulus (GPa) = 35.18720 43.96818 39.57769
# Shear Modulus (GPa) = 21.92762 24.95947 23.44355
#
# Velocity S-wave (km/s) = 3.31454 3.53627 3.42720
# Velocity P-wave (km/s) = 5.68135 6.22114 5.95736
#
# Compressibility (1/GPa) = 0.02841943
#
# Stress axis : x y z
#
# Youngs Moduli (GPa) = 92.87521 36.49887 65.36520
#
# Poissons Ratio (x) = 0.17587 0.24655
# Poissons Ratio (y) = 0.44752 0.25700
# Poissons Ratio (z) = 0.35031 0.14351
#
# Static dielectric constant tensor:
#      x y z
#    x 1.835580 0.000000 0.000000 
#    y 0.000000 1.666060 0.000000 
#    z 0.000000 0.000000 1.672750 
# 
# From -- ./inp_files/34751.got.cif
#   From: 2010.05.17/outbox.cif.g08.bks.cpg/sg58_18_cif.got.tgz:34751.got - 2010.06.03 14:20:14.
