data_PCOD9445925
_publ_section_title
;
Structure prediction by ZEFSAII (Michael W. Deem and Ramdas Pophale) SiO2 
 PCOD9445925
Probable space group: P N N M
;
_chemical_formula_sum "Si O2"
_cell_formula_units_Z 64
_cell_length_a 18.000000
_cell_length_b 27.000000
_cell_length_c 9.000000
_cell_angle_alpha 90.000000
_cell_angle_beta 90.000000
_cell_angle_gamma 90.000000
_cell_volume 4374.000000
_symmetry_space_group_name_H-M "P N N M"
_symmetry_group_IT_number 58
_symmetry_cell_setting 'orthorhombic'
loop_
_space_group_symop_operation_xyz
x,y,z
-x,-y,z
1/2+x,1/2-y,1/2-z
1/2-x,1/2+y,1/2-z
-x,-y,-z
x,y,-z
1/2-x,1/2+y,1/2+z
1/2+x,1/2-y,1/2+z
loop_
_atom_site_type_symbol
_atom_site_label
_atom_site_fract_x
_atom_site_fract_y
_atom_site_fract_z
Si Si1 0.816142 0.801351 0.170384
Si Si2 0.824651 0.645503 0.327471
Si Si3 0.295306 0.293453 0.169845
Si Si4 0.090925 0.554147 0.822319
Si Si5 0.411144 0.228411 0.324498
Si Si6 0.433633 0.759601 0.171046
Si Si7 0.321396 0.138678 0.822100
Si Si8 0.578828 0.062091 0.322344
O O1 0.760708 0.753837 0.169787
O O2 0.883473 0.786275 0.275221
O O3 0.762926 0.846223 0.218415
O O4 0.841065 0.808604 0.000000
O O5 0.806963 0.638260 0.500000
O O6 0.751578 0.661890 0.238492
O O7 0.882153 0.691587 0.317261
O O8 0.865751 0.598387 0.259956
O O9 0.364422 0.275443 0.266635
O O10 0.317007 0.302784 0.000000
O O11 0.151107 0.586386 0.737596
O O12 0.095186 0.495609 0.792407
O O13 0.007337 0.571144 0.779902
O O14 0.098031 0.561123 0.000000
O O15 0.404190 0.223425 0.500000
O O16 0.495582 0.233679 0.274365
O O17 0.375215 0.180174 0.247779
O O18 0.456754 0.754168 0.000000
O O19 0.326621 0.141663 0.000000
O O20 0.584035 0.069591 0.500000
#
# Coordination Sequence:
#
# PCOD9445925 Si02
#       8
#     8   8   8   8   8   8   8   8
#     4   8  16  29  42  58  81 109 138 170 209 250
#     4  10  19  29  43  63  85 112 146 179 212 253
#     4   9  17  30  45  60  82 110 140 175 212 250
#     4   9  18  31  45  61  83 112 147 182 215 251
#     4  11  20  29  43  62  86 114 143 174 209 251
#     4  10  19  29  42  62  86 111 142 176 208 247
#     4  10  19  30  44  62  85 112 143 177 214 254
#     4   9  18  31  44  60  84 114 146 181 217 250
#
# _framework density 14.631916
#
# number of rings (size 3 to 8) (size 9 to 14) (size 15 to 20)
#    0.000    2.500    0.000    4.875    0.000    8.000 
#    0.000    1.250    0.000    0.000    0.000    0.000 
#    0.000    1.000    0.000   10.500    0.000    5.750 
#
# Total GULP energy -356743.919160 kJ/mol
# GULP energy per Si atom -5574.123737 kJ/mol
# Density = 1.459861 g / cm^3
# Si number density = 14.631916 Si / 1000 Ang^3
#
#
#
# Elastic Constant Matrix: (Units=GPa)
#
#
# Indices 1 2 3 4 5 6 
#
# 1 13.6404 6.1746 15.9970 0.0000 0.0000 0.0000
# 2 6.1746 34.8291 21.7759 0.0000 0.0000 0.0000
# 3 15.9970 21.7759 51.5957 0.0000 0.0000 0.0000
# 4 0.0000 0.0000 0.0000 21.4217 0.0000 0.0000
# 5 0.0000 0.0000 0.0000 0.0000 23.6652 0.0000
# 6 0.0000 0.0000 0.0000 0.0000 0.0000 26.6603
#
#
#
# Elastic Compliance Matrix: (Units=1/GPa)
#
#
# Indices 1 2 3 4 5 6 
#
# 1 0.115372 0.002596 -0.036866 0.000000 0.000000 0.000000
# 2 0.002596 0.039062 -0.017291 0.000000 0.000000 0.000000
# 3 -0.036866 -0.017291 0.038109 0.000000 0.000000 0.000000
# 4 0.000000 0.000000 0.000000 0.046682 0.000000 0.000000
# 5 0.000000 0.000000 0.000000 0.000000 0.042256 0.000000
# 6 0.000000 0.000000 0.000000 0.000000 0.000000 0.037509
#
#
# Mechanical properties :
#
#
# Convention : Reuss Voigt Hill
#
# Bulk Modulus (GPa) = 11.18303 20.88447 16.03375
# Shear Modulus (GPa) = 11.06391 18.09062 14.57726
#
# Velocity S-wave (km/s) = 2.75280 3.52004 3.15979
# Velocity P-wave (km/s) = 4.21466 5.55203 4.92892
#
# Compressibility (1/GPa) = 0.08942123
#
# Stress axis : x y z
#
# Youngs Moduli (GPa) = 8.66760 25.60024 26.24026
#
# Poissons Ratio (x) = -0.06646 0.96738
# Poissons Ratio (y) = -0.02250 0.45372
# Poissons Ratio (z) = 0.31954 0.44266
#
# Static dielectric constant tensor:
#      x y z
#    x 1.476470 0.000000 0.000000 
#    y 0.000000 1.472090 0.000000 
#    z 0.000000 0.000000 1.488430 
# 
# From -- ./inp_files/8462.got.cif
#   From: 2010.05.17/outbox.ucp.g08.bks.cvg/sg58_5_cif.got.tgz:8462.got - 2010.06.11 16:41:41.
