data_PCOD9445352
_publ_section_title
;
Structure prediction by ZEFSAII (Michael W. Deem and Ramdas Pophale) SiO2 
 PCOD9445352
Probable space group: P N N M
;
_chemical_formula_sum "Si O2"
_cell_formula_units_Z 34
_cell_length_a 6.511758
_cell_length_b 21.130844
_cell_length_c 12.494154
_cell_angle_alpha 90.000000
_cell_angle_beta 90.000000
_cell_angle_gamma 90.000000
_cell_volume 1719.182377
_symmetry_space_group_name_H-M "P N N M"
_symmetry_group_IT_number 58
_symmetry_cell_setting 'orthorhombic'
loop_
_space_group_symop_operation_xyz
x,y,z
-x,-y,z
1/2+x,1/2-y,1/2-z
1/2-x,1/2+y,1/2-z
-x,-y,-z
x,y,-z
1/2-x,1/2+y,1/2+z
1/2+x,1/2-y,1/2+z
loop_
_atom_site_type_symbol
_atom_site_label
_atom_site_fract_x
_atom_site_fract_y
_atom_site_fract_z
Si Si1 0.162280 0.291011 0.376935
Si Si2 0.347346 0.163817 0.297484
Si Si3 0.460579 0.402457 0.697815
Si Si4 0.000000 0.000000 0.000000
Si Si5 0.649463 0.059954 0.378994
O O1 0.111399 0.304358 0.500000
O O2 0.240487 0.219585 0.363294
O O3 0.338740 0.339171 0.337725
O O4 0.969381 0.303776 0.300435
O O5 0.509464 0.122426 0.363781
O O6 0.175593 0.117741 0.249108
O O7 0.486737 0.445614 0.594412
O O8 0.322120 0.436587 0.788124
O O9 0.733188 0.057696 0.500000
O O10 0.500000 0.000000 0.363627
#
# Coordination Sequence:
#
# PCOD9445352 Si02
#       5
#     8   8   8   2   8
#     4  11  23  41  64  97 136 174 225 279 339 404
#     4  11  23  43  65  99 134 175 224 279 343 409
#     4  11  24  43  66 102 134 183 227 277 343 409
#     4  12  24  44  72  96 140 182 234 278 330 424
#     4  10  23  44  68  97 132 170 223 283 341 407
#
# _framework density 19.776843
#
# number of rings (size 3 to 8) (size 9 to 14) (size 15 to 20)
#    0.000    1.176    3.529    2.118    1.647    1.882 
#    0.000    5.882    0.000    0.000    0.000    0.000 
#    0.000    0.000    0.000    0.000    0.000    0.000 
#
# Total GULP energy -189587.155355 kJ/mol
# GULP energy per Si atom -5576.092805 kJ/mol
# Density = 1.973183 g / cm^3
# Si number density = 19.776843 Si / 1000 Ang^3
#
#
#
# Elastic Constant Matrix: (Units=GPa)
#
#
# Indices 1 2 3 4 5 6 
#
# 1 28.2157 -1.8431 -6.2931 0.0000 0.0000 0.0000
# 2 -1.8431 78.9994 15.6751 0.0000 0.0000 0.0000
# 3 -6.2931 15.6751 92.9873 0.0000 0.0000 0.0000
# 4 0.0000 0.0000 0.0000 13.2360 0.0000 0.0000
# 5 0.0000 0.0000 0.0000 0.0000 9.8504 0.0000
# 6 0.0000 0.0000 0.0000 0.0000 0.0000 20.8871
#
#
#
# Elastic Compliance Matrix: (Units=1/GPa)
#
#
# Indices 1 2 3 4 5 6 
#
# 1 0.035995 0.000369 0.002374 0.000000 0.000000 0.000000
# 2 0.000369 0.013100 -0.002183 0.000000 0.000000 0.000000
# 3 0.002374 -0.002183 0.011283 0.000000 0.000000 0.000000
# 4 0.000000 0.000000 0.000000 0.075551 0.000000 0.000000
# 5 0.000000 0.000000 0.000000 0.000000 0.101519 0.000000
# 6 0.000000 0.000000 0.000000 0.000000 0.000000 0.047877
#
#
# Mechanical properties :
#
#
# Convention : Reuss Voigt Hill
#
# Bulk Modulus (GPa) = 16.26113 23.92002 20.09058
# Shear Modulus (GPa) = 16.40932 21.63893 19.02412
#
# Velocity S-wave (km/s) = 2.88362 3.31139 3.10488
# Velocity P-wave (km/s) = 4.39627 5.17123 4.79942
#
# Compressibility (1/GPa) = 0.06149633
#
# Stress axis : x y z
#
# Youngs Moduli (GPa) = 27.78181 76.33493 88.62992
#
# Poissons Ratio (x) = -0.02815 -0.21040
# Poissons Ratio (y) = -0.01024 0.19351
# Poissons Ratio (z) = -0.06595 0.16667
#
# Static dielectric constant tensor:
#      x y z
#    x 1.686660 0.000000 0.000000 
#    y 0.000000 1.683630 0.000000 
#    z 0.000000 0.000000 1.645560 
# 
# From -- ./inp_files/11654.got.cif
#   From: 2010.05.17/outbox.cif.g08.bks.cpg/sg58_6_cif.got.tgz:11654.got - 2010.06.03 14:20:14.
