data_PCOD9445610
_publ_section_title
;
Structure prediction by ZEFSAII (Michael W. Deem and Ramdas Pophale) SiO2 
 PCOD9445610
Probable space group: P N N M
;
_chemical_formula_sum "Si O2"
_cell_formula_units_Z 32
_cell_length_a 7.864564
_cell_length_b 11.382255
_cell_length_c 18.106075
_cell_angle_alpha 90.000000
_cell_angle_beta 90.000000
_cell_angle_gamma 90.000000
_cell_volume 1620.791972
_symmetry_space_group_name_H-M "P N N M"
_symmetry_group_IT_number 58
_symmetry_cell_setting 'orthorhombic'
loop_
_space_group_symop_operation_xyz
x,y,z
-x,-y,z
1/2+x,1/2-y,1/2-z
1/2-x,1/2+y,1/2-z
-x,-y,-z
x,y,-z
1/2-x,1/2+y,1/2+z
1/2+x,1/2-y,1/2+z
loop_
_atom_site_type_symbol
_atom_site_label
_atom_site_fract_x
_atom_site_fract_y
_atom_site_fract_z
Si Si1 0.815248 0.049002 0.843159
Si Si2 0.191674 0.544458 0.500000
Si Si3 0.652405 0.216948 0.500000
Si Si4 0.000000 0.500000 0.238666
Si Si5 0.695253 0.458169 0.000000
Si Si6 0.116403 0.692001 0.123709
O O1 0.805717 0.190239 0.843273
O O2 0.780668 0.003970 0.926351
O O3 0.665563 0.007125 0.789886
O O4 0.000000 0.000000 0.819933
O O5 0.201106 0.686186 0.500000
O O6 0.000000 0.500000 0.500000
O O7 0.533952 0.236192 0.429546
O O8 0.703519 0.080993 0.500000
O O9 0.967323 0.390060 0.185041
O O10 0.500000 0.500000 0.000000
O O11 0.754452 0.382606 0.071550
#
# Coordination Sequence:
#
# PCOD9445610 Si02
#       6
#     8   4   4   4   4   8
#     4  12  27  46  72 102 135 187 230 287 350 406
#     4  12  24  45  72 103 136 174 242 294 339 402
#     4  11  21  45  76  94 139 184 228 296 338 397
#     4  12  28  48  66 104 146 180 228 280 350 430
#     4  11  24  41  73 107 129 183 236 289 340 394
#     4  11  24  48  68  97 143 179 232 285 342 418
#
# _framework density 19.743434000000001
#
# number of rings (size 3 to 8) (size 9 to 14) (size 15 to 20)
#    0.000    0.500    6.250    2.625    7.000    1.000 
#    0.000    0.000    0.000    0.000    0.000    0.000 
#    0.000    0.000    0.000    0.000    0.000    0.000 
#
# Total GULP energy -178911.441377 kJ/mol
# GULP energy per Si atom -5590.982543 kJ/mol
# Density = 1.969850 g / cm^3
# Si number density = 19.743434 Si / 1000 Ang^3
#
#
#
# Elastic Constant Matrix: (Units=GPa)
#
#
# Indices 1 2 3 4 5 6 
#
# 1 141.0415 25.2996 45.8681 0.0000 0.0000 0.0000
# 2 25.2996 114.3141 25.9078 0.0000 0.0000 0.0000
# 3 45.8681 25.9078 117.0293 0.0000 0.0000 0.0000
# 4 0.0000 0.0000 0.0000 -12.3185 0.0000 0.0000
# 5 0.0000 0.0000 0.0000 0.0000 -66.8237 0.0000
# 6 0.0000 0.0000 0.0000 0.0000 0.0000 36.7792
#
#
#
# Elastic Compliance Matrix: (Units=1/GPa)
#
#
# Indices 1 2 3 4 5 6 
#
# 1 0.008268 -0.001153 -0.002985 0.000000 0.000000 0.000000
# 2 -0.001153 0.009371 -0.001622 0.000000 0.000000 0.000000
# 3 -0.002985 -0.001622 0.010074 0.000000 0.000000 0.000000
# 4 0.000000 0.000000 0.000000 -0.081179 0.000000 0.000000
# 5 0.000000 0.000000 0.000000 0.000000 -0.014965 0.000000
# 6 0.000000 0.000000 0.000000 0.000000 0.000000 0.027189
#
#
# Mechanical properties :
#
#
# Convention : Reuss Voigt Hill
#
# Bulk Modulus (GPa) = 61.76335 62.94842 62.35589
# Shear Modulus (GPa) = -205.56827 9.88136 -97.84345
#
# Velocity S-wave (km/s) = -10.21498 2.23959 -7.04734
# Velocity P-wave (km/s) = 10.38157 6.21612 5.87949
#
# Compressibility (1/GPa) = 0.01619083
#
# Stress axis : x y z
#
# Youngs Moduli (GPa) = 120.95154 106.71476 99.26509
#
# Poissons Ratio (x) = 0.12307 0.29632
# Poissons Ratio (y) = 0.13949 0.16106
# Poissons Ratio (z) = 0.36106 0.17314
#
# Static dielectric constant tensor:
#      x y z
#    x 1.724990 0.000000 0.000000 
#    y 0.000000 1.792030 0.000000 
#    z 0.000000 0.000000 1.693850 
# 
# From -- ./inp_files/24907.got.cif
#   From: 2010.05.17/outbox.cif.g08.bks.cpg/sg58_13_cif.got.tgz:24907.got - 2010.06.03 14:20:14.
