data_PCOD9445214
_publ_section_title
;
Structure prediction by ZEFSAII (Michael W. Deem and Ramdas Pophale) SiO2 
 PCOD9445214
Probable space group: P N N M
;
_chemical_formula_sum "Si O2"
_cell_formula_units_Z 32
_cell_length_a 8.969234
_cell_length_b 5.879626
_cell_length_c 27.535181
_cell_angle_alpha 90.000000
_cell_angle_beta 90.000000
_cell_angle_gamma 90.000000
_cell_volume 1452.088185
_symmetry_space_group_name_H-M "P N N M"
_symmetry_group_IT_number 58
_symmetry_cell_setting 'orthorhombic'
loop_
_space_group_symop_operation_xyz
x,y,z
-x,-y,z
1/2+x,1/2-y,1/2-z
1/2-x,1/2+y,1/2-z
-x,-y,-z
x,y,-z
1/2-x,1/2+y,1/2+z
1/2+x,1/2-y,1/2+z
loop_
_atom_site_type_symbol
_atom_site_label
_atom_site_fract_x
_atom_site_fract_y
_atom_site_fract_z
Si Si1 0.321909 0.458335 0.500000
Si Si2 0.254634 0.151065 0.410916
Si Si3 0.000000 0.000000 0.654014
Si Si4 0.500000 0.000000 0.663110
Si Si5 0.158256 0.877239 0.500000
Si Si6 0.751403 0.691692 0.776531
O O1 0.500000 0.500000 0.500000
O O2 0.297495 0.344942 0.447808
O O3 0.173909 0.613828 0.500000
O O4 0.100882 0.155995 0.381170
O O5 0.380168 0.118260 0.371113
O O6 0.242165 0.947827 0.450449
O O7 0.111793 0.851906 0.687271
O O8 0.591845 0.178638 0.695099
O O9 0.000000 0.000000 0.500000
O O10 0.757030 0.445727 0.746958
#
# Coordination Sequence:
#
# PCOD9445214 Si02
#       6
#     4   8   4   4   4   8
#     4  11  24  42  70  98 141 193 233 284 360 421
#     4  10  22  44  64  99 139 178 236 288 345 421
#     4  10  22  45  66 102 130 178 232 295 346 430
#     4  10  22  43  68 100 134 182 234 299 352 436
#     4  11  22  43  65  94 146 181 230 286 354 416
#     4  11  24  47  70  99 140 183 232 294 373 431
#
# _framework density 22.037231999999999
#
# number of rings (size 3 to 8) (size 9 to 14) (size 15 to 20)
#    0.000    1.500    1.250    3.000    0.000    4.000 
#   36.000    0.000    0.000    0.000    0.000    0.000 
#    0.000    0.000    0.000    0.000    0.000    0.000 
#
# Total GULP energy -178183.850378 kJ/mol
# GULP energy per Si atom -5568.245324 kJ/mol
# Density = 2.198707 g / cm^3
# Si number density = 22.037232 Si / 1000 Ang^3
#
#
#
# Elastic Constant Matrix: (Units=GPa)
#
#
# Indices 1 2 3 4 5 6 
#
# 1 156.2303 42.3688 64.9433 0.0000 0.0000 0.0000
# 2 42.3688 69.6746 43.8492 0.0000 0.0000 0.0000
# 3 64.9433 43.8492 127.5300 0.0000 0.0000 0.0000
# 4 0.0000 0.0000 0.0000 -60.8145 0.0000 0.0000
# 5 0.0000 0.0000 0.0000 0.0000 47.0415 0.0000
# 6 0.0000 0.0000 0.0000 0.0000 0.0000 6.8836
#
#
#
# Elastic Compliance Matrix: (Units=1/GPa)
#
#
# Indices 1 2 3 4 5 6 
#
# 1 0.008635 -0.003169 -0.003308 0.000000 0.000000 0.000000
# 2 -0.003169 0.019479 -0.005084 0.000000 0.000000 0.000000
# 3 -0.003308 -0.005084 0.011274 0.000000 0.000000 0.000000
# 4 0.000000 0.000000 0.000000 -0.016443 0.000000 0.000000
# 5 0.000000 0.000000 0.000000 0.000000 0.021258 0.000000
# 6 0.000000 0.000000 0.000000 0.000000 0.000000 0.145273
#
#
# Mechanical properties :
#
#
# Convention : Reuss Voigt Hill
#
# Bulk Modulus (GPa) = 61.47564 72.86193 67.16879
# Shear Modulus (GPa) = 22.93383 12.10703 17.52043
#
# Velocity S-wave (km/s) = 3.22947 2.34645 2.82270
# Velocity P-wave (km/s) = 6.47014 6.36207 6.41634
#
# Compressibility (1/GPa) = 0.01626660
#
# Stress axis : x y z
#
# Youngs Moduli (GPa) = 115.80370 51.33723 88.70286
#
# Poissons Ratio (x) = 0.16271 0.29340
# Poissons Ratio (y) = 0.36703 0.45093
# Poissons Ratio (z) = 0.38304 0.26098
#
# Static dielectric constant tensor:
#      x y z
#    x 1.814210 0.000000 0.000000 
#    y 0.000000 1.925180 0.000000 
#    z 0.000000 0.000000 1.798900 
# 
# From -- ./inp_files/34401.got.cif
#   From: 2010.05.17/outbox.cif.g08.bks.cpg/sg58_18_cif.got.tgz:34401.got - 2010.06.03 14:20:14.
