data_PCOD9445275
_publ_section_title
;
Structure prediction by ZEFSAII (Michael W. Deem and Ramdas Pophale) SiO2 
 PCOD9445275
Probable space group: P N N M
;
_chemical_formula_sum "Si O2"
_cell_formula_units_Z 48
_cell_length_a 31.362161
_cell_length_b 9.091629
_cell_length_c 8.774384
_cell_angle_alpha 90.000000
_cell_angle_beta 90.000000
_cell_angle_gamma 90.000000
_cell_volume 2501.867595
_symmetry_space_group_name_H-M "P N N M"
_symmetry_group_IT_number 58
_symmetry_cell_setting 'orthorhombic'
loop_
_space_group_symop_operation_xyz
x,y,z
-x,-y,z
1/2+x,1/2-y,1/2-z
1/2-x,1/2+y,1/2-z
-x,-y,-z
x,y,-z
1/2-x,1/2+y,1/2+z
1/2+x,1/2-y,1/2+z
loop_
_atom_site_type_symbol
_atom_site_label
_atom_site_fract_x
_atom_site_fract_y
_atom_site_fract_z
Si Si1 0.623067 0.414537 0.317296
Si Si2 0.705911 0.924167 0.318156
Si Si3 0.288524 0.421130 0.682666
Si Si4 0.124411 0.412298 0.681653
Si Si5 0.956964 0.089522 0.682537
Si Si6 0.544173 0.915582 0.681878
O O1 0.618336 0.412092 0.500000
O O2 0.667212 0.497716 0.280680
O O3 0.624548 0.249588 0.254361
O O4 0.583606 0.501229 0.244868
O O5 0.700143 0.937155 0.500000
O O6 0.749335 0.003067 0.267659
O O7 0.666301 0.000898 0.235847
O O8 0.708302 0.751333 0.279486
O O9 0.281631 0.433292 0.500000
O O10 0.123762 0.400431 0.500000
O O11 0.083064 0.499729 0.739670
O O12 0.954087 0.103360 0.500000
O O13 0.958362 0.250162 0.756643
O O14 0.000000 0.000000 0.719472
O O15 0.551028 0.913862 0.500000
O O16 0.500000 0.000000 0.713272
#
# Coordination Sequence:
#
# PCOD9445275 Si02
#       6
#     8   8   8   8   8   8
#     4  11  23  41  65  91 124 164 207 254 305 366
#     4  11  23  40  63  90 122 160 204 251 303 368
#     4  10  23  41  61  89 122 158 202 252 305 362
#     4  12  25  41  63  91 125 161 203 256 311 367
#     4  11  24  41  63  93 128 164 204 252 306 363
#     4  11  24  42  65  92 123 162 208 255 306 365
#
# _framework density 19.185666000000001
#
# number of rings (size 3 to 8) (size 9 to 14) (size 15 to 20)
#    0.000    1.000    0.000    6.500    0.000   12.000 
#    0.000    0.000    0.000    0.000    0.000    0.000 
#    0.000    0.000    0.000    0.000    0.000    0.000 
#
# Total GULP energy -268724.166062 kJ/mol
# GULP energy per Si atom -5598.420126 kJ/mol
# Density = 1.914200 g / cm^3
# Si number density = 19.185666 Si / 1000 Ang^3
#
#
#
# Elastic Constant Matrix: (Units=GPa)
#
#
# Indices 1 2 3 4 5 6 
#
# 1 120.5055 45.2606 39.9115 0.0000 0.0000 0.0000
# 2 45.2606 138.2570 25.9175 0.0000 0.0000 0.0000
# 3 39.9115 25.9175 41.7685 0.0000 0.0000 0.0000
# 4 0.0000 0.0000 0.0000 34.2413 0.0000 0.0000
# 5 0.0000 0.0000 0.0000 0.0000 35.2753 0.0000
# 6 0.0000 0.0000 0.0000 0.0000 0.0000 39.8795
#
#
#
# Elastic Compliance Matrix: (Units=1/GPa)
#
#
# Indices 1 2 3 4 5 6 
#
# 1 0.012669 -0.002125 -0.010787 0.000000 0.000000 0.000000
# 2 -0.002125 0.008542 -0.003269 0.000000 0.000000 0.000000
# 3 -0.010787 -0.003269 0.036278 0.000000 0.000000 0.000000
# 4 0.000000 0.000000 0.000000 0.029204 0.000000 0.000000
# 5 0.000000 0.000000 0.000000 0.000000 0.028348 0.000000
# 6 0.000000 0.000000 0.000000 0.000000 0.000000 0.025076
#
#
# Mechanical properties :
#
#
# Convention : Reuss Voigt Hill
#
# Bulk Modulus (GPa) = 39.80111 58.07893 48.94002
# Shear Modulus (GPa) = 27.64632 34.50866 31.07749
#
# Velocity S-wave (km/s) = 3.80015 4.24567 4.02908
# Velocity P-wave (km/s) = 6.32812 7.37374 6.87085
#
# Compressibility (1/GPa) = 0.02512493
#
# Stress axis : x y z
#
# Youngs Moduli (GPa) = 78.93024 117.07537 27.56508
#
# Poissons Ratio (x) = 0.24883 0.29735
# Poissons Ratio (y) = 0.16775 0.09012
# Poissons Ratio (z) = 0.85145 0.38274
#
# Static dielectric constant tensor:
#      x y z
#    x 1.627190 0.000000 0.000000 
#    y 0.000000 1.625560 0.000000 
#    z 0.000000 0.000000 1.643380 
# 
# From -- ./inp_files/10743.got.cif
#   From: 2010.05.17/outbox.cif.g08.bks.cpg/sg58_6_cif.got.tgz:10743.got - 2010.06.03 14:20:14.
