data_PCOD9445184
_publ_section_title
;
Structure prediction by ZEFSAII (Michael W. Deem and Ramdas Pophale) SiO2 
 PCOD9445184
Probable space group: P N N M
;
_chemical_formula_sum "Si O2"
_cell_formula_units_Z 26
_cell_length_a 6.657274
_cell_length_b 16.305861
_cell_length_c 11.744184
_cell_angle_alpha 90.000000
_cell_angle_beta 90.000000
_cell_angle_gamma 90.000000
_cell_volume 1274.861526
_symmetry_space_group_name_H-M "P N N M"
_symmetry_group_IT_number 58
_symmetry_cell_setting 'orthorhombic'
loop_
_space_group_symop_operation_xyz
x,y,z
-x,-y,z
1/2+x,1/2-y,1/2-z
1/2-x,1/2+y,1/2-z
-x,-y,-z
x,y,-z
1/2-x,1/2+y,1/2+z
1/2+x,1/2-y,1/2+z
loop_
_atom_site_type_symbol
_atom_site_label
_atom_site_fract_x
_atom_site_fract_y
_atom_site_fract_z
Si Si1 0.495254 0.625333 0.704707
Si Si2 0.500000 0.500000 0.500000
Si Si3 0.175867 0.297205 0.870863
Si Si4 0.658575 0.930977 0.630641
O O1 0.554669 0.567992 0.600206
O O2 0.676433 0.662008 0.779451
O O3 0.369627 0.703032 0.656865
O O4 0.652550 0.423471 0.788841
O O5 0.966213 0.346460 0.867861
O O6 0.257557 0.305383 0.000000
O O7 0.715712 0.949814 0.500000
O O8 0.500000 0.000000 0.668248
#
# Coordination Sequence:
#
# PCOD9445184 Si02
#       4
#     8   2   8   8
#     4  12  23  44  66 100 139 182 225 288 352 411
#     4  12  28  44  68 104 150 170 230 306 348 402
#     4  11  23  42  69  97 133 181 235 279 343 426
#     4  10  22  42  67  96 130 173 229 285 339 415
#
# _framework density 20.394372000000001
#
# number of rings (size 3 to 8) (size 9 to 14) (size 15 to 20)
#    0.000    0.923    4.615    2.769    0.000    0.000 
#    2.769   13.077    0.000    0.000    0.000    0.000 
#    0.000    0.000    0.000    0.000    0.000    0.000 
#
# Total GULP energy -144842.379918 kJ/mol
# GULP energy per Si atom -5570.860766 kJ/mol
# Density = 2.034795 g / cm^3
# Si number density = 20.394372 Si / 1000 Ang^3
#
#
#
# Elastic Constant Matrix: (Units=GPa)
#
#
# Indices 1 2 3 4 5 6 
#
# 1 43.0511 6.2934 53.3439 0.0000 0.0000 0.0000
# 2 6.2934 82.8962 38.3612 0.0000 0.0000 0.0000
# 3 53.3439 38.3612 159.0076 0.0000 0.0000 0.0000
# 4 0.0000 0.0000 0.0000 23.7085 0.0000 0.0000
# 5 0.0000 0.0000 0.0000 0.0000 15.7120 0.0000
# 6 0.0000 0.0000 0.0000 0.0000 0.0000 34.2067
#
#
#
# Elastic Compliance Matrix: (Units=1/GPa)
#
#
# Indices 1 2 3 4 5 6 
#
# 1 0.040703 0.003635 -0.014532 0.000000 0.000000 0.000000
# 2 0.003635 0.013904 -0.004574 0.000000 0.000000 0.000000
# 3 -0.014532 -0.004574 0.012268 0.000000 0.000000 0.000000
# 4 0.000000 0.000000 0.000000 0.042179 0.000000 0.000000
# 5 0.000000 0.000000 0.000000 0.000000 0.063646 0.000000
# 6 0.000000 0.000000 0.000000 0.000000 0.000000 0.029234
#
#
# Mechanical properties :
#
#
# Convention : Reuss Voigt Hill
#
# Bulk Modulus (GPa) = 27.82987 53.43910 40.63448
# Shear Modulus (GPa) = 20.42043 27.18921 23.80482
#
# Velocity S-wave (km/s) = 3.16773 3.65522 3.42017
# Velocity P-wave (km/s) = 5.20143 6.63882 5.96359
#
# Compressibility (1/GPa) = 0.03593262
#
# Stress axis : x y z
#
# Youngs Moduli (GPa) = 24.56813 71.92236 81.51544
#
# Poissons Ratio (x) = -0.26141 1.18458
# Poissons Ratio (y) = -0.08930 0.37283
# Poissons Ratio (z) = 0.35702 0.32895
#
# Static dielectric constant tensor:
#      x y z
#    x 1.701840 0.000000 0.000000 
#    y 0.000000 1.763770 0.000000 
#    z 0.000000 0.000000 1.704610 
# 
# From -- ./inp_files/12262.got.cif
#   From: 2010.05.17/outbox.cif.g08.bks.cpg/sg58_7_cif.got.tgz:12262.got - 2010.06.03 14:20:14.
