data_PCOD9445537
_publ_section_title
;
Structure prediction by ZEFSAII (Michael W. Deem and Ramdas Pophale) SiO2 
 PCOD9445537
Probable space group: P N N M
;
_chemical_formula_sum "Si O2"
_cell_formula_units_Z 58
_cell_length_a 11.450900
_cell_length_b 17.213057
_cell_length_c 15.006729
_cell_angle_alpha 90.000000
_cell_angle_beta 90.000000
_cell_angle_gamma 90.000000
_cell_volume 2957.901236
_symmetry_space_group_name_H-M "P N N M"
_symmetry_group_IT_number 58
_symmetry_cell_setting 'orthorhombic'
loop_
_space_group_symop_operation_xyz
x,y,z
-x,-y,z
1/2+x,1/2-y,1/2-z
1/2-x,1/2+y,1/2-z
-x,-y,-z
x,y,-z
1/2-x,1/2+y,1/2+z
1/2+x,1/2-y,1/2+z
loop_
_atom_site_type_symbol
_atom_site_label
_atom_site_fract_x
_atom_site_fract_y
_atom_site_fract_z
Si Si1 0.868374 0.824029 0.396403
Si Si2 0.332280 0.962086 0.155388
Si Si3 0.234741 0.527335 0.169728
Si Si4 0.681371 0.684410 0.400127
Si Si5 0.511025 0.881559 0.293490
Si Si6 0.713196 0.146657 0.603540
Si Si7 0.000000 0.500000 0.500000
Si Si8 0.088919 0.775365 0.279660
O O1 0.903832 0.825413 0.500000
O O2 0.820864 0.907825 0.367307
O O3 0.765941 0.759499 0.388467
O O4 0.976013 0.799079 0.335581
O O5 0.261108 0.891639 0.111844
O O6 0.428147 0.923638 0.221807
O O7 0.254543 0.011736 0.224054
O O8 0.399270 0.006679 0.078361
O O9 0.244656 0.444234 0.121652
O O10 0.104079 0.562471 0.159768
O O11 0.632278 0.687095 0.500000
O O12 0.593373 0.685588 0.317768
O O13 0.420484 0.845169 0.363807
O O14 0.581703 0.815875 0.240713
O O15 0.727432 0.164972 0.500000
O O16 0.797200 0.197572 0.666160
#
# Coordination Sequence:
#
# PCOD9445537 Si02
#       8
#     8   8   8   8   8   8   2   8
#     4  11  24  40  66  97 124 170 217 254 314 387
#     4  11  20  38  60  94 122 164 204 270 311 364
#     4  11  22  40  65  92 133 165 206 259 329 370
#     4  11  22  39  64  88 122 167 215 255 306 375
#     4  11  22  39  65  91 125 167 208 257 324 363
#     4  11  24  41  64  97 129 163 209 264 323 379
#     4  12  20  32  68  96 124 152 226 266 310 370
#     4  12  22  42  64  89 133 168 205 262 311 380
#
# _framework density 19.608498000000001
#
# number of rings (size 3 to 8) (size 9 to 14) (size 15 to 20)
#    0.000    0.828    7.586    2.069    0.000    2.759 
#    1.241    1.379    1.517    0.828    0.000    0.000 
#    0.000    0.000    0.000    0.000    0.000    0.000 
#
# Total GULP energy -323392.288023 kJ/mol
# GULP energy per Si atom -5575.729104 kJ/mol
# Density = 1.956387 g / cm^3
# Si number density = 19.608498 Si / 1000 Ang^3
#
#
#
# Elastic Constant Matrix: (Units=GPa)
#
#
# Indices 1 2 3 4 5 6 
#
# 1 20.2086 16.9629 28.6846 0.0000 0.0000 0.0000
# 2 16.9629 67.6559 13.7288 0.0000 0.0000 0.0000
# 3 28.6846 13.7288 162.4388 0.0000 0.0000 0.0000
# 4 0.0000 0.0000 0.0000 15.4853 0.0000 0.0000
# 5 0.0000 0.0000 0.0000 0.0000 26.1020 0.0000
# 6 0.0000 0.0000 0.0000 0.0000 0.0000 32.7794
#
#
#
# Elastic Compliance Matrix: (Units=1/GPa)
#
#
# Indices 1 2 3 4 5 6 
#
# 1 0.083580 -0.018274 -0.013215 0.000000 0.000000 0.000000
# 2 -0.018274 0.019034 0.001618 0.000000 0.000000 0.000000
# 3 -0.013215 0.001618 0.008353 0.000000 0.000000 0.000000
# 4 0.000000 0.000000 0.000000 0.064578 0.000000 0.000000
# 5 0.000000 0.000000 0.000000 0.000000 0.038311 0.000000
# 6 0.000000 0.000000 0.000000 0.000000 0.000000 0.030507
#
#
# Mechanical properties :
#
#
# Convention : Reuss Voigt Hill
#
# Bulk Modulus (GPa) = 19.52122 41.00620 30.26371
# Shear Modulus (GPa) = 15.56764 27.60180 21.58472
#
# Velocity S-wave (km/s) = 2.82072 3.75593 3.32141
# Velocity P-wave (km/s) = 4.53715 6.30612 5.49331
#
# Compressibility (1/GPa) = 0.05122631
#
# Stress axis : x y z
#
# Youngs Moduli (GPa) = 11.96457 52.53761 119.71820
#
# Poissons Ratio (x) = 0.96007 1.58204
# Poissons Ratio (y) = 0.21864 -0.19373
# Poissons Ratio (z) = 0.15811 -0.08502
#
# Static dielectric constant tensor:
#      x y z
#    x 1.690900 0.000000 0.000000 
#    y 0.000000 1.716890 0.000000 
#    z 0.000000 0.000000 1.690350 
# 
# From -- ./inp_files/21460.got.cif
#   From: 2010.05.17/outbox.cif.g08.bks.cpg/sg58_11_cif.got.tgz:21460.got - 2010.06.03 14:20:14.
