data_PCOD9445652
_publ_section_title
;
Structure prediction by ZEFSAII (Michael W. Deem and Ramdas Pophale) SiO2 
 PCOD9445652
Probable space group: P N N M
;
_chemical_formula_sum "Si O2"
_cell_formula_units_Z 34
_cell_length_a 11.312998
_cell_length_b 6.088882
_cell_length_c 22.636088
_cell_angle_alpha 90.000000
_cell_angle_beta 90.000000
_cell_angle_gamma 90.000000
_cell_volume 1559.253192
_symmetry_space_group_name_H-M "P N N M"
_symmetry_group_IT_number 58
_symmetry_cell_setting 'orthorhombic'
loop_
_space_group_symop_operation_xyz
x,y,z
-x,-y,z
1/2+x,1/2-y,1/2-z
1/2-x,1/2+y,1/2-z
-x,-y,-z
x,y,-z
1/2-x,1/2+y,1/2+z
1/2+x,1/2-y,1/2+z
loop_
_atom_site_type_symbol
_atom_site_label
_atom_site_fract_x
_atom_site_fract_y
_atom_site_fract_z
Si Si1 0.832213 0.170048 0.436697
Si Si2 0.613812 0.143602 0.725932
Si Si3 0.200885 0.156568 0.337501
Si Si4 0.000000 0.500000 0.500000
Si Si5 0.868337 0.964726 0.118656
O O1 0.817500 0.049743 0.500000
O O2 0.931305 0.351143 0.449498
O O3 0.712426 0.299053 0.419266
O O4 0.858369 0.998544 0.385612
O O5 0.617719 0.205256 0.794549
O O6 0.614818 0.351931 0.682754
O O7 0.500000 0.000000 0.712119
O O8 0.726511 0.999020 0.707513
O O9 0.293901 0.313974 0.371035
O O10 0.000000 0.000000 0.093957
#
# Coordination Sequence:
#
# PCOD9445652 Si02
#       5
#     8   8   8   2   8
#     4   9  23  46  74  96 139 187 244 298 354 426
#     4  11  22  40  66 100 149 181 230 289 359 445
#     4  11  22  41  71 106 137 190 237 289 366 434
#     4   8  20  56  68  94 140 182 246 302 340 434
#     4  11  22  40  68 104 143 179 229 300 362 434
#
# _framework density 21.805312000000001
#
# number of rings (size 3 to 8) (size 9 to 14) (size 15 to 20)
#    0.706    0.941    4.706    0.000    0.000    1.412 
#    2.118    5.882    0.000    0.706    0.000    0.000 
#    0.000    0.000    0.000    0.000    0.000    0.000 
#
# Total GULP energy -189514.707903 kJ/mol
# GULP energy per Si atom -5573.961997 kJ/mol
# Density = 2.175568 g / cm^3
# Si number density = 21.805312 Si / 1000 Ang^3
#
#
#
# Elastic Constant Matrix: (Units=GPa)
#
#
# Indices 1 2 3 4 5 6 
#
# 1 72.4571 35.6024 30.1119 0.0000 0.0000 0.0000
# 2 35.6024 63.7003 26.1697 0.0000 0.0000 0.0000
# 3 30.1119 26.1697 114.8544 0.0000 0.0000 0.0000
# 4 0.0000 0.0000 0.0000 10.0096 0.0000 0.0000
# 5 0.0000 0.0000 0.0000 0.0000 0.2543 0.0000
# 6 0.0000 0.0000 0.0000 0.0000 0.0000 34.3759
#
#
#
# Elastic Compliance Matrix: (Units=1/GPa)
#
#
# Indices 1 2 3 4 5 6 
#
# 1 0.019898 -0.009905 -0.002960 0.000000 0.000000 0.000000
# 2 -0.009905 0.022251 -0.002473 0.000000 0.000000 0.000000
# 3 -0.002960 -0.002473 0.010046 0.000000 0.000000 0.000000
# 4 0.000000 0.000000 0.000000 0.099904 0.000000 0.000000
# 5 0.000000 0.000000 0.000000 0.000000 3.932163 0.000000
# 6 0.000000 0.000000 0.000000 0.000000 0.000000 0.029090
#
#
# Mechanical properties :
#
#
# Convention : Reuss Voigt Hill
#
# Bulk Modulus (GPa) = 46.47083 48.30886 47.38984
# Shear Modulus (GPa) = 1.20447 19.53649 10.37048
#
# Velocity S-wave (km/s) = 0.74403 2.99649 2.18318
# Velocity P-wave (km/s) = 4.70065 5.84591 5.30428
#
# Compressibility (1/GPa) = 0.02151887
#
# Stress axis : x y z
#
# Youngs Moduli (GPa) = 50.25519 44.94264 99.54075
#
# Poissons Ratio (x) = 0.44517 0.29463
# Poissons Ratio (y) = 0.49779 0.24615
# Poissons Ratio (z) = 0.14875 0.11114
#
# Static dielectric constant tensor:
#      x y z
#    x 1.829850 0.000000 0.000000 
#    y 0.000000 1.811120 0.000000 
#    z 0.000000 0.000000 1.781780 
# 
# From -- ./inp_files/31784.got.cif
#   From: 2010.05.17/outbox.cif.g08.bks.cpg/sg58_16_cif.got.tgz:31784.got - 2010.06.03 14:20:14.
