data_PCOD9445348
_publ_section_title
;
Structure prediction by ZEFSAII (Michael W. Deem and Ramdas Pophale) SiO2 
 PCOD9445348
Probable space group: P N N M
;
_chemical_formula_sum "Si O2"
_cell_formula_units_Z 40
_cell_length_a 9.344647
_cell_length_b 8.949233
_cell_length_c 22.145753
_cell_angle_alpha 90.000000
_cell_angle_beta 90.000000
_cell_angle_gamma 90.000000
_cell_volume 1851.992261
_symmetry_space_group_name_H-M "P N N M"
_symmetry_group_IT_number 58
_symmetry_cell_setting 'orthorhombic'
loop_
_space_group_symop_operation_xyz
x,y,z
-x,-y,z
1/2+x,1/2-y,1/2-z
1/2-x,1/2+y,1/2-z
-x,-y,-z
x,y,-z
1/2-x,1/2+y,1/2+z
1/2+x,1/2-y,1/2+z
loop_
_atom_site_type_symbol
_atom_site_label
_atom_site_fract_x
_atom_site_fract_y
_atom_site_fract_z
Si Si1 0.114308 0.766604 0.069689
Si Si2 0.842648 0.000670 0.172549
Si Si3 0.868912 0.669719 0.158095
Si Si4 0.860124 0.919318 0.375573
Si Si5 0.074112 0.351425 0.711238
O O1 0.141201 0.916941 0.108242
O O2 0.259609 0.672467 0.078740
O O3 0.980656 0.684827 0.102780
O O4 0.083856 0.792743 0.000000
O O5 0.739689 0.099418 0.212302
O O6 0.792944 0.831071 0.164631
O O7 0.000000 0.000000 0.200017
O O8 0.752562 0.540316 0.150976
O O9 0.965789 0.660230 0.218683
O O10 0.923019 0.800332 0.326710
O O11 0.000000 0.000000 0.401725
O O12 0.000000 0.500000 0.683832
#
# Coordination Sequence:
#
# PCOD9445348 Si02
#       5
#     8   8   8   8   8
#     4  10  23  44  64  86 121 164 208 252 304 366
#     4   9  21  38  60  88 121 160 201 247 303 364
#     4  11  22  38  62  93 122 159 206 253 304 359
#     4  11  24  38  60  91 123 160 204 255 306 359
#     4  11  22  38  59  88 130 166 197 241 304 374
#
# _framework density 21.598364
#
# number of rings (size 3 to 8) (size 9 to 14) (size 15 to 20)
#    0.000    1.600    0.000    4.200    0.000   16.800 
#    0.000    0.000    0.000   20.400    0.000    0.000 
#    0.000    0.000    0.000    0.000    0.000    0.000 
#
# Total GULP energy -223338.198160 kJ/mol
# GULP energy per Si atom -5583.454954 kJ/mol
# Density = 2.154921 g / cm^3
# Si number density = 21.598364 Si / 1000 Ang^3
#
#
#
# Elastic Constant Matrix: (Units=GPa)
#
#
# Indices 1 2 3 4 5 6 
#
# 1 48.6792 10.5829 -12.4337 0.0000 0.0000 0.0000
# 2 10.5829 129.6157 3.0662 0.0000 0.0000 0.0000
# 3 -12.4337 3.0662 76.2650 0.0000 0.0000 0.0000
# 4 0.0000 0.0000 0.0000 11.8074 0.0000 0.0000
# 5 0.0000 0.0000 0.0000 0.0000 11.3889 0.0000
# 6 0.0000 0.0000 0.0000 0.0000 0.0000 55.7067
#
#
#
# Elastic Compliance Matrix: (Units=1/GPa)
#
#
# Indices 1 2 3 4 5 6 
#
# 1 0.021880 -0.001873 0.003642 0.000000 0.000000 0.000000
# 2 -0.001873 0.007883 -0.000622 0.000000 0.000000 0.000000
# 3 0.003642 -0.000622 0.013731 0.000000 0.000000 0.000000
# 4 0.000000 0.000000 0.000000 0.084693 0.000000 0.000000
# 5 0.000000 0.000000 0.000000 0.000000 0.087805 0.000000
# 6 0.000000 0.000000 0.000000 0.000000 0.000000 0.017951
#
#
# Mechanical properties :
#
#
# Convention : Reuss Voigt Hill
#
# Bulk Modulus (GPa) = 21.83924 28.55453 25.19688
# Shear Modulus (GPa) = 20.25024 32.67022 26.46023
#
# Velocity S-wave (km/s) = 3.06532 3.89347 3.50394
# Velocity P-wave (km/s) = 4.76043 5.78459 5.29732
#
# Compressibility (1/GPa) = 0.04578914
#
# Stress axis : x y z
#
# Youngs Moduli (GPa) = 45.70353 126.85958 72.82769
#
# Poissons Ratio (x) = 0.23756 -0.26527
# Poissons Ratio (y) = 0.08559 0.04532
# Poissons Ratio (z) = -0.16647 0.07894
#
# Static dielectric constant tensor:
#      x y z
#    x 1.817200 0.000000 0.000000 
#    y 0.000000 1.860510 0.000000 
#    z 0.000000 0.000000 1.753750 
# 
# From -- ./inp_files/31295.got.cif
#   From: 2010.05.17/outbox.cif.g08.bks.cpg/sg58_16_cif.got.tgz:31295.got - 2010.06.03 14:20:14.
