data_PCOD9445755
_publ_section_title
;
Structure prediction by ZEFSAII (Michael W. Deem and Ramdas Pophale) SiO2 
 PCOD9445755
Probable space group: P N N M
;
_chemical_formula_sum "Si O2"
_cell_formula_units_Z 64
_cell_length_a 9.714760
_cell_length_b 11.816284
_cell_length_c 26.932330
_cell_angle_alpha 90.000000
_cell_angle_beta 90.000000
_cell_angle_gamma 90.000000
_cell_volume 3091.625806
_symmetry_space_group_name_H-M "P N N M"
_symmetry_group_IT_number 58
_symmetry_cell_setting 'orthorhombic'
loop_
_space_group_symop_operation_xyz
x,y,z
-x,-y,z
1/2+x,1/2-y,1/2-z
1/2-x,1/2+y,1/2-z
-x,-y,-z
x,y,-z
1/2-x,1/2+y,1/2+z
1/2+x,1/2-y,1/2+z
loop_
_atom_site_type_symbol
_atom_site_label
_atom_site_fract_x
_atom_site_fract_y
_atom_site_fract_z
Si Si1 0.674263 0.709228 0.645524
Si Si2 0.432639 0.743630 0.203486
Si Si3 0.657611 0.972063 0.331037
Si Si4 0.294269 0.927343 0.058261
Si Si5 0.365949 0.063685 0.785861
Si Si6 0.419264 0.608062 0.298539
Si Si7 0.603384 0.828186 0.058219
Si Si8 0.412807 0.396937 0.122815
O O1 0.808085 0.684039 0.680189
O O2 0.678099 0.845281 0.648190
O O3 0.699324 0.647132 0.593708
O O4 0.528048 0.667917 0.666138
O O5 0.569839 0.811633 0.216867
O O6 0.380836 0.691338 0.254339
O O7 0.484703 0.648121 0.165765
O O8 0.665445 0.976686 0.270516
O O9 0.500000 0.000000 0.343278
O O10 0.771772 0.054067 0.354371
O O11 0.446919 0.873462 0.064134
O O12 0.305026 0.061143 0.070519
O O13 0.257924 0.918580 0.000000
O O14 0.227583 0.065302 0.817676
O O15 0.500000 0.000000 0.806521
O O16 0.500000 0.500000 0.277576
O O17 0.618358 0.713973 0.089780
O O18 0.624728 0.803263 0.000000
O O19 0.500000 0.500000 0.097960
#
# Coordination Sequence:
#
# PCOD9445755 Si02
#       8
#     8   8   8   8   8   8   8   8
#     4  12  23  43  65 100 135 177 229 281 358 405
#     4  12  22  38  62  92 131 179 233 275 334 402
#     4  11  24  42  61  90 134 182 228 276 339 407
#     4   9  19  41  70 103 139 172 220 294 354 414
#     4  11  24  41  61  87 128 185 234 281 331 395
#     4  12  24  40  58  91 134 178 228 287 331 406
#     4   9  19  38  69 105 135 171 226 288 353 415
#     4  12  22  38  64  96 137 179 223 283 338 409
#
# _framework density 20.701083000000001
#
# number of rings (size 3 to 8) (size 9 to 14) (size 15 to 20)
#    0.000    1.000    5.000    2.625    1.750    3.250 
#    0.000    0.625    0.000    1.875    0.000    0.875 
#    0.000    0.500    0.000    0.000    0.000    0.000 
#
# Total GULP energy -357508.169280 kJ/mol
# GULP energy per Si atom -5586.065145 kJ/mol
# Density = 2.065397 g / cm^3
# Si number density = 20.701083 Si / 1000 Ang^3
#
#
#
# Elastic Constant Matrix: (Units=GPa)
#
#
# Indices 1 2 3 4 5 6 
#
# 1 163.5442 58.9162 52.4648 0.0000 0.0000 0.0000
# 2 58.9162 89.9941 48.6024 0.0000 0.0000 0.0000
# 3 52.4648 48.6024 105.4860 0.0000 0.0000 0.0000
# 4 0.0000 0.0000 0.0000 24.6464 0.0000 0.0000
# 5 0.0000 0.0000 0.0000 0.0000 13.7065 0.0000
# 6 0.0000 0.0000 0.0000 0.0000 0.0000 44.8012
#
#
#
# Elastic Compliance Matrix: (Units=1/GPa)
#
#
# Indices 1 2 3 4 5 6 
#
# 1 0.008362 -0.004297 -0.002179 0.000000 0.000000 0.000000
# 2 -0.004297 0.017001 -0.005696 0.000000 0.000000 0.000000
# 3 -0.002179 -0.005696 0.013188 0.000000 0.000000 0.000000
# 4 0.000000 0.000000 0.000000 0.040574 0.000000 0.000000
# 5 0.000000 0.000000 0.000000 0.000000 0.072958 0.000000
# 6 0.000000 0.000000 0.000000 0.000000 0.000000 0.022321
#
#
# Mechanical properties :
#
#
# Convention : Reuss Voigt Hill
#
# Bulk Modulus (GPa) = 70.38923 75.44345 72.91634
# Shear Modulus (GPa) = 24.57202 29.90022 27.23612
#
# Velocity S-wave (km/s) = 3.44901 3.80462 3.63117
# Velocity P-wave (km/s) = 7.06664 7.47151 7.27190
#
# Compressibility (1/GPa) = 0.01420672
#
# Stress axis : x y z
#
# Youngs Moduli (GPa) = 119.59405 58.81863 75.82680
#
# Poissons Ratio (x) = 0.25277 0.16521
# Poissons Ratio (y) = 0.51395 0.43191
# Poissons Ratio (z) = 0.26056 0.33503
#
# Static dielectric constant tensor:
#      x y z
#    x 1.801910 0.000000 0.000000 
#    y 0.000000 1.868430 0.000000 
#    z 0.000000 0.000000 1.729990 
# 
# From -- ./inp_files/34744.got.cif
#   From: 2010.05.17/outbox.cif.g08.bks.cpg/sg58_18_cif.got.tgz:34744.got - 2010.06.03 14:20:14.
