data_PCOD9445393
_publ_section_title
;
Structure prediction by ZEFSAII (Michael W. Deem and Ramdas Pophale) SiO2 
 PCOD9445393
Probable space group: P N N M
;
_chemical_formula_sum "Si O2"
_cell_formula_units_Z 40
_cell_length_a 24.823567
_cell_length_b 10.213939
_cell_length_c 8.094750
_cell_angle_alpha 90.000000
_cell_angle_beta 90.000000
_cell_angle_gamma 90.000000
_cell_volume 2052.394714
_symmetry_space_group_name_H-M "P N N M"
_symmetry_group_IT_number 58
_symmetry_cell_setting 'orthorhombic'
loop_
_space_group_symop_operation_xyz
x,y,z
-x,-y,z
1/2+x,1/2-y,1/2-z
1/2-x,1/2+y,1/2-z
-x,-y,-z
x,y,-z
1/2-x,1/2+y,1/2+z
1/2+x,1/2-y,1/2+z
loop_
_atom_site_type_symbol
_atom_site_label
_atom_site_fract_x
_atom_site_fract_y
_atom_site_fract_z
Si Si1 0.000000 0.000000 0.744967
Si Si2 0.601074 0.208034 0.500000
Si Si3 0.385340 0.616167 0.820228
Si Si4 0.700475 0.842586 0.810707
Si Si5 0.522802 0.721829 0.500000
Si Si6 0.374254 0.096528 0.500000
Si Si7 0.792193 0.061332 0.195378
O O1 0.053306 0.064620 0.669510
O O2 0.975279 0.120316 0.848917
O O3 0.619158 0.285672 0.664938
O O4 0.536090 0.213629 0.500000
O O5 0.619787 0.059636 0.500000
O O6 0.345591 0.496361 0.779970
O O7 0.370782 0.673619 0.000000
O O8 0.656957 0.863329 0.666902
O O9 0.746187 0.952109 0.788990
O O10 0.723723 0.697562 0.779214
O O11 0.680161 0.851121 0.000000
O O12 0.569191 0.827830 0.500000
O O13 0.802301 0.082158 0.000000
#
# Coordination Sequence:
#
# PCOD9445393 Si02
#       7
#     4   4   8   8   4   4   8
#     4   9  19  36  64  97 127 160 217 269 324 381
#     4  10  24  41  62  95 129 172 213 268 321 384
#     4  11  22  38  65  92 129 169 215 268 322 376
#     4  11  27  42  65  94 127 168 215 262 321 382
#     4   9  19  38  66  94 127 167 213 263 323 390
#     4  12  24  43  68  91 131 173 214 262 332 372
#     4  11  24  43  64  93 129 166 212 266 318 380
#
# _framework density 19.489429000000001
#
# number of rings (size 3 to 8) (size 9 to 14) (size 15 to 20)
#    0.000    1.400    2.000    3.000    5.600    0.800 
#    0.000    4.000    0.000    6.000    0.000    0.000 
#    0.000    0.000    0.000    0.000    0.000    0.000 
#
# Total GULP energy -223302.459806 kJ/mol
# GULP energy per Si atom -5582.561495 kJ/mol
# Density = 1.944507 g / cm^3
# Si number density = 19.489429 Si / 1000 Ang^3
#
#
#
# Elastic Constant Matrix: (Units=GPa)
#
#
# Indices 1 2 3 4 5 6 
#
# 1 25.3815 22.9003 23.3285 0.0000 0.0000 0.0000
# 2 22.9003 139.6455 48.0179 0.0000 0.0000 0.0000
# 3 23.3285 48.0179 139.0731 0.0000 0.0000 0.0000
# 4 0.0000 0.0000 0.0000 15.2906 0.0000 0.0000
# 5 0.0000 0.0000 0.0000 0.0000 36.5948 0.0000
# 6 0.0000 0.0000 0.0000 0.0000 0.0000 25.7371
#
#
#
# Elastic Compliance Matrix: (Units=1/GPa)
#
#
# Indices 1 2 3 4 5 6 
#
# 1 0.050820 -0.006130 -0.006408 0.000000 0.000000 0.000000
# 2 -0.006130 0.008865 -0.002033 0.000000 0.000000 0.000000
# 3 -0.006408 -0.002033 0.008967 0.000000 0.000000 0.000000
# 4 0.000000 0.000000 0.000000 0.065399 0.000000 0.000000
# 5 0.000000 0.000000 0.000000 0.000000 0.027326 0.000000
# 6 0.000000 0.000000 0.000000 0.000000 0.000000 0.038854
#
#
# Mechanical properties :
#
#
# Convention : Reuss Voigt Hill
#
# Bulk Modulus (GPa) = 25.31007 54.73263 40.02135
# Shear Modulus (GPa) = 20.61482 29.51473 25.06477
#
# Velocity S-wave (km/s) = 3.25583 3.89575 3.59007
# Velocity P-wave (km/s) = 5.21043 6.95557 6.14527
#
# Compressibility (1/GPa) = 0.03950997
#
# Stress axis : x y z
#
# Youngs Moduli (GPa) = 19.67748 112.80032 111.51821
#
# Poissons Ratio (x) = 0.69151 0.71460
# Poissons Ratio (y) = 0.12063 0.22667
# Poissons Ratio (z) = 0.12609 0.22927
#
# Static dielectric constant tensor:
#      x y z
#    x 1.661530 0.000000 0.000000 
#    y 0.000000 1.653870 0.000000 
#    z 0.000000 0.000000 1.722750 
# 
# From -- ./inp_files/10310.got.cif
#   From: 2010.05.17/outbox.cif.g08.bks.cpg/sg58_6_cif.got.tgz:10310.got - 2010.06.03 14:20:14.
