data_PCOD9445647
_publ_section_title
;
Structure prediction by ZEFSAII (Michael W. Deem and Ramdas Pophale) SiO2 
 PCOD9445647
Probable space group: P N N M
;
_chemical_formula_sum "Si O2"
_cell_formula_units_Z 60
_cell_length_a 13.957234
_cell_length_b 10.522439
_cell_length_c 20.496755
_cell_angle_alpha 90.000000
_cell_angle_beta 90.000000
_cell_angle_gamma 90.000000
_cell_volume 3010.238365
_symmetry_space_group_name_H-M "P N N M"
_symmetry_group_IT_number 58
_symmetry_cell_setting 'orthorhombic'
loop_
_space_group_symop_operation_xyz
x,y,z
-x,-y,z
1/2+x,1/2-y,1/2-z
1/2-x,1/2+y,1/2-z
-x,-y,-z
x,y,-z
1/2-x,1/2+y,1/2+z
1/2+x,1/2-y,1/2+z
loop_
_atom_site_type_symbol
_atom_site_label
_atom_site_fract_x
_atom_site_fract_y
_atom_site_fract_z
Si Si1 0.405927 0.598216 0.500000
Si Si2 0.829526 0.412153 0.135277
Si Si3 0.297151 0.475809 0.380651
Si Si4 0.528823 0.690390 0.377740
Si Si5 0.625361 0.164192 0.302255
Si Si6 0.194482 0.670214 0.285022
Si Si7 0.834282 0.761605 0.423512
Si Si8 0.015170 0.358265 0.331556
O O1 0.330078 0.559253 0.442005
O O2 0.485696 0.636825 0.443936
O O3 0.912486 0.320100 0.108880
O O4 0.866278 0.555381 0.142915
O O5 0.812765 0.370413 0.210117
O O6 0.731575 0.381752 0.097243
O O7 0.392762 0.409315 0.351901
O O8 0.240810 0.558443 0.328332
O O9 0.232457 0.360374 0.407142
O O10 0.443410 0.725239 0.329168
O O11 0.731556 0.214068 0.289160
O O12 0.576019 0.120084 0.235084
O O13 0.088392 0.695229 0.311770
O O14 0.856369 0.766381 0.500000
O O15 0.926689 0.735391 0.378683
O O16 0.000000 0.500000 0.360859
#
# Coordination Sequence:
#
# PCOD9445647 Si02
#       8
#     4   8   8   8   8   8   8   8
#     4  12  23  40  61  99 143 168 222 278 332 396
#     4  11  24  41  64  93 128 173 219 271 327 393
#     4  11  22  39  65  97 134 172 214 280 327 386
#     4  11  23  38  65  94 131 177 208 271 339 381
#     4  12  23  43  65  96 134 171 221 279 326 393
#     4  12  24  40  69  98 129 169 225 276 334 379
#     4  11  24  43  66  94 134 178 214 259 336 403
#     4  12  22  41  67  99 131 162 217 281 326 392
#
# _framework density 19.931975999999999
#
# number of rings (size 3 to 8) (size 9 to 14) (size 15 to 20)
#    0.000    0.533    7.333    1.600    4.667    0.267 
#    2.400    1.333    0.000    0.800    0.000    0.000 
#    0.000    0.000    0.000    0.000    0.000    0.000 
#
# Total GULP energy -334375.083731 kJ/mol
# GULP energy per Si atom -5572.918062 kJ/mol
# Density = 1.988661 g / cm^3
# Si number density = 19.931976 Si / 1000 Ang^3
#
#
#
# Elastic Constant Matrix: (Units=GPa)
#
#
# Indices 1 2 3 4 5 6 
#
# 1 141.3415 33.1552 36.3391 0.0000 0.0000 0.0000
# 2 33.1552 53.8277 24.9020 0.0000 0.0000 0.0000
# 3 36.3391 24.9020 83.8216 0.0000 0.0000 0.0000
# 4 0.0000 0.0000 0.0000 2.4954 0.0000 0.0000
# 5 0.0000 0.0000 0.0000 0.0000 2.0290 0.0000
# 6 0.0000 0.0000 0.0000 0.0000 0.0000 30.0424
#
#
#
# Elastic Compliance Matrix: (Units=1/GPa)
#
#
# Indices 1 2 3 4 5 6 
#
# 1 0.008709 -0.004194 -0.002530 0.000000 0.000000 0.000000
# 2 -0.004194 0.023558 -0.005180 0.000000 0.000000 0.000000
# 3 -0.002530 -0.005180 0.014566 0.000000 0.000000 0.000000
# 4 0.000000 0.000000 0.000000 0.400732 0.000000 0.000000
# 5 0.000000 0.000000 0.000000 0.000000 0.492850 0.000000
# 6 0.000000 0.000000 0.000000 0.000000 0.000000 0.033286
#
#
# Mechanical properties :
#
#
# Convention : Reuss Voigt Hill
#
# Bulk Modulus (GPa) = 43.43216 51.97593 47.70405
# Shear Modulus (GPa) = 4.97421 19.21967 12.09694
#
# Velocity S-wave (km/s) = 1.58146 3.10863 2.46623
# Velocity P-wave (km/s) = 5.01719 6.24644 5.66525
#
# Compressibility (1/GPa) = 0.02302441
#
# Stress axis : x y z
#
# Youngs Moduli (GPa) = 114.81965 42.44882 68.65403
#
# Poissons Ratio (x) = 0.17804 0.17367
# Poissons Ratio (y) = 0.48158 0.35565
# Poissons Ratio (z) = 0.29046 0.21990
#
# Static dielectric constant tensor:
#      x y z
#    x 1.727630 0.000000 0.000000 
#    y 0.000000 1.782500 0.000000 
#    z 0.000000 0.000000 1.655600 
# 
# From -- ./inp_files/29676.got.cif
#   From: 2010.05.17/outbox.cif.g08.bks.cpg/sg58_15_cif.got.tgz:29676.got - 2010.06.03 14:20:14.
