data_PCOD9445315
_publ_section_title
;
Structure prediction by ZEFSAII (Michael W. Deem and Ramdas Pophale) SiO2 
 PCOD9445315
Probable space group: P N N M
;
_chemical_formula_sum "Si O2"
_cell_formula_units_Z 64
_cell_length_a 8.441322
_cell_length_b 12.946685
_cell_length_c 29.747244
_cell_angle_alpha 90.000000
_cell_angle_beta 90.000000
_cell_angle_gamma 90.000000
_cell_volume 3250.991128
_symmetry_space_group_name_H-M "P N N M"
_symmetry_group_IT_number 58
_symmetry_cell_setting 'orthorhombic'
loop_
_space_group_symop_operation_xyz
x,y,z
-x,-y,z
1/2+x,1/2-y,1/2-z
1/2-x,1/2+y,1/2-z
-x,-y,-z
x,y,-z
1/2-x,1/2+y,1/2+z
1/2+x,1/2-y,1/2+z
loop_
_atom_site_type_symbol
_atom_site_label
_atom_site_fract_x
_atom_site_fract_y
_atom_site_fract_z
Si Si1 0.424259 0.111097 0.953428
Si Si2 0.786857 0.297848 0.368715
Si Si3 0.961828 0.878999 0.623564
Si Si4 0.730020 0.255429 0.051429
Si Si5 0.048022 0.876609 0.114057
Si Si6 0.665089 0.627062 0.712619
Si Si7 0.367546 0.686206 0.776105
Si Si8 0.348469 0.072556 0.219604
O O1 0.331160 0.123211 0.908147
O O2 0.569241 0.189632 0.952505
O O3 0.500000 0.000000 0.954244
O O4 0.330628 0.127517 0.000000
O O5 0.878863 0.192283 0.380071
O O6 0.599264 0.303008 0.372332
O O7 0.842057 0.347302 0.321723
O O8 0.827663 0.842154 0.587553
O O9 0.908767 0.852448 0.674305
O O10 0.000000 0.000000 0.618578
O O11 0.860161 0.177475 0.072771
O O12 0.771348 0.289044 0.000000
O O13 0.152956 0.865388 0.158800
O O14 0.000000 0.000000 0.108400
O O15 0.511566 0.660668 0.741804
O O16 0.818594 0.693919 0.726677
O O17 0.701428 0.506954 0.718280
O O18 0.198203 0.635081 0.763579
O O19 0.500000 0.000000 0.218487
#
# Coordination Sequence:
#
# PCOD9445315 Si02
#       8
#     8   8   8   8   8   8   8   8
#     4   9  18  33  57  89 124 162 210 260 313 386
#     4  11  22  38  62  91 124 169 212 263 325 393
#     4  11  24  45  67  90 122 171 225 280 329 386
#     4  10  23  42  65  95 129 169 219 277 335 396
#     4  12  22  39  64  98 138 172 207 264 334 404
#     4  12  23  41  61  94 135 176 219 264 327 392
#     4  12  24  41  62  90 130 173 221 270 320 391
#     4  12  24  39  62  95 129 178 217 266 326 397
#
# _framework density 19.686304
#
# number of rings (size 3 to 8) (size 9 to 14) (size 15 to 20)
#    0.000    0.875    3.750    4.500    1.750    1.000 
#    2.250    0.625    0.000    0.750    0.000    0.000 
#    0.000    0.000    0.000    0.000    0.000    0.000 
#
# Total GULP energy -356601.816818 kJ/mol
# GULP energy per Si atom -5571.903388 kJ/mol
# Density = 1.964150 g / cm^3
# Si number density = 19.686304 Si / 1000 Ang^3
#
#
#
# Elastic Constant Matrix: (Units=GPa)
#
#
# Indices 1 2 3 4 5 6 
#
# 1 57.9999 30.3543 16.0905 0.0000 0.0000 0.0000
# 2 30.3543 115.0908 31.8187 0.0000 0.0000 0.0000
# 3 16.0905 31.8187 107.9521 0.0000 0.0000 0.0000
# 4 0.0000 0.0000 0.0000 23.2610 0.0000 0.0000
# 5 0.0000 0.0000 0.0000 0.0000 39.1153 0.0000
# 6 0.0000 0.0000 0.0000 0.0000 0.0000 26.0165
#
#
#
# Elastic Compliance Matrix: (Units=1/GPa)
#
#
# Indices 1 2 3 4 5 6 
#
# 1 0.020244 -0.004905 -0.001572 0.000000 0.000000 0.000000
# 2 -0.004905 0.010648 -0.002407 0.000000 0.000000 0.000000
# 3 -0.001572 -0.002407 0.010207 0.000000 0.000000 0.000000
# 4 0.000000 0.000000 0.000000 0.042990 0.000000 0.000000
# 5 0.000000 0.000000 0.000000 0.000000 0.025565 0.000000
# 6 0.000000 0.000000 0.000000 0.000000 0.000000 0.038437
#
#
# Mechanical properties :
#
#
# Convention : Reuss Voigt Hill
#
# Bulk Modulus (GPa) = 42.86026 48.61889 45.73958
# Shear Modulus (GPa) = 28.79559 31.19717 29.99638
#
# Velocity S-wave (km/s) = 3.82870 3.98517 3.90772
# Velocity P-wave (km/s) = 6.43150 6.77686 6.60644
#
# Compressibility (1/GPa) = 0.02333164
#
# Stress axis : x y z
#
# Youngs Moduli (GPa) = 49.39641 93.91486 97.96983
#
# Poissons Ratio (x) = 0.46063 0.15399
# Poissons Ratio (y) = 0.24228 0.23585
# Poissons Ratio (z) = 0.07764 0.22609
#
# Static dielectric constant tensor:
#      x y z
#    x 1.742200 0.000000 0.000000 
#    y 0.000000 1.651060 0.000000 
#    z 0.000000 0.000000 1.779570 
# 
# From -- ./inp_files/34763.got.cif
#   From: 2010.05.17/outbox.cif.g08.bks.cpg/sg58_18_cif.got.tgz:34763.got - 2010.06.03 14:20:14.
