data_PCOD9445176
_publ_section_title
;
Structure prediction by ZEFSAII (Michael W. Deem and Ramdas Pophale) SiO2 
 PCOD9445176
Probable space group: P N N M
;
_chemical_formula_sum "Si O2"
_cell_formula_units_Z 24
_cell_length_a 5.097746
_cell_length_b 8.015513
_cell_length_c 28.996685
_cell_angle_alpha 90.000000
_cell_angle_beta 90.000000
_cell_angle_gamma 90.000000
_cell_volume 1184.834976
_symmetry_space_group_name_H-M "P N N M"
_symmetry_group_IT_number 58
_symmetry_cell_setting 'orthorhombic'
loop_
_space_group_symop_operation_xyz
x,y,z
-x,-y,z
1/2+x,1/2-y,1/2-z
1/2-x,1/2+y,1/2-z
-x,-y,-z
x,y,-z
1/2-x,1/2+y,1/2+z
1/2+x,1/2-y,1/2+z
loop_
_atom_site_type_symbol
_atom_site_label
_atom_site_fract_x
_atom_site_fract_y
_atom_site_fract_z
Si Si1 0.250048 0.116916 0.867925
Si Si2 0.093263 0.309680 0.776256
Si Si3 0.744612 0.115525 0.553086
O O1 0.193904 0.234886 0.824260
O O2 0.284364 0.231498 0.912738
O O3 0.500000 0.000000 0.859408
O O4 0.000000 0.000000 0.874662
O O5 0.339621 0.292267 0.741638
O O6 0.000000 0.500000 0.780267
O O7 0.698166 0.169153 0.500000
O O8 0.500000 0.000000 0.567621
O O9 0.000000 0.000000 0.554100
#
# Coordination Sequence:
#
# PCOD9445176 Si02
#       3
#     8   8   8
#     4  12  25  41  63  94 128 162 206 254 308 367
#     4  12  25  43  65  90 124 163 206 254 307 364
#     4  10  22  42  66  92 124 164 208 253 307 367
#
# _framework density 20.255984000000002
#
# number of rings (size 3 to 8) (size 9 to 14) (size 15 to 20)
#    0.000    0.667    0.000    9.000    0.000    4.000 
#    0.000    0.000    0.000    0.000    0.000    0.000 
#    0.000    0.000    0.000    0.000    0.000    0.000 
#
# Total GULP energy -134425.177436 kJ/mol
# GULP energy per Si atom -5601.049060 kJ/mol
# Density = 2.020988 g / cm^3
# Si number density = 20.255984 Si / 1000 Ang^3
#
#
#
# Elastic Constant Matrix: (Units=GPa)
#
#
# Indices 1 2 3 4 5 6 
#
# 1 146.8113 57.7003 32.6622 0.0000 0.0000 0.0000
# 2 57.7003 138.1926 82.7380 0.0000 0.0000 0.0000
# 3 32.6622 82.7380 111.3343 0.0000 0.0000 0.0000
# 4 0.0000 0.0000 0.0000 197.6356 0.0000 0.0000
# 5 0.0000 0.0000 0.0000 0.0000 57.5952 0.0000
# 6 0.0000 0.0000 0.0000 0.0000 0.0000 43.5003
#
#
#
# Elastic Compliance Matrix: (Units=1/GPa)
#
#
# Indices 1 2 3 4 5 6 
#
# 1 0.008152 -0.003553 0.000249 0.000000 0.000000 0.000000
# 2 -0.003553 0.014585 -0.009797 0.000000 0.000000 0.000000
# 3 0.000249 -0.009797 0.016189 0.000000 0.000000 0.000000
# 4 0.000000 0.000000 0.000000 0.005060 0.000000 0.000000
# 5 0.000000 0.000000 0.000000 0.000000 0.017363 0.000000
# 6 0.000000 0.000000 0.000000 0.000000 0.000000 0.022988
#
#
# Mechanical properties :
#
#
# Convention : Reuss Voigt Hill
#
# Bulk Modulus (GPa) = 78.58375 82.50435 80.54405
# Shear Modulus (GPa) = 43.56123 74.62873 59.09498
#
# Velocity S-wave (km/s) = 4.64242 6.07641 5.40716
# Velocity P-wave (km/s) = 8.22287 9.48945 8.87877
#
# Compressibility (1/GPa) = 0.01272528
#
# Stress axis : x y z
#
# Youngs Moduli (GPa) = 122.66191 68.56347 61.76895
#
# Poissons Ratio (x) = 0.24359 -0.01535
# Poissons Ratio (y) = 0.43579 0.60512
# Poissons Ratio (z) = -0.03048 0.67169
#
# Static dielectric constant tensor:
#      x y z
#    x 1.681900 0.000000 0.000000 
#    y 0.000000 1.670400 0.000000 
#    z 0.000000 0.000000 1.721130 
# 
# From -- ./inp_files/30677.got.cif
#   From: 2010.05.17/outbox.cif.g08.bks.cpg/sg58_16_cif.got.tgz:30677.got - 2010.06.03 14:20:14.
