data_PCOD9445019
_publ_section_title
;
Structure prediction by ZEFSAII (Michael W. Deem and Ramdas Pophale) SiO2 
 PCOD9445019
Probable space group: P N N M
;
_chemical_formula_sum "Si O2"
_cell_formula_units_Z 24
_cell_length_a 7.092486
_cell_length_b 6.804279
_cell_length_c 17.043380
_cell_angle_alpha 90.000000
_cell_angle_beta 90.000000
_cell_angle_gamma 90.000000
_cell_volume 822.500797
_symmetry_space_group_name_H-M "P N N M"
_symmetry_group_IT_number 58
_symmetry_cell_setting 'orthorhombic'
loop_
_space_group_symop_operation_xyz
x,y,z
-x,-y,z
1/2+x,1/2-y,1/2-z
1/2-x,1/2+y,1/2-z
-x,-y,-z
x,y,-z
1/2-x,1/2+y,1/2+z
1/2+x,1/2-y,1/2+z
loop_
_atom_site_type_symbol
_atom_site_label
_atom_site_fract_x
_atom_site_fract_y
_atom_site_fract_z
Si Si1 0.172739 0.775841 0.500000
Si Si2 0.357669 0.183308 0.660542
Si Si3 0.941189 0.270779 0.667178
Si Si4 0.226308 0.731869 0.000000
O O1 0.199688 0.728030 0.592932
O O2 0.947214 0.716253 0.500000
O O3 0.258597 0.995279 0.500000
O O4 0.132261 0.145463 0.653247
O O5 0.370533 0.282811 0.745661
O O6 0.380009 0.296358 0.578198
O O7 0.500000 0.000000 0.660533
O O8 0.000000 0.500000 0.672912
#
# Coordination Sequence:
#
# PCOD9445019 Si02
#       4
#     4   8   8   4
#     4   9  19  36  65  92 130 179 211 274 332 406
#     4  10  22  40  63  96 129 174 218 276 325 401
#     4  10  22  39  63  95 133 171 222 273 335 387
#     4   9  19  38  65  94 126 174 232 256 328 406
#
# _framework density 29.179303000000001
#
# number of rings (size 3 to 8) (size 9 to 14) (size 15 to 20)
#    0.000    2.333    0.000    1.000    9.333    0.000 
#    0.000    0.000    0.000    2.000    0.000    0.000 
#    0.000    0.000    0.000    0.000    0.000    0.000 
#
# Total GULP energy -133889.544888 kJ/mol
# GULP energy per Si atom -5578.731037 kJ/mol
# Density = 2.911289 g / cm^3
# Si number density = 29.179303 Si / 1000 Ang^3
#
#
#
# Elastic Constant Matrix: (Units=GPa)
#
#
# Indices 1 2 3 4 5 6 
#
# 1 176.0413 37.6969 30.1053 0.0000 0.0000 0.0000
# 2 37.6969 96.8602 42.9003 0.0000 0.0000 0.0000
# 3 30.1053 42.9003 366.5741 0.0000 0.0000 0.0000
# 4 0.0000 0.0000 0.0000 26.5211 0.0000 0.0000
# 5 0.0000 0.0000 0.0000 0.0000 2.4203 0.0000
# 6 0.0000 0.0000 0.0000 0.0000 0.0000 35.0909
#
#
#
# Elastic Compliance Matrix: (Units=1/GPa)
#
#
# Indices 1 2 3 4 5 6 
#
# 1 0.006217 -0.002313 -0.000240 0.000000 0.000000 0.000000
# 2 -0.002313 0.011749 -0.001185 0.000000 0.000000 0.000000
# 3 -0.000240 -0.001185 0.002886 0.000000 0.000000 0.000000
# 4 0.000000 0.000000 0.000000 0.037706 0.000000 0.000000
# 5 0.000000 0.000000 0.000000 0.000000 0.413168 0.000000
# 6 0.000000 0.000000 0.000000 0.000000 0.000000 0.028497
#
#
# Mechanical properties :
#
#
# Convention : Reuss Voigt Hill
#
# Bulk Modulus (GPa) = 74.75985 95.65340 85.20662
# Shear Modulus (GPa) = 9.76260 48.05801 28.91030
#
# Velocity S-wave (km/s) = 1.83112 4.06271 3.15108
# Velocity P-wave (km/s) = 5.49064 7.40675 6.51947
#
# Compressibility (1/GPa) = 0.01337616
#
# Stress axis : x y z
#
# Youngs Moduli (GPa) = 160.85280 85.11118 346.45897
#
# Poissons Ratio (x) = 0.19689 0.08309
# Poissons Ratio (y) = 0.37210 0.41057
# Poissons Ratio (z) = 0.03858 0.10086
#
# Static dielectric constant tensor:
#      x y z
#    x 2.314510 0.000000 0.000000 
#    y 0.000000 2.330270 0.000000 
#    z 0.000000 0.000000 2.365610 
# 
# From -- ./inp_files/24649.got.cif
#   From: 2010.05.17/outbox.cif.g08.bks.cpg/sg58_13_cif.got.tgz:24649.got - 2010.06.03 14:20:14.
