data_PCOD9445460
_publ_section_title
;
Structure prediction by ZEFSAII (Michael W. Deem and Ramdas Pophale) SiO2 
 PCOD9445460
Probable space group: P N N M
;
_chemical_formula_sum "Si O2"
_cell_formula_units_Z 40
_cell_length_a 18.185606
_cell_length_b 12.566029
_cell_length_c 8.900313
_cell_angle_alpha 90.000000
_cell_angle_beta 90.000000
_cell_angle_gamma 90.000000
_cell_volume 2033.907113
_symmetry_space_group_name_H-M "P N N M"
_symmetry_group_IT_number 58
_symmetry_cell_setting 'orthorhombic'
loop_
_space_group_symop_operation_xyz
x,y,z
-x,-y,z
1/2+x,1/2-y,1/2-z
1/2-x,1/2+y,1/2-z
-x,-y,-z
x,y,-z
1/2-x,1/2+y,1/2+z
1/2+x,1/2-y,1/2+z
loop_
_atom_site_type_symbol
_atom_site_label
_atom_site_fract_x
_atom_site_fract_y
_atom_site_fract_z
Si Si1 0.134464 0.447479 0.177768
Si Si2 0.614455 0.803717 0.679540
Si Si3 0.697125 0.618666 0.821644
Si Si4 0.417987 0.545488 0.320776
Si Si5 0.542737 0.237624 0.821504
O O1 0.123541 0.571580 0.212752
O O2 0.218963 0.415566 0.203084
O O3 0.082403 0.370868 0.272444
O O4 0.117580 0.432500 0.000000
O O5 0.612051 0.789686 0.500000
O O6 0.678886 0.732085 0.747976
O O7 0.538487 0.763416 0.750669
O O8 0.641942 0.533313 0.748729
O O9 0.683919 0.623527 0.000000
O O10 0.500000 0.500000 0.291129
O O11 0.408451 0.552206 0.500000
O O12 0.414425 0.661871 0.247663
O O13 0.538606 0.247137 0.000000
#
# Coordination Sequence:
#
# PCOD9445460 Si02
#       5
#     8   8   8   8   8
#     4  10  25  45  65  93 132 172 211 260 322 386
#     4  11  23  43  67  92 128 173 215 261 320 383
#     4  11  24  42  65  97 130 166 213 267 320 377
#     4  11  23  41  66  94 126 170 214 259 319 382
#     4  12  25  41  67  98 128 165 216 270 319 376
#
# _framework density 19.666581999999998
#
# number of rings (size 3 to 8) (size 9 to 14) (size 15 to 20)
#    0.000    1.000    2.000    4.200    2.800    6.400 
#    0.000    0.000    0.000    0.000    0.000    0.000 
#    0.000    0.000    0.000    0.000    0.000    0.000 
#
# Total GULP energy -223893.855129 kJ/mol
# GULP energy per Si atom -5597.346378 kJ/mol
# Density = 1.962182 g / cm^3
# Si number density = 19.666582 Si / 1000 Ang^3
#
#
#
# Elastic Constant Matrix: (Units=GPa)
#
#
# Indices 1 2 3 4 5 6 
#
# 1 24.2566 1.2324 20.2733 0.0000 0.0000 0.0000
# 2 1.2324 98.2015 36.3129 0.0000 0.0000 0.0000
# 3 20.2733 36.3129 63.7250 0.0000 0.0000 0.0000
# 4 0.0000 0.0000 0.0000 32.6046 0.0000 0.0000
# 5 0.0000 0.0000 0.0000 0.0000 -30.1770 0.0000
# 6 0.0000 0.0000 0.0000 0.0000 0.0000 6.2051
#
#
#
# Elastic Compliance Matrix: (Units=1/GPa)
#
#
# Indices 1 2 3 4 5 6 
#
# 1 0.060854 0.008103 -0.023977 0.000000 0.000000 0.000000
# 2 0.008103 0.013981 -0.010544 0.000000 0.000000 0.000000
# 3 -0.023977 -0.010544 0.029329 0.000000 0.000000 0.000000
# 4 0.000000 0.000000 0.000000 0.030670 0.000000 0.000000
# 5 0.000000 0.000000 0.000000 0.000000 -0.033138 0.000000
# 6 0.000000 0.000000 0.000000 0.000000 0.000000 0.161159
#
#
# Mechanical properties :
#
#
# Convention : Reuss Voigt Hill
#
# Bulk Modulus (GPa) = 19.48345 33.53558 26.50951
# Shear Modulus (GPa) = 15.02401 10.28417 12.65409
#
# Velocity S-wave (km/s) = 2.76694 2.28924 2.53935
# Velocity P-wave (km/s) = 4.48735 4.90679 4.70175
#
# Compressibility (1/GPa) = 0.05132562
#
# Stress axis : x y z
#
# Youngs Moduli (GPa) = 16.43288 71.52796 34.09601
#
# Poissons Ratio (x) = -0.57956 0.81752
# Poissons Ratio (y) = -0.13315 0.35952
# Poissons Ratio (z) = 0.39401 0.75422
#
# Static dielectric constant tensor:
#      x y z
#    x 1.660490 0.000000 0.000000 
#    y 0.000000 1.677950 0.000000 
#    z 0.000000 0.000000 1.653550 
# 
# From -- ./inp_files/3776.got.cif
#   From: 2010.05.17/outbox.cif.g08.bks.cpg/sg58_2_cif.got.tgz:3776.got - 2010.06.03 14:20:14.
