data_PCOD9445987
_publ_section_title
;
Structure prediction by ZEFSAII (Michael W. Deem and Ramdas Pophale) SiO2 
 PCOD9445987
Probable space group: P N N M
;
_chemical_formula_sum "Si O2"
_cell_formula_units_Z 64
_cell_length_a 15.000000
_cell_length_b 24.000000
_cell_length_c 9.000000
_cell_angle_alpha 90.000000
_cell_angle_beta 90.000000
_cell_angle_gamma 90.000000
_cell_volume 3240.000000
_symmetry_space_group_name_H-M "P N N M"
_symmetry_group_IT_number 58
_symmetry_cell_setting 'orthorhombic'
loop_
_space_group_symop_operation_xyz
x,y,z
-x,-y,z
1/2+x,1/2-y,1/2-z
1/2-x,1/2+y,1/2-z
-x,-y,-z
x,y,-z
1/2-x,1/2+y,1/2+z
1/2+x,1/2-y,1/2+z
loop_
_atom_site_type_symbol
_atom_site_label
_atom_site_fract_x
_atom_site_fract_y
_atom_site_fract_z
Si Si1 0.047165 0.559953 0.170608
Si Si2 0.092743 0.970834 0.320515
Si Si3 0.191828 0.876620 0.178095
Si Si4 0.183637 0.173267 0.681173
Si Si5 0.749152 0.447438 0.180560
Si Si6 0.036268 0.253848 0.674841
Si Si7 0.151913 0.747863 0.177085
Si Si8 0.390022 0.874019 0.825335
O O1 0.147885 0.553664 0.232339
O O2 0.000000 0.500000 0.170274
O O3 0.977050 0.599329 0.252389
O O4 0.055867 0.579795 0.000000
O O5 0.091509 0.968505 0.500000
O O6 0.112784 0.910538 0.254571
O O7 0.180697 0.005061 0.270771
O O8 0.000000 0.000000 0.274696
O O9 0.177568 0.811523 0.206994
O O10 0.292377 0.891900 0.232608
O O11 0.189748 0.885157 0.000000
O O12 0.181596 0.176590 0.500000
O O13 0.201140 0.110018 0.721221
O O14 0.269131 0.208329 0.732440
O O15 0.092010 0.201109 0.732906
O O16 0.753675 0.451220 0.000000
O O17 0.017913 0.246240 0.500000
O O18 0.943720 0.264467 0.754649
O O19 0.100005 0.307499 0.689207
O O20 0.146285 0.740465 0.000000
O O21 0.392192 0.887439 0.000000
#
# Coordination Sequence:
#
# PCOD9445987 Si02
#       8
#     8   8   8   8   8   8   8   8
#     4  10  20  34  55  82 110 143 184 229 275 323
#     4  10  22  38  58  85 111 142 191 241 277 319
#     4  10  21  38  58  80 112 152 187 223 277 340
#     4   9  17  33  56  77 106 146 182 216 268 334
#     4   9  18  33  53  79 110 143 181 227 277 326
#     4  10  20  34  55  81 108 142 183 229 278 327
#     4  10  20  36  57  82 110 146 188 224 270 336
#     4  10  20  36  56  82 114 146 182 225 277 338
#
# _framework density 19.753086
#
# number of rings (size 3 to 8) (size 9 to 14) (size 15 to 20)
#    0.000    2.250    1.250    1.500    1.750    4.000 
#    0.000    1.250    0.000    1.500    0.000    0.000 
#    0.000    0.000    0.000    0.000    0.000    0.000 
#
# Total GULP energy -356957.803999 kJ/mol
# GULP energy per Si atom -5577.465687 kJ/mol
# Density = 1.970813 g / cm^3
# Si number density = 19.753086 Si / 1000 Ang^3
#
#
#
# Elastic Constant Matrix: (Units=GPa)
#
#
# Indices 1 2 3 4 5 6 
#
# 1 38.7412 2.4849 4.6994 0.0000 0.0000 0.0000
# 2 2.4849 26.2927 17.1735 0.0000 0.0000 0.0000
# 3 4.6994 17.1735 -3.2586 0.0000 0.0000 0.0000
# 4 0.0000 0.0000 0.0000 15.8521 0.0000 0.0000
# 5 0.0000 0.0000 0.0000 0.0000 21.7012 0.0000
# 6 0.0000 0.0000 0.0000 0.0000 0.0000 30.9267
#
#
#
# Elastic Compliance Matrix: (Units=1/GPa)
#
#
# Indices 1 2 3 4 5 6 
#
# 1 0.025536 -0.005958 0.005427 0.000000 0.000000 0.000000
# 2 -0.005958 0.009952 0.043855 0.000000 0.000000 0.000000
# 3 0.005427 0.043855 -0.067928 0.000000 0.000000 0.000000
# 4 0.000000 0.000000 0.000000 0.063083 0.000000 0.000000
# 5 0.000000 0.000000 0.000000 0.000000 0.046080 0.000000
# 6 0.000000 0.000000 0.000000 0.000000 0.000000 0.032334
#
#
# Mechanical properties :
#
#
# Convention : Reuss Voigt Hill
#
# Bulk Modulus (GPa) = 18.44731 12.27677 15.36204
# Shear Modulus (GPa) = 123.52154 16.19052 69.85603
#
# Velocity S-wave (km/s) = 7.91635 2.86605 5.95327
# Velocity P-wave (km/s) = 9.63936 4.14499 7.41951
#
# Compressibility (1/GPa) = 0.05420845
#
# Stress axis : x y z
#
# Youngs Moduli (GPa) = 39.16017 100.48590 -14.72150
#
# Poissons Ratio (x) = 0.59870 0.07989
# Poissons Ratio (y) = 0.23332 0.64562
# Poissons Ratio (z) = -0.21252 -4.40684
#
# Static dielectric constant tensor:
#      x y z
#    x 1.685480 0.000000 0.000000 
#    y 0.000000 1.723100 0.000000 
#    z 0.000000 0.000000 1.678550 
# 
# From -- ./inp_files/6807.got.cif
#   From: 2010.05.17/outbox.ucp.g08.bks.cvg/sg58_4_cif.got.tgz:6807.got - 2010.06.11 16:41:41.
