data_PCOD9445683
_publ_section_title
;
Structure prediction by ZEFSAII (Michael W. Deem and Ramdas Pophale) SiO2 
 PCOD9445683
Probable space group: P N N M
;
_chemical_formula_sum "Si O2"
_cell_formula_units_Z 32
_cell_length_a 7.841951
_cell_length_b 8.071896
_cell_length_c 22.580232
_cell_angle_alpha 90.000000
_cell_angle_beta 90.000000
_cell_angle_gamma 90.000000
_cell_volume 1429.315429
_symmetry_space_group_name_H-M "P N N M"
_symmetry_group_IT_number 58
_symmetry_cell_setting 'orthorhombic'
loop_
_space_group_symop_operation_xyz
x,y,z
-x,-y,z
1/2+x,1/2-y,1/2-z
1/2-x,1/2+y,1/2-z
-x,-y,-z
x,y,-z
1/2-x,1/2+y,1/2+z
1/2+x,1/2-y,1/2+z
loop_
_atom_site_type_symbol
_atom_site_label
_atom_site_fract_x
_atom_site_fract_y
_atom_site_fract_z
Si Si1 0.327054 0.557564 0.618665
Si Si2 0.403942 0.225130 0.433278
Si Si3 0.233746 0.587725 0.183021
Si Si4 0.411578 0.240108 0.794978
O O1 0.500000 0.500000 0.654844
O O2 0.404469 0.709025 0.580611
O O3 0.298986 0.397650 0.577647
O O4 0.176021 0.611649 0.660095
O O5 0.385857 0.166955 0.500000
O O6 0.339746 0.102578 0.382773
O O7 0.399736 0.705229 0.188094
O O8 0.297054 0.406028 0.200214
O O9 0.101754 0.662368 0.230035
#
# Coordination Sequence:
#
# PCOD9445683 Si02
#       4
#     8   8   8   8
#     4   8  19  37  62  83 114 148 197 244 297 348
#     4   9  19  39  60  87 118 155 199 240 295 357
#     4  11  24  37  60  87 122 154 196 249 298 361
#     4  11  23  40  59  90 118 154 199 249 308 345
#
# _framework density 22.388338999999998
#
# number of rings (size 3 to 8) (size 9 to 14) (size 15 to 20)
#    1.500    0.500    0.000    4.500    3.500    7.000 
#    0.000   10.000    0.000    0.000    0.000    0.000 
#    0.000    0.000    0.000    0.000    0.000    0.000 
#
# Total GULP energy -178810.057215 kJ/mol
# GULP energy per Si atom -5587.814288 kJ/mol
# Density = 2.233738 g / cm^3
# Si number density = 22.388339 Si / 1000 Ang^3
#
#
#
# Elastic Constant Matrix: (Units=GPa)
#
#
# Indices 1 2 3 4 5 6 
#
# 1 93.4401 26.2619 37.9509 0.0000 0.0000 0.0000
# 2 26.2619 99.4702 40.6170 0.0000 0.0000 0.0000
# 3 37.9509 40.6170 168.7249 0.0000 0.0000 0.0000
# 4 0.0000 0.0000 0.0000 6.9596 0.0000 0.0000
# 5 0.0000 0.0000 0.0000 0.0000 -5.0544 0.0000
# 6 0.0000 0.0000 0.0000 0.0000 0.0000 41.9391
#
#
#
# Elastic Compliance Matrix: (Units=1/GPa)
#
#
# Indices 1 2 3 4 5 6 
#
# 1 0.012250 -0.002339 -0.002192 0.000000 0.000000 0.000000
# 2 -0.002339 0.011596 -0.002265 0.000000 0.000000 0.000000
# 3 -0.002192 -0.002265 0.006965 0.000000 0.000000 0.000000
# 4 0.000000 0.000000 0.000000 0.143686 0.000000 0.000000
# 5 0.000000 0.000000 0.000000 0.000000 -0.197847 0.000000
# 6 0.000000 0.000000 0.000000 0.000000 0.000000 0.023844
#
#
# Mechanical properties :
#
#
# Convention : Reuss Voigt Hill
#
# Bulk Modulus (GPa) = 58.07985 63.47719 60.77852
# Shear Modulus (GPa) = 252.18669 25.88921 139.03795
#
# Velocity S-wave (km/s) = 10.62481 3.40423 7.88909
# Velocity P-wave (km/s) = 13.28585 6.62315 10.49714
#
# Compressibility (1/GPa) = 0.01721767
#
# Stress axis : x y z
#
# Youngs Moduli (GPa) = 81.63378 86.23799 143.57008
#
# Poissons Ratio (x) = 0.20171 0.31474
# Poissons Ratio (y) = 0.19094 0.32524
# Poissons Ratio (z) = 0.17896 0.19536
#
# Static dielectric constant tensor:
#      x y z
#    x 1.816650 0.000000 0.000000 
#    y 0.000000 1.894880 0.000000 
#    z 0.000000 0.000000 1.784400 
# 
# From -- ./inp_files/28444.got.cif
#   From: 2010.05.17/outbox.cif.g08.bks.cpg/sg58_15_cif.got.tgz:28444.got - 2010.06.03 14:20:14.
