data_PCOD9445433
_publ_section_title
;
Structure prediction by ZEFSAII (Michael W. Deem and Ramdas Pophale) SiO2 
 PCOD9445433
Probable space group: P N N M
;
_chemical_formula_sum "Si O2"
_cell_formula_units_Z 40
_cell_length_a 8.116420
_cell_length_b 8.134746
_cell_length_c 25.949404
_cell_angle_alpha 90.000000
_cell_angle_beta 90.000000
_cell_angle_gamma 90.000000
_cell_volume 1713.309792
_symmetry_space_group_name_H-M "P N N M"
_symmetry_group_IT_number 58
_symmetry_cell_setting 'orthorhombic'
loop_
_space_group_symop_operation_xyz
x,y,z
-x,-y,z
1/2+x,1/2-y,1/2-z
1/2-x,1/2+y,1/2-z
-x,-y,-z
x,y,-z
1/2-x,1/2+y,1/2+z
1/2+x,1/2-y,1/2+z
loop_
_atom_site_type_symbol
_atom_site_label
_atom_site_fract_x
_atom_site_fract_y
_atom_site_fract_z
Si Si1 0.644789 0.899468 0.909903
Si Si2 0.887937 0.856622 0.602156
Si Si3 0.187048 0.580501 0.305147
Si Si4 0.334835 0.775260 0.500000
Si Si5 0.203692 0.670908 0.000000
Si Si6 0.196939 0.462068 0.805549
O O1 0.524659 0.771752 0.879567
O O2 0.738975 0.984693 0.862378
O O3 0.755342 0.805547 0.949864
O O4 0.500000 0.000000 0.937547
O O5 0.787291 0.786370 0.554123
O O6 0.784423 0.935538 0.648378
O O7 0.000000 0.000000 0.577934
O O8 0.258924 0.520733 0.250566
O O9 0.252482 0.770303 0.307192
O O10 0.000000 0.500000 0.300217
O O11 0.527556 0.745744 0.500000
O O12 0.311619 0.971931 0.500000
O O13 0.000000 0.500000 0.810673
#
# Coordination Sequence:
#
# PCOD9445433 Si02
#       6
#     8   8   8   4   4   8
#     4  11  24  44  70  99 138 190 237 290 367 446
#     4  12  23  42  71  99 139 188 245 289 361 446
#     4  10  24  45  71 103 147 190 241 296 373 436
#     4  11  22  41  70 103 141 181 232 306 359 436
#     4  11  24  38  70 102 140 177 240 298 362 424
#     4  11  26  43  73 106 147 188 246 304 363 433
#
# _framework density 23.346623000000001
#
# number of rings (size 3 to 8) (size 9 to 14) (size 15 to 20)
#    0.000    1.000    4.000    1.200   14.000    0.000 
#    0.000    2.000    0.000    0.000    0.000    0.000 
#    0.000    0.000    0.000    0.000    0.000    0.000 
#
# Total GULP energy -222785.633101 kJ/mol
# GULP energy per Si atom -5569.640828 kJ/mol
# Density = 2.329349 g / cm^3
# Si number density = 23.346623 Si / 1000 Ang^3
#
#
#
# Elastic Constant Matrix: (Units=GPa)
#
#
# Indices 1 2 3 4 5 6 
#
# 1 119.5110 46.7962 67.0596 0.0000 0.0000 0.0000
# 2 46.7962 63.4766 20.5711 0.0000 0.0000 0.0000
# 3 67.0596 20.5711 193.0956 0.0000 0.0000 0.0000
# 4 0.0000 0.0000 0.0000 43.3783 0.0000 0.0000
# 5 0.0000 0.0000 0.0000 0.0000 27.7462 0.0000
# 6 0.0000 0.0000 0.0000 0.0000 0.0000 34.8593
#
#
#
# Elastic Compliance Matrix: (Units=1/GPa)
#
#
# Indices 1 2 3 4 5 6 
#
# 1 0.014171 -0.009169 -0.003945 0.000000 0.000000 0.000000
# 2 -0.009169 0.022249 0.000814 0.000000 0.000000 0.000000
# 3 -0.003945 0.000814 0.006462 0.000000 0.000000 0.000000
# 4 0.000000 0.000000 0.000000 0.023053 0.000000 0.000000
# 5 0.000000 0.000000 0.000000 0.000000 0.036041 0.000000
# 6 0.000000 0.000000 0.000000 0.000000 0.000000 0.028687
#
#
# Mechanical properties :
#
#
# Convention : Reuss Voigt Hill
#
# Bulk Modulus (GPa) = 54.69432 71.65967 63.17700
# Shear Modulus (GPa) = 30.98725 37.30718 34.14722
#
# Velocity S-wave (km/s) = 3.64712 4.00180 3.82857
# Velocity P-wave (km/s) = 6.41976 7.21893 6.83104
#
# Compressibility (1/GPa) = 0.01828343
#
# Stress axis : x y z
#
# Youngs Moduli (GPa) = 70.56668 44.94489 154.75096
#
# Poissons Ratio (x) = 0.41209 0.61044
# Poissons Ratio (y) = 0.64701 -0.12595
# Poissons Ratio (z) = 0.27836 -0.03658
#
# Static dielectric constant tensor:
#      x y z
#    x 1.882880 0.000000 0.000000 
#    y 0.000000 2.040050 0.000000 
#    z 0.000000 0.000000 1.869990 
# 
# From -- ./inp_files/33171.got.cif
#   From: 2010.05.17/outbox.cif.g08.bks.cpg/sg58_17_cif.got.tgz:33171.got - 2010.06.03 14:20:14.
