data_PCOD9445745
_publ_section_title
;
Structure prediction by ZEFSAII (Michael W. Deem and Ramdas Pophale) SiO2 
 PCOD9445745
Probable space group: P N N M
;
_chemical_formula_sum "Si O2"
_cell_formula_units_Z 28
_cell_length_a 10.969648
_cell_length_b 8.963288
_cell_length_c 14.394013
_cell_angle_alpha 90.000000
_cell_angle_beta 90.000000
_cell_angle_gamma 90.000000
_cell_volume 1415.278579
_symmetry_space_group_name_H-M "P N N M"
_symmetry_group_IT_number 58
_symmetry_cell_setting 'orthorhombic'
loop_
_space_group_symop_operation_xyz
x,y,z
-x,-y,z
1/2+x,1/2-y,1/2-z
1/2-x,1/2+y,1/2-z
-x,-y,-z
x,y,-z
1/2-x,1/2+y,1/2+z
1/2+x,1/2-y,1/2+z
loop_
_atom_site_type_symbol
_atom_site_label
_atom_site_fract_x
_atom_site_fract_y
_atom_site_fract_z
Si Si1 0.745294 0.191642 0.000000
Si Si2 0.143754 0.985958 0.172885
Si Si3 0.469404 0.175362 0.000000
Si Si4 0.281622 0.289811 0.152636
Si Si5 0.356152 0.983805 0.500000
O O1 0.784452 0.093535 0.088634
O O2 0.604434 0.240245 0.000000
O O3 0.813573 0.346927 0.000000
O O4 0.202001 0.149274 0.186321
O O5 0.164422 0.885459 0.263507
O O6 0.000000 0.000000 0.151308
O O7 0.390296 0.225519 0.911631
O O8 0.500000 0.000000 0.000000
O O9 0.196822 0.394369 0.088340
O O10 0.500000 0.000000 0.500000
#
# Coordination Sequence:
#
# PCOD9445745 Si02
#       5
#     4   8   4   8   4
#     4  12  24  46  74  97 137 188 219 287 344 394
#     4  12  26  43  69 102 139 177 232 282 340 410
#     4  11  23  47  72  98 142 178 232 278 339 409
#     4  11  26  43  68 104 135 181 228 281 341 406
#     4  11  24  46  70  97 135 179 229 279 344 406
#
# _framework density 19.784089999999999
#
# number of rings (size 3 to 8) (size 9 to 14) (size 15 to 20)
#    0.000    0.571    2.857    4.714    8.000    1.143 
#    0.000    0.000    0.000    0.000    0.000    0.000 
#    0.000    0.000    0.000    0.000    0.000    0.000 
#
# Total GULP energy -156658.074614 kJ/mol
# GULP energy per Si atom -5594.931236 kJ/mol
# Density = 1.973906 g / cm^3
# Si number density = 19.784090 Si / 1000 Ang^3
#
#
#
# Elastic Constant Matrix: (Units=GPa)
#
#
# Indices 1 2 3 4 5 6 
#
# 1 144.0945 -0.7273 12.3837 0.0000 0.0000 0.0000
# 2 -0.7273 81.3119 8.1620 0.0000 0.0000 0.0000
# 3 12.3837 8.1620 105.5119 0.0000 0.0000 0.0000
# 4 0.0000 0.0000 0.0000 30.3929 0.0000 0.0000
# 5 0.0000 0.0000 0.0000 0.0000 5.1636 0.0000
# 6 0.0000 0.0000 0.0000 0.0000 0.0000 43.3656
#
#
#
# Elastic Compliance Matrix: (Units=1/GPa)
#
#
# Indices 1 2 3 4 5 6 
#
# 1 0.007012 0.000146 -0.000834 0.000000 0.000000 0.000000
# 2 0.000146 0.012398 -0.000976 0.000000 0.000000 0.000000
# 3 -0.000834 -0.000976 0.009651 0.000000 0.000000 0.000000
# 4 0.000000 0.000000 0.000000 0.032902 0.000000 0.000000
# 5 0.000000 0.000000 0.000000 0.000000 0.193665 0.000000
# 6 0.000000 0.000000 0.000000 0.000000 0.000000 0.023060
#
#
# Mechanical properties :
#
#
# Convention : Reuss Voigt Hill
#
# Bulk Modulus (GPa) = 38.86090 41.17278 40.01684
# Shear Modulus (GPa) = 17.20613 36.52440 26.86527
#
# Velocity S-wave (km/s) = 2.95226 4.30135 3.68900
# Velocity P-wave (km/s) = 5.59520 6.74722 6.19803
#
# Compressibility (1/GPa) = 0.02573281
#
# Stress axis : x y z
#
# Youngs Moduli (GPa) = 142.60583 80.66064 103.61573
#
# Poissons Ratio (x) = -0.01181 0.08645
# Poissons Ratio (y) = -0.02089 0.10115
# Poissons Ratio (z) = 0.11898 0.07874
#
# Static dielectric constant tensor:
#      x y z
#    x 1.918080 0.000000 0.000000 
#    y 0.000000 1.763700 0.000000 
#    z 0.000000 0.000000 1.683250 
# 
# From -- ./inp_files/20574.got.cif
#   From: 2010.05.17/outbox.cif.g08.bks.cpg/sg58_11_cif.got.tgz:20574.got - 2010.06.03 14:20:14.
