data_PCOD9445585
_publ_section_title
;
Structure prediction by ZEFSAII (Michael W. Deem and Ramdas Pophale) SiO2 
 PCOD9445585
Probable space group: P N N M
;
_chemical_formula_sum "Si O2"
_cell_formula_units_Z 58
_cell_length_a 9.819955
_cell_length_b 18.287215
_cell_length_c 16.358369
_cell_angle_alpha 90.000000
_cell_angle_beta 90.000000
_cell_angle_gamma 90.000000
_cell_volume 2937.629826
_symmetry_space_group_name_H-M "P N N M"
_symmetry_group_IT_number 58
_symmetry_cell_setting 'orthorhombic'
loop_
_space_group_symop_operation_xyz
x,y,z
-x,-y,z
1/2+x,1/2-y,1/2-z
1/2-x,1/2+y,1/2-z
-x,-y,-z
x,y,-z
1/2-x,1/2+y,1/2+z
1/2+x,1/2-y,1/2+z
loop_
_atom_site_type_symbol
_atom_site_label
_atom_site_fract_x
_atom_site_fract_y
_atom_site_fract_z
Si Si1 0.771446 0.723442 0.096055
Si Si2 0.856740 0.759178 0.407109
Si Si3 0.000000 0.000000 0.500000
Si Si4 0.854989 0.480763 0.251201
Si Si5 0.172732 0.885155 0.262544
Si Si6 0.597921 0.416011 0.157970
Si Si7 0.935723 0.338385 0.327505
Si Si8 0.429288 0.248946 0.659092
O O1 0.733378 0.656707 0.157416
O O2 0.674441 0.790534 0.122581
O O3 0.925640 0.746882 0.115838
O O4 0.754175 0.705058 0.000000
O O5 0.904081 0.764191 0.500000
O O6 0.906694 0.828361 0.355331
O O7 0.694695 0.765480 0.401786
O O8 0.921259 0.687178 0.366191
O O9 0.919109 0.954283 0.428605
O O10 0.782587 0.557603 0.271612
O O11 0.739448 0.439701 0.198524
O O12 0.897263 0.423523 0.322285
O O13 0.000000 0.500000 0.209234
O O14 0.115894 0.824940 0.200575
O O15 0.039355 0.928579 0.290912
O O16 0.933804 0.308565 0.234183
#
# Coordination Sequence:
#
# PCOD9445585 Si02
#       8
#     8   8   2   8   8   8   8   8
#     4  11  23  39  66 100 129 167 222 279 326 383
#     4  12  23  38  62  93 127 170 216 270 329 382
#     4  12  24  40  58  92 136 172 202 246 334 424
#     4  12  24  42  63  98 131 167 220 272 325 383
#     4  11  24  39  67  92 129 177 220 264 327 403
#     4  12  23  38  63  89 126 178 211 252 317 408
#     4  11  22  40  67  90 128 171 228 271 316 392
#     4  11  21  39  61  92 126 168 218 273 320 382
#
# _framework density 19.743808000000001
#
# number of rings (size 3 to 8) (size 9 to 14) (size 15 to 20)
#    0.000    0.552    6.207    4.966    0.966    0.000 
#    0.000    0.345    0.000    9.931    0.000    0.000 
#    0.000    0.000    0.000    0.000    0.000    0.000 
#
# Total GULP energy -323295.403900 kJ/mol
# GULP energy per Si atom -5574.058688 kJ/mol
# Density = 1.969887 g / cm^3
# Si number density = 19.743808 Si / 1000 Ang^3
#
#
#
# Elastic Constant Matrix: (Units=GPa)
#
#
# Indices 1 2 3 4 5 6 
#
# 1 147.4814 31.9712 15.8457 0.0000 0.0000 0.0000
# 2 31.9712 103.1779 23.0178 0.0000 0.0000 0.0000
# 3 15.8457 23.0178 37.3114 0.0000 0.0000 0.0000
# 4 0.0000 0.0000 0.0000 7.7604 0.0000 0.0000
# 5 0.0000 0.0000 0.0000 0.0000 17.7034 0.0000
# 6 0.0000 0.0000 0.0000 0.0000 0.0000 35.4853
#
#
#
# Elastic Compliance Matrix: (Units=1/GPa)
#
#
# Indices 1 2 3 4 5 6 
#
# 1 0.007396 -0.001845 -0.002003 0.000000 0.000000 0.000000
# 2 -0.001845 0.011699 -0.006434 0.000000 0.000000 0.000000
# 3 -0.002003 -0.006434 0.031621 0.000000 0.000000 0.000000
# 4 0.000000 0.000000 0.000000 0.128859 0.000000 0.000000
# 5 0.000000 0.000000 0.000000 0.000000 0.056486 0.000000
# 6 0.000000 0.000000 0.000000 0.000000 0.000000 0.028181
#
#
# Mechanical properties :
#
#
# Convention : Reuss Voigt Hill
#
# Bulk Modulus (GPa) = 33.16416 47.73778 40.45097
# Shear Modulus (GPa) = 16.95747 26.66556 21.81151
#
# Velocity S-wave (km/s) = 2.93384 3.67901 3.32735
# Velocity P-wave (km/s) = 5.32074 6.50215 5.94088
#
# Compressibility (1/GPa) = 0.03015303
#
# Stress axis : x y z
#
# Youngs Moduli (GPa) = 135.21510 85.47784 31.62450
#
# Poissons Ratio (x) = 0.15769 0.06333
# Poissons Ratio (y) = 0.24945 0.20346
# Poissons Ratio (z) = 0.27080 0.54994
#
# Static dielectric constant tensor:
#      x y z
#    x 1.732420 0.000000 0.000000 
#    y 0.000000 1.796630 0.000000 
#    z 0.000000 0.000000 1.667580 
# 
# From -- ./inp_files/25533.got.cif
#   From: 2010.05.17/outbox.cif.g08.bks.cpg/sg58_13_cif.got.tgz:25533.got - 2010.06.03 14:20:14.
