data_PCOD9445759
_publ_section_title
;
Structure prediction by ZEFSAII (Michael W. Deem and Ramdas Pophale) SiO2 
 PCOD9445759
Probable space group: P N N M
;
_chemical_formula_sum "Si O2"
_cell_formula_units_Z 48
_cell_length_a 6.883121
_cell_length_b 18.619765
_cell_length_c 19.544297
_cell_angle_alpha 90.000000
_cell_angle_beta 90.000000
_cell_angle_gamma 90.000000
_cell_volume 2504.838058
_symmetry_space_group_name_H-M "P N N M"
_symmetry_group_IT_number 58
_symmetry_cell_setting 'orthorhombic'
loop_
_space_group_symop_operation_xyz
x,y,z
-x,-y,z
1/2+x,1/2-y,1/2-z
1/2-x,1/2+y,1/2-z
-x,-y,-z
x,y,-z
1/2-x,1/2+y,1/2+z
1/2+x,1/2-y,1/2+z
loop_
_atom_site_type_symbol
_atom_site_label
_atom_site_fract_x
_atom_site_fract_y
_atom_site_fract_z
Si Si1 0.367780 0.069542 0.287900
Si Si2 0.097329 0.211916 0.921268
Si Si3 0.184109 0.648569 0.079401
Si Si4 0.694313 0.167511 0.240076
Si Si5 0.983335 0.921542 0.820570
Si Si6 0.527177 0.730505 0.141622
O O1 0.341497 0.082428 0.368623
O O2 0.490856 0.139555 0.267582
O O3 0.175890 0.071890 0.240535
O O4 0.500000 0.000000 0.275727
O O5 0.058075 0.145267 0.870610
O O6 0.322874 0.229912 0.907939
O O7 0.967002 0.284104 0.908832
O O8 0.061739 0.191531 0.000000
O O9 0.400298 0.675673 0.097946
O O10 0.165544 0.629381 0.000000
O O11 0.633958 0.221994 0.180657
O O12 0.811433 0.099969 0.211479
O O13 0.833578 0.199719 0.298366
O O14 0.000000 0.000000 0.854076
#
# Coordination Sequence:
#
# PCOD9445759 Si02
#       6
#     8   8   8   8   8   8
#     4  12  24  41  65  92 127 166 210 260 316 373
#     4  11  24  41  63  94 130 168 209 257 316 381
#     4  11  24  41  63  94 130 168 209 257 316 381
#     4  12  22  36  64  98 124 158 210 268 312 362
#     4  12  24  41  65  92 127 166 210 260 316 373
#     4  12  21  38  66  96 125 164 210 268 315 368
#
# _framework density 19.162915999999999
#
# number of rings (size 3 to 8) (size 9 to 14) (size 15 to 20)
#    0.000    0.333    8.333    2.500    0.000    0.667 
#    0.000    0.000    0.000    3.000    0.000    0.000 
#    0.000    0.000    0.000    0.000    0.000    0.000 
#
# Total GULP energy -267734.242901 kJ/mol
# GULP energy per Si atom -5577.796727 kJ/mol
# Density = 1.911930 g / cm^3
# Si number density = 19.162916 Si / 1000 Ang^3
#
#
#
# Elastic Constant Matrix: (Units=GPa)
#
#
# Indices 1 2 3 4 5 6 
#
# 1 56.5015 -3.4501 3.4239 0.0000 0.0000 0.0000
# 2 -3.4501 36.4711 11.6689 0.0000 0.0000 0.0000
# 3 3.4239 11.6689 80.7215 0.0000 0.0000 0.0000
# 4 0.0000 0.0000 0.0000 -16.6866 0.0000 0.0000
# 5 0.0000 0.0000 0.0000 0.0000 21.3907 0.0000
# 6 0.0000 0.0000 0.0000 0.0000 0.0000 29.9371
#
#
#
# Elastic Compliance Matrix: (Units=1/GPa)
#
#
# Indices 1 2 3 4 5 6 
#
# 1 0.017886 0.002029 -0.001052 0.000000 0.000000 0.000000
# 2 0.002029 0.028979 -0.004275 0.000000 0.000000 0.000000
# 3 -0.001052 -0.004275 0.013051 0.000000 0.000000 0.000000
# 4 0.000000 0.000000 0.000000 -0.059928 0.000000 0.000000
# 5 0.000000 0.000000 0.000000 0.000000 0.046749 0.000000
# 6 0.000000 0.000000 0.000000 0.000000 0.000000 0.033403
#
#
# Mechanical properties :
#
#
# Convention : Reuss Voigt Hill
#
# Bulk Modulus (GPa) = 18.75507 21.88661 20.32084
# Shear Modulus (GPa) = 47.84222 17.73167 32.78695
#
# Velocity S-wave (km/s) = 5.00202 3.04519 4.14086
# Velocity P-wave (km/s) = 6.57029 4.87959 5.78702
#
# Compressibility (1/GPa) = 0.05331893
#
# Stress axis : x y z
#
# Youngs Moduli (GPa) = 55.90887 34.50805 76.62306
#
# Poissons Ratio (x) = -0.07000 0.08060
# Poissons Ratio (y) = -0.11342 0.32758
# Poissons Ratio (z) = 0.05881 0.14753
#
# Static dielectric constant tensor:
#      x y z
#    x 1.669590 0.000000 0.000000 
#    y 0.000000 1.698540 0.000000 
#    z 0.000000 0.000000 1.700570 
# 
# From -- ./inp_files/28160.got.cif
#   From: 2010.05.17/outbox.cif.g08.bks.cpg/sg58_15_cif.got.tgz:28160.got - 2010.06.03 14:20:14.
