data_PCOD9445788
_publ_section_title
;
Structure prediction by ZEFSAII (Michael W. Deem and Ramdas Pophale) SiO2 
 PCOD9445788
Probable space group: P N N M
;
_chemical_formula_sum "Si O2"
_cell_formula_units_Z 32
_cell_length_a 14.154365
_cell_length_b 7.684984
_cell_length_c 11.575265
_cell_angle_alpha 90.000000
_cell_angle_beta 90.000000
_cell_angle_gamma 90.000000
_cell_volume 1259.111819
_symmetry_space_group_name_H-M "P N N M"
_symmetry_group_IT_number 58
_symmetry_cell_setting 'orthorhombic'
loop_
_space_group_symop_operation_xyz
x,y,z
-x,-y,z
1/2+x,1/2-y,1/2-z
1/2-x,1/2+y,1/2-z
-x,-y,-z
x,y,-z
1/2-x,1/2+y,1/2+z
1/2+x,1/2-y,1/2+z
loop_
_atom_site_type_symbol
_atom_site_label
_atom_site_fract_x
_atom_site_fract_y
_atom_site_fract_z
Si Si1 0.064206 0.259296 0.500000
Si Si2 0.268504 0.846573 0.678632
Si Si3 0.964230 0.813872 0.759179
Si Si4 0.349854 0.216009 0.632119
Si Si5 0.152219 0.620827 0.500000
O O1 0.064843 0.165724 0.623925
O O2 0.143106 0.411548 0.500000
O O3 0.957801 0.331806 0.500000
O O4 0.371160 0.760706 0.683636
O O5 0.214603 0.855016 0.800809
O O6 0.202459 0.718765 0.605310
O O7 0.288190 0.039373 0.633259
O O8 0.053852 0.693612 0.793052
O O9 0.000000 0.000000 0.801956
O O10 0.372796 0.260686 0.500000
#
# Coordination Sequence:
#
# PCOD9445788 Si02
#       5
#     4   8   8   8   4
#     4  11  25  50  82 114 161 209 276 339 394 467
#     4  12  26  49  80 114 159 211 271 333 404 483
#     4  12  28  49  76 117 162 211 273 333 403 478
#     4  12  28  52  79 117 162 212 269 337 406 477
#     4  11  24  48  82 116 154 211 276 333 401 475
#
# _framework density 25.414739000000001
#
# number of rings (size 3 to 8) (size 9 to 14) (size 15 to 20)
#    0.000    0.250    3.750    4.125    7.000    1.500 
#    9.000    0.000    0.000    0.000    0.000    0.000 
#    0.000    0.000    0.000    0.000    0.000    0.000 
#
# Total GULP energy -179212.581362 kJ/mol
# GULP energy per Si atom -5600.393168 kJ/mol
# Density = 2.535689 g / cm^3
# Si number density = 25.414739 Si / 1000 Ang^3
#
#
#
# Elastic Constant Matrix: (Units=GPa)
#
#
# Indices 1 2 3 4 5 6 
#
# 1 165.8397 14.6021 39.1322 0.0000 0.0000 0.0000
# 2 14.6021 80.3471 13.9923 0.0000 0.0000 0.0000
# 3 39.1322 13.9923 126.4824 0.0000 0.0000 0.0000
# 4 0.0000 0.0000 0.0000 28.0769 0.0000 0.0000
# 5 0.0000 0.0000 0.0000 0.0000 27.6916 0.0000
# 6 0.0000 0.0000 0.0000 0.0000 0.0000 52.1454
#
#
#
# Elastic Compliance Matrix: (Units=1/GPa)
#
#
# Indices 1 2 3 4 5 6 
#
# 1 0.006562 -0.000855 -0.001936 0.000000 0.000000 0.000000
# 2 -0.000855 0.012802 -0.001152 0.000000 0.000000 0.000000
# 3 -0.001936 -0.001152 0.008632 0.000000 0.000000 0.000000
# 4 0.000000 0.000000 0.000000 0.035616 0.000000 0.000000
# 5 0.000000 0.000000 0.000000 0.000000 0.036112 0.000000
# 6 0.000000 0.000000 0.000000 0.000000 0.000000 0.019177
#
#
# Mechanical properties :
#
#
# Convention : Reuss Voigt Hill
#
# Bulk Modulus (GPa) = 49.72342 56.45803 53.09073
# Shear Modulus (GPa) = 37.45567 41.91227 39.68397
#
# Velocity S-wave (km/s) = 3.84315 4.06536 3.95581
# Velocity P-wave (km/s) = 6.26899 6.65576 6.46527
#
# Compressibility (1/GPa) = 0.02011125
#
# Stress axis : x y z
#
# Youngs Moduli (GPa) = 152.39336 78.11269 115.84170
#
# Poissons Ratio (x) = 0.06682 0.22422
# Poissons Ratio (y) = 0.13037 0.13340
# Poissons Ratio (z) = 0.29497 0.08995
#
# Static dielectric constant tensor:
#      x y z
#    x 1.953230 0.000000 0.000000 
#    y 0.000000 2.011310 0.000000 
#    z 0.000000 0.000000 2.104110 
# 
# From -- ./inp_files/15111.got.cif
#   From: 2010.05.17/outbox.cif.g08.bks.cpg/sg58_8_cif.got.tgz:15111.got - 2010.06.03 14:20:14.
