data_PCOD9445800
_publ_section_title
;
Structure prediction by ZEFSAII (Michael W. Deem and Ramdas Pophale) SiO2 
 PCOD9445800
Probable space group: P N N M
;
_chemical_formula_sum "Si O2"
_cell_formula_units_Z 32
_cell_length_a 5.050069
_cell_length_b 19.042445
_cell_length_c 13.595912
_cell_angle_alpha 90.000000
_cell_angle_beta 90.000000
_cell_angle_gamma 90.000000
_cell_volume 1307.459867
_symmetry_space_group_name_H-M "P N N M"
_symmetry_group_IT_number 58
_symmetry_cell_setting 'orthorhombic'
loop_
_space_group_symop_operation_xyz
x,y,z
-x,-y,z
1/2+x,1/2-y,1/2-z
1/2-x,1/2+y,1/2-z
-x,-y,-z
x,y,-z
1/2-x,1/2+y,1/2+z
1/2+x,1/2-y,1/2+z
loop_
_atom_site_type_symbol
_atom_site_label
_atom_site_fract_x
_atom_site_fract_y
_atom_site_fract_z
Si Si1 0.981937 0.416673 0.703668
Si Si2 0.665115 0.210095 0.709600
Si Si3 0.084711 0.661477 0.500000
Si Si4 0.067078 0.744818 0.000000
Si Si5 0.754186 0.948259 0.605786
O O1 0.212144 0.368316 0.750236
O O2 0.945721 0.384562 0.597206
O O3 0.771110 0.406911 0.792617
O O4 0.000000 0.500000 0.692795
O O5 0.932858 0.254270 0.724020
O O6 0.543806 0.209047 0.599771
O O7 0.387739 0.685375 0.500000
O O8 0.869933 0.726371 0.500000
O O9 0.768422 0.909049 0.500000
O O10 0.500000 0.000000 0.602261
O O11 0.000000 0.000000 0.610124
#
# Coordination Sequence:
#
# PCOD9445800 Si02
#       5
#     8   8   4   4   8
#     4  11  25  45  72 108 144 184 239 300 365 432
#     4  12  25  47  75 102 144 193 244 297 357 440
#     4  12  25  46  74 102 149 188 238 298 367 436
#     4  12  24  48  72 106 140 192 248 296 356 438
#     4   9  20  39  61  90 133 177 220 277 344 412
#
# _framework density 24.474937000000001
#
# number of rings (size 3 to 8) (size 9 to 14) (size 15 to 20)
#    0.000    1.000    5.000    0.375    1.750    8.000 
#    0.000    1.875    0.000    0.000    0.000    0.000 
#    0.000    0.000    0.000    0.000    0.000    0.000 
#
# Total GULP energy -178677.412556 kJ/mol
# GULP energy per Si atom -5583.669142 kJ/mol
# Density = 2.441923 g / cm^3
# Si number density = 24.474937 Si / 1000 Ang^3
#
#
#
# Elastic Constant Matrix: (Units=GPa)
#
#
# Indices 1 2 3 4 5 6 
#
# 1 132.1180 5.6904 3.1094 0.0000 0.0000 0.0000
# 2 5.6904 106.7112 27.9318 0.0000 0.0000 0.0000
# 3 3.1094 27.9318 227.1054 0.0000 0.0000 0.0000
# 4 0.0000 0.0000 0.0000 99.2289 0.0000 0.0000
# 5 0.0000 0.0000 0.0000 0.0000 -874.3882 0.0000
# 6 0.0000 0.0000 0.0000 0.0000 0.0000 26.1036
#
#
#
# Elastic Compliance Matrix: (Units=1/GPa)
#
#
# Indices 1 2 3 4 5 6 
#
# 1 0.007587 -0.000390 -0.000056 0.000000 0.000000 0.000000
# 2 -0.000390 0.009703 -0.001188 0.000000 0.000000 0.000000
# 3 -0.000056 -0.001188 0.004550 0.000000 0.000000 0.000000
# 4 0.000000 0.000000 0.000000 0.010078 0.000000 0.000000
# 5 0.000000 0.000000 0.000000 0.000000 -0.001144 0.000000
# 6 0.000000 0.000000 0.000000 0.000000 0.000000 0.038309
#
#
# Mechanical properties :
#
#
# Convention : Reuss Voigt Hill
#
# Bulk Modulus (GPa) = 53.84363 59.93310 56.88836
# Shear Modulus (GPa) = 63.66051 -121.19762 -28.76855
#
# Velocity S-wave (km/s) = 5.10558 -7.04461 -3.43217
# Velocity P-wave (km/s) = 7.53679 6.45198 2.75455
#
# Compressibility (1/GPa) = 0.01857230
#
# Stress axis : x y z
#
# Youngs Moduli (GPa) = 131.80265 103.06250 219.77432
#
# Poissons Ratio (x) = 0.04019 0.01229
# Poissons Ratio (y) = 0.05140 0.26110
# Poissons Ratio (z) = 0.00737 0.12244
#
# Static dielectric constant tensor:
#      x y z
#    x 1.936010 0.000000 0.000000 
#    y 0.000000 2.044370 0.000000 
#    z 0.000000 0.000000 2.064560 
# 
# From -- ./inp_files/18324.got.cif
#   From: 2010.05.17/outbox.cif.g08.bks.cpg/sg58_10_cif.got.tgz:18324.got - 2010.06.03 14:20:14.
