data_PCOD9445741
_publ_section_title
;
Structure prediction by ZEFSAII (Michael W. Deem and Ramdas Pophale) SiO2 
 PCOD9445741
Probable space group: P N N M
;
_chemical_formula_sum "Si O2"
_cell_formula_units_Z 42
_cell_length_a 4.836125
_cell_length_b 16.624848
_cell_length_c 24.121511
_cell_angle_alpha 90.000000
_cell_angle_beta 90.000000
_cell_angle_gamma 90.000000
_cell_volume 1939.365698
_symmetry_space_group_name_H-M "P N N M"
_symmetry_group_IT_number 58
_symmetry_cell_setting 'orthorhombic'
loop_
_space_group_symop_operation_xyz
x,y,z
-x,-y,z
1/2+x,1/2-y,1/2-z
1/2-x,1/2+y,1/2-z
-x,-y,-z
x,y,-z
1/2-x,1/2+y,1/2+z
1/2+x,1/2-y,1/2+z
loop_
_atom_site_type_symbol
_atom_site_label
_atom_site_fract_x
_atom_site_fract_y
_atom_site_fract_z
Si Si1 0.417576 0.090791 0.632749
Si Si2 0.500000 0.000000 0.000000
Si Si3 0.064363 0.267320 0.786475
Si Si4 0.631878 0.816800 0.111531
Si Si5 0.129697 0.923669 0.901541
Si Si6 0.419569 0.354712 0.936083
O O1 0.464590 0.150574 0.684296
O O2 0.611228 0.123075 0.582694
O O3 0.113063 0.099456 0.607663
O O4 0.500000 0.000000 0.645886
O O5 0.704102 0.038609 0.952314
O O6 0.301314 0.276204 0.740337
O O7 0.213441 0.216367 0.834472
O O8 0.363221 0.868674 0.126393
O O9 0.541170 0.740457 0.075000
O O10 0.867330 0.869289 0.081185
O O11 0.000000 0.000000 0.869097
O O12 0.471793 0.374793 0.000000
#
# Coordination Sequence:
#
# PCOD9445741 Si02
#       6
#     8   2   8   8   8   8
#     4  11  24  44  68  99 135 171 218 266 327 401
#     4  12  26  40  62  96 134 200 220 262 342 400
#     4  11  23  46  73  96 127 168 224 280 345 389
#     4  11  24  42  66  94 131 174 227 285 324 406
#     4  12  24  41  60  93 135 181 227 265 330 389
#     4  11  24  40  64 102 135 177 217 259 323 393
#
# _framework density 21.656563999999999
#
# number of rings (size 3 to 8) (size 9 to 14) (size 15 to 20)
#    0.000    0.762    1.905    7.143    2.667    2.286 
#    0.000    3.810    0.000    0.000    0.000    0.000 
#    0.000    0.000    0.000    0.000    0.000    0.000 
#
# Total GULP energy -234283.888263 kJ/mol
# GULP energy per Si atom -5578.187816 kJ/mol
# Density = 2.160727 g / cm^3
# Si number density = 21.656564 Si / 1000 Ang^3
#
#
#
# Elastic Constant Matrix: (Units=GPa)
#
#
# Indices 1 2 3 4 5 6 
#
# 1 88.7009 10.1567 7.0173 0.0000 0.0000 0.0000
# 2 10.1567 90.0400 23.6298 0.0000 0.0000 0.0000
# 3 7.0173 23.6298 91.1881 0.0000 0.0000 0.0000
# 4 0.0000 0.0000 0.0000 -36.5767 0.0000 0.0000
# 5 0.0000 0.0000 0.0000 0.0000 11.0702 0.0000
# 6 0.0000 0.0000 0.0000 0.0000 0.0000 49.4755
#
#
#
# Elastic Compliance Matrix: (Units=1/GPa)
#
#
# Indices 1 2 3 4 5 6 
#
# 1 0.011451 -0.001138 -0.000586 0.000000 0.000000 0.000000
# 2 -0.001138 0.012030 -0.003030 0.000000 0.000000 0.000000
# 3 -0.000586 -0.003030 0.011797 0.000000 0.000000 0.000000
# 4 0.000000 0.000000 0.000000 -0.027340 0.000000 0.000000
# 5 0.000000 0.000000 0.000000 0.000000 0.090333 0.000000
# 6 0.000000 0.000000 0.000000 0.000000 0.000000 0.020212
#
#
# Mechanical properties :
#
#
# Convention : Reuss Voigt Hill
#
# Bulk Modulus (GPa) = 38.80618 39.05960 38.93289
# Shear Modulus (GPa) = 36.60880 20.06882 28.33881
#
# Velocity S-wave (km/s) = 4.11594 3.04745 3.62132
# Velocity P-wave (km/s) = 6.36755 5.51885 5.95833
#
# Compressibility (1/GPa) = 0.02576909
#
# Stress axis : x y z
#
# Youngs Moduli (GPa) = 87.33235 83.12810 84.77048
#
# Poissons Ratio (x) = 0.09458 0.04970
# Poissons Ratio (y) = 0.09936 0.25683
# Poissons Ratio (z) = 0.05121 0.25185
#
# Static dielectric constant tensor:
#      x y z
#    x 1.788090 0.000000 0.000000 
#    y 0.000000 1.867220 0.000000 
#    z 0.000000 0.000000 1.765620 
# 
# From -- ./inp_files/30935.got.cif
#   From: 2010.05.17/outbox.cif.g08.bks.cpg/sg58_16_cif.got.tgz:30935.got - 2010.06.03 14:20:14.
