data_PCOD9445258
_publ_section_title
;
Structure prediction by ZEFSAII (Michael W. Deem and Ramdas Pophale) SiO2 
 PCOD9445258
Probable space group: P N N M
;
_chemical_formula_sum "Si O2"
_cell_formula_units_Z 48
_cell_length_a 8.758126
_cell_length_b 8.709543
_cell_length_c 30.288367
_cell_angle_alpha 90.000000
_cell_angle_beta 90.000000
_cell_angle_gamma 90.000000
_cell_volume 2310.374676
_symmetry_space_group_name_H-M "P N N M"
_symmetry_group_IT_number 58
_symmetry_cell_setting 'orthorhombic'
loop_
_space_group_symop_operation_xyz
x,y,z
-x,-y,z
1/2+x,1/2-y,1/2-z
1/2-x,1/2+y,1/2-z
-x,-y,-z
x,y,-z
1/2-x,1/2+y,1/2+z
1/2+x,1/2-y,1/2+z
loop_
_atom_site_type_symbol
_atom_site_label
_atom_site_fract_x
_atom_site_fract_y
_atom_site_fract_z
Si Si1 0.468412 0.322077 0.262087
Si Si2 0.811227 0.816247 0.308629
Si Si3 0.198580 0.680867 0.404058
Si Si4 0.172922 0.322653 0.403127
Si Si5 0.670469 0.193416 0.000000
Si Si6 0.858093 0.608766 0.831396
Si Si7 0.317136 0.180299 0.000000
O O1 0.500000 0.500000 0.270263
O O2 0.300536 0.274203 0.276054
O O3 0.522730 0.287686 0.212089
O O4 0.570197 0.222511 0.295680
O O5 0.785670 0.764942 0.358731
O O6 0.761689 0.993287 0.308534
O O7 0.227142 0.498958 0.397380
O O8 0.276446 0.791645 0.369004
O O9 0.253472 0.724929 0.453403
O O10 0.012865 0.687036 0.404348
O O11 0.230504 0.263121 0.451166
O O12 0.491924 0.238091 0.000000
O O13 0.674634 0.006443 0.000000
O O14 0.000000 0.500000 0.846881
#
# Coordination Sequence:
#
# PCOD9445258 Si02
#       7
#     8   8   8   8   4   8   4
#     4  11  24  42  60  80 114 157 198 239 282 344
#     4  11  24  39  59  89 116 152 192 239 296 342
#     4   9  17  33  57  86 116 151 194 237 288 342
#     4   9  18  32  60  89 115 148 191 239 291 344
#     4   7  12  28  51  86 117 142 185 238 280 336
#     4  10  23  40  56  80 116 157 195 243 289 349
#     4   7  12  26  52  82 114 148 188 236 278 338
#
# _framework density 20.775852
#
# number of rings (size 3 to 8) (size 9 to 14) (size 15 to 20)
#    0.000    2.500    0.000    4.000    4.667    0.000 
#    6.000    1.250    0.000    6.000    0.000   15.167 
#    0.000    0.000    0.000    0.000    0.000    0.000 
#
# Total GULP energy -267620.390503 kJ/mol
# GULP energy per Si atom -5575.424802 kJ/mol
# Density = 2.072857 g / cm^3
# Si number density = 20.775852 Si / 1000 Ang^3
#
#
#
# Elastic Constant Matrix: (Units=GPa)
#
#
# Indices 1 2 3 4 5 6 
#
# 1 44.3002 22.9111 45.2938 0.0000 0.0000 0.0000
# 2 22.9111 79.2937 56.7929 0.0000 0.0000 0.0000
# 3 45.2938 56.7929 127.3780 0.0000 0.0000 0.0000
# 4 0.0000 0.0000 0.0000 10.3969 0.0000 0.0000
# 5 0.0000 0.0000 0.0000 0.0000 27.9739 0.0000
# 6 0.0000 0.0000 0.0000 0.0000 0.0000 30.9039
#
#
#
# Elastic Compliance Matrix: (Units=1/GPa)
#
#
# Indices 1 2 3 4 5 6 
#
# 1 0.035641 -0.001794 -0.011874 0.000000 0.000000 0.000000
# 2 -0.001794 0.018618 -0.007663 0.000000 0.000000 0.000000
# 3 -0.011874 -0.007663 0.015490 0.000000 0.000000 0.000000
# 4 0.000000 0.000000 0.000000 0.096183 0.000000 0.000000
# 5 0.000000 0.000000 0.000000 0.000000 0.035748 0.000000
# 6 0.000000 0.000000 0.000000 0.000000 0.000000 0.032358
#
#
# Mechanical properties :
#
#
# Convention : Reuss Voigt Hill
#
# Bulk Modulus (GPa) = 36.91769 55.66308 46.29039
# Shear Modulus (GPa) = 17.49913 22.25320 19.87616
#
# Velocity S-wave (km/s) = 2.90536 3.27633 3.09640
# Velocity P-wave (km/s) = 5.39100 6.41583 5.92561
#
# Compressibility (1/GPa) = 0.02708729
#
# Stress axis : x y z
#
# Youngs Moduli (GPa) = 28.05765 53.71026 64.55965
#
# Poissons Ratio (x) = 0.09634 0.76656
# Poissons Ratio (y) = 0.05033 0.49475
# Poissons Ratio (z) = 0.33315 0.41160
#
# Static dielectric constant tensor:
#      x y z
#    x 1.788390 0.000000 0.000000 
#    y 0.000000 1.726440 0.000000 
#    z 0.000000 0.000000 1.774780 
# 
# From -- ./inp_files/34618.got.cif
#   From: 2010.05.17/outbox.cif.g08.bks.cpg/sg58_18_cif.got.tgz:34618.got - 2010.06.03 14:20:14.
