data_PCOD9445052
_publ_section_title
;
Structure prediction by ZEFSAII (Michael W. Deem and Ramdas Pophale) SiO2 
 PCOD9445052
Probable space group: P N N M
;
_chemical_formula_sum "Si O2"
_cell_formula_units_Z 40
_cell_length_a 7.528062
_cell_length_b 19.490587
_cell_length_c 13.193350
_cell_angle_alpha 90.000000
_cell_angle_beta 90.000000
_cell_angle_gamma 90.000000
_cell_volume 1935.812055
_symmetry_space_group_name_H-M "P N N M"
_symmetry_group_IT_number 58
_symmetry_cell_setting 'orthorhombic'
loop_
_space_group_symop_operation_xyz
x,y,z
-x,-y,z
1/2+x,1/2-y,1/2-z
1/2-x,1/2+y,1/2-z
-x,-y,-z
x,y,-z
1/2-x,1/2+y,1/2+z
1/2+x,1/2-y,1/2+z
loop_
_atom_site_type_symbol
_atom_site_label
_atom_site_fract_x
_atom_site_fract_y
_atom_site_fract_z
Si Si1 0.175381 0.178312 0.379126
Si Si2 0.071844 0.570094 0.617191
Si Si3 0.627771 0.783413 0.122010
Si Si4 0.068786 0.074765 0.783748
Si Si5 0.457209 0.296408 0.378660
O O1 0.187346 0.165037 0.500000
O O2 0.166619 0.110238 0.311898
O O3 0.330487 0.232759 0.351992
O O4 0.991241 0.218047 0.356457
O O5 0.013110 0.570165 0.500000
O O6 0.035444 0.646156 0.660018
O O7 0.284908 0.566664 0.627671
O O8 0.000000 0.500000 0.665679
O O9 0.836308 0.779507 0.146678
O O10 0.624959 0.790157 0.000000
O O11 0.926476 0.129839 0.826070
O O12 0.000000 0.000000 0.757965
O O13 0.440004 0.305018 0.500000
#
# Coordination Sequence:
#
# PCOD9445052 Si02
#       5
#     8   8   8   8   8
#     4  10  22  40  62  83 114 163 206 243 293 346
#     4   9  19  36  57  84 122 155 186 238 306 366
#     4   8  16  34  58  84 108 145 196 240 285 343
#     4  11  24  37  56  93 123 154 197 247 299 357
#     4   9  20  38  61  88 118 151 196 247 300 357
#
# _framework density 20.663163000000001
#
# number of rings (size 3 to 8) (size 9 to 14) (size 15 to 20)
#    0.000    2.600    0.000    1.800    8.400    2.000 
#    3.600    0.000    0.000    0.600    0.000    0.000 
#    0.000    0.000    0.000    0.000    0.000    0.000 
#
# Total GULP energy -223027.429797 kJ/mol
# GULP energy per Si atom -5575.685745 kJ/mol
# Density = 2.061613 g / cm^3
# Si number density = 20.663163 Si / 1000 Ang^3
#
#
#
# Elastic Constant Matrix: (Units=GPa)
#
#
# Indices 1 2 3 4 5 6 
#
# 1 51.3028 36.2391 8.3369 0.0000 0.0000 0.0000
# 2 36.2391 121.6611 41.3889 0.0000 0.0000 0.0000
# 3 8.3369 41.3889 78.4526 0.0000 0.0000 0.0000
# 4 0.0000 0.0000 0.0000 23.2173 0.0000 0.0000
# 5 0.0000 0.0000 0.0000 0.0000 26.3666 0.0000
# 6 0.0000 0.0000 0.0000 0.0000 0.0000 31.3233
#
#
#
# Elastic Compliance Matrix: (Units=1/GPa)
#
#
# Indices 1 2 3 4 5 6 
#
# 1 0.024838 -0.007922 0.001540 0.000000 0.000000 0.000000
# 2 -0.007922 0.012544 -0.005776 0.000000 0.000000 0.000000
# 3 0.001540 -0.005776 0.015630 0.000000 0.000000 0.000000
# 4 0.000000 0.000000 0.000000 0.043071 0.000000 0.000000
# 5 0.000000 0.000000 0.000000 0.000000 0.037927 0.000000
# 6 0.000000 0.000000 0.000000 0.000000 0.000000 0.031925
#
#
# Mechanical properties :
#
#
# Convention : Reuss Voigt Hill
#
# Bulk Modulus (GPa) = 34.84826 47.03847 40.94336
# Shear Modulus (GPa) = 25.02276 27.21153 26.11715
#
# Velocity S-wave (km/s) = 3.48369 3.63286 3.55906
# Velocity P-wave (km/s) = 5.75179 6.35695 6.06192
#
# Compressibility (1/GPa) = 0.02869584
#
# Stress axis : x y z
#
# Youngs Moduli (GPa) = 40.26082 79.71658 63.97882
#
# Poissons Ratio (x) = 0.63155 -0.09854
# Poissons Ratio (y) = 0.31896 0.36955
# Poissons Ratio (z) = -0.06201 0.46045
#
# Static dielectric constant tensor:
#      x y z
#    x 1.781990 0.000000 0.000000 
#    y 0.000000 1.781170 0.000000 
#    z 0.000000 0.000000 1.813950 
# 
# From -- ./inp_files/19476.got.cif
#   From: 2010.05.17/outbox.cif.g08.bks.cpg/sg58_10_cif.got.tgz:19476.got - 2010.06.03 14:20:14.
