data_PCOD9445113
_publ_section_title
;
Structure prediction by ZEFSAII (Michael W. Deem and Ramdas Pophale) SiO2 
 PCOD9445113
Probable space group: P N N M
;
_chemical_formula_sum "Si O2"
_cell_formula_units_Z 48
_cell_length_a 18.554254
_cell_length_b 8.292596
_cell_length_c 14.177241
_cell_angle_alpha 90.000000
_cell_angle_beta 90.000000
_cell_angle_gamma 90.000000
_cell_volume 2181.351875
_symmetry_space_group_name_H-M "P N N M"
_symmetry_group_IT_number 58
_symmetry_cell_setting 'orthorhombic'
loop_
_space_group_symop_operation_xyz
x,y,z
-x,-y,z
1/2+x,1/2-y,1/2-z
1/2-x,1/2+y,1/2-z
-x,-y,-z
x,y,-z
1/2-x,1/2+y,1/2+z
1/2+x,1/2-y,1/2+z
loop_
_atom_site_type_symbol
_atom_site_label
_atom_site_fract_x
_atom_site_fract_y
_atom_site_fract_z
Si Si1 0.141192 0.440517 0.795742
Si Si2 0.104053 0.930250 0.785708
Si Si3 0.031118 0.821415 0.500000
Si Si4 0.275382 0.225035 0.795796
Si Si5 0.023243 0.247876 0.705186
Si Si6 0.800537 0.233331 0.500000
Si Si7 0.586798 0.478094 0.500000
Si Si8 0.857060 0.611146 0.000000
O O1 0.193358 0.282216 0.791055
O O2 0.192444 0.585817 0.767531
O O3 0.073028 0.397789 0.732263
O O4 0.117700 0.465333 0.903225
O O5 0.176361 0.879434 0.732611
O O6 0.048001 0.783567 0.767307
O O7 0.069149 0.085962 0.733567
O O8 0.112463 0.954281 0.898116
O O9 0.001881 0.745235 0.596930
O O10 0.118022 0.830826 0.500000
O O11 0.000000 0.000000 0.500000
O O12 0.290578 0.172522 0.903063
O O13 0.731235 0.113020 0.500000
O O14 0.500000 0.500000 0.500000
O O15 0.613010 0.293302 0.500000
#
# Coordination Sequence:
#
# PCOD9445113 Si02
#       8
#     8   8   4   8   8   4   4   4
#     4  11  24  42  64  93 128 173 216 267 328 385
#     4  11  21  38  64  95 125 167 213 265 317 385
#     4  12  20  37  66  96 127 169 224 267 320 399
#     4  11  24  42  65  91 131 169 219 265 324 390
#     4  11  21  38  63  95 126 165 216 264 321 378
#     4  10  22  41  62  95 124 177 208 270 331 379
#     4  12  20  37  69  98 127 168 223 259 327 398
#     4  10  22  41  67  92 132 171 213 281 327 388
#
# _framework density 22.004702000000002
#
# number of rings (size 3 to 8) (size 9 to 14) (size 15 to 20)
#    0.000    1.000    6.667    1.000    2.333    3.333 
#    0.000    2.500    0.000    3.000    0.000    0.000 
#    0.000    0.000    0.000    0.000    0.000    0.000 
#
# Total GULP energy -268105.071530 kJ/mol
# GULP energy per Si atom -5585.522324 kJ/mol
# Density = 2.195462 g / cm^3
# Si number density = 22.004702 Si / 1000 Ang^3
#
#
#
# Elastic Constant Matrix: (Units=GPa)
#
#
# Indices 1 2 3 4 5 6 
#
# 1 112.7572 6.2720 11.1264 0.0000 0.0000 0.0000
# 2 6.2720 39.0582 9.5391 0.0000 0.0000 0.0000
# 3 11.1264 9.5391 164.7653 0.0000 0.0000 0.0000
# 4 0.0000 0.0000 0.0000 14.9030 0.0000 0.0000
# 5 0.0000 0.0000 0.0000 0.0000 20.0835 0.0000
# 6 0.0000 0.0000 0.0000 0.0000 0.0000 38.1848
#
#
#
# Elastic Compliance Matrix: (Units=1/GPa)
#
#
# Indices 1 2 3 4 5 6 
#
# 1 0.008994 -0.001315 -0.000531 0.000000 0.000000 0.000000
# 2 -0.001315 0.026162 -0.001426 0.000000 0.000000 0.000000
# 3 -0.000531 -0.001426 0.006188 0.000000 0.000000 0.000000
# 4 0.000000 0.000000 0.000000 0.067101 0.000000 0.000000
# 5 0.000000 0.000000 0.000000 0.000000 0.049792 0.000000
# 6 0.000000 0.000000 0.000000 0.000000 0.000000 0.026188
#
#
# Mechanical properties :
#
#
# Convention : Reuss Voigt Hill
#
# Bulk Modulus (GPa) = 28.73513 41.16174 34.94843
# Shear Modulus (GPa) = 24.68297 33.94380 29.31339
#
# Velocity S-wave (km/s) = 3.35283 3.93182 3.65381
# Velocity P-wave (km/s) = 5.29864 6.27365 5.80665
#
# Compressibility (1/GPa) = 0.03480060
#
# Stress axis : x y z
#
# Youngs Moduli (GPa) = 111.18329 38.22313 161.61186
#
# Poissons Ratio (x) = 0.05025 0.08586
# Poissons Ratio (y) = 0.14616 0.23044
# Poissons Ratio (z) = 0.05907 0.05450
#
# Static dielectric constant tensor:
#      x y z
#    x 1.607990 0.000000 0.000000 
#    y 0.000000 1.870350 0.000000 
#    z 0.000000 0.000000 1.805280 
# 
# From -- ./inp_files/22825.got.cif
#   From: 2010.05.17/outbox.cif.g08.bks.cpg/sg58_12_cif.got.tgz:22825.got - 2010.06.03 14:20:14.
