data_PCOD9445607
_publ_section_title
;
Structure prediction by ZEFSAII (Michael W. Deem and Ramdas Pophale) SiO2 
 PCOD9445607
Probable space group: P N N M
;
_chemical_formula_sum "Si O2"
_cell_formula_units_Z 32
_cell_length_a 8.167051
_cell_length_b 13.993564
_cell_length_c 10.901963
_cell_angle_alpha 90.000000
_cell_angle_beta 90.000000
_cell_angle_gamma 90.000000
_cell_volume 1245.943388
_symmetry_space_group_name_H-M "P N N M"
_symmetry_group_IT_number 58
_symmetry_cell_setting 'orthorhombic'
loop_
_space_group_symop_operation_xyz
x,y,z
-x,-y,z
1/2+x,1/2-y,1/2-z
1/2-x,1/2+y,1/2-z
-x,-y,-z
x,y,-z
1/2-x,1/2+y,1/2+z
1/2+x,1/2-y,1/2+z
loop_
_atom_site_type_symbol
_atom_site_label
_atom_site_fract_x
_atom_site_fract_y
_atom_site_fract_z
Si Si1 0.005528 0.334602 0.000000
Si Si2 0.076734 0.339970 0.726496
Si Si3 0.000000 0.000000 0.724992
Si Si4 0.227412 0.539440 0.354986
Si Si5 0.119682 0.199475 0.500000
Si Si6 0.690053 0.554137 0.000000
O O1 0.808898 0.338799 0.000000
O O2 0.071211 0.298862 0.865590
O O3 0.119625 0.428175 0.000000
O O4 0.197911 0.429015 0.690650
O O5 0.106764 0.261369 0.623697
O O6 0.902076 0.390573 0.706080
O O7 0.911374 0.930114 0.820174
O O8 0.143485 0.997604 0.624193
O O9 0.200284 0.540589 0.500000
O O10 0.946558 0.139851 0.500000
#
# Coordination Sequence:
#
# PCOD9445607 Si02
#       6
#     4   8   4   8   4   4
#     4  12  27  46  73 101 140 197 236 293 369 426
#     4  11  24  46  70 105 142 188 245 296 363 434
#     4  11  23  44  72 106 145 177 254 308 358 422
#     4  11  21  43  73 105 143 188 235 308 361 425
#     4  12  27  50  69 102 151 194 239 292 365 442
#     4  11  26  48  71 107 141 191 245 308 347 430
#
# _framework density 25.683349
#
# number of rings (size 3 to 8) (size 9 to 14) (size 15 to 20)
#    0.000    0.750    5.000    2.625    3.500    3.000 
#    4.500    0.000    0.000    0.000    0.000    0.000 
#    0.000    0.000    0.000    0.000    0.000    0.000 
#
# Total GULP energy -178149.662838 kJ/mol
# GULP energy per Si atom -5567.176964 kJ/mol
# Density = 2.562489 g / cm^3
# Si number density = 25.683349 Si / 1000 Ang^3
#
#
#
# Elastic Constant Matrix: (Units=GPa)
#
#
# Indices 1 2 3 4 5 6 
#
# 1 116.8806 28.7179 13.3836 0.0000 0.0000 0.0000
# 2 28.7179 64.6283 36.9595 0.0000 0.0000 0.0000
# 3 13.3836 36.9595 209.2285 0.0000 0.0000 0.0000
# 4 0.0000 0.0000 0.0000 43.2927 0.0000 0.0000
# 5 0.0000 0.0000 0.0000 0.0000 51.8182 0.0000
# 6 0.0000 0.0000 0.0000 0.0000 0.0000 2.1758
#
#
#
# Elastic Compliance Matrix: (Units=1/GPa)
#
#
# Indices 1 2 3 4 5 6 
#
# 1 0.009609 -0.004359 0.000155 0.000000 0.000000 0.000000
# 2 -0.004359 0.019189 -0.003111 0.000000 0.000000 0.000000
# 3 0.000155 -0.003111 0.005319 0.000000 0.000000 0.000000
# 4 0.000000 0.000000 0.000000 0.023099 0.000000 0.000000
# 5 0.000000 0.000000 0.000000 0.000000 0.019298 0.000000
# 6 0.000000 0.000000 0.000000 0.000000 0.000000 0.459607
#
#
# Mechanical properties :
#
#
# Convention : Reuss Voigt Hill
#
# Bulk Modulus (GPa) = 51.31216 60.98437 56.14826
# Shear Modulus (GPa) = 8.97271 40.23576 24.60423
#
# Velocity S-wave (km/s) = 1.87114 3.96233 3.09849
# Velocity P-wave (km/s) = 4.96894 6.68803 5.89152
#
# Compressibility (1/GPa) = 0.01948856
#
# Stress axis : x y z
#
# Youngs Moduli (GPa) = 104.07059 52.11356 188.00347
#
# Poissons Ratio (x) = 0.22714 -0.02919
# Poissons Ratio (y) = 0.45360 0.58485
# Poissons Ratio (z) = -0.01616 0.16212
#
# Static dielectric constant tensor:
#      x y z
#    x 2.145200 0.000000 0.000000 
#    y 0.000000 2.157950 0.000000 
#    z 0.000000 0.000000 2.069120 
# 
# From -- ./inp_files/12414.got.cif
#   From: 2010.05.17/outbox.cif.g08.bks.cpg/sg58_7_cif.got.tgz:12414.got - 2010.06.03 14:20:14.
