data_PCOD9445397
_publ_section_title
;
Structure prediction by ZEFSAII (Michael W. Deem and Ramdas Pophale) SiO2 
 PCOD9445397
Probable space group: P N N M
;
_chemical_formula_sum "Si O2"
_cell_formula_units_Z 48
_cell_length_a 25.487283
_cell_length_b 9.775007
_cell_length_c 8.215239
_cell_angle_alpha 90.000000
_cell_angle_beta 90.000000
_cell_angle_gamma 90.000000
_cell_volume 2046.731251
_symmetry_space_group_name_H-M "P N N M"
_symmetry_group_IT_number 58
_symmetry_cell_setting 'orthorhombic'
loop_
_space_group_symop_operation_xyz
x,y,z
-x,-y,z
1/2+x,1/2-y,1/2-z
1/2-x,1/2+y,1/2-z
-x,-y,-z
x,y,-z
1/2-x,1/2+y,1/2+z
1/2+x,1/2-y,1/2+z
loop_
_atom_site_type_symbol
_atom_site_label
_atom_site_fract_x
_atom_site_fract_y
_atom_site_fract_z
Si Si1 0.809712 0.445854 0.312403
Si Si2 0.926075 0.784276 0.196834
Si Si3 0.139293 0.966013 0.190580
Si Si4 0.540060 0.694756 0.811829
Si Si5 0.921269 0.471225 0.188280
Si Si6 0.756999 0.176356 0.311364
O O1 0.824467 0.419156 0.500000
O O2 0.860640 0.428566 0.203465
O O3 0.766290 0.333588 0.266189
O O4 0.785073 0.594188 0.291498
O O5 0.922635 0.626810 0.250776
O O6 0.981511 0.842394 0.257551
O O7 0.878460 0.882804 0.246746
O O8 0.926346 0.784400 0.000000
O O9 0.086291 0.876672 0.210491
O O10 0.186629 0.896722 0.286900
O O11 0.154413 0.971101 0.000000
O O12 0.546093 0.857986 0.783696
O O13 0.548215 0.661068 0.000000
O O14 0.938009 0.468570 0.000000
O O15 0.740968 0.169127 0.500000
#
# Coordination Sequence:
#
# PCOD9445397 Si02
#       6
#     8   8   8   8   8   8
#     4  11  25  44  67  96 129 165 210 260 315 378
#     4  10  24  42  63  94 127 166 214 261 311 375
#     4  11  23  42  67  93 127 168 211 262 318 374
#     4  12  24  40  63  94 129 168 214 261 313 377
#     4  11  23  42  67  93 127 168 211 262 318 374
#     4  11  25  44  67  96 129 165 210 260 315 378
#
# _framework density 23.452027999999999
#
# number of rings (size 3 to 8) (size 9 to 14) (size 15 to 20)
#    0.000    1.000    1.667    4.500    2.333    8.667 
#    0.000    0.000    0.000    0.000    0.000    0.000 
#    0.000    0.000    0.000    0.000    0.000    0.000 
#
# Total GULP energy -268836.534696 kJ/mol
# GULP energy per Si atom -5600.761140 kJ/mol
# Density = 2.339865 g / cm^3
# Si number density = 23.452028 Si / 1000 Ang^3
#
#
#
# Elastic Constant Matrix: (Units=GPa)
#
#
# Indices 1 2 3 4 5 6 
#
# 1 31.4986 -8.4739 -0.3603 0.0000 0.0000 0.0000
# 2 -8.4739 86.5923 7.1033 0.0000 0.0000 0.0000
# 3 -0.3603 7.1033 25.6128 0.0000 0.0000 0.0000
# 4 0.0000 0.0000 0.0000 39.1123 0.0000 0.0000
# 5 0.0000 0.0000 0.0000 0.0000 -57.8936 0.0000
# 6 0.0000 0.0000 0.0000 0.0000 0.0000 38.2268
#
#
#
# Elastic Compliance Matrix: (Units=1/GPa)
#
#
# Indices 1 2 3 4 5 6 
#
# 1 0.032611 0.003227 -0.000436 0.000000 0.000000 0.000000
# 2 0.003227 0.012137 -0.003320 0.000000 0.000000 0.000000
# 3 -0.000436 -0.003320 0.039958 0.000000 0.000000 0.000000
# 4 0.000000 0.000000 0.000000 0.025567 0.000000 0.000000
# 5 0.000000 0.000000 0.000000 0.000000 -0.017273 0.000000
# 6 0.000000 0.000000 0.000000 0.000000 0.000000 0.026160
#
#
# Mechanical properties :
#
#
# Convention : Reuss Voigt Hill
#
# Bulk Modulus (GPa) = 11.95519 15.58241 13.76880
# Shear Modulus (GPa) = 33.76094 13.58473 23.67284
#
# Velocity S-wave (km/s) = 3.79829 2.40939 3.18058
# Velocity P-wave (km/s) = 4.93404 3.79460 4.40135
#
# Compressibility (1/GPa) = 0.08364566
#
# Stress axis : x y z
#
# Youngs Moduli (GPa) = 30.66485 82.39568 25.02642
#
# Poissons Ratio (x) = -0.26590 0.01092
# Poissons Ratio (y) = -0.09896 0.08310
# Poissons Ratio (z) = 0.01338 0.27359
#
# Static dielectric constant tensor:
#      x y z
#    x 1.854390 0.000000 0.000000 
#    y 0.000000 1.927410 0.000000 
#    z 0.000000 0.000000 1.780960 
# 
# From -- ./inp_files/10759.got.cif
#   From: 2010.05.17/outbox.cif.g08.bks.cpg/sg58_6_cif.got.tgz:10759.got - 2010.06.03 14:20:14.
