data_PCOD9445364
_publ_section_title
;
Structure prediction by ZEFSAII (Michael W. Deem and Ramdas Pophale) SiO2 
 PCOD9445364
Probable space group: P N N M
;
_chemical_formula_sum "Si O2"
_cell_formula_units_Z 48
_cell_length_a 5.138585
_cell_length_b 17.489792
_cell_length_c 24.570432
_cell_angle_alpha 90.000000
_cell_angle_beta 90.000000
_cell_angle_gamma 90.000000
_cell_volume 2208.213099
_symmetry_space_group_name_H-M "P N N M"
_symmetry_group_IT_number 58
_symmetry_cell_setting 'orthorhombic'
loop_
_space_group_symop_operation_xyz
x,y,z
-x,-y,z
1/2+x,1/2-y,1/2-z
1/2-x,1/2+y,1/2-z
-x,-y,-z
x,y,-z
1/2-x,1/2+y,1/2+z
1/2+x,1/2-y,1/2+z
loop_
_atom_site_type_symbol
_atom_site_label
_atom_site_fract_x
_atom_site_fract_y
_atom_site_fract_z
Si Si1 0.270024 0.300105 0.241240
Si Si2 0.262638 0.684731 0.063725
Si Si3 0.556498 0.408646 0.163428
Si Si4 0.238302 0.051208 0.879556
Si Si5 0.277536 0.713506 0.563122
Si Si6 0.104119 0.583329 0.733929
O O1 0.536664 0.262338 0.263533
O O2 0.334619 0.350411 0.187025
O O3 0.130351 0.360306 0.281459
O O4 0.338558 0.617090 0.104910
O O5 0.505128 0.742537 0.066282
O O6 0.007458 0.730621 0.083187
O O7 0.228310 0.661180 0.000000
O O8 0.500000 0.500000 0.164533
O O9 0.768785 0.392933 0.209901
O O10 0.248276 0.131728 0.909404
O O11 0.203461 0.073424 0.816185
O O12 0.500000 0.000000 0.883636
O O13 0.000000 0.000000 0.898992
O O14 0.342596 0.700141 0.500000
O O15 0.000000 0.500000 0.744713
#
# Coordination Sequence:
#
# PCOD9445364 Si02
#       6
#     8   8   8   8   8   8
#     4  12  27  42  66 105 134 179 231 276 325 409
#     4  10  25  45  69  99 131 175 231 290 349 405
#     4  12  26  45  74 101 140 184 228 280 348 410
#     4  11  25  40  65 103 139 184 230 280 336 409
#     4  10  23  46  70  97 137 180 227 289 348 403
#     4  11  25  44  67  96 149 186 221 276 344 406
#
# _framework density 21.737033
#
# number of rings (size 3 to 8) (size 9 to 14) (size 15 to 20)
#    0.000    1.000    3.333    1.500    7.000    2.333 
#    0.000    0.000    0.000    3.500    0.000    0.000 
#    0.000    0.000    0.000    0.000    0.000    0.000 
#
# Total GULP energy -268074.929761 kJ/mol
# GULP energy per Si atom -5584.894370 kJ/mol
# Density = 2.168756 g / cm^3
# Si number density = 21.737033 Si / 1000 Ang^3
#
#
#
# Elastic Constant Matrix: (Units=GPa)
#
#
# Indices 1 2 3 4 5 6 
#
# 1 115.6282 44.4020 19.7991 0.0000 0.0000 0.0000
# 2 44.4020 132.1489 51.3003 0.0000 0.0000 0.0000
# 3 19.7991 51.3003 77.7731 0.0000 0.0000 0.0000
# 4 0.0000 0.0000 0.0000 58.2870 0.0000 0.0000
# 5 0.0000 0.0000 0.0000 0.0000 12.9172 0.0000
# 6 0.0000 0.0000 0.0000 0.0000 0.0000 34.5967
#
#
#
# Elastic Compliance Matrix: (Units=1/GPa)
#
#
# Indices 1 2 3 4 5 6 
#
# 1 0.009941 -0.003169 -0.000440 0.000000 0.000000 0.000000
# 2 -0.003169 0.011182 -0.006569 0.000000 0.000000 0.000000
# 3 -0.000440 -0.006569 0.017303 0.000000 0.000000 0.000000
# 4 0.000000 0.000000 0.000000 0.017156 0.000000 0.000000
# 5 0.000000 0.000000 0.000000 0.000000 0.077416 0.000000
# 6 0.000000 0.000000 0.000000 0.000000 0.000000 0.028904
#
#
# Mechanical properties :
#
#
# Convention : Reuss Voigt Hill
#
# Bulk Modulus (GPa) = 55.34363 61.83923 58.59143
# Shear Modulus (GPa) = 26.55574 35.16345 30.85959
#
# Velocity S-wave (km/s) = 3.49905 4.02640 3.77195
# Velocity P-wave (km/s) = 6.46840 7.08000 6.78110
#
# Compressibility (1/GPa) = 0.01806893
#
# Stress axis : x y z
#
# Youngs Moduli (GPa) = 100.59571 89.42759 57.79312
#
# Poissons Ratio (x) = 0.28341 0.02544
# Poissons Ratio (y) = 0.31881 0.37965
# Poissons Ratio (z) = 0.04428 0.58746
#
# Static dielectric constant tensor:
#      x y z
#    x 1.889020 0.000000 0.000000 
#    y 0.000000 1.873840 0.000000 
#    z 0.000000 0.000000 1.792230 
# 
# From -- ./inp_files/30973.got.cif
#   From: 2010.05.17/outbox.cif.g08.bks.cpg/sg58_16_cif.got.tgz:30973.got - 2010.06.03 14:20:14.
