data_PCOD9445672
_publ_section_title
;
Structure prediction by ZEFSAII (Michael W. Deem and Ramdas Pophale) SiO2 
 PCOD9445672
Probable space group: P N N M
;
_chemical_formula_sum "Si O2"
_cell_formula_units_Z 36
_cell_length_a 13.279965
_cell_length_b 5.412724
_cell_length_c 23.765936
_cell_angle_alpha 90.000000
_cell_angle_beta 90.000000
_cell_angle_gamma 90.000000
_cell_volume 1708.314142
_symmetry_space_group_name_H-M "P N N M"
_symmetry_group_IT_number 58
_symmetry_cell_setting 'orthorhombic'
loop_
_space_group_symop_operation_xyz
x,y,z
-x,-y,z
1/2+x,1/2-y,1/2-z
1/2-x,1/2+y,1/2-z
-x,-y,-z
x,y,-z
1/2-x,1/2+y,1/2+z
1/2+x,1/2-y,1/2+z
loop_
_atom_site_type_symbol
_atom_site_label
_atom_site_fract_x
_atom_site_fract_y
_atom_site_fract_z
Si Si1 0.500000 0.500000 0.841657
Si Si2 0.230210 0.961885 0.125029
Si Si3 0.095045 0.679332 0.560856
Si Si4 0.117503 0.456914 0.147379
Si Si5 0.110332 0.387481 0.279976
O O1 0.569156 0.648255 0.886460
O O2 0.415791 0.610854 0.799501
O O3 0.178937 0.693638 0.124996
O O4 0.298558 0.976936 0.181613
O O5 0.308656 0.012952 0.075194
O O6 0.154183 0.192276 0.125034
O O7 0.106606 0.806067 0.500000
O O8 0.000000 0.500000 0.558082
O O9 0.129368 0.440183 0.215191
O O10 0.000000 0.500000 0.135825
O O11 0.000000 0.500000 0.294903
#
# Coordination Sequence:
#
# PCOD9445672 Si02
#       5
#     4   8   8   8   8
#     4  12  19  40  64  98 150 180 211 274 344 434
#     4  12  22  44  64  95 131 178 230 279 337 404
#     4  11  24  41  67 102 138 180 225 287 358 420
#     4  11  27  41  64  92 133 182 231 279 331 397
#     4  11  23  36  62  97 138 175 214 264 346 423
#
# _framework density 21.073405999999999
#
# number of rings (size 3 to 8) (size 9 to 14) (size 15 to 20)
#    0.000    0.667    4.444    3.667    6.222    0.000 
#    0.000    0.000    0.000    4.000    0.000    0.000 
#    0.000    0.000    0.000    0.000    0.000    0.000 
#
# Total GULP energy -200980.681501 kJ/mol
# GULP energy per Si atom -5582.796708 kJ/mol
# Density = 2.102544 g / cm^3
# Si number density = 21.073406 Si / 1000 Ang^3
#
#
#
# Elastic Constant Matrix: (Units=GPa)
#
#
# Indices 1 2 3 4 5 6 
#
# 1 88.0196 33.1472 16.6610 0.0000 0.0000 0.0000
# 2 33.1472 93.7772 15.4387 0.0000 0.0000 0.0000
# 3 16.6610 15.4387 46.0325 0.0000 0.0000 0.0000
# 4 0.0000 0.0000 0.0000 18.2480 0.0000 0.0000
# 5 0.0000 0.0000 0.0000 0.0000 348.0162 0.0000
# 6 0.0000 0.0000 0.0000 0.0000 0.0000 46.6882
#
#
#
# Elastic Compliance Matrix: (Units=1/GPa)
#
#
# Indices 1 2 3 4 5 6 
#
# 1 0.013621 -0.004237 -0.003509 0.000000 0.000000 0.000000
# 2 -0.004237 0.012605 -0.002694 0.000000 0.000000 0.000000
# 3 -0.003509 -0.002694 0.023897 0.000000 0.000000 0.000000
# 4 0.000000 0.000000 0.000000 0.054801 0.000000 0.000000
# 5 0.000000 0.000000 0.000000 0.000000 0.002873 0.000000
# 6 0.000000 0.000000 0.000000 0.000000 0.000000 0.021419
#
#
# Mechanical properties :
#
#
# Convention : Reuss Voigt Hill
#
# Bulk Modulus (GPa) = 34.19585 39.81370 37.00477
# Shear Modulus (GPa) = 31.28072 93.42930 62.35501
#
# Velocity S-wave (km/s) = 3.85693 6.66569 5.44552
# Velocity P-wave (km/s) = 6.00806 8.84171 7.55885
#
# Compressibility (1/GPa) = 0.02924332
#
# Stress axis : x y z
#
# Youngs Moduli (GPa) = 73.41678 79.33568 41.84571
#
# Poissons Ratio (x) = 0.33613 0.14683
# Poissons Ratio (y) = 0.31106 0.11273
# Poissons Ratio (z) = 0.25762 0.21373
#
# Static dielectric constant tensor:
#      x y z
#    x 1.769950 0.000000 0.000000 
#    y 0.000000 2.000740 0.000000 
#    z 0.000000 0.000000 1.741430 
# 
# From -- ./inp_files/31802.got.cif
#   From: 2010.05.17/outbox.cif.g08.bks.cpg/sg58_16_cif.got.tgz:31802.got - 2010.06.03 14:20:14.
