data_PCOD9445010
_publ_section_title
;
Structure prediction by ZEFSAII (Michael W. Deem and Ramdas Pophale) SiO2 
 PCOD9445010
Probable space group: P N N M
;
_chemical_formula_sum "Si O2"
_cell_formula_units_Z 32
_cell_length_a 5.269988
_cell_length_b 12.017879
_cell_length_c 22.122258
_cell_angle_alpha 90.000000
_cell_angle_beta 90.000000
_cell_angle_gamma 90.000000
_cell_volume 1401.092816
_symmetry_space_group_name_H-M "P N N M"
_symmetry_group_IT_number 58
_symmetry_cell_setting 'orthorhombic'
loop_
_space_group_symop_operation_xyz
x,y,z
-x,-y,z
1/2+x,1/2-y,1/2-z
1/2-x,1/2+y,1/2-z
-x,-y,-z
x,y,-z
1/2-x,1/2+y,1/2+z
1/2+x,1/2-y,1/2+z
loop_
_atom_site_type_symbol
_atom_site_label
_atom_site_fract_x
_atom_site_fract_y
_atom_site_fract_z
Si Si1 0.251715 0.925650 0.761776
Si Si2 0.758386 0.681199 0.136944
Si Si3 0.945959 0.624541 0.392468
Si Si4 0.262873 0.654358 0.067993
O O1 0.244073 0.836221 0.708326
O O2 0.296550 0.878819 0.828731
O O3 0.500000 0.000000 0.749470
O O4 0.000000 0.000000 0.759721
O O5 0.709335 0.810793 0.121529
O O6 0.516122 0.623523 0.104809
O O7 0.012371 0.635390 0.106994
O O8 0.797910 0.710622 0.434406
O O9 0.000000 0.500000 0.413185
O O10 0.250425 0.609928 0.000000
#
# Coordination Sequence:
#
# PCOD9445010 Si02
#       4
#     8   8   8   8
#     4  11  24  39  64  93 124 156 202 255 308 368
#     4  10  23  39  64  86 126 159 202 251 310 350
#     4   9  24  36  62  91 126 155 199 245 305 371
#     4  10  22  39  63  87 123 165 207 247 297 363
#
# _framework density 22.839314000000002
#
# number of rings (size 3 to 8) (size 9 to 14) (size 15 to 20)
#    1.500    0.500    0.000    2.250   10.500    0.500 
#    0.000    1.250    0.000   15.000    0.000    0.000 
#    0.000    0.000    0.000    0.000    0.000    0.000 
#
# Total GULP energy -178659.571644 kJ/mol
# GULP energy per Si atom -5583.111614 kJ/mol
# Density = 2.278733 g / cm^3
# Si number density = 22.839314 Si / 1000 Ang^3
#
#
#
# Elastic Constant Matrix: (Units=GPa)
#
#
# Indices 1 2 3 4 5 6 
#
# 1 141.0837 -8.9567 19.2374 0.0000 0.0000 0.0000
# 2 -8.9567 76.1379 -5.6364 0.0000 0.0000 0.0000
# 3 19.2374 -5.6364 72.2840 0.0000 0.0000 0.0000
# 4 0.0000 0.0000 0.0000 14.2516 0.0000 0.0000
# 5 0.0000 0.0000 0.0000 0.0000 35.0338 0.0000
# 6 0.0000 0.0000 0.0000 0.0000 0.0000 -170.2613
#
#
#
# Elastic Compliance Matrix: (Units=1/GPa)
#
#
# Indices 1 2 3 4 5 6 
#
# 1 0.007395 0.000728 -0.001911 0.000000 0.000000 0.000000
# 2 0.000728 0.013282 0.000842 0.000000 0.000000 0.000000
# 3 -0.001911 0.000842 0.014409 0.000000 0.000000 0.000000
# 4 0.000000 0.000000 0.000000 0.070167 0.000000 0.000000
# 5 0.000000 0.000000 0.000000 0.000000 0.028544 0.000000
# 6 0.000000 0.000000 0.000000 0.000000 0.000000 -0.005873
#
#
# Mechanical properties :
#
#
# Convention : Reuss Voigt Hill
#
# Bulk Modulus (GPa) = 29.06677 33.19936 31.13306
# Shear Modulus (GPa) = 35.69558 -5.20443 15.24557
#
# Velocity S-wave (km/s) = 3.95764 -1.51118 2.58643
# Velocity P-wave (km/s) = 5.79984 3.39451 4.75189
#
# Compressibility (1/GPa) = 0.03440355
#
# Stress axis : x y z
#
# Youngs Moduli (GPa) = 135.22941 75.28942 69.40295
#
# Poissons Ratio (x) = -0.05484 0.13265
# Poissons Ratio (y) = -0.09850 -0.05842
# Poissons Ratio (z) = 0.25846 -0.06338
#
# Static dielectric constant tensor:
#      x y z
#    x 1.794920 0.000000 0.000000 
#    y 0.000000 1.917950 0.000000 
#    z 0.000000 0.000000 1.650650 
# 
# From -- ./inp_files/27983.got.cif
#   From: 2010.05.17/outbox.cif.g08.bks.cpg/sg58_14_cif.got.tgz:27983.got - 2010.06.03 14:20:14.
