data_PCOD9445834
_publ_section_title
;
Structure prediction by ZEFSAII (Michael W. Deem and Ramdas Pophale) SiO2 
 PCOD9445834
Probable space group: P N N M
;
_chemical_formula_sum "Si O2"
_cell_formula_units_Z 32
_cell_length_a 12.773869
_cell_length_b 4.846858
_cell_length_c 22.017675
_cell_angle_alpha 90.000000
_cell_angle_beta 90.000000
_cell_angle_gamma 90.000000
_cell_volume 1363.183156
_symmetry_space_group_name_H-M "P N N M"
_symmetry_group_IT_number 58
_symmetry_cell_setting 'orthorhombic'
loop_
_space_group_symop_operation_xyz
x,y,z
-x,-y,z
1/2+x,1/2-y,1/2-z
1/2-x,1/2+y,1/2-z
-x,-y,-z
x,y,-z
1/2-x,1/2+y,1/2+z
1/2+x,1/2-y,1/2+z
loop_
_atom_site_type_symbol
_atom_site_label
_atom_site_fract_x
_atom_site_fract_y
_atom_site_fract_z
Si Si1 0.928630 0.240655 0.118816
Si Si2 0.323475 0.402219 0.255176
Si Si3 0.708006 0.294139 0.930215
Si Si4 0.898270 0.310908 0.370434
O O1 0.884978 0.124668 0.182543
O O2 0.830465 0.353330 0.079999
O O3 0.000000 0.500000 0.132981
O O4 0.000000 0.000000 0.089815
O O5 0.279403 0.706538 0.243666
O O6 0.391360 0.294284 0.198429
O O7 0.630752 0.540399 0.909670
O O8 0.690786 0.027648 0.888395
O O9 0.686643 0.225799 0.000000
O O10 0.000000 0.500000 0.381926
#
# Coordination Sequence:
#
# PCOD9445834 Si02
#       4
#     8   8   8   8
#     4  12  25  43  71 102 136 179 228 282 351 417
#     4  12  22  43  71 100 140 177 218 288 358 417
#     4  12  27  47  69  99 141 186 236 290 339 408
#     4  12  25  45  72 103 137 183 231 287 353 417
#
# _framework density 23.474468999999999
#
# number of rings (size 3 to 8) (size 9 to 14) (size 15 to 20)
#    0.000    0.000    5.000    5.250    0.000    6.000 
#    0.000    0.000    0.000    0.000    0.000    0.000 
#    0.000    0.000    0.000    0.000    0.000    0.000 
#
# Total GULP energy -179137.540876 kJ/mol
# GULP energy per Si atom -5598.048152 kJ/mol
# Density = 2.342104 g / cm^3
# Si number density = 23.474469 Si / 1000 Ang^3
#
#
#
# Elastic Constant Matrix: (Units=GPa)
#
#
# Indices 1 2 3 4 5 6 
#
# 1 79.0698 10.3512 16.6194 0.0000 0.0000 0.0000
# 2 10.3512 71.4536 15.8955 0.0000 0.0000 0.0000
# 3 16.6194 15.8955 75.1570 0.0000 0.0000 0.0000
# 4 0.0000 0.0000 0.0000 14.2522 0.0000 0.0000
# 5 0.0000 0.0000 0.0000 0.0000 -0.9405 0.0000
# 6 0.0000 0.0000 0.0000 0.0000 0.0000 56.3911
#
#
#
# Elastic Compliance Matrix: (Units=1/GPa)
#
#
# Indices 1 2 3 4 5 6 
#
# 1 0.013385 -0.001344 -0.002676 0.000000 0.000000 0.000000
# 2 -0.001344 0.014821 -0.002837 0.000000 0.000000 0.000000
# 3 -0.002676 -0.002837 0.014497 0.000000 0.000000 0.000000
# 4 0.000000 0.000000 0.000000 0.070165 0.000000 0.000000
# 5 0.000000 0.000000 0.000000 0.000000 -1.063272 0.000000
# 6 0.000000 0.000000 0.000000 0.000000 0.000000 0.017733
#
#
# Mechanical properties :
#
#
# Convention : Reuss Voigt Hill
#
# Bulk Modulus (GPa) = 34.49504 34.60142 34.54823
# Shear Modulus (GPa) = -5.49878 26.12818 10.31470
#
# Velocity S-wave (km/s) = -1.53217 3.33985 2.09846
# Velocity P-wave (km/s) = 3.40537 5.44471 4.54100
#
# Compressibility (1/GPa) = 0.02898968
#
# Stress axis : x y z
#
# Youngs Moduli (GPa) = 74.70844 67.47189 68.97860
#
# Poissons Ratio (x) = 0.09067 0.18456
# Poissons Ratio (y) = 0.10040 0.19572
# Poissons Ratio (z) = 0.19990 0.19145
#
# Static dielectric constant tensor:
#      x y z
#    x 1.975990 0.000000 0.000000 
#    y 0.000000 1.839960 0.000000 
#    z 0.000000 0.000000 1.829000 
# 
# From -- ./inp_files/27918.got.cif
#   From: 2010.05.17/outbox.cif.g08.bks.cpg/sg58_14_cif.got.tgz:27918.got - 2010.06.03 14:20:14.
