data_PCOD9445092
_publ_section_title
;
Structure prediction by ZEFSAII (Michael W. Deem and Ramdas Pophale) SiO2 
 PCOD9445092
Probable space group: P N N M
;
_chemical_formula_sum "Si O2"
_cell_formula_units_Z 58
_cell_length_a 11.896786
_cell_length_b 13.903362
_cell_length_c 17.955063
_cell_angle_alpha 90.000000
_cell_angle_beta 90.000000
_cell_angle_gamma 90.000000
_cell_volume 2969.862984
_symmetry_space_group_name_H-M "P N N M"
_symmetry_group_IT_number 58
_symmetry_cell_setting 'orthorhombic'
loop_
_space_group_symop_operation_xyz
x,y,z
-x,-y,z
1/2+x,1/2-y,1/2-z
1/2-x,1/2+y,1/2-z
-x,-y,-z
x,y,-z
1/2-x,1/2+y,1/2+z
1/2+x,1/2-y,1/2+z
loop_
_atom_site_type_symbol
_atom_site_label
_atom_site_fract_x
_atom_site_fract_y
_atom_site_fract_z
Si Si1 0.580070 0.084771 0.414211
Si Si2 0.500000 0.500000 0.000000
Si Si3 0.458422 0.898727 0.830129
Si Si4 0.912904 0.087828 0.222445
Si Si5 0.299615 0.178852 0.873970
Si Si6 0.093776 0.253356 0.205897
Si Si7 0.253222 0.466427 0.583755
Si Si8 0.826918 0.103491 0.610515
O O1 0.552631 0.104806 0.500000
O O2 0.570312 0.180076 0.365443
O O3 0.709552 0.052361 0.408163
O O4 0.500000 0.000000 0.387239
O O5 0.572838 0.557158 0.064816
O O6 0.572973 0.847049 0.853733
O O7 0.397601 0.827230 0.773826
O O8 0.371333 0.927274 0.895101
O O9 0.500000 0.000000 0.795685
O O10 0.834558 0.069441 0.150220
O O11 0.847368 0.096118 0.300739
O O12 0.990015 0.182027 0.215393
O O13 0.000000 0.000000 0.227373
O O14 0.210187 0.196638 0.807304
O O15 0.308331 0.284133 0.910597
O O16 0.253434 0.083130 0.913902
O O17 0.285581 0.436540 0.500000
#
# Coordination Sequence:
#
# PCOD9445092 Si02
#       8
#     8   2   8   8   8   8   8   8
#     4  10  22  42  67  97 134 174 221 275 337 410
#     4  12  24  40  70 104 132 178 232 288 352 400
#     4  10  22  41  66  98 130 171 221 276 339 398
#     4  12  24  45  67  96 139 174 226 282 339 401
#     4  10  22  40  66  96 129 179 221 269 338 408
#     4  11  22  41  69  97 127 177 222 274 329 417
#     4  11  25  43  66  98 138 176 226 282 336 406
#     4  11  23  44  69  98 137 177 227 284 341 412
#
# _framework density 19.529520000000002
#
# number of rings (size 3 to 8) (size 9 to 14) (size 15 to 20)
#    0.000    1.241    4.138    2.069    0.966    4.966 
#    0.000    1.379    0.000    0.000    0.000    0.000 
#    0.000    0.000    0.000    0.000    0.000    0.000 
#
# Total GULP energy -323108.330207 kJ/mol
# GULP energy per Si atom -5570.833279 kJ/mol
# Density = 1.948507 g / cm^3
# Si number density = 19.529520 Si / 1000 Ang^3
#
#
#
# Elastic Constant Matrix: (Units=GPa)
#
#
# Indices 1 2 3 4 5 6 
#
# 1 77.8895 45.6517 23.5951 0.0000 0.0000 0.0000
# 2 45.6517 92.6152 34.5671 0.0000 0.0000 0.0000
# 3 23.5951 34.5671 122.7896 0.0000 0.0000 0.0000
# 4 0.0000 0.0000 0.0000 11.3166 0.0000 0.0000
# 5 0.0000 0.0000 0.0000 0.0000 -28.7478 0.0000
# 6 0.0000 0.0000 0.0000 0.0000 0.0000 47.2020
#
#
#
# Elastic Compliance Matrix: (Units=1/GPa)
#
#
# Indices 1 2 3 4 5 6 
#
# 1 0.018183 -0.008558 -0.001085 0.000000 0.000000 0.000000
# 2 -0.008558 0.016093 -0.002886 0.000000 0.000000 0.000000
# 3 -0.001085 -0.002886 0.009165 0.000000 0.000000 0.000000
# 4 0.000000 0.000000 0.000000 0.088366 0.000000 0.000000
# 5 0.000000 0.000000 0.000000 0.000000 -0.034785 0.000000
# 6 0.000000 0.000000 0.000000 0.000000 0.000000 0.021186
#
#
# Mechanical properties :
#
#
# Convention : Reuss Voigt Hill
#
# Bulk Modulus (GPa) = 54.39646 55.65803 55.02724
# Shear Modulus (GPa) = 33.46895 18.58620 26.02757
#
# Velocity S-wave (km/s) = 4.14425 3.08831 3.65462
# Velocity P-wave (km/s) = 7.12837 6.42481 6.78571
#
# Compressibility (1/GPa) = 0.01838355
#
# Stress axis : x y z
#
# Youngs Moduli (GPa) = 54.99579 62.13952 109.11185
#
# Poissons Ratio (x) = 0.53178 0.11837
# Poissons Ratio (y) = 0.47065 0.31488
# Poissons Ratio (z) = 0.05966 0.17933
#
# Static dielectric constant tensor:
#      x y z
#    x 1.695590 0.000000 0.000000 
#    y 0.000000 1.691420 0.000000 
#    z 0.000000 0.000000 1.690930 
# 
# From -- ./inp_files/26324.got.cif
#   From: 2010.05.17/outbox.cif.g08.bks.cpg/sg58_14_cif.got.tgz:26324.got - 2010.06.03 14:20:14.
