data_PCOD9445187
_publ_section_title
;
Structure prediction by ZEFSAII (Michael W. Deem and Ramdas Pophale) SiO2 
 PCOD9445187
Probable space group: P N N M
;
_chemical_formula_sum "Si O2"
_cell_formula_units_Z 58
_cell_length_a 16.465632
_cell_length_b 19.281873
_cell_length_c 8.088346
_cell_angle_alpha 90.000000
_cell_angle_beta 90.000000
_cell_angle_gamma 90.000000
_cell_volume 2567.954615
_symmetry_space_group_name_H-M "P N N M"
_symmetry_group_IT_number 58
_symmetry_cell_setting 'orthorhombic'
loop_
_space_group_symop_operation_xyz
x,y,z
-x,-y,z
1/2+x,1/2-y,1/2-z
1/2-x,1/2+y,1/2-z
-x,-y,-z
x,y,-z
1/2-x,1/2+y,1/2+z
1/2+x,1/2-y,1/2+z
loop_
_atom_site_type_symbol
_atom_site_label
_atom_site_fract_x
_atom_site_fract_y
_atom_site_fract_z
Si Si1 0.976598 0.590801 0.686449
Si Si2 0.387613 0.777042 0.694166
Si Si3 0.601231 0.623336 0.310840
Si Si4 0.806987 0.995728 0.306218
Si Si5 0.927674 0.875499 0.691569
Si Si6 0.000000 0.500000 0.000000
Si Si7 0.795018 0.248917 0.699901
Si Si8 0.328683 0.096933 0.191180
O O1 0.953436 0.565450 0.500000
O O2 0.074474 0.594703 0.695482
O O3 0.940191 0.667337 0.707888
O O4 0.956053 0.546344 0.849632
O O5 0.393325 0.792870 0.500000
O O6 0.415606 0.698005 0.720515
O O7 0.293276 0.779925 0.745462
O O8 0.575718 0.622519 0.500000
O O9 0.671702 0.567240 0.281536
O O10 0.521735 0.604022 0.206907
O O11 0.635284 0.698619 0.264392
O O12 0.821864 0.006639 0.500000
O O13 0.868769 0.935838 0.243682
O O14 0.717644 0.964794 0.281289
O O15 0.906321 0.865041 0.500000
O O16 0.800501 0.250584 0.500000
O O17 0.802825 0.327947 0.760092
O O18 0.302855 0.093252 0.000000
#
# Coordination Sequence:
#
# PCOD9445187 Si02
#       8
#     8   8   8   8   8   2   8   8
#     4  11  25  45  72 101 137 184 235 289 349 414
#     4  11  22  41  70 102 133 175 226 281 341 405
#     4  12  26  41  63  95 132 175 222 274 334 403
#     4  11  24  41  66  96 134 178 220 272 340 409
#     4  11  23  41  66  97 134 174 221 277 337 407
#     4  12  26  48  68  98 136 180 230 300 344 418
#     4  10  22  42  68  97 135 173 218 278 338 403
#     4  10  22  43  69  97 129 174 225 277 337 410
#
# _framework density 22.586068000000001
#
# number of rings (size 3 to 8) (size 9 to 14) (size 15 to 20)
#    0.000    1.103    2.069    3.931    0.966    7.172 
#    0.000    0.000    0.000    0.000    0.000    0.000 
#    0.000    0.000    0.000    0.000    0.000    0.000 
#
# Total GULP energy -323986.730653 kJ/mol
# GULP energy per Si atom -5585.978115 kJ/mol
# Density = 2.253466 g / cm^3
# Si number density = 22.586068 Si / 1000 Ang^3
#
#
#
# Elastic Constant Matrix: (Units=GPa)
#
#
# Indices 1 2 3 4 5 6 
#
# 1 63.7771 -5.1479 14.5490 0.0000 0.0000 0.0000
# 2 -5.1479 54.7292 13.7686 0.0000 0.0000 0.0000
# 3 14.5490 13.7686 80.3520 0.0000 0.0000 0.0000
# 4 0.0000 0.0000 0.0000 29.0648 0.0000 0.0000
# 5 0.0000 0.0000 0.0000 0.0000 4.9724 0.0000
# 6 0.0000 0.0000 0.0000 0.0000 0.0000 31.5871
#
#
#
# Elastic Compliance Matrix: (Units=1/GPa)
#
#
# Indices 1 2 3 4 5 6 
#
# 1 0.016659 0.002431 -0.003433 0.000000 0.000000 0.000000
# 2 0.002431 0.019450 -0.003773 0.000000 0.000000 0.000000
# 3 -0.003433 -0.003773 0.013713 0.000000 0.000000 0.000000
# 4 0.000000 0.000000 0.000000 0.034406 0.000000 0.000000
# 5 0.000000 0.000000 0.000000 0.000000 0.201109 0.000000
# 6 0.000000 0.000000 0.000000 0.000000 0.000000 0.031658
#
#
# Mechanical properties :
#
#
# Convention : Reuss Voigt Hill
#
# Bulk Modulus (GPa) = 24.83143 27.24420 26.03781
# Shear Modulus (GPa) = 14.70722 24.83745 19.77233
#
# Velocity S-wave (km/s) = 2.55456 3.31974 2.96196
# Velocity P-wave (km/s) = 4.44061 5.17521 4.82192
#
# Compressibility (1/GPa) = 0.04027155
#
# Stress axis : x y z
#
# Youngs Moduli (GPa) = 60.02798 51.41501 72.92191
#
# Poissons Ratio (x) = -0.12497 0.25033
# Poissons Ratio (y) = -0.14590 0.27512
# Poissons Ratio (z) = 0.20607 0.19398
#
# Static dielectric constant tensor:
#      x y z
#    x 1.832190 0.000000 0.000000 
#    y 0.000000 1.827570 0.000000 
#    z 0.000000 0.000000 1.816520 
# 
# From -- ./inp_files/8061.got.cif
#   From: 2010.05.17/outbox.cif.g08.bks.cpg/sg58_5_cif.got.tgz:8061.got - 2010.06.03 14:20:14.
