data_PCOD9445473
_publ_section_title
;
Structure prediction by ZEFSAII (Michael W. Deem and Ramdas Pophale) SiO2 
 PCOD9445473
Probable space group: P N N M
;
_chemical_formula_sum "Si O2"
_cell_formula_units_Z 54
_cell_length_a 14.811432
_cell_length_b 5.338785
_cell_length_c 31.080011
_cell_angle_alpha 90.000000
_cell_angle_beta 90.000000
_cell_angle_gamma 90.000000
_cell_volume 2457.653455
_symmetry_space_group_name_H-M "P N N M"
_symmetry_group_IT_number 58
_symmetry_cell_setting 'orthorhombic'
loop_
_space_group_symop_operation_xyz
x,y,z
-x,-y,z
1/2+x,1/2-y,1/2-z
1/2-x,1/2+y,1/2-z
-x,-y,-z
x,y,-z
1/2-x,1/2+y,1/2+z
1/2+x,1/2-y,1/2+z
loop_
_atom_site_type_symbol
_atom_site_label
_atom_site_fract_x
_atom_site_fract_y
_atom_site_fract_z
Si Si1 0.270975 0.740381 0.050248
Si Si2 0.500000 0.500000 0.000000
Si Si3 0.792703 0.030802 0.297097
Si Si4 0.500000 0.000000 0.671508
Si Si5 0.446726 0.238809 0.164108
Si Si6 0.611089 0.766986 0.066241
Si Si7 0.625146 0.339555 0.288524
Si Si8 0.821919 0.239677 0.140084
O O1 0.322655 0.476169 0.059107
O O2 0.200488 0.782839 0.089554
O O3 0.336746 0.979900 0.054185
O O4 0.239306 0.730984 0.000000
O O5 0.527797 0.702942 0.036561
O O6 0.847123 0.259724 0.316455
O O7 0.692942 0.103952 0.283049
O O8 0.853384 0.969939 0.256075
O O9 0.769056 0.844641 0.336346
O O10 0.527526 0.229284 0.702091
O O11 0.410619 0.080524 0.645219
O O12 0.500000 0.500000 0.172180
O O13 0.427160 0.218856 0.113848
O O14 0.500000 0.000000 0.180408
O O15 0.653103 0.497698 0.330916
#
# Coordination Sequence:
#
# PCOD9445473 Si02
#       8
#     8   2   8   4   8   8   8   8
#     4  12  25  45  72 106 140 193 249 304 367 454
#     4  12  24  42  68  98 148 192 242 306 348 442
#     4  11  24  43  70 102 137 199 232 299 364 450
#     4  10  26  46  73 110 136 188 243 324 374 448
#     4  12  27  43  63 100 148 189 239 293 353 419
#     4  12  25  43  67  99 146 195 243 294 363 426
#     4  11  23  47  73 100 141 182 248 291 380 445
#     4  11  24  46  75 101 147 187 247 305 377 444
#
# _framework density 21.972178
#
# number of rings (size 3 to 8) (size 9 to 14) (size 15 to 20)
#    0.000    0.593    5.185    2.222    4.148    1.778 
#    2.667    0.370    0.000    1.778    0.000    0.000 
#    0.000    0.000    0.000    0.000    0.000    0.000 
#
# Total GULP energy -301004.755994 kJ/mol
# GULP energy per Si atom -5574.162148 kJ/mol
# Density = 2.192217 g / cm^3
# Si number density = 21.972178 Si / 1000 Ang^3
#
#
#
# Elastic Constant Matrix: (Units=GPa)
#
#
# Indices 1 2 3 4 5 6 
#
# 1 87.2375 40.8026 41.2306 0.0000 0.0000 0.0000
# 2 40.8026 96.2379 38.6736 0.0000 0.0000 0.0000
# 3 41.2306 38.6736 105.2356 0.0000 0.0000 0.0000
# 4 0.0000 0.0000 0.0000 -58.3621 0.0000 0.0000
# 5 0.0000 0.0000 0.0000 0.0000 51.7072 0.0000
# 6 0.0000 0.0000 0.0000 0.0000 0.0000 42.2455
#
#
#
# Elastic Compliance Matrix: (Units=1/GPa)
#
#
# Indices 1 2 3 4 5 6 
#
# 1 0.015857 -0.004959 -0.004390 0.000000 0.000000 0.000000
# 2 -0.004959 0.013742 -0.003107 0.000000 0.000000 0.000000
# 3 -0.004390 -0.003107 0.012365 0.000000 0.000000 0.000000
# 4 0.000000 0.000000 0.000000 -0.017134 0.000000 0.000000
# 5 0.000000 0.000000 0.000000 0.000000 0.019340 0.000000
# 6 0.000000 0.000000 0.000000 0.000000 0.000000 0.023671
#
#
# Mechanical properties :
#
#
# Convention : Reuss Voigt Hill
#
# Bulk Modulus (GPa) = 58.64837 58.90273 58.77555
# Shear Modulus (GPa) = 50.79389 18.31840 34.55614
#
# Velocity S-wave (km/s) = 4.81327 2.89053 3.97006
# Velocity P-wave (km/s) = 7.59211 6.16493 6.91543
#
# Compressibility (1/GPa) = 0.01705077
#
# Stress axis : x y z
#
# Youngs Moduli (GPa) = 63.06234 72.76946 80.87640
#
# Poissons Ratio (x) = 0.36085 0.35508
# Poissons Ratio (y) = 0.31272 0.25131
# Poissons Ratio (z) = 0.27687 0.22612
#
# Static dielectric constant tensor:
#      x y z
#    x 1.941590 0.000000 0.000000 
#    y 0.000000 1.938360 0.000000 
#    z 0.000000 0.000000 1.830130 
# 
# From -- ./inp_files/35057.got.cif
#   From: 2010.05.17/outbox.cif.g08.bks.cpg/sg58_18_cif.got.tgz:35057.got - 2010.06.03 14:20:14.
