data_PCOD9445166
_publ_section_title
;
Structure prediction by ZEFSAII (Michael W. Deem and Ramdas Pophale) SiO2 
 PCOD9445166
Probable space group: P N N M
;
_chemical_formula_sum "Si O2"
_cell_formula_units_Z 26
_cell_length_a 4.886255
_cell_length_b 28.018618
_cell_length_c 7.234690
_cell_angle_alpha 90.000000
_cell_angle_beta 90.000000
_cell_angle_gamma 90.000000
_cell_volume 990.473282
_symmetry_space_group_name_H-M "P N N M"
_symmetry_group_IT_number 58
_symmetry_cell_setting 'orthorhombic'
loop_
_space_group_symop_operation_xyz
x,y,z
-x,-y,z
1/2+x,1/2-y,1/2-z
1/2-x,1/2+y,1/2-z
-x,-y,-z
x,y,-z
1/2-x,1/2+y,1/2+z
1/2+x,1/2-y,1/2+z
loop_
_atom_site_type_symbol
_atom_site_label
_atom_site_fract_x
_atom_site_fract_y
_atom_site_fract_z
Si Si1 0.667407 0.125563 0.277548
Si Si2 0.666962 0.434742 0.777233
Si Si3 0.536928 0.719309 0.792235
Si Si4 0.500000 0.000000 0.000000
O O1 0.674283 0.128769 0.500000
O O2 0.359999 0.111280 0.231867
O O3 0.802088 0.174288 0.209307
O O4 0.862776 0.081555 0.223942
O O5 0.798707 0.476543 0.661200
O O6 0.676644 0.443210 0.000000
O O7 0.264344 0.739116 0.701316
O O8 0.450099 0.706378 0.000000
#
# Coordination Sequence:
#
# PCOD9445166 Si02
#       4
#     8   8   8   2
#     4   9  20  41  64  84 124 170 208 245 318 387
#     4  10  22  42  64  89 123 169 207 262 317 381
#     4  11  22  40  63  95 129 170 216 266 322 388
#     4  12  26  42  64 100 124 158 222 266 328 376
#
# _framework density 26.250078999999999
#
# number of rings (size 3 to 8) (size 9 to 14) (size 15 to 20)
#    0.000    1.846    0.000    3.231    0.000    8.615 
#   16.615    4.615    0.000    0.000    0.000    0.000 
#    0.000    0.000    0.000    0.000    0.000    0.000 
#
# Total GULP energy -145124.755021 kJ/mol
# GULP energy per Si atom -5581.721347 kJ/mol
# Density = 2.619033 g / cm^3
# Si number density = 26.250079 Si / 1000 Ang^3
#
#
#
# Elastic Constant Matrix: (Units=GPa)
#
#
# Indices 1 2 3 4 5 6 
#
# 1 116.4514 7.6601 -6.6698 0.0000 0.0000 0.0000
# 2 7.6601 87.0052 1.5687 0.0000 0.0000 0.0000
# 3 -6.6698 1.5687 134.4470 0.0000 0.0000 0.0000
# 4 0.0000 0.0000 0.0000 20.8925 0.0000 0.0000
# 5 0.0000 0.0000 0.0000 0.0000 -11.9850 0.0000
# 6 0.0000 0.0000 0.0000 0.0000 0.0000 44.5586
#
#
#
# Elastic Compliance Matrix: (Units=1/GPa)
#
#
# Indices 1 2 3 4 5 6 
#
# 1 0.008663 -0.000771 0.000439 0.000000 0.000000 0.000000
# 2 -0.000771 0.011565 -0.000173 0.000000 0.000000 0.000000
# 3 0.000439 -0.000173 0.007462 0.000000 0.000000 0.000000
# 4 0.000000 0.000000 0.000000 0.047864 0.000000 0.000000
# 5 0.000000 0.000000 0.000000 0.000000 -0.083438 0.000000
# 6 0.000000 0.000000 0.000000 0.000000 0.000000 0.022442
#
#
# Mechanical properties :
#
#
# Convention : Reuss Voigt Hill
#
# Bulk Modulus (GPa) = 37.48232 38.11350 37.79791
# Shear Modulus (GPa) = 204.40402 33.04953 118.72678
#
# Velocity S-wave (km/s) = 8.83386 3.55212 6.73256
# Velocity P-wave (km/s) = 10.87931 5.60128 8.65256
#
# Compressibility (1/GPa) = 0.02667924
#
# Stress axis : x y z
#
# Youngs Moduli (GPa) = 115.43218 86.47124 134.01843
#
# Poissons Ratio (x) = 0.06664 -0.05880
# Poissons Ratio (y) = 0.08895 0.02321
# Poissons Ratio (z) = -0.05065 0.01497
#
# Static dielectric constant tensor:
#      x y z
#    x 1.948190 0.000000 0.000000 
#    y 0.000000 2.127250 0.000000 
#    z 0.000000 0.000000 1.995320 
# 
# From -- ./inp_files/1201.got.cif
#   From: 2010.05.17/outbox.cif.g08.bks.cpg/sg58_1_cif.got.tgz:1201.got - 2010.06.03 14:20:14.
