data_PCOD9445571
_publ_section_title
;
Structure prediction by ZEFSAII (Michael W. Deem and Ramdas Pophale) SiO2 
 PCOD9445571
Probable space group: P N N M
;
_chemical_formula_sum "Si O2"
_cell_formula_units_Z 64
_cell_length_a 24.168374
_cell_length_b 17.350453
_cell_length_c 8.661916
_cell_angle_alpha 90.000000
_cell_angle_beta 90.000000
_cell_angle_gamma 90.000000
_cell_volume 3632.220614
_symmetry_space_group_name_H-M "P N N M"
_symmetry_group_IT_number 58
_symmetry_cell_setting 'orthorhombic'
loop_
_space_group_symop_operation_xyz
x,y,z
-x,-y,z
1/2+x,1/2-y,1/2-z
1/2-x,1/2+y,1/2-z
-x,-y,-z
x,y,-z
1/2-x,1/2+y,1/2+z
1/2+x,1/2-y,1/2+z
loop_
_atom_site_type_symbol
_atom_site_label
_atom_site_fract_x
_atom_site_fract_y
_atom_site_fract_z
Si Si1 0.412147 0.467641 0.813315
Si Si2 0.301991 0.905476 0.680316
Si Si3 0.876238 0.281624 0.317228
Si Si4 0.315732 0.365938 0.317353
Si Si5 0.858904 0.442023 0.179035
Si Si6 0.915236 0.580648 0.683292
Si Si7 0.495328 0.786387 0.188297
Si Si8 0.473575 0.617930 0.812659
O O1 0.357498 0.432173 0.741054
O O2 0.428953 0.554102 0.763565
O O3 0.465387 0.414525 0.772523
O O4 0.407194 0.465962 0.000000
O O5 0.309683 0.886828 0.500000
O O6 0.244178 0.875709 0.740916
O O7 0.356047 0.879630 0.776384
O O8 0.307386 0.998829 0.693797
O O9 0.874724 0.265884 0.500000
O O10 0.843163 0.214674 0.232521
O O11 0.853383 0.366102 0.279144
O O12 0.940503 0.283612 0.267318
O O13 0.310170 0.369799 0.500000
O O14 0.909160 0.497326 0.236170
O O15 0.866035 0.421804 0.000000
O O16 0.920134 0.569029 0.500000
O O17 0.963280 0.637231 0.739587
O O18 0.467833 0.705825 0.239798
O O19 0.493631 0.787703 0.000000
O O20 0.472035 0.618160 0.000000
#
# Coordination Sequence:
#
# PCOD9445571 Si02
#       8
#     8   8   8   8   8   8   8   8
#     4   9  16  30  54  76 103 144 187 224 272 328
#     4   9  20  39  59  75 101 143 188 232 281 337
#     4  11  21  35  58  85 115 147 187 232 279 331
#     4  12  23  35  55  83 114 146 188 237 286 338
#     4   9  20  38  56  78 110 145 185 226 276 332
#     4   9  17  33  57  81 108 145 185 226 276 329
#     4   9  17  30  53  85 116 146 186 231 276 337
#     4   8  14  28  51  78 106 142 185 224 261 322
#
# _framework density 17.620075
#
# number of rings (size 3 to 8) (size 9 to 14) (size 15 to 20)
#    0.750    1.750    1.250    3.000    0.000    0.500 
#    0.000    7.500    0.000    6.000    0.000    0.000 
#    0.000    0.000    0.000    0.000    0.000    0.000 
#
# Total GULP energy -356426.680150 kJ/mol
# GULP energy per Si atom -5569.166877 kJ/mol
# Density = 1.757997 g / cm^3
# Si number density = 17.620075 Si / 1000 Ang^3
#
#
#
# Elastic Constant Matrix: (Units=GPa)
#
#
# Indices 1 2 3 4 5 6 
#
# 1 34.5440 17.0548 -3.4256 0.0000 0.0000 0.0000
# 2 17.0548 42.3103 1.4068 0.0000 0.0000 0.0000
# 3 -3.4256 1.4068 23.1196 0.0000 0.0000 0.0000
# 4 0.0000 0.0000 0.0000 25.4001 0.0000 0.0000
# 5 0.0000 0.0000 0.0000 0.0000 15.9252 0.0000
# 6 0.0000 0.0000 0.0000 0.0000 0.0000 17.9507
#
#
#
# Elastic Compliance Matrix: (Units=1/GPa)
#
#
# Indices 1 2 3 4 5 6 
#
# 1 0.037067 -0.015154 0.006414 0.000000 0.000000 0.000000
# 2 -0.015154 0.029879 -0.004063 0.000000 0.000000 0.000000
# 3 0.006414 -0.004063 0.044451 0.000000 0.000000 0.000000
# 4 0.000000 0.000000 0.000000 0.039370 0.000000 0.000000
# 5 0.000000 0.000000 0.000000 0.000000 0.062794 0.000000
# 6 0.000000 0.000000 0.000000 0.000000 0.000000 0.055708
#
#
# Mechanical properties :
#
#
# Convention : Reuss Voigt Hill
#
# Bulk Modulus (GPa) = 11.65653 14.44955 13.05304
# Shear Modulus (GPa) = 15.45731 17.51772 16.48752
#
# Velocity S-wave (km/s) = 2.96506 3.15650 3.06228
# Velocity P-wave (km/s) = 4.28392 4.63714 4.46403
#
# Compressibility (1/GPa) = 0.08578884
#
# Stress axis : x y z
#
# Youngs Moduli (GPa) = 26.97843 33.46878 22.49668
#
# Poissons Ratio (x) = 0.50720 -0.14430
# Poissons Ratio (y) = 0.40884 0.09141
# Poissons Ratio (z) = -0.17304 0.13600
#
# Static dielectric constant tensor:
#      x y z
#    x 1.590130 0.000000 0.000000 
#    y 0.000000 1.614330 0.000000 
#    z 0.000000 0.000000 1.591800 
# 
# From -- ./inp_files/9467.got.cif
#   From: 2010.05.17/outbox.cif.g08.bks.cpg/sg58_5_cif.got.tgz:9467.got - 2010.06.03 14:20:14.
