data_PCOD9445345
_publ_section_title
;
Structure prediction by ZEFSAII (Michael W. Deem and Ramdas Pophale) SiO2 
 PCOD9445345
Probable space group: P N N M
;
_chemical_formula_sum "Si O2"
_cell_formula_units_Z 58
_cell_length_a 10.959279
_cell_length_b 26.967697
_cell_length_c 9.176831
_cell_angle_alpha 90.000000
_cell_angle_beta 90.000000
_cell_angle_gamma 90.000000
_cell_volume 2712.180425
_symmetry_space_group_name_H-M "P N N M"
_symmetry_group_IT_number 58
_symmetry_cell_setting 'orthorhombic'
loop_
_space_group_symop_operation_xyz
x,y,z
-x,-y,z
1/2+x,1/2-y,1/2-z
1/2-x,1/2+y,1/2-z
-x,-y,-z
x,y,-z
1/2-x,1/2+y,1/2+z
1/2+x,1/2-y,1/2+z
loop_
_atom_site_type_symbol
_atom_site_label
_atom_site_fract_x
_atom_site_fract_y
_atom_site_fract_z
Si Si1 0.684043 0.850108 0.170902
Si Si2 0.394204 0.711500 0.830285
Si Si3 0.326027 0.549552 0.255983
Si Si4 0.372362 0.972701 0.337581
Si Si5 0.945178 0.686696 0.825980
Si Si6 0.953931 0.112504 0.656652
Si Si7 0.000000 0.000000 0.000000
Si Si8 0.224384 0.384100 0.668582
O O1 0.778525 0.811773 0.246028
O O2 0.742957 0.904889 0.184377
O O3 0.557723 0.844090 0.257553
O O4 0.666824 0.838624 0.000000
O O5 0.443914 0.758992 0.745537
O O6 0.494694 0.668015 0.831497
O O7 0.364546 0.722896 0.000000
O O8 0.236842 0.512101 0.174016
O O9 0.429897 0.576881 0.162778
O O10 0.402614 0.519715 0.375224
O O11 0.373310 0.949922 0.500000
O O12 0.352665 0.931793 0.214998
O O13 0.500000 0.000000 0.317334
O O14 0.822284 0.660271 0.769791
O O15 0.952592 0.688502 0.000000
O O16 0.891051 0.105803 0.500000
O O17 0.863142 0.103271 0.789268
O O18 0.211336 0.371984 0.500000
#
# Coordination Sequence:
#
# PCOD9445345 Si02
#       8
#     8   8   8   8   8   8   2   8
#     4  11  23  43  69 101 139 181 228 287 351 425
#     4  10  23  43  69 102 136 178 230 284 348 419
#     4  11  24  41  72 101 142 181 235 288 354 417
#     4  11  25  45  70 100 138 184 236 290 353 425
#     4  12  26  45  70  98 138 185 236 292 358 429
#     4  10  23  43  69 100 139 182 231 287 351 419
#     4  12  24  40  64 104 140 180 234 294 352 420
#     4  12  27  43  66  97 137 181 231 293 352 417
#
# _framework density 21.385009
#
# number of rings (size 3 to 8) (size 9 to 14) (size 15 to 20)
#    0.000    0.966    0.690    5.379    5.793    4.138 
#    0.000    2.069    0.000    0.000    0.000    0.000 
#    0.000    0.000    0.000    0.000    0.000    0.000 
#
# Total GULP energy -323945.661250 kJ/mol
# GULP energy per Si atom -5585.270022 kJ/mol
# Density = 2.133634 g / cm^3
# Si number density = 21.385009 Si / 1000 Ang^3
#
#
#
# Elastic Constant Matrix: (Units=GPa)
#
#
# Indices 1 2 3 4 5 6 
#
# 1 71.7700 17.6088 25.0428 0.0000 0.0000 0.0000
# 2 17.6088 70.8465 31.6973 0.0000 0.0000 0.0000
# 3 25.0428 31.6973 171.3509 0.0000 0.0000 0.0000
# 4 0.0000 0.0000 0.0000 7.7209 0.0000 0.0000
# 5 0.0000 0.0000 0.0000 0.0000 14.1036 0.0000
# 6 0.0000 0.0000 0.0000 0.0000 0.0000 28.0381
#
#
#
# Elastic Compliance Matrix: (Units=1/GPa)
#
#
# Indices 1 2 3 4 5 6 
#
# 1 0.015263 -0.003048 -0.001667 0.000000 0.000000 0.000000
# 2 -0.003048 0.015997 -0.002514 0.000000 0.000000 0.000000
# 3 -0.001667 -0.002514 0.006545 0.000000 0.000000 0.000000
# 4 0.000000 0.000000 0.000000 0.129519 0.000000 0.000000
# 5 0.000000 0.000000 0.000000 0.000000 0.070904 0.000000
# 6 0.000000 0.000000 0.000000 0.000000 0.000000 0.035666
#
#
# Mechanical properties :
#
#
# Convention : Reuss Voigt Hill
#
# Bulk Modulus (GPa) = 42.83069 51.40724 47.11896
# Shear Modulus (GPa) = 16.88434 25.94709 21.41571
#
# Velocity S-wave (km/s) = 2.81293 3.48707 3.16798
# Velocity P-wave (km/s) = 5.53371 6.34854 5.95508
#
# Compressibility (1/GPa) = 0.02334775
#
# Stress axis : x y z
#
# Youngs Moduli (GPa) = 65.51877 62.51074 152.79766
#
# Poissons Ratio (x) = 0.19052 0.25469
# Poissons Ratio (y) = 0.19969 0.38410
# Poissons Ratio (z) = 0.10921 0.15714
#
# Static dielectric constant tensor:
#      x y z
#    x 1.765050 0.000000 0.000000 
#    y 0.000000 1.775170 0.000000 
#    z 0.000000 0.000000 1.739790 
# 
# From -- ./inp_files/4414.got.cif
#   From: 2010.05.17/outbox.cif.g08.bks.cpg/sg58_3_cif.got.tgz:4414.got - 2010.06.03 14:20:14.
