data_PCOD9445319
_publ_section_title
;
Structure prediction by ZEFSAII (Michael W. Deem and Ramdas Pophale) SiO2 
 PCOD9445319
Probable space group: P N N M
;
_chemical_formula_sum "Si O2"
_cell_formula_units_Z 52
_cell_length_a 8.418426
_cell_length_b 13.045613
_cell_length_c 25.239519
_cell_angle_alpha 90.000000
_cell_angle_beta 90.000000
_cell_angle_gamma 90.000000
_cell_volume 2771.893013
_symmetry_space_group_name_H-M "P N N M"
_symmetry_group_IT_number 58
_symmetry_cell_setting 'orthorhombic'
loop_
_space_group_symop_operation_xyz
x,y,z
-x,-y,z
1/2+x,1/2-y,1/2-z
1/2-x,1/2+y,1/2-z
-x,-y,-z
x,y,-z
1/2-x,1/2+y,1/2+z
1/2+x,1/2-y,1/2+z
loop_
_atom_site_type_symbol
_atom_site_label
_atom_site_fract_x
_atom_site_fract_y
_atom_site_fract_z
Si Si1 0.156162 0.064060 0.063218
Si Si2 0.689384 0.021569 0.561726
Si Si3 0.000000 0.500000 0.390373
Si Si4 0.626439 0.409984 0.152641
Si Si5 0.961947 0.297949 0.677263
Si Si6 0.061577 0.616540 0.791759
Si Si7 0.652699 0.225928 0.624787
O O1 0.128327 0.176796 0.087343
O O2 0.330137 0.018227 0.079713
O O3 0.156062 0.069633 0.000000
O O4 0.000000 0.000000 0.080274
O O5 0.737022 0.019160 0.500000
O O6 0.716552 0.132077 0.588904
O O7 0.500000 0.000000 0.564073
O O8 0.783019 0.941505 0.598616
O O9 0.011890 0.399287 0.354217
O O10 0.500000 0.500000 0.162770
O O11 0.550601 0.298582 0.152139
O O12 0.752437 0.400560 0.199879
O O13 0.983675 0.322615 0.738927
O O14 0.779434 0.267654 0.667113
O O15 0.000000 0.500000 0.790993
O O16 0.992195 0.678484 0.841929
#
# Coordination Sequence:
#
# PCOD9445319 Si02
#       7
#     8   8   4   8   8   8   8
#     4  10  23  42  66  96 131 172 225 276 330 398
#     4  11  22  40  66  94 130 173 210 260 336 397
#     4  10  23  42  66  90 132 176 221 274 326 392
#     4  12  23  41  65  98 133 161 215 275 326 399
#     4  11  24  41  63  93 128 169 221 269 333 387
#     4  12  22  42  66  90 130 173 212 268 326 396
#     4  11  21  43  62  92 129 171 212 271 327 395
#
# _framework density 18.759743
#
# number of rings (size 3 to 8) (size 9 to 14) (size 15 to 20)
#    0.000    0.923    5.385    1.615    2.154    0.308 
#    0.000    5.385    0.000    0.000    0.000    0.000 
#    0.000    0.000    0.000    0.000    0.000    0.000 
#
# Total GULP energy -290020.168843 kJ/mol
# GULP energy per Si atom -5577.310939 kJ/mol
# Density = 1.871705 g / cm^3
# Si number density = 18.759743 Si / 1000 Ang^3
#
#
#
# Elastic Constant Matrix: (Units=GPa)
#
#
# Indices 1 2 3 4 5 6 
#
# 1 89.4064 59.5088 42.2167 0.0000 0.0000 0.0000
# 2 59.5088 156.3366 58.6775 0.0000 0.0000 0.0000
# 3 42.2167 58.6775 103.9355 0.0000 0.0000 0.0000
# 4 0.0000 0.0000 0.0000 -9.6695 0.0000 0.0000
# 5 0.0000 0.0000 0.0000 0.0000 122.8871 0.0000
# 6 0.0000 0.0000 0.0000 0.0000 0.0000 28.3682
#
#
#
# Elastic Compliance Matrix: (Units=1/GPa)
#
#
# Indices 1 2 3 4 5 6 
#
# 1 0.016148 -0.004675 -0.003919 0.000000 0.000000 0.000000
# 2 -0.004675 0.009470 -0.003447 0.000000 0.000000 0.000000
# 3 -0.003919 -0.003447 0.013159 0.000000 0.000000 0.000000
# 4 0.000000 0.000000 0.000000 -0.103418 0.000000 0.000000
# 5 0.000000 0.000000 0.000000 0.000000 0.008138 0.000000
# 6 0.000000 0.000000 0.000000 0.000000 0.000000 0.035251
#
#
# Mechanical properties :
#
#
# Convention : Reuss Voigt Hill
#
# Bulk Modulus (GPa) = 68.05967 74.49827 71.27897
# Shear Modulus (GPa) = 646.91624 40.93553 343.92588
#
# Velocity S-wave (km/s) = 18.59009 4.67636 13.55470
# Velocity P-wave (km/s) = 22.29679 8.30396 16.82413
#
# Compressibility (1/GPa) = 0.01469299
#
# Stress axis : x y z
#
# Youngs Moduli (GPa) = 61.92909 105.59667 75.99098
#
# Poissons Ratio (x) = 0.49371 0.29783
# Poissons Ratio (y) = 0.28955 0.26196
# Poissons Ratio (z) = 0.24272 0.36402
#
# Static dielectric constant tensor:
#      x y z
#    x 1.765150 0.000000 0.000000 
#    y 0.000000 1.659150 0.000000 
#    z 0.000000 0.000000 1.629890 
# 
# From -- ./inp_files/33305.got.cif
#   From: 2010.05.17/outbox.cif.g08.bks.cpg/sg58_17_cif.got.tgz:33305.got - 2010.06.03 14:20:14.
