data_PCOD9445557
_publ_section_title
;
Structure prediction by ZEFSAII (Michael W. Deem and Ramdas Pophale) SiO2 
 PCOD9445557
Probable space group: P N N M
;
_chemical_formula_sum "Si O2"
_cell_formula_units_Z 48
_cell_length_a 11.842709
_cell_length_b 8.306414
_cell_length_c 25.894407
_cell_angle_alpha 90.000000
_cell_angle_beta 90.000000
_cell_angle_gamma 90.000000
_cell_volume 2547.244309
_symmetry_space_group_name_H-M "P N N M"
_symmetry_group_IT_number 58
_symmetry_cell_setting 'orthorhombic'
loop_
_space_group_symop_operation_xyz
x,y,z
-x,-y,z
1/2+x,1/2-y,1/2-z
1/2-x,1/2+y,1/2-z
-x,-y,-z
x,y,-z
1/2-x,1/2+y,1/2+z
1/2+x,1/2-y,1/2+z
loop_
_atom_site_type_symbol
_atom_site_label
_atom_site_fract_x
_atom_site_fract_y
_atom_site_fract_z
Si Si1 0.081456 0.730780 0.709473
Si Si2 0.560183 0.325178 0.560771
Si Si3 0.000000 0.500000 0.883967
Si Si4 0.173209 0.491479 0.207065
Si Si5 0.326901 0.785559 0.193414
Si Si6 0.287708 0.594535 0.350706
Si Si7 0.500000 0.500000 0.716415
O O1 0.099630 0.601154 0.754354
O O2 0.186094 0.705993 0.670845
O O3 0.960109 0.708622 0.682543
O O4 0.066922 0.886689 0.744683
O O5 0.500000 0.500000 0.567607
O O6 0.576993 0.299862 0.500000
O O7 0.494848 0.167064 0.583434
O O8 0.675425 0.349714 0.592913
O O9 0.895729 0.532550 0.845120
O O10 0.277400 0.606634 0.191785
O O11 0.191360 0.345542 0.247229
O O12 0.260246 0.913004 0.157753
O O13 0.406507 0.589296 0.318604
#
# Coordination Sequence:
#
# PCOD9445557 Si02
#       7
#     8   8   4   8   8   8   4
#     4  11  22  35  52  86 129 164 206 236 295 384
#     4  11  25  44  65  91 119 156 217 282 333 374
#     4  12  23  40  66  92 124 174 205 266 322 388
#     4  11  21  34  54  86 124 168 203 241 301 373
#     4  11  22  35  54  85 128 167 205 241 293 385
#     4  11  22  37  59  84 123 167 201 257 311 377
#     4  12  22  34  57  90 129 166 196 246 304 390
#
# _framework density 18.843893999999999
#
# number of rings (size 3 to 8) (size 9 to 14) (size 15 to 20)
#    0.000    0.833    4.167    5.750    4.667    0.000 
#    0.000    0.000    0.000    2.000    0.000    4.083 
#    0.000    0.000    0.000    0.000    0.000    0.000 
#
# Total GULP energy -267794.955867 kJ/mol
# GULP energy per Si atom -5579.061581 kJ/mol
# Density = 1.880100 g / cm^3
# Si number density = 18.843894 Si / 1000 Ang^3
#
#
#
# Elastic Constant Matrix: (Units=GPa)
#
#
# Indices 1 2 3 4 5 6 
#
# 1 128.0795 22.5156 43.9919 0.0000 0.0000 0.0000
# 2 22.5156 62.7126 45.8709 0.0000 0.0000 0.0000
# 3 43.9919 45.8709 113.0057 0.0000 0.0000 0.0000
# 4 0.0000 0.0000 0.0000 -113.1933 0.0000 0.0000
# 5 0.0000 0.0000 0.0000 0.0000 19.9689 0.0000
# 6 0.0000 0.0000 0.0000 0.0000 0.0000 38.5222
#
#
#
# Elastic Compliance Matrix: (Units=1/GPa)
#
#
# Indices 1 2 3 4 5 6 
#
# 1 0.009053 -0.000956 -0.003136 0.000000 0.000000 0.000000
# 2 -0.000956 0.022780 -0.008875 0.000000 0.000000 0.000000
# 3 -0.003136 -0.008875 0.013672 0.000000 0.000000 0.000000
# 4 0.000000 0.000000 0.000000 -0.008834 0.000000 0.000000
# 5 0.000000 0.000000 0.000000 0.000000 0.050078 0.000000
# 6 0.000000 0.000000 0.000000 0.000000 0.000000 0.025959
#
#
# Mechanical properties :
#
#
# Convention : Reuss Voigt Hill
#
# Bulk Modulus (GPa) = 51.09459 58.72829 54.91144
# Shear Modulus (GPa) = 34.44332 1.82087 18.13209
#
# Velocity S-wave (km/s) = 4.27994 0.98407 3.10534
# Velocity P-wave (km/s) = 7.18313 5.70303 6.48544
#
# Compressibility (1/GPa) = 0.01957154
#
# Stress axis : x y z
#
# Youngs Moduli (GPa) = 110.46171 43.89727 73.14083
#
# Poissons Ratio (x) = 0.04199 0.22937
# Poissons Ratio (y) = 0.10565 0.64910
# Poissons Ratio (z) = 0.34640 0.38957
#
# Static dielectric constant tensor:
#      x y z
#    x 0.368820 0.000000 0.000000 
#    y 0.000000 1.845600 0.000000 
#    z 0.000000 0.000000 1.617340 
# 
# From -- ./inp_files/33530.got.cif
#   From: 2010.05.17/outbox.cif.g08.bks.cpg/sg58_17_cif.got.tgz:33530.got - 2010.06.03 14:20:14.
