data_PCOD9445141
_publ_section_title
;
Structure prediction by ZEFSAII (Michael W. Deem and Ramdas Pophale) SiO2 
 PCOD9445141
Probable space group: P N N M
;
_chemical_formula_sum "Si O2"
_cell_formula_units_Z 32
_cell_length_a 9.638077
_cell_length_b 9.505237
_cell_length_c 14.483558
_cell_angle_alpha 90.000000
_cell_angle_beta 90.000000
_cell_angle_gamma 90.000000
_cell_volume 1326.870701
_symmetry_space_group_name_H-M "P N N M"
_symmetry_group_IT_number 58
_symmetry_cell_setting 'orthorhombic'
loop_
_space_group_symop_operation_xyz
x,y,z
-x,-y,z
1/2+x,1/2-y,1/2-z
1/2-x,1/2+y,1/2-z
-x,-y,-z
x,y,-z
1/2-x,1/2+y,1/2+z
1/2+x,1/2-y,1/2+z
loop_
_atom_site_type_symbol
_atom_site_label
_atom_site_fract_x
_atom_site_fract_y
_atom_site_fract_z
Si Si1 0.129728 0.085872 0.107194
Si Si2 0.395930 0.886838 0.698726
Si Si3 0.336641 0.532227 0.103456
Si Si4 0.371848 0.855114 0.899033
O O1 0.131149 0.234336 0.157193
O O2 0.261932 0.982045 0.105991
O O3 0.100096 0.118400 0.000000
O O4 0.000000 0.000000 0.145802
O O5 0.451924 0.863268 0.802682
O O6 0.500000 0.000000 0.652680
O O7 0.247703 0.961403 0.685388
O O8 0.500000 0.500000 0.111599
O O9 0.307156 0.699070 0.104453
O O10 0.295335 0.479405 0.000000
O O11 0.443791 0.859405 0.000000
#
# Coordination Sequence:
#
# PCOD9445141 Si02
#       4
#     8   8   8   8
#     4  10  22  41  65  95 132 171 215 273 337 397
#     4  12  25  40  66 100 131 170 221 273 326 389
#     4  10  23  44  69  97 132 172 214 267 329 393
#     4  10  23  42  63  91 131 176 220 269 328 391
#
# _framework density 24.116893000000001
#
# number of rings (size 3 to 8) (size 9 to 14) (size 15 to 20)
#    0.000    1.500    0.000    3.750    0.000   12.500 
#    0.000    5.000    0.000    0.000    0.000    0.000 
#    0.000    0.000    0.000    0.000    0.000    0.000 
#
# Total GULP energy -178701.812685 kJ/mol
# GULP energy per Si atom -5584.431646 kJ/mol
# Density = 2.406200 g / cm^3
# Si number density = 24.116893 Si / 1000 Ang^3
#
#
#
# Elastic Constant Matrix: (Units=GPa)
#
#
# Indices 1 2 3 4 5 6 
#
# 1 47.2833 29.0647 2.9416 0.0000 0.0000 0.0000
# 2 29.0647 193.6254 43.4185 0.0000 0.0000 0.0000
# 3 2.9416 43.4185 114.1055 0.0000 0.0000 0.0000
# 4 0.0000 0.0000 0.0000 26.6077 0.0000 0.0000
# 5 0.0000 0.0000 0.0000 0.0000 3.9679 0.0000
# 6 0.0000 0.0000 0.0000 0.0000 0.0000 42.9829
#
#
#
# Elastic Compliance Matrix: (Units=1/GPa)
#
#
# Indices 1 2 3 4 5 6 
#
# 1 0.023366 -0.003687 0.000801 0.000000 0.000000 0.000000
# 2 -0.003687 0.006228 -0.002275 0.000000 0.000000 0.000000
# 3 0.000801 -0.002275 0.009609 0.000000 0.000000 0.000000
# 4 0.000000 0.000000 0.000000 0.037583 0.000000 0.000000
# 5 0.000000 0.000000 0.000000 0.000000 0.252023 0.000000
# 6 0.000000 0.000000 0.000000 0.000000 0.000000 0.023265
#
#
# Mechanical properties :
#
#
# Convention : Reuss Voigt Hill
#
# Bulk Modulus (GPa) = 34.62577 56.20707 45.41642
# Shear Modulus (GPa) = 13.44003 33.35100 23.39551
#
# Velocity S-wave (km/s) = 2.36325 3.72276 3.11800
# Velocity P-wave (km/s) = 4.67282 6.46802 5.64227
#
# Compressibility (1/GPa) = 0.02888022
#
# Stress axis : x y z
#
# Youngs Moduli (GPa) = 42.79790 160.56131 104.07149
#
# Poissons Ratio (x) = 0.59197 -0.08331
# Poissons Ratio (y) = 0.15779 0.23675
# Poissons Ratio (z) = -0.03426 0.36525
#
# Static dielectric constant tensor:
#      x y z
#    x 1.900730 0.000000 0.000000 
#    y 0.000000 1.978280 0.000000 
#    z 0.000000 0.000000 1.989590 
# 
# From -- ./inp_files/20608.got.cif
#   From: 2010.05.17/outbox.cif.g08.bks.cpg/sg58_11_cif.got.tgz:20608.got - 2010.06.03 14:20:14.
