data_PCOD9445197
_publ_section_title
;
Structure prediction by ZEFSAII (Michael W. Deem and Ramdas Pophale) SiO2 
 PCOD9445197
Probable space group: P N N M
;
_chemical_formula_sum "Si O2"
_cell_formula_units_Z 48
_cell_length_a 8.824996
_cell_length_b 8.962340
_cell_length_c 26.866680
_cell_angle_alpha 90.000000
_cell_angle_beta 90.000000
_cell_angle_gamma 90.000000
_cell_volume 2124.955968
_symmetry_space_group_name_H-M "P N N M"
_symmetry_group_IT_number 58
_symmetry_cell_setting 'orthorhombic'
loop_
_space_group_symop_operation_xyz
x,y,z
-x,-y,z
1/2+x,1/2-y,1/2-z
1/2-x,1/2+y,1/2-z
-x,-y,-z
x,y,-z
1/2-x,1/2+y,1/2+z
1/2+x,1/2-y,1/2+z
loop_
_atom_site_type_symbol
_atom_site_label
_atom_site_fract_x
_atom_site_fract_y
_atom_site_fract_z
Si Si1 0.022913 0.676544 0.500000
Si Si2 0.487185 0.324247 0.627184
Si Si3 0.853285 0.410149 0.299537
Si Si4 0.174547 0.067906 0.500000
Si Si5 0.310111 0.265683 0.897406
Si Si6 0.095103 0.869675 0.232923
Si Si7 0.673226 0.950961 0.395980
O O1 0.106233 0.733323 0.550670
O O2 0.000000 0.500000 0.500000
O O3 0.860846 0.756997 0.500000
O O4 0.500000 0.500000 0.618022
O O5 0.631012 0.265235 0.596584
O O6 0.504052 0.304271 0.686970
O O7 0.338151 0.225884 0.615040
O O8 0.866905 0.347495 0.355370
O O9 0.840750 0.264807 0.264782
O O10 0.724136 0.533698 0.293968
O O11 0.000000 0.500000 0.283590
O O12 0.275630 0.029855 0.452810
O O13 0.000000 0.000000 0.500000
O O14 0.298818 0.434608 0.874041
O O15 0.000000 0.000000 0.260386
O O16 0.500000 0.000000 0.383690
#
# Coordination Sequence:
#
# PCOD9445197 Si02
#       7
#     4   8   8   4   8   8   8
#     4  12  28  44  69  98 150 187 231 291 370 411
#     4  10  22  42  71  95 139 177 236 290 340 413
#     4  12  26  42  73 104 142 182 235 289 361 424
#     4  12  23  46  64  99 139 176 226 301 344 423
#     4  11  23  47  67 102 140 186 235 293 343 426
#     4  11  24  48  68 101 142 180 232 295 349 426
#     4  10  23  41  72  96 130 186 233 282 348 418
#
# _framework density 22.588705000000001
#
# number of rings (size 3 to 8) (size 9 to 14) (size 15 to 20)
#    0.000    1.000    5.000    1.750    4.667    4.000 
#    3.000    0.833    0.000    0.000    0.000    0.000 
#    0.000    0.000    0.000    0.000    0.000    0.000 
#
# Total GULP energy -267308.438582 kJ/mol
# GULP energy per Si atom -5568.925804 kJ/mol
# Density = 2.253729 g / cm^3
# Si number density = 22.588705 Si / 1000 Ang^3
#
#
#
# Elastic Constant Matrix: (Units=GPa)
#
#
# Indices 1 2 3 4 5 6 
#
# 1 42.8713 17.6691 17.7537 0.0000 0.0000 0.0000
# 2 17.6691 144.0346 38.6988 0.0000 0.0000 0.0000
# 3 17.7537 38.6988 90.8595 0.0000 0.0000 0.0000
# 4 0.0000 0.0000 0.0000 28.5784 0.0000 0.0000
# 5 0.0000 0.0000 0.0000 0.0000 22.2826 0.0000
# 6 0.0000 0.0000 0.0000 0.0000 0.0000 40.5937
#
#
#
# Elastic Compliance Matrix: (Units=1/GPa)
#
#
# Indices 1 2 3 4 5 6 
#
# 1 0.025906 -0.002053 -0.004188 0.000000 0.000000 0.000000
# 2 -0.002053 0.008003 -0.003007 0.000000 0.000000 0.000000
# 3 -0.004188 -0.003007 0.013105 0.000000 0.000000 0.000000
# 4 0.000000 0.000000 0.000000 0.034991 0.000000 0.000000
# 5 0.000000 0.000000 0.000000 0.000000 0.044878 0.000000
# 6 0.000000 0.000000 0.000000 0.000000 0.000000 0.024634
#
#
# Mechanical properties :
#
#
# Convention : Reuss Voigt Hill
#
# Bulk Modulus (GPa) = 35.06553 47.33429 41.19991
# Shear Modulus (GPa) = 27.85219 31.86718 29.85968
#
# Velocity S-wave (km/s) = 3.51524 3.76008 3.63972
# Velocity P-wave (km/s) = 5.65978 6.31279 5.99518
#
# Compressibility (1/GPa) = 0.02851804
#
# Stress axis : x y z
#
# Youngs Moduli (GPa) = 38.60132 124.95922 76.30591
#
# Poissons Ratio (x) = 0.25652 0.31954
# Poissons Ratio (y) = 0.07924 0.22948
# Poissons Ratio (z) = 0.16165 0.37580
#
# Static dielectric constant tensor:
#      x y z
#    x 1.989030 0.000000 0.000000 
#    y 0.000000 2.020080 0.000000 
#    z 0.000000 0.000000 1.823150 
# 
# From -- ./inp_files/34620.got.cif
#   From: 2010.05.17/outbox.cif.g08.bks.cpg/sg58_18_cif.got.tgz:34620.got - 2010.06.03 14:20:14.
