data_PCOD9445100
_publ_section_title
;
Structure prediction by ZEFSAII (Michael W. Deem and Ramdas Pophale) SiO2 
 PCOD9445100
Probable space group: P N N M
;
_chemical_formula_sum "Si O2"
_cell_formula_units_Z 56
_cell_length_a 10.910411
_cell_length_b 14.599524
_cell_length_c 15.633055
_cell_angle_alpha 90.000000
_cell_angle_beta 90.000000
_cell_angle_gamma 90.000000
_cell_volume 2490.139418
_symmetry_space_group_name_H-M "P N N M"
_symmetry_group_IT_number 58
_symmetry_cell_setting 'orthorhombic'
loop_
_space_group_symop_operation_xyz
x,y,z
-x,-y,z
1/2+x,1/2-y,1/2-z
1/2-x,1/2+y,1/2-z
-x,-y,-z
x,y,-z
1/2-x,1/2+y,1/2+z
1/2+x,1/2-y,1/2+z
loop_
_atom_site_type_symbol
_atom_site_label
_atom_site_fract_x
_atom_site_fract_y
_atom_site_fract_z
Si Si1 0.942778 0.728802 0.597422
Si Si2 0.885042 0.433183 0.904554
Si Si3 0.621507 0.781911 0.258501
Si Si4 0.947464 0.145577 0.094543
Si Si5 0.790647 0.542362 0.405732
Si Si6 0.314866 0.608894 0.685724
Si Si7 0.115661 0.060687 0.630980
O O1 0.992047 0.718382 0.500000
O O2 0.852269 0.641333 0.610313
O O3 0.888514 0.832566 0.601127
O O4 0.036273 0.724119 0.675848
O O5 0.897628 0.365288 0.824739
O O6 0.749053 0.476899 0.895850
O O7 0.000000 0.500000 0.900375
O O8 0.887531 0.391000 0.000000
O O9 0.597866 0.698599 0.321653
O O10 0.757306 0.796953 0.221324
O O11 0.855524 0.060235 0.092958
O O12 0.089765 0.128452 0.111190
O O13 0.930642 0.187979 0.000000
O O14 0.832730 0.513403 0.500000
O O15 0.797853 0.457337 0.341719
O O16 0.382993 0.563976 0.766047
O O17 0.000000 0.000000 0.602300
#
# Coordination Sequence:
#
# PCOD9445100 Si02
#       7
#     8   8   8   8   8   8   8
#     4  11  25  44  68  98 136 183 234 288 354 424
#     4  10  23  44  68 101 139 183 234 288 356 428
#     4  11  25  42  65  95 135 185 225 286 349 427
#     4  11  22  41  69 100 133 175 229 289 355 426
#     4  10  22  40  68  99 132 175 226 283 357 429
#     4  11  23  40  66  99 139 177 227 292 358 418
#     4  11  23  44  73 104 140 186 239 292 349 426
#
# _framework density 22.488700000000001
#
# number of rings (size 3 to 8) (size 9 to 14) (size 15 to 20)
#    0.000    1.286    1.429    4.286    4.000    4.571 
#    2.571    1.429    0.000    0.000    0.000    0.000 
#    0.000    0.000    0.000    0.000    0.000    0.000 
#
# Total GULP energy -312372.223366 kJ/mol
# GULP energy per Si atom -5578.075417 kJ/mol
# Density = 2.243752 g / cm^3
# Si number density = 22.488700 Si / 1000 Ang^3
#
#
#
# Elastic Constant Matrix: (Units=GPa)
#
#
# Indices 1 2 3 4 5 6 
#
# 1 95.8824 28.6897 25.3015 0.0000 0.0000 0.0000
# 2 28.6897 68.8472 16.9876 0.0000 0.0000 0.0000
# 3 25.3015 16.9876 142.2594 0.0000 0.0000 0.0000
# 4 0.0000 0.0000 0.0000 53.9882 0.0000 0.0000
# 5 0.0000 0.0000 0.0000 0.0000 -65.9444 0.0000
# 6 0.0000 0.0000 0.0000 0.0000 0.0000 17.5391
#
#
#
# Elastic Compliance Matrix: (Units=1/GPa)
#
#
# Indices 1 2 3 4 5 6 
#
# 1 0.012267 -0.004712 -0.001619 0.000000 0.000000 0.000000
# 2 -0.004712 0.016776 -0.001165 0.000000 0.000000 0.000000
# 3 -0.001619 -0.001165 0.007456 0.000000 0.000000 0.000000
# 4 0.000000 0.000000 0.000000 0.018523 0.000000 0.000000
# 5 0.000000 0.000000 0.000000 0.000000 -0.015164 0.000000
# 6 0.000000 0.000000 0.000000 0.000000 0.000000 0.057015
#
#
# Mechanical properties :
#
#
# Convention : Reuss Voigt Hill
#
# Bulk Modulus (GPa) = 46.49774 49.88297 48.19035
# Shear Modulus (GPa) = 42.00465 16.85061 29.42763
#
# Velocity S-wave (km/s) = 4.32651 2.74029 3.62132
# Velocity P-wave (km/s) = 6.75863 5.67818 6.24183
#
# Compressibility (1/GPa) = 0.02150642
#
# Stress axis : x y z
#
# Youngs Moduli (GPa) = 81.52195 59.60873 134.11128
#
# Poissons Ratio (x) = 0.28089 0.21712
# Poissons Ratio (y) = 0.38415 0.15626
# Poissons Ratio (z) = 0.13198 0.06946
#
# Static dielectric constant tensor:
#      x y z
#    x 1.860960 0.000000 0.000000 
#    y 0.000000 1.900820 0.000000 
#    z 0.000000 0.000000 1.845840 
# 
# From -- ./inp_files/21273.got.cif
#   From: 2010.05.17/outbox.cif.g08.bks.cpg/sg58_11_cif.got.tgz:21273.got - 2010.06.03 14:20:14.
