data_PCOD9445913
_publ_section_title
;
Structure prediction by ZEFSAII (Michael W. Deem and Ramdas Pophale) SiO2 
 PCOD9445913
Probable space group: P N N M
;
_chemical_formula_sum "Si O2"
_cell_formula_units_Z 64
_cell_length_a 30.000000
_cell_length_b 12.000000
_cell_length_c 9.000000
_cell_angle_alpha 90.000000
_cell_angle_beta 90.000000
_cell_angle_gamma 90.000000
_cell_volume 3240.000000
_symmetry_space_group_name_H-M "P N N M"
_symmetry_group_IT_number 58
_symmetry_cell_setting 'orthorhombic'
loop_
_space_group_symop_operation_xyz
x,y,z
-x,-y,z
1/2+x,1/2-y,1/2-z
1/2-x,1/2+y,1/2-z
-x,-y,-z
x,y,-z
1/2-x,1/2+y,1/2+z
1/2+x,1/2-y,1/2+z
loop_
_atom_site_type_symbol
_atom_site_label
_atom_site_fract_x
_atom_site_fract_y
_atom_site_fract_z
Si Si1 0.432017 0.550190 0.823414
Si Si2 0.336193 0.273948 0.820104
Si Si3 0.844164 0.868135 0.176356
Si Si4 0.314362 0.024790 0.823063
Si Si5 0.062120 0.792766 0.322614
Si Si6 0.524408 0.235109 0.322586
Si Si7 0.114986 0.377208 0.175872
Si Si8 0.776223 0.016512 0.678586
O O1 0.381537 0.562440 0.765554
O O2 0.447538 0.424238 0.797110
O O3 0.458442 0.645619 0.737500
O O4 0.434211 0.571015 0.000000
O O5 0.387434 0.274962 0.768218
O O6 0.306490 0.378401 0.772245
O O7 0.314994 0.155363 0.783469
O O8 0.338451 0.281683 0.000000
O O9 0.857877 0.739172 0.196184
O O10 0.797582 0.907427 0.244505
O O11 0.845976 0.891233 0.000000
O O12 0.360526 0.969745 0.771683
O O13 0.273794 0.968678 0.735612
O O14 0.308702 0.013341 0.000000
O O15 0.060448 0.774434 0.500000
O O16 0.024375 0.719508 0.244995
O O17 0.522376 0.238269 0.500000
O O18 0.563793 0.149022 0.281562
O O19 0.116443 0.404059 0.000000
O O20 0.777598 0.007397 0.500000
#
# Coordination Sequence:
#
# PCOD9445913 Si02
#       8
#     8   8   8   8   8   8   8   8
#     4  10  18  31  53  82 117 157 195 236 289 355
#     4   9  21  42  62  84 120 158 191 242 302 352
#     4  10  20  35  57  86 119 154 192 241 292 343
#     4  11  24  41  63  89 115 151 203 251 293 352
#     4  10  19  35  57  82 114 157 200 238 294 358
#     4  10  21  35  54  84 120 157 196 245 302 350
#     4   9  21  41  59  80 119 161 195 240 300 350
#     4  11  22  40  63  87 119 157 192 235 302 365
#
# _framework density 19.753086
#
# number of rings (size 3 to 8) (size 9 to 14) (size 15 to 20)
#    0.000    2.000    1.250    3.000    1.750    5.500 
#    0.000    3.750    0.000    3.750    0.000    0.000 
#    0.000    0.000    0.000    0.000    0.000    0.000 
#
# Total GULP energy -357352.615666 kJ/mol
# GULP energy per Si atom -5583.634620 kJ/mol
# Density = 1.970813 g / cm^3
# Si number density = 19.753086 Si / 1000 Ang^3
#
#
#
# Elastic Constant Matrix: (Units=GPa)
#
#
# Indices 1 2 3 4 5 6 
#
# 1 101.8065 14.6234 7.3775 0.0000 0.0000 0.0000
# 2 14.6234 33.9050 9.4237 0.0000 0.0000 0.0000
# 3 7.3775 9.4237 17.0696 0.0000 0.0000 0.0000
# 4 0.0000 0.0000 0.0000 16.0310 0.0000 0.0000
# 5 0.0000 0.0000 0.0000 0.0000 37.6083 0.0000
# 6 0.0000 0.0000 0.0000 0.0000 0.0000 12.7039
#
#
#
# Elastic Compliance Matrix: (Units=1/GPa)
#
#
# Indices 1 2 3 4 5 6 
#
# 1 0.010555 -0.003880 -0.002420 0.000000 0.000000 0.000000
# 2 -0.003880 0.036266 -0.018345 0.000000 0.000000 0.000000
# 3 -0.002420 -0.018345 0.069757 0.000000 0.000000 0.000000
# 4 0.000000 0.000000 0.000000 0.062379 0.000000 0.000000
# 5 0.000000 0.000000 0.000000 0.000000 0.026590 0.000000
# 6 0.000000 0.000000 0.000000 0.000000 0.000000 0.078716
#
#
# Mechanical properties :
#
#
# Convention : Reuss Voigt Hill
#
# Bulk Modulus (GPa) = 14.86116 23.95891 19.41003
# Shear Modulus (GPa) = 14.04562 21.35908 17.70235
#
# Velocity S-wave (km/s) = 2.66946 3.29189 2.99688
# Velocity P-wave (km/s) = 4.12810 5.15793 4.67148
#
# Compressibility (1/GPa) = 0.06728951
#
# Stress axis : x y z
#
# Youngs Moduli (GPa) = 94.73977 27.57369 14.33543
#
# Poissons Ratio (x) = 0.10698 0.03469
# Poissons Ratio (y) = 0.36758 0.26298
# Poissons Ratio (z) = 0.22927 0.50583
#
# Static dielectric constant tensor:
#      x y z
#    x 1.741930 0.000000 0.000000 
#    y 0.000000 1.683130 0.000000 
#    z 0.000000 0.000000 1.651170 
# 
# From -- ./inp_files/10968.got.cif
#   From: 2010.05.17/outbox.ucp.g08.bks.cvg/sg58_6_cif.got.tgz:10968.got - 2010.06.11 16:41:41.
