data_PCOD9445472
_publ_section_title
;
Structure prediction by ZEFSAII (Michael W. Deem and Ramdas Pophale) SiO2 
 PCOD9445472
Probable space group: P N N M
;
_chemical_formula_sum "Si O2"
_cell_formula_units_Z 34
_cell_length_a 8.721851
_cell_length_b 16.651785
_cell_length_c 9.858137
_cell_angle_alpha 90.000000
_cell_angle_beta 90.000000
_cell_angle_gamma 90.000000
_cell_volume 1431.740491
_symmetry_space_group_name_H-M "P N N M"
_symmetry_group_IT_number 58
_symmetry_cell_setting 'orthorhombic'
loop_
_space_group_symop_operation_xyz
x,y,z
-x,-y,z
1/2+x,1/2-y,1/2-z
1/2-x,1/2+y,1/2-z
-x,-y,-z
x,y,-z
1/2-x,1/2+y,1/2+z
1/2+x,1/2-y,1/2+z
loop_
_atom_site_type_symbol
_atom_site_label
_atom_site_fract_x
_atom_site_fract_y
_atom_site_fract_z
Si Si1 0.990873 0.589251 0.284782
Si Si2 0.986353 0.791034 0.000000
Si Si3 0.652464 0.206193 0.000000
Si Si4 0.656832 0.411296 0.714722
Si Si5 0.480578 0.615863 0.000000
Si Si6 0.343309 0.883383 0.500000
Si Si7 0.000000 0.000000 0.000000
O O1 0.895813 0.652880 0.371275
O O2 0.000000 0.500000 0.344304
O O3 0.167862 0.616630 0.278596
O O4 0.916755 0.582023 0.136521
O O5 0.941159 0.846218 0.871567
O O6 0.889973 0.710473 0.000000
O O7 0.166885 0.776028 0.000000
O O8 0.561653 0.289576 0.000000
O O9 0.630959 0.488928 0.620453
O O10 0.594270 0.419729 0.864892
O O11 0.662103 0.606158 0.000000
#
# Coordination Sequence:
#
# PCOD9445472 Si02
#       7
#     8   4   4   8   4   4   2
#     4  12  27  45  69 102 148 189 234 287 351 421
#     4  11  24  45  75 103 142 185 238 293 349 415
#     4  12  25  45  74 106 139 187 237 292 353 410
#     4  11  25  45  72 104 142 180 238 284 351 413
#     4  12  26  46  76 106 138 182 239 300 350 411
#     4  12  26  47  68 104 144 186 236 290 357 410
#     4  10  26  44  72  98 142 178 228 274 346 422
#
# _framework density 23.747322
#
# number of rings (size 3 to 8) (size 9 to 14) (size 15 to 20)
#    0.000    0.471    0.000    8.471    9.882    0.471 
#    0.000    0.000    0.000    0.000    0.000    0.000 
#    0.000    0.000    0.000    0.000    0.000    0.000 
#
# Total GULP energy -190143.676323 kJ/mol
# GULP energy per Si atom -5592.461068 kJ/mol
# Density = 2.369327 g / cm^3
# Si number density = 23.747322 Si / 1000 Ang^3
#
#
#
# Elastic Constant Matrix: (Units=GPa)
#
#
# Indices 1 2 3 4 5 6 
#
# 1 145.2495 -6.2345 48.3154 0.0000 0.0000 0.0000
# 2 -6.2345 87.9761 20.1873 0.0000 0.0000 0.0000
# 3 48.3154 20.1873 208.6217 0.0000 0.0000 0.0000
# 4 0.0000 0.0000 0.0000 30.5264 0.0000 0.0000
# 5 0.0000 0.0000 0.0000 0.0000 33.5160 0.0000
# 6 0.0000 0.0000 0.0000 0.0000 0.0000 35.6354
#
#
#
# Elastic Compliance Matrix: (Units=1/GPa)
#
#
# Indices 1 2 3 4 5 6 
#
# 1 0.007537 0.000956 -0.001838 0.000000 0.000000 0.000000
# 2 0.000956 0.011746 -0.001358 0.000000 0.000000 0.000000
# 3 -0.001838 -0.001358 0.005350 0.000000 0.000000 0.000000
# 4 0.000000 0.000000 0.000000 0.032759 0.000000 0.000000
# 5 0.000000 0.000000 0.000000 0.000000 0.029836 0.000000
# 6 0.000000 0.000000 0.000000 0.000000 0.000000 0.028062
#
#
# Mechanical properties :
#
#
# Convention : Reuss Voigt Hill
#
# Bulk Modulus (GPa) = 49.61947 62.93151 56.27549
# Shear Modulus (GPa) = 39.52920 45.24083 42.38502
#
# Velocity S-wave (km/s) = 4.08435 4.36947 4.22931
# Velocity P-wave (km/s) = 6.57135 7.21210 6.89917
#
# Compressibility (1/GPa) = 0.02015338
#
# Stress axis : x y z
#
# Youngs Moduli (GPa) = 132.67638 85.13480 186.90014
#
# Poissons Ratio (x) = -0.08138 0.34353
# Poissons Ratio (y) = -0.12682 0.25381
# Poissons Ratio (z) = 0.24387 0.11561
#
# Static dielectric constant tensor:
#      x y z
#    x 1.866500 0.000000 0.000000 
#    y 0.000000 2.038100 0.000000 
#    z 0.000000 0.000000 1.868810 
# 
# From -- ./inp_files/2338.got.cif
#   From: 2010.05.17/outbox.cif.g08.bks.cpg/sg58_2_cif.got.tgz:2338.got - 2010.06.03 14:20:14.
