data_PCOD9445944
_publ_section_title
;
Structure prediction by ZEFSAII (Michael W. Deem and Ramdas Pophale) SiO2 
 PCOD9445944
Probable space group: P N N M
;
_chemical_formula_sum "Si O2"
_cell_formula_units_Z 64
_cell_length_a 24.000000
_cell_length_b 15.000000
_cell_length_c 9.000000
_cell_angle_alpha 90.000000
_cell_angle_beta 90.000000
_cell_angle_gamma 90.000000
_cell_volume 3240.000000
_symmetry_space_group_name_H-M "P N N M"
_symmetry_group_IT_number 58
_symmetry_cell_setting 'orthorhombic'
loop_
_space_group_symop_operation_xyz
x,y,z
-x,-y,z
1/2+x,1/2-y,1/2-z
1/2-x,1/2+y,1/2-z
-x,-y,-z
x,y,-z
1/2-x,1/2+y,1/2+z
1/2+x,1/2-y,1/2+z
loop_
_atom_site_type_symbol
_atom_site_label
_atom_site_fract_x
_atom_site_fract_y
_atom_site_fract_z
Si Si1 0.651425 0.050201 0.677120
Si Si2 0.958355 0.205412 0.179503
Si Si3 0.734258 0.819182 0.677638
Si Si4 0.233390 0.995846 0.177335
Si Si5 0.575103 0.385217 0.677937
Si Si6 0.381000 0.440030 0.176959
Si Si7 0.609074 0.865221 0.679194
Si Si8 0.168072 0.259179 0.825519
O O1 0.662817 0.037216 0.500000
O O2 0.632228 0.151000 0.696033
O O3 0.708969 0.044549 0.765314
O O4 0.613308 0.967976 0.727250
O O5 0.912495 0.144279 0.256664
O O6 0.942840 0.305768 0.227039
O O7 0.019080 0.167961 0.215540
O O8 0.952668 0.198883 0.000000
O O9 0.737598 0.828732 0.500000
O O10 0.760806 0.904022 0.760209
O O11 0.668754 0.819292 0.718086
O O12 0.775018 0.741666 0.732107
O O13 0.179697 0.950850 0.250065
O O14 0.228540 0.995000 0.000000
O O15 0.574505 0.405136 0.500000
O O16 0.583027 0.474925 0.769382
O O17 0.627863 0.322663 0.709215
O O18 0.376605 0.436990 0.000000
O O19 0.607112 0.866711 0.500000
O O20 0.183171 0.254727 0.000000
#
# Coordination Sequence:
#
# PCOD9445944 Si02
#       8
#     8   8   8   8   8   8   8   8
#     4   9  19  36  56  82 117 151 187 233 281 330
#     4  10  21  38  59  81 109 151 194 235 282 334
#     4  10  19  33  54  81 112 148 186 228 278 332
#     4  11  21  35  55  81 113 148 185 227 284 341
#     4  10  21  38  58  82 113 149 191 234 278 333
#     4  12  24  37  55  82 113 148 187 233 287 340
#     4   8  17  35  56  79 111 147 186 232 279 325
#     4  10  20  34  55  83 115 151 189 230 277 332
#
# _framework density 19.753086
#
# number of rings (size 3 to 8) (size 9 to 14) (size 15 to 20)
#    0.000    2.000    1.250    3.750    1.750    2.500 
#    0.000    3.125    0.000    3.750    0.000    0.000 
#    0.000    7.000    0.000    0.000    0.000    0.000 
#
# Total GULP energy -356944.012537 kJ/mol
# GULP energy per Si atom -5577.250196 kJ/mol
# Density = 1.970813 g / cm^3
# Si number density = 19.753086 Si / 1000 Ang^3
#
#
#
# Elastic Constant Matrix: (Units=GPa)
#
#
# Indices 1 2 3 4 5 6 
#
# 1 4.2719 -25.9126 0.5781 0.0000 0.0000 0.0000
# 2 -25.9126 55.3219 -1.6723 0.0000 0.0000 0.0000
# 3 0.5781 -1.6723 30.6943 0.0000 0.0000 0.0000
# 4 0.0000 0.0000 0.0000 9.8406 0.0000 0.0000
# 5 0.0000 0.0000 0.0000 0.0000 18.0955 0.0000
# 6 0.0000 0.0000 0.0000 0.0000 0.0000 -13.3513
#
#
#
# Elastic Compliance Matrix: (Units=1/GPa)
#
#
# Indices 1 2 3 4 5 6 
#
# 1 -0.127116 -0.059566 -0.000851 0.000000 0.000000 0.000000
# 2 -0.059566 -0.009807 0.000587 0.000000 0.000000 0.000000
# 3 -0.000851 0.000587 0.032627 0.000000 0.000000 0.000000
# 4 0.000000 0.000000 0.000000 0.101620 0.000000 0.000000
# 5 0.000000 0.000000 0.000000 0.000000 0.055262 0.000000
# 6 0.000000 0.000000 0.000000 0.000000 0.000000 -0.074899
#
#
# Mechanical properties :
#
#
# Convention : Reuss Voigt Hill
#
# Bulk Modulus (GPa) = -4.46516 4.03049 -0.21734
# Shear Modulus (GPa) = 220.29992 10.73663 115.51827
#
# Velocity S-wave (km/s) = 10.57208 2.33393 7.65559
# Velocity P-wave (km/s) = 12.11445 3.05087 8.83368
#
# Compressibility (1/GPa) = -0.22395596
#
# Stress axis : x y z
#
# Youngs Moduli (GPa) = -7.86684 -101.96961 30.64913
#
# Poissons Ratio (x) = -6.07395 0.02610
# Poissons Ratio (y) = -0.46860 -0.01801
# Poissons Ratio (z) = -0.00670 0.05990
#
# Static dielectric constant tensor:
#      x y z
#    x 1.685260 0.000000 0.000000 
#    y 0.000000 1.805630 0.000000 
#    z 0.000000 0.000000 1.659620 
# 
# From -- ./inp_files/10081.got.cif
#   From: 2010.05.17/outbox.ucp.g08.bks.cvg/sg58_6_cif.got.tgz:10081.got - 2010.06.11 16:41:41.
