data_PCOD9445504
_publ_section_title
;
Structure prediction by ZEFSAII (Michael W. Deem and Ramdas Pophale) SiO2 
 PCOD9445504
Probable space group: P N N M
;
_chemical_formula_sum "Si O2"
_cell_formula_units_Z 56
_cell_length_a 17.587483
_cell_length_b 6.810245
_cell_length_c 20.923697
_cell_angle_alpha 90.000000
_cell_angle_beta 90.000000
_cell_angle_gamma 90.000000
_cell_volume 2506.137234
_symmetry_space_group_name_H-M "P N N M"
_symmetry_group_IT_number 58
_symmetry_cell_setting 'orthorhombic'
loop_
_space_group_symop_operation_xyz
x,y,z
-x,-y,z
1/2+x,1/2-y,1/2-z
1/2-x,1/2+y,1/2-z
-x,-y,-z
x,y,-z
1/2-x,1/2+y,1/2+z
1/2+x,1/2-y,1/2+z
loop_
_atom_site_type_symbol
_atom_site_label
_atom_site_fract_x
_atom_site_fract_y
_atom_site_fract_z
Si Si1 0.086920 0.003115 0.787445
Si Si2 0.302306 0.257457 0.930542
Si Si3 0.407880 0.996982 0.706853
Si Si4 0.161320 0.744631 0.291594
Si Si5 0.179751 0.250158 0.275162
Si Si6 0.216106 0.625580 0.108388
Si Si7 0.852528 0.992960 0.930920
O O1 0.102615 0.250973 0.777254
O O2 0.103509 0.749446 0.773769
O O3 0.100996 0.009972 0.864615
O O4 0.000000 0.000000 0.766855
O O5 0.354048 0.238949 0.867627
O O6 0.270055 0.477106 0.927842
O O7 0.225923 0.128108 0.923809
O O8 0.337174 0.214289 0.000000
O O9 0.351261 0.012240 0.645862
O O10 0.500000 0.000000 0.699614
O O11 0.148063 0.490688 0.277809
O O12 0.251121 0.746261 0.276429
O O13 0.149971 0.004698 0.277121
O O14 0.229955 0.239284 0.340627
O O15 0.174797 0.783815 0.066216
O O16 0.887755 0.935351 0.000000
#
# Coordination Sequence:
#
# PCOD9445504 Si02
#       7
#     8   8   8   8   8   8   8
#     4  12  22  35  58  87 119 153 196 247 301 354
#     4  11  22  38  62  90 118 155 206 253 298 355
#     4  11  21  33  58  92 121 152 195 254 303 355
#     4  11  19  37  58  83 114 151 200 249 298 348
#     4  11  19  34  60  86 110 154 202 247 298 349
#     4  11  21  39  63  85 123 157 202 251 298 355
#     4  11  23  38  59  89 126 165 202 239 295 367
#
# _framework density 22.345144000000001
#
# number of rings (size 3 to 8) (size 9 to 14) (size 15 to 20)
#    0.000    0.857    7.143    3.000    0.000    0.286 
#    0.000    0.000    0.000    1.714    0.000    0.000 
#    0.000    0.000    0.000    0.000    0.000    0.000 
#
# Total GULP energy -311892.021774 kJ/mol
# GULP energy per Si atom -5569.500389 kJ/mol
# Density = 2.229428 g / cm^3
# Si number density = 22.345144 Si / 1000 Ang^3
#
#
#
# Elastic Constant Matrix: (Units=GPa)
#
#
# Indices 1 2 3 4 5 6 
#
# 1 103.4005 26.3156 52.4652 0.0000 0.0000 0.0000
# 2 26.3156 152.9384 47.4455 0.0000 0.0000 0.0000
# 3 52.4652 47.4455 179.8319 0.0000 0.0000 0.0000
# 4 0.0000 0.0000 0.0000 -56.9307 0.0000 0.0000
# 5 0.0000 0.0000 0.0000 0.0000 23.7673 0.0000
# 6 0.0000 0.0000 0.0000 0.0000 0.0000 62.9167
#
#
#
# Elastic Compliance Matrix: (Units=1/GPa)
#
#
# Indices 1 2 3 4 5 6 
#
# 1 0.011496 -0.001021 -0.003085 0.000000 0.000000 0.000000
# 2 -0.001021 0.007212 -0.001605 0.000000 0.000000 0.000000
# 3 -0.003085 -0.001605 0.006884 0.000000 0.000000 0.000000
# 4 0.000000 0.000000 0.000000 -0.017565 0.000000 0.000000
# 5 0.000000 0.000000 0.000000 0.000000 0.042075 0.000000
# 6 0.000000 0.000000 0.000000 0.000000 0.000000 0.015894
#
#
# Mechanical properties :
#
#
# Convention : Reuss Voigt Hill
#
# Bulk Modulus (GPa) = 70.56585 76.51370 73.53977
# Shear Modulus (GPa) = 60.87116 26.61364 43.74240
#
# Velocity S-wave (km/s) = 5.22499 3.45487 4.42925
# Velocity P-wave (km/s) = 8.24919 7.08738 7.69026
#
# Compressibility (1/GPa) = 0.01417116
#
# Stress axis : x y z
#
# Youngs Moduli (GPa) = 86.98599 138.65456 145.26313
#
# Poissons Ratio (x) = 0.14159 0.44807
# Poissons Ratio (y) = 0.08883 0.23313
# Poissons Ratio (z) = 0.26831 0.22252
#
# Static dielectric constant tensor:
#      x y z
#    x 1.691200 0.000000 0.000000 
#    y 0.000000 2.177370 0.000000 
#    z 0.000000 0.000000 1.824710 
# 
# From -- ./inp_files/28302.got.cif
#   From: 2010.05.17/outbox.cif.g08.bks.cpg/sg58_15_cif.got.tgz:28302.got - 2010.06.03 14:20:14.
