data_PCOD9445737
_publ_section_title
;
Structure prediction by ZEFSAII (Michael W. Deem and Ramdas Pophale) SiO2 
 PCOD9445737
Probable space group: P N N M
;
_chemical_formula_sum "Si O2"
_cell_formula_units_Z 28
_cell_length_a 4.817911
_cell_length_b 29.912493
_cell_length_c 7.435770
_cell_angle_alpha 90.000000
_cell_angle_beta 90.000000
_cell_angle_gamma 90.000000
_cell_volume 1071.611415
_symmetry_space_group_name_H-M "P N N M"
_symmetry_group_IT_number 58
_symmetry_cell_setting 'orthorhombic'
loop_
_space_group_symop_operation_xyz
x,y,z
-x,-y,z
1/2+x,1/2-y,1/2-z
1/2-x,1/2+y,1/2-z
-x,-y,-z
x,y,-z
1/2-x,1/2+y,1/2+z
1/2+x,1/2-y,1/2+z
loop_
_atom_site_type_symbol
_atom_site_label
_atom_site_fract_x
_atom_site_fract_y
_atom_site_fract_z
Si Si1 0.851952 0.455687 0.709409
Si Si2 0.271653 0.334692 0.500000
Si Si3 0.909553 0.280368 0.209732
Si Si4 0.363405 0.396456 0.799598
O O1 0.787887 0.464039 0.500000
O O2 0.574603 0.438079 0.798621
O O3 0.000000 0.500000 0.782483
O O4 0.074367 0.416123 0.727664
O O5 0.066541 0.313795 0.341510
O O6 0.455585 0.360212 0.657068
O O7 0.116394 0.237025 0.213857
O O8 0.878134 0.293774 0.000000
O O9 0.336787 0.378835 0.000000
#
# Coordination Sequence:
#
# PCOD9445737 Si02
#       4
#     8   4   8   8
#     4  11  23  45  72 100 142 189 236 284 339 407
#     4  12  26  48  73 100 148 174 236 280 357 408
#     4  12  25  47  74 103 133 177 225 284 343 412
#     4  12  26  44  70 105 140 186 231 287 349 400
#
# _framework density 26.128875000000001
#
# number of rings (size 3 to 8) (size 9 to 14) (size 15 to 20)
#    0.000    0.286    5.714    2.571    0.000   10.286 
#    0.000    5.714    0.000    0.000    0.000    0.000 
#    0.000    0.000    0.000    0.000    0.000    0.000 
#
# Total GULP energy -156033.626922 kJ/mol
# GULP energy per Si atom -5572.629533 kJ/mol
# Density = 2.606940 g / cm^3
# Si number density = 26.128875 Si / 1000 Ang^3
#
#
#
# Elastic Constant Matrix: (Units=GPa)
#
#
# Indices 1 2 3 4 5 6 
#
# 1 101.9066 0.0964 -19.2170 0.0000 0.0000 0.0000
# 2 0.0964 81.6448 3.3983 0.0000 0.0000 0.0000
# 3 -19.2170 3.3983 201.9418 0.0000 0.0000 0.0000
# 4 0.0000 0.0000 0.0000 -13.2630 0.0000 0.0000
# 5 0.0000 0.0000 0.0000 0.0000 11.2878 0.0000
# 6 0.0000 0.0000 0.0000 0.0000 0.0000 52.2046
#
#
#
# Elastic Compliance Matrix: (Units=1/GPa)
#
#
# Indices 1 2 3 4 5 6 
#
# 1 0.009992 -0.000051 0.000952 0.000000 0.000000 0.000000
# 2 -0.000051 0.012257 -0.000211 0.000000 0.000000 0.000000
# 3 0.000952 -0.000211 0.005046 0.000000 0.000000 0.000000
# 4 0.000000 0.000000 0.000000 -0.075398 0.000000 0.000000
# 5 0.000000 0.000000 0.000000 0.000000 0.088591 0.000000
# 6 0.000000 0.000000 0.000000 0.000000 0.000000 0.019155
#
#
# Mechanical properties :
#
#
# Convention : Reuss Voigt Hill
#
# Bulk Modulus (GPa) = 34.87495 39.33874 37.10685
# Shear Modulus (GPa) = 73.72017 36.79357 55.25687
#
# Velocity S-wave (km/s) = 5.31745 3.75661 4.60366
# Velocity P-wave (km/s) = 7.14679 5.82276 6.51848
#
# Compressibility (1/GPa) = 0.02867387
#
# Stress axis : x y z
#
# Youngs Moduli (GPa) = 100.07573 81.58583 198.17498
#
# Poissons Ratio (x) = 0.00419 -0.18861
# Poissons Ratio (y) = 0.00515 0.04185
# Poissons Ratio (z) = -0.09525 0.01723
#
# Static dielectric constant tensor:
#      x y z
#    x 2.056930 0.000000 0.000000 
#    y 0.000000 2.242490 0.000000 
#    z 0.000000 0.000000 1.920210 
# 
# From -- ./inp_files/1347.got.cif
#   From: 2010.05.17/outbox.cif.g08.bks.cpg/sg58_1_cif.got.tgz:1347.got - 2010.06.03 14:20:14.
