data_PCOD9445707
_publ_section_title
;
Structure prediction by ZEFSAII (Michael W. Deem and Ramdas Pophale) SiO2 
 PCOD9445707
Probable space group: P N N M
;
_chemical_formula_sum "Si O2"
_cell_formula_units_Z 60
_cell_length_a 5.082363
_cell_length_b 19.584897
_cell_length_c 24.011439
_cell_angle_alpha 90.000000
_cell_angle_beta 90.000000
_cell_angle_gamma 90.000000
_cell_volume 2390.039951
_symmetry_space_group_name_H-M "P N N M"
_symmetry_group_IT_number 58
_symmetry_cell_setting 'orthorhombic'
loop_
_space_group_symop_operation_xyz
x,y,z
-x,-y,z
1/2+x,1/2-y,1/2-z
1/2-x,1/2+y,1/2-z
-x,-y,-z
x,y,-z
1/2-x,1/2+y,1/2+z
1/2+x,1/2-y,1/2+z
loop_
_atom_site_type_symbol
_atom_site_label
_atom_site_fract_x
_atom_site_fract_y
_atom_site_fract_z
Si Si1 0.749548 0.952153 0.500000
Si Si2 0.991677 0.426709 0.594671
Si Si3 0.698751 0.563029 0.288992
Si Si4 0.129874 0.386688 0.174065
Si Si5 0.625303 0.339618 0.352811
Si Si6 0.270171 0.779465 0.064951
Si Si7 0.892572 0.868219 0.606296
Si Si8 0.569279 0.746233 0.783044
O O1 0.767809 0.904726 0.553501
O O2 0.500000 0.000000 0.500000
O O3 0.000000 0.000000 0.500000
O O4 0.135065 0.439537 0.654152
O O5 0.098728 0.355840 0.568071
O O6 0.000000 0.500000 0.565021
O O7 0.695178 0.405293 0.610140
O O8 0.500000 0.500000 0.284657
O O9 0.855419 0.570588 0.231344
O O10 0.532692 0.632030 0.300116
O O11 0.338287 0.406441 0.125430
O O12 0.278030 0.316739 0.190431
O O13 0.834828 0.377560 0.152906
O O14 0.474226 0.287942 0.392669
O O15 0.887264 0.307533 0.326526
O O16 0.421499 0.711728 0.087362
O O17 0.201206 0.768135 0.000000
O O18 0.267087 0.736582 0.767987
#
# Coordination Sequence:
#
# PCOD9445707 Si02
#       8
#     4   8   8   8   8   8   8   8
#     4  12  28  56  86 110 149 203 249 315 396 472
#     4  11  24  44  71 104 148 203 256 305 377 458
#     4  11  24  42  67 101 148 201 238 297 370 461
#     4  12  26  42  73 114 150 191 247 310 375 449
#     4  11  23  41  67  97 140 190 249 295 379 448
#     4  11  26  47  72 107 142 194 257 329 388 442
#     4  12  27  51  77 115 151 193 254 322 384 462
#     4  12  23  38  65 100 144 186 239 297 364 440
#
# _framework density 25.104185000000001
#
# number of rings (size 3 to 8) (size 9 to 14) (size 15 to 20)
#    0.000    0.533    4.667    3.200    3.733    2.400 
#    0.000    0.667    0.000    0.000    0.000    0.000 
#    0.000    0.000    0.000    0.000    0.000    0.000 
#
# Total GULP energy -335504.318553 kJ/mol
# GULP energy per Si atom -5591.738643 kJ/mol
# Density = 2.504705 g / cm^3
# Si number density = 25.104185 Si / 1000 Ang^3
#
#
#
# Elastic Constant Matrix: (Units=GPa)
#
#
# Indices 1 2 3 4 5 6 
#
# 1 80.7314 23.5287 23.3051 0.0000 0.0000 0.0000
# 2 23.5287 109.8207 35.1368 0.0000 0.0000 0.0000
# 3 23.3051 35.1368 135.8941 0.0000 0.0000 0.0000
# 4 0.0000 0.0000 0.0000 19.4278 0.0000 0.0000
# 5 0.0000 0.0000 0.0000 0.0000 18.8166 0.0000
# 6 0.0000 0.0000 0.0000 0.0000 0.0000 46.2657
#
#
#
# Elastic Compliance Matrix: (Units=1/GPa)
#
#
# Indices 1 2 3 4 5 6 
#
# 1 0.013570 -0.002358 -0.001718 0.000000 0.000000 0.000000
# 2 -0.002358 0.010337 -0.002268 0.000000 0.000000 0.000000
# 3 -0.001718 -0.002268 0.008240 0.000000 0.000000 0.000000
# 4 0.000000 0.000000 0.000000 0.051473 0.000000 0.000000
# 5 0.000000 0.000000 0.000000 0.000000 0.053145 0.000000
# 6 0.000000 0.000000 0.000000 0.000000 0.000000 0.021614
#
#
# Mechanical properties :
#
#
# Convention : Reuss Voigt Hill
#
# Bulk Modulus (GPa) = 51.39030 54.48748 52.93889
# Shear Modulus (GPa) = 28.16093 33.20038 30.68066
#
# Velocity S-wave (km/s) = 3.35291 3.64057 3.49969
# Velocity P-wave (km/s) = 5.95857 6.27880 6.12078
#
# Compressibility (1/GPa) = 0.01945892
#
# Stress axis : x y z
#
# Youngs Moduli (GPa) = 73.69348 96.74333 121.36352
#
# Poissons Ratio (x) = 0.22810 0.20844
# Poissons Ratio (y) = 0.17375 0.27529
# Poissons Ratio (z) = 0.12657 0.21944
#
# Static dielectric constant tensor:
#      x y z
#    x 2.021490 0.000000 0.000000 
#    y 0.000000 2.053130 0.000000 
#    z 0.000000 0.000000 2.099770 
# 
# From -- ./inp_files/31060.got.cif
#   From: 2010.05.17/outbox.cif.g08.bks.cpg/sg58_16_cif.got.tgz:31060.got - 2010.06.03 14:20:14.
