data_PCOD9445044
_publ_section_title
;
Structure prediction by ZEFSAII (Michael W. Deem and Ramdas Pophale) SiO2 
 PCOD9445044
Probable space group: P N N M
;
_chemical_formula_sum "Si O2"
_cell_formula_units_Z 40
_cell_length_a 24.883262
_cell_length_b 8.571009
_cell_length_c 8.952141
_cell_angle_alpha 90.000000
_cell_angle_beta 90.000000
_cell_angle_gamma 90.000000
_cell_volume 1909.264851
_symmetry_space_group_name_H-M "P N N M"
_symmetry_group_IT_number 58
_symmetry_cell_setting 'orthorhombic'
loop_
_space_group_symop_operation_xyz
x,y,z
-x,-y,z
1/2+x,1/2-y,1/2-z
1/2-x,1/2+y,1/2-z
-x,-y,-z
x,y,-z
1/2-x,1/2+y,1/2+z
1/2+x,1/2-y,1/2+z
loop_
_atom_site_type_symbol
_atom_site_label
_atom_site_fract_x
_atom_site_fract_y
_atom_site_fract_z
Si Si1 0.473904 0.332322 0.678260
Si Si2 0.379434 0.160076 0.178069
Si Si3 0.273159 0.335575 0.178621
Si Si4 0.824179 0.827243 0.322873
Si Si5 0.919144 0.660461 0.821842
O O1 0.500000 0.500000 0.710249
O O2 0.463140 0.324805 0.500000
O O3 0.420281 0.293679 0.767198
O O4 0.519655 0.204693 0.715365
O O5 0.318997 0.209527 0.219145
O O6 0.399115 0.000573 0.251914
O O7 0.381685 0.146452 0.000000
O O8 0.219223 0.299224 0.267389
O O9 0.298538 0.504401 0.210334
O O10 0.262853 0.326391 0.000000
O O11 0.832681 0.814853 0.500000
O O12 0.879514 0.794199 0.238547
O O13 0.915233 0.651964 0.000000
#
# Coordination Sequence:
#
# PCOD9445044 Si02
#       5
#     8   8   8   8   8
#     4  10  22  40  61  86 117 155 197 240 292 351
#     4  11  23  39  61  88 119 155 196 242 291 345
#     4  10  23  41  59  85 119 153 191 236 289 346
#     4  11  23  39  61  87 115 150 193 239 286 340
#     4  11  23  39  60  86 118 154 193 239 290 347
#
# _framework density 20.950472000000001
#
# number of rings (size 3 to 8) (size 9 to 14) (size 15 to 20)
#    0.000    1.400    0.000    4.800    0.000   10.800 
#    0.000    0.000    0.000    0.000    0.000    0.000 
#    0.000    0.000    0.000    0.000    0.000    0.000 
#
# Total GULP energy -223886.149112 kJ/mol
# GULP energy per Si atom -5597.153728 kJ/mol
# Density = 2.090279 g / cm^3
# Si number density = 20.950472 Si / 1000 Ang^3
#
#
#
# Elastic Constant Matrix: (Units=GPa)
#
#
# Indices 1 2 3 4 5 6 
#
# 1 67.5369 -13.6765 18.6921 0.0000 0.0000 0.0000
# 2 -13.6765 51.6542 2.7207 0.0000 0.0000 0.0000
# 3 18.6921 2.7207 23.6856 0.0000 0.0000 0.0000
# 4 0.0000 0.0000 0.0000 38.8698 0.0000 0.0000
# 5 0.0000 0.0000 0.0000 0.0000 24.6355 0.0000
# 6 0.0000 0.0000 0.0000 0.0000 0.0000 33.1277
#
#
#
# Elastic Compliance Matrix: (Units=1/GPa)
#
#
# Indices 1 2 3 4 5 6 
#
# 1 0.020873 0.006433 -0.017212 0.000000 0.000000 0.000000
# 2 0.006433 0.021460 -0.007542 0.000000 0.000000 0.000000
# 3 -0.017212 -0.007542 0.056669 0.000000 0.000000 0.000000
# 4 0.000000 0.000000 0.000000 0.025727 0.000000 0.000000
# 5 0.000000 0.000000 0.000000 0.000000 0.040592 0.000000
# 6 0.000000 0.000000 0.000000 0.000000 0.000000 0.030186
#
#
# Mechanical properties :
#
#
# Convention : Reuss Voigt Hill
#
# Bulk Modulus (GPa) = 16.03552 17.59437 16.81495
# Shear Modulus (GPa) = 19.76793 28.33596 24.05194
#
# Velocity S-wave (km/s) = 3.07507 3.68165 3.39195
# Velocity P-wave (km/s) = 4.50319 5.14675 4.83569
#
# Compressibility (1/GPa) = 0.06236154
#
# Stress axis : x y z
#
# Youngs Moduli (GPa) = 47.90864 46.59818 17.64631
#
# Poissons Ratio (x) = -0.29977 0.30372
# Poissons Ratio (y) = -0.30820 0.13309
# Poissons Ratio (z) = 0.82458 0.35144
#
# Static dielectric constant tensor:
#      x y z
#    x 1.732410 0.000000 0.000000 
#    y 0.000000 1.781170 0.000000 
#    z 0.000000 0.000000 1.689960 
# 
# From -- ./inp_files/2398.got.cif
#   From: 2010.05.17/outbox.cif.g08.bks.cpg/sg58_2_cif.got.tgz:2398.got - 2010.06.03 14:20:14.
