data_PCOD9445059
_publ_section_title
;
Structure prediction by ZEFSAII (Michael W. Deem and Ramdas Pophale) SiO2 
 PCOD9445059
Probable space group: P N N M
;
_chemical_formula_sum "Si O2"
_cell_formula_units_Z 56
_cell_length_a 14.771774
_cell_length_b 21.300664
_cell_length_c 8.964705
_cell_angle_alpha 90.000000
_cell_angle_beta 90.000000
_cell_angle_gamma 90.000000
_cell_volume 2820.731830
_symmetry_space_group_name_H-M "P N N M"
_symmetry_group_IT_number 58
_symmetry_cell_setting 'orthorhombic'
loop_
_space_group_symop_operation_xyz
x,y,z
-x,-y,z
1/2+x,1/2-y,1/2-z
1/2-x,1/2+y,1/2-z
-x,-y,-z
x,y,-z
1/2-x,1/2+y,1/2+z
1/2+x,1/2-y,1/2+z
loop_
_atom_site_type_symbol
_atom_site_label
_atom_site_fract_x
_atom_site_fract_y
_atom_site_fract_z
Si Si1 0.396184 0.618549 0.677613
Si Si2 0.093512 0.533782 0.322020
Si Si3 0.077392 0.669463 0.821667
Si Si4 0.586171 0.595746 0.178032
Si Si5 0.276785 0.517519 0.177255
Si Si6 0.884208 0.732959 0.177637
Si Si7 0.804485 0.209792 0.821916
O O1 0.393908 0.609989 0.500000
O O2 0.488996 0.591442 0.744541
O O3 0.313590 0.581845 0.752268
O O4 0.394025 0.692860 0.709189
O O5 0.102710 0.531942 0.500000
O O6 0.091216 0.605194 0.265090
O O7 0.180105 0.501492 0.247054
O O8 0.000000 0.500000 0.279795
O O9 0.151948 0.722367 0.785524
O O10 0.978523 0.698580 0.788120
O O11 0.081902 0.657714 0.000000
O O12 0.649618 0.536136 0.209963
O O13 0.636735 0.656907 0.240663
O O14 0.574026 0.600111 0.000000
O O15 0.268567 0.524102 0.000000
O O16 0.798584 0.707390 0.267326
O O17 0.867416 0.725956 0.000000
O O18 0.811329 0.201174 0.000000
#
# Coordination Sequence:
#
# PCOD9445059 Si02
#       7
#     8   8   8   8   8   8   8
#     4  11  22  41  67  97 130 166 208 259 316 374
#     4  11  26  45  65  94 127 163 214 269 319 373
#     4  10  22  43  66  90 126 167 208 254 313 381
#     4  11  24  41  63  93 129 168 212 259 312 378
#     4  11  25  43  64  92 126 170 215 257 313 379
#     4  10  22  40  62  92 127 163 204 252 310 377
#     4  11  23  40  63  94 127 164 211 262 314 372
#
# _framework density 19.853003000000001
#
# number of rings (size 3 to 8) (size 9 to 14) (size 15 to 20)
#    0.000    1.286    1.429    3.429    2.000   10.286 
#    0.000    0.000    0.000    0.000    0.000    0.000 
#    0.000    0.000    0.000    0.000    0.000    0.000 
#
# Total GULP energy -313362.526811 kJ/mol
# GULP energy per Si atom -5595.759407 kJ/mol
# Density = 1.980782 g / cm^3
# Si number density = 19.853003 Si / 1000 Ang^3
#
#
#
# Elastic Constant Matrix: (Units=GPa)
#
#
# Indices 1 2 3 4 5 6 
#
# 1 98.8490 -1.6216 23.6208 0.0000 0.0000 0.0000
# 2 -1.6216 45.0969 19.2317 0.0000 0.0000 0.0000
# 3 23.6208 19.2317 27.4226 0.0000 0.0000 0.0000
# 4 0.0000 0.0000 0.0000 578.9523 0.0000 0.0000
# 5 0.0000 0.0000 0.0000 0.0000 -4.1747 0.0000
# 6 0.0000 0.0000 0.0000 0.0000 0.0000 25.4402
#
#
#
# Elastic Compliance Matrix: (Units=1/GPa)
#
#
# Indices 1 2 3 4 5 6 
#
# 1 0.014698 0.008456 -0.018590 0.000000 0.000000 0.000000
# 2 0.008456 0.036502 -0.032883 0.000000 0.000000 0.000000
# 3 -0.018590 -0.032883 0.075541 0.000000 0.000000 0.000000
# 4 0.000000 0.000000 0.000000 0.001727 0.000000 0.000000
# 5 0.000000 0.000000 0.000000 0.000000 -0.239537 0.000000
# 6 0.000000 0.000000 0.000000 0.000000 0.000000 0.039308
#
#
# Mechanical properties :
#
#
# Convention : Reuss Voigt Hill
#
# Bulk Modulus (GPa) = 24.56663 28.20339 26.38501
# Shear Modulus (GPa) = 179.59639 128.71938 154.15789
#
# Velocity S-wave (km/s) = 9.52153 8.06083 8.82146
# Velocity P-wave (km/s) = 11.54471 10.04355 10.82020
#
# Compressibility (1/GPa) = 0.04070563
#
# Stress axis : x y z
#
# Youngs Moduli (GPa) = 68.03867 27.39602 13.23792
#
# Poissons Ratio (x) = -0.23167 0.24610
# Poissons Ratio (y) = -0.57537 0.43530
# Poissons Ratio (z) = 1.26487 0.90086
#
# Static dielectric constant tensor:
#      x y z
#    x 1.688360 0.000000 0.000000 
#    y 0.000000 1.680210 0.000000 
#    z 0.000000 0.000000 1.659040 
# 
# From -- ./inp_files/6440.got.cif
#   From: 2010.05.17/outbox.cif.g08.bks.cpg/sg58_4_cif.got.tgz:6440.got - 2010.06.03 14:20:14.
