data_PCOD9445272
_publ_section_title
;
Structure prediction by ZEFSAII (Michael W. Deem and Ramdas Pophale) SiO2 
 PCOD9445272
Probable space group: P N N M
;
_chemical_formula_sum "Si O2"
_cell_formula_units_Z 64
_cell_length_a 12.482041
_cell_length_b 8.638305
_cell_length_c 31.307332
_cell_angle_alpha 90.000000
_cell_angle_beta 90.000000
_cell_angle_gamma 90.000000
_cell_volume 3375.671659
_symmetry_space_group_name_H-M "P N N M"
_symmetry_group_IT_number 58
_symmetry_cell_setting 'orthorhombic'
loop_
_space_group_symop_operation_xyz
x,y,z
-x,-y,z
1/2+x,1/2-y,1/2-z
1/2-x,1/2+y,1/2-z
-x,-y,-z
x,y,-z
1/2-x,1/2+y,1/2+z
1/2+x,1/2-y,1/2+z
loop_
_atom_site_type_symbol
_atom_site_label
_atom_site_fract_x
_atom_site_fract_y
_atom_site_fract_z
Si Si1 0.081356 0.876070 0.606651
Si Si2 0.884236 0.421194 0.550703
Si Si3 0.560588 0.163312 0.831726
Si Si4 0.101010 0.100571 0.735992
Si Si5 0.232121 0.890332 0.890462
Si Si6 0.876583 0.846390 0.165547
Si Si7 0.742843 0.035769 0.670248
Si Si8 0.064556 0.644915 0.124051
O O1 0.120953 0.744950 0.574072
O O2 0.174609 0.970636 0.630562
O O3 0.016202 0.781649 0.642905
O O4 0.000000 0.000000 0.586468
O O5 0.875792 0.405099 0.500000
O O6 0.792455 0.531392 0.569844
O O7 0.000000 0.500000 0.560681
O O8 0.585049 0.230784 0.784871
O O9 0.671901 0.154617 0.857830
O O10 0.500000 0.000000 0.830406
O O11 0.104007 0.096277 0.786679
O O12 0.202972 0.025603 0.712976
O O13 0.000000 0.000000 0.721741
O O14 0.151500 0.749447 0.900943
O O15 0.163784 0.019953 0.865532
O O16 0.786493 0.715487 0.171422
O O17 0.978576 0.760289 0.145033
O O18 0.637081 0.938272 0.659978
O O19 0.000000 0.500000 0.102918
#
# Coordination Sequence:
#
# PCOD9445272 Si02
#       8
#     8   8   8   8   8   8   8   8
#     4  12  19  39  64  92 128 162 200 244 316 387
#     4  11  24  41  67 104 135 156 194 252 320 405
#     4  12  21  35  59  94 122 168 204 248 310 385
#     4  12  24  37  55  87 128 161 213 266 317 369
#     4  12  20  41  66  86 122 170 206 247 326 382
#     4  11  26  39  58  86 122 167 222 273 300 352
#     4  11  21  39  59  85 117 170 209 259 312 368
#     4  10  23  41  60  88 116 162 221 267 304 352
#
# _framework density 18.95919
#
# number of rings (size 3 to 8) (size 9 to 14) (size 15 to 20)
#    0.000    0.625    7.500    1.125    1.750    2.750 
#    0.000    0.000    0.000    1.875    0.000    0.000 
#    0.000    0.000    0.000    0.000    0.000    0.000 
#
# Total GULP energy -357428.154013 kJ/mol
# GULP energy per Si atom -5584.814906 kJ/mol
# Density = 1.891604 g / cm^3
# Si number density = 18.959190 Si / 1000 Ang^3
#
#
#
# Elastic Constant Matrix: (Units=GPa)
#
#
# Indices 1 2 3 4 5 6 
#
# 1 99.6095 47.4709 24.6479 0.0000 0.0000 0.0000
# 2 47.4709 97.5294 22.7598 0.0000 0.0000 0.0000
# 3 24.6479 22.7598 71.8578 0.0000 0.0000 0.0000
# 4 0.0000 0.0000 0.0000 10.6521 0.0000 0.0000
# 5 0.0000 0.0000 0.0000 0.0000 5.9769 0.0000
# 6 0.0000 0.0000 0.0000 0.0000 0.0000 59.9247
#
#
#
# Elastic Compliance Matrix: (Units=1/GPa)
#
#
# Indices 1 2 3 4 5 6 
#
# 1 0.013562 -0.005956 -0.002765 0.000000 0.000000 0.000000
# 2 -0.005956 0.013687 -0.002292 0.000000 0.000000 0.000000
# 3 -0.002765 -0.002292 0.015591 0.000000 0.000000 0.000000
# 4 0.000000 0.000000 0.000000 0.093878 0.000000 0.000000
# 5 0.000000 0.000000 0.000000 0.000000 0.167310 0.000000
# 6 0.000000 0.000000 0.000000 0.000000 0.000000 0.016688
#
#
# Mechanical properties :
#
#
# Convention : Reuss Voigt Hill
#
# Bulk Modulus (GPa) = 48.04684 50.97268 49.50976
# Shear Modulus (GPa) = 14.29876 26.91860 20.60868
#
# Velocity S-wave (km/s) = 2.74922 3.77214 3.30055
# Velocity P-wave (km/s) = 5.95608 6.77612 6.37929
#
# Compressibility (1/GPa) = 0.02081302
#
# Stress axis : x y z
#
# Youngs Moduli (GPa) = 73.73657 73.06166 64.13945
#
# Poissons Ratio (x) = 0.43513 0.17738
# Poissons Ratio (y) = 0.43915 0.14703
# Poissons Ratio (z) = 0.20392 0.16748
#
# Static dielectric constant tensor:
#      x y z
#    x 1.700470 0.000000 0.000000 
#    y 0.000000 1.826160 0.000000 
#    z 0.000000 0.000000 1.608400 
# 
# From -- ./inp_files/34738.got.cif
#   From: 2010.05.17/outbox.cif.g08.bks.cpg/sg58_18_cif.got.tgz:34738.got - 2010.06.03 14:20:14.
