data_PCOD9445208
_publ_section_title
;
Structure prediction by ZEFSAII (Michael W. Deem and Ramdas Pophale) SiO2 
 PCOD9445208
Probable space group: P N N M
;
_chemical_formula_sum "Si O2"
_cell_formula_units_Z 56
_cell_length_a 15.229703
_cell_length_b 8.464097
_cell_length_c 22.175720
_cell_angle_alpha 90.000000
_cell_angle_beta 90.000000
_cell_angle_gamma 90.000000
_cell_volume 2858.576343
_symmetry_space_group_name_H-M "P N N M"
_symmetry_group_IT_number 58
_symmetry_cell_setting 'orthorhombic'
loop_
_space_group_symop_operation_xyz
x,y,z
-x,-y,z
1/2+x,1/2-y,1/2-z
1/2-x,1/2+y,1/2-z
-x,-y,-z
x,y,-z
1/2-x,1/2+y,1/2+z
1/2+x,1/2-y,1/2+z
loop_
_atom_site_type_symbol
_atom_site_label
_atom_site_fract_x
_atom_site_fract_y
_atom_site_fract_z
Si Si1 0.444502 0.340350 0.571728
Si Si2 0.447336 0.855731 0.663757
Si Si3 0.017144 0.180001 0.271946
Si Si4 0.755449 0.744451 0.429609
Si Si5 0.262751 0.995246 0.666752
Si Si6 0.091436 0.425680 0.368182
Si Si7 0.330325 0.188372 0.779181
O O1 0.500000 0.500000 0.585253
O O2 0.451469 0.314541 0.500000
O O3 0.493787 0.207059 0.609756
O O4 0.339974 0.333953 0.586576
O O5 0.428295 0.716576 0.711589
O O6 0.356307 0.930542 0.644587
O O7 0.500000 0.000000 0.694825
O O8 0.059933 0.281114 0.325287
O O9 0.921513 0.244551 0.253901
O O10 0.000000 0.000000 0.288066
O O11 0.751652 0.785961 0.500000
O O12 0.837365 0.630323 0.416326
O O13 0.771755 0.895686 0.386965
O O14 0.211882 0.839033 0.687836
O O15 0.275942 0.108546 0.725148
O O16 0.141154 0.552243 0.325813
O O17 0.000000 0.500000 0.391643
#
# Coordination Sequence:
#
# PCOD9445208 Si02
#       7
#     8   8   8   8   8   8   8
#     4  10  23  41  61  87 125 173 220 266 315 378
#     4  12  21  38  58  90 129 164 210 260 316 385
#     4  11  21  38  62  90 126 162 201 260 326 383
#     4  11  24  43  64  91 128 171 221 268 319 387
#     4  12  24  38  62  93 130 169 210 266 323 384
#     4  10  22  43  65  92 124 160 213 272 331 380
#     4  11  23  38  62  92 127 161 209 263 322 392
#
# _framework density 19.590171000000002
#
# number of rings (size 3 to 8) (size 9 to 14) (size 15 to 20)
#    0.000    1.000    4.286    2.571    4.000    1.143 
#    0.000    0.714    0.000    8.143    0.000    0.000 
#    0.000    0.000    0.000    0.000    0.000    0.000 
#
# Total GULP energy -312575.371619 kJ/mol
# GULP energy per Si atom -5581.703065 kJ/mol
# Density = 1.954558 g / cm^3
# Si number density = 19.590171 Si / 1000 Ang^3
#
#
#
# Elastic Constant Matrix: (Units=GPa)
#
#
# Indices 1 2 3 4 5 6 
#
# 1 94.1877 54.8500 44.2049 0.0000 0.0000 0.0000
# 2 54.8500 136.0188 48.8500 0.0000 0.0000 0.0000
# 3 44.2049 48.8500 53.4863 0.0000 0.0000 0.0000
# 4 0.0000 0.0000 0.0000 23.2821 0.0000 0.0000
# 5 0.0000 0.0000 0.0000 0.0000 27.5397 0.0000
# 6 0.0000 0.0000 0.0000 0.0000 0.0000 42.5187
#
#
#
# Elastic Compliance Matrix: (Units=1/GPa)
#
#
# Indices 1 2 3 4 5 6 
#
# 1 0.018063 -0.002861 -0.012316 0.000000 0.000000 0.000000
# 2 -0.002861 0.011394 -0.008042 0.000000 0.000000 0.000000
# 3 -0.012316 -0.008042 0.036220 0.000000 0.000000 0.000000
# 4 0.000000 0.000000 0.000000 0.042951 0.000000 0.000000
# 5 0.000000 0.000000 0.000000 0.000000 0.036311 0.000000
# 6 0.000000 0.000000 0.000000 0.000000 0.000000 0.023519
#
#
# Mechanical properties :
#
#
# Convention : Reuss Voigt Hill
#
# Bulk Modulus (GPa) = 51.97546 64.38918 58.18232
# Shear Modulus (GPa) = 22.59291 27.72064 25.15678
#
# Velocity S-wave (km/s) = 3.39968 3.76577 3.58740
# Velocity P-wave (km/s) = 6.48070 7.20052 6.85007
#
# Compressibility (1/GPa) = 0.01923985
#
# Stress axis : x y z
#
# Youngs Moduli (GPa) = 55.36071 87.76808 27.60936
#
# Poissons Ratio (x) = 0.25110 0.34003
# Poissons Ratio (y) = 0.15838 0.22202
# Poissons Ratio (z) = 0.68182 0.70579
#
# Static dielectric constant tensor:
#      x y z
#    x 1.751960 0.000000 0.000000 
#    y 0.000000 1.741810 0.000000 
#    z 0.000000 0.000000 1.653000 
# 
# From -- ./inp_files/30019.got.cif
#   From: 2010.05.17/outbox.cif.g08.bks.cpg/sg58_16_cif.got.tgz:30019.got - 2010.06.03 14:20:14.
