data_PCOD9445914
_publ_section_title
;
Structure prediction by ZEFSAII (Michael W. Deem and Ramdas Pophale) SiO2 
 PCOD9445914
Probable space group: P N N M
;
_chemical_formula_sum "Si O2"
_cell_formula_units_Z 64
_cell_length_a 30.000000
_cell_length_b 12.000000
_cell_length_c 9.000000
_cell_angle_alpha 90.000000
_cell_angle_beta 90.000000
_cell_angle_gamma 90.000000
_cell_volume 3240.000000
_symmetry_space_group_name_H-M "P N N M"
_symmetry_group_IT_number 58
_symmetry_cell_setting 'orthorhombic'
loop_
_space_group_symop_operation_xyz
x,y,z
-x,-y,z
1/2+x,1/2-y,1/2-z
1/2-x,1/2+y,1/2-z
-x,-y,-z
x,y,-z
1/2-x,1/2+y,1/2+z
1/2+x,1/2-y,1/2+z
loop_
_atom_site_type_symbol
_atom_site_label
_atom_site_fract_x
_atom_site_fract_y
_atom_site_fract_z
Si Si1 0.075683 0.053283 0.326571
Si Si2 0.318321 0.036775 0.674719
Si Si3 0.933277 0.198688 0.677584
Si Si4 0.772996 0.011592 0.821070
Si Si5 0.614067 0.117163 0.821244
Si Si6 0.837323 0.210889 0.824316
Si Si7 0.655745 0.334065 0.324037
Si Si8 0.976708 0.717058 0.676231
O O1 0.090702 0.054966 0.500000
O O2 0.117209 0.077722 0.219973
O O3 0.042767 0.157543 0.309543
O O4 0.055453 0.932186 0.298264
O O5 0.321133 0.012533 0.500000
O O6 0.314948 0.169114 0.695956
O O7 0.274658 0.981940 0.744989
O O8 0.362196 0.990154 0.754847
O O9 0.930567 0.214913 0.500000
O O10 0.885027 0.214827 0.746416
O O11 0.973186 0.276727 0.737091
O O12 0.805332 0.111789 0.771373
O O13 0.798040 0.895102 0.786617
O O14 0.768094 0.018305 0.000000
O O15 0.643008 0.223225 0.765476
O O16 0.563120 0.138188 0.767801
O O17 0.614194 0.115075 0.000000
O O18 0.844654 0.193136 0.000000
O O19 0.654545 0.311531 0.500000
O O20 0.980432 0.693454 0.500000
#
# Coordination Sequence:
#
# PCOD9445914 Si02
#       8
#     8   8   8   8   8   8   8   8
#     4   9  16  28  49  80 118 155 188 233 288 339
#     4  11  25  42  62  85 113 150 196 244 291 348
#     4  10  18  31  56  86 115 152 200 245 285 339
#     4  10  22  40  61  85 115 150 187 233 291 351
#     4  10  21  39  61  83 117 156 194 240 292 342
#     4  10  23  43  60  83 120 155 187 235 297 351
#     4  10  19  33  56  85 117 150 188 234 281 340
#     4   8  16  31  53  83 116 153 196 241 288 339
#
# _framework density 19.753086
#
# number of rings (size 3 to 8) (size 9 to 14) (size 15 to 20)
#    0.000    2.250    1.250    2.250    1.750    4.000 
#    0.000    3.750    0.000    7.500    0.000    0.000 
#    0.000    0.000    0.000    0.000    0.000    0.000 
#
# Total GULP energy -357057.182815 kJ/mol
# GULP energy per Si atom -5579.018481 kJ/mol
# Density = 1.970813 g / cm^3
# Si number density = 19.753086 Si / 1000 Ang^3
#
#
#
# Elastic Constant Matrix: (Units=GPa)
#
#
# Indices 1 2 3 4 5 6 
#
# 1 11.5191 -24.7564 -3.4247 0.0000 0.0000 0.0000
# 2 -24.7564 8.1055 9.2154 0.0000 0.0000 0.0000
# 3 -3.4247 9.2154 14.0759 0.0000 0.0000 0.0000
# 4 0.0000 0.0000 0.0000 25.2618 0.0000 0.0000
# 5 0.0000 0.0000 0.0000 0.0000 21.6505 0.0000
# 6 0.0000 0.0000 0.0000 0.0000 0.0000 1.9344
#
#
#
# Elastic Compliance Matrix: (Units=1/GPa)
#
#
# Indices 1 2 3 4 5 6 
#
# 1 -0.004275 -0.046445 0.029367 0.000000 0.000000 0.000000
# 2 -0.046445 -0.022044 0.003132 0.000000 0.000000 0.000000
# 3 0.029367 0.003132 0.076138 0.000000 0.000000 0.000000
# 4 0.000000 0.000000 0.000000 0.039586 0.000000 0.000000
# 5 0.000000 0.000000 0.000000 0.000000 0.046188 0.000000
# 6 0.000000 0.000000 0.000000 0.000000 0.000000 0.516959
#
#
# Mechanical properties :
#
#
# Convention : Reuss Voigt Hill
#
# Bulk Modulus (GPa) = 45.60554 -0.47011 22.56772
# Shear Modulus (GPa) = 7.27005 13.28040 10.27523
#
# Velocity S-wave (km/s) = 1.92053 2.59573 2.28323
# Velocity P-wave (km/s) = 5.29678 2.95723 4.28959
#
# Compressibility (1/GPa) = 0.02192716
#
# Stress axis : x y z
#
# Youngs Moduli (GPa) = -233.92485 -45.36343 13.13396
#
# Poissons Ratio (x) = -2.10692 -0.38571
# Poissons Ratio (y) = -10.86472 -0.04113
# Poissons Ratio (z) = 6.86977 0.14207
#
# Static dielectric constant tensor:
#      x y z
#    x 1.703910 0.000000 0.000000 
#    y 0.000000 1.718330 0.000000 
#    z 0.000000 0.000000 1.660830 
# 
# From -- ./inp_files/4746.got.cif
#   From: 2010.05.17/outbox.ucp.g08.bks.cvg/sg58_3_cif.got.tgz:4746.got - 2010.06.11 16:41:41.
