data_PCOD9445567
_publ_section_title
;
Structure prediction by ZEFSAII (Michael W. Deem and Ramdas Pophale) SiO2 
 PCOD9445567
Probable space group: P N N M
;
_chemical_formula_sum "Si O2"
_cell_formula_units_Z 48
_cell_length_a 5.238875
_cell_length_b 16.581951
_cell_length_c 21.714982
_cell_angle_alpha 90.000000
_cell_angle_beta 90.000000
_cell_angle_gamma 90.000000
_cell_volume 1886.397175
_symmetry_space_group_name_H-M "P N N M"
_symmetry_group_IT_number 58
_symmetry_cell_setting 'orthorhombic'
loop_
_space_group_symop_operation_xyz
x,y,z
-x,-y,z
1/2+x,1/2-y,1/2-z
1/2-x,1/2+y,1/2-z
-x,-y,-z
x,y,-z
1/2-x,1/2+y,1/2+z
1/2+x,1/2-y,1/2+z
loop_
_atom_site_type_symbol
_atom_site_label
_atom_site_fract_x
_atom_site_fract_y
_atom_site_fract_z
Si Si1 0.234440 0.048113 0.109202
Si Si2 0.044193 0.324639 0.756428
Si Si3 0.760155 0.949380 0.572253
Si Si4 0.548166 0.365124 0.731140
Si Si5 0.991353 0.285959 0.927720
Si Si6 0.508624 0.795608 0.891431
O O1 0.093501 0.083022 0.170710
O O2 0.348189 0.128092 0.077982
O O3 0.500000 0.000000 0.122895
O O4 0.000000 0.000000 0.078245
O O5 0.290462 0.377418 0.767191
O O6 0.038165 0.233146 0.781270
O O7 0.794383 0.373097 0.772417
O O8 0.030977 0.314538 0.681313
O O9 0.830267 0.933522 0.500000
O O10 0.666037 0.862890 0.596251
O O11 0.500000 0.000000 0.573362
O O12 0.000000 0.000000 0.598141
O O13 0.773633 0.217928 0.917536
O O14 0.272864 0.272495 0.899315
O O15 0.038959 0.295663 0.000000
#
# Coordination Sequence:
#
# PCOD9445567 Si02
#       6
#     8   8   8   8   8   8
#     4  11  21  35  56  82 112 148 193 243 286 328
#     4   9  17  31  53  79 106 134 169 220 275 337
#     4   9  17  31  52  78 104 130 166 214 270 333
#     4   9  17  31  52  80 107 132 170 219 277 338
#     4  11  22  36  57  83 112 148 192 242 288 333
#     4  11  21  36  56  82 112 148 195 241 285 333
#
# _framework density 25.445332000000001
#
# number of rings (size 3 to 8) (size 9 to 14) (size 15 to 20)
#    0.000    2.000    0.000    6.500    0.000    2.667 
#    0.000    0.000    0.000   14.000    0.000    7.000 
#    0.000    0.000    0.000    0.000    0.000    0.000 
#
# Total GULP energy -267813.004316 kJ/mol
# GULP energy per Si atom -5579.437590 kJ/mol
# Density = 2.538742 g / cm^3
# Si number density = 25.445332 Si / 1000 Ang^3
#
#
#
# Elastic Constant Matrix: (Units=GPa)
#
#
# Indices 1 2 3 4 5 6 
#
# 1 217.6298 19.4573 4.6475 0.0000 0.0000 0.0000
# 2 19.4573 56.3357 -9.8775 0.0000 0.0000 0.0000
# 3 4.6475 -9.8775 90.2345 0.0000 0.0000 0.0000
# 4 0.0000 0.0000 0.0000 6.9782 0.0000 0.0000
# 5 0.0000 0.0000 0.0000 0.0000 21.5617 0.0000
# 6 0.0000 0.0000 0.0000 0.0000 0.0000 48.2752
#
#
#
# Elastic Compliance Matrix: (Units=1/GPa)
#
#
# Indices 1 2 3 4 5 6 
#
# 1 0.004758 -0.001719 -0.000433 0.000000 0.000000 0.000000
# 2 -0.001719 0.018719 0.002138 0.000000 0.000000 0.000000
# 3 -0.000433 0.002138 0.011339 0.000000 0.000000 0.000000
# 4 0.000000 0.000000 0.000000 0.143304 0.000000 0.000000
# 5 0.000000 0.000000 0.000000 0.000000 0.046378 0.000000
# 6 0.000000 0.000000 0.000000 0.000000 0.000000 0.020715
#
#
# Mechanical properties :
#
#
# Convention : Reuss Voigt Hill
#
# Bulk Modulus (GPa) = 28.74709 43.62826 36.18768
# Shear Modulus (GPa) = 19.46749 38.69452 29.08101
#
# Velocity S-wave (km/s) = 2.76899 3.90384 3.38432
# Velocity P-wave (km/s) = 4.64168 6.12397 5.43361
#
# Compressibility (1/GPa) = 0.03478613
#
# Stress axis : x y z
#
# Youngs Moduli (GPa) = 210.17579 53.42066 88.19467
#
# Poissons Ratio (x) = 0.09184 0.03821
# Poissons Ratio (y) = 0.36135 -0.18853
# Poissons Ratio (z) = 0.09106 -0.11420
#
# Static dielectric constant tensor:
#      x y z
#    x 2.191840 0.000000 0.000000 
#    y 0.000000 2.130790 0.000000 
#    z 0.000000 0.000000 2.003670 
# 
# From -- ./inp_files/32788.got.cif
#   From: 2010.05.17/outbox.cif.g08.bks.cpg/sg58_17_cif.got.tgz:32788.got - 2010.06.03 14:20:14.
