data_PCOD9445611
_publ_section_title
;
Structure prediction by ZEFSAII (Michael W. Deem and Ramdas Pophale) SiO2 
 PCOD9445611
Probable space group: P N N M
;
_chemical_formula_sum "Si O2"
_cell_formula_units_Z 48
_cell_length_a 15.623472
_cell_length_b 19.656338
_cell_length_c 7.566175
_cell_angle_alpha 90.000000
_cell_angle_beta 90.000000
_cell_angle_gamma 90.000000
_cell_volume 2323.574207
_symmetry_space_group_name_H-M "P N N M"
_symmetry_group_IT_number 58
_symmetry_cell_setting 'orthorhombic'
loop_
_space_group_symop_operation_xyz
x,y,z
-x,-y,z
1/2+x,1/2-y,1/2-z
1/2-x,1/2+y,1/2-z
-x,-y,-z
x,y,-z
1/2-x,1/2+y,1/2+z
1/2+x,1/2-y,1/2+z
loop_
_atom_site_type_symbol
_atom_site_label
_atom_site_fract_x
_atom_site_fract_y
_atom_site_fract_z
Si Si1 0.651139 0.074767 0.714818
Si Si2 0.650409 0.432198 0.792480
Si Si3 0.494365 0.674348 0.295780
Si Si4 0.002315 0.672247 0.782815
Si Si5 0.846479 0.084446 0.285960
Si Si6 0.159038 0.580809 0.784242
O O1 0.650375 0.074840 0.500000
O O2 0.578191 0.126422 0.773213
O O3 0.747684 0.094523 0.767527
O O4 0.635116 0.996487 0.767753
O O5 0.575597 0.378015 0.776409
O O6 0.628741 0.507907 0.724291
O O7 0.743064 0.408120 0.723540
O O8 0.664749 0.443414 0.000000
O O9 0.471751 0.681555 0.500000
O O10 0.494845 0.750275 0.219786
O O11 0.586974 0.639723 0.280319
O O12 0.089562 0.635358 0.724712
O O13 0.003223 0.672819 0.000000
O O14 0.850895 0.087134 0.500000
O O15 0.157404 0.582787 0.000000
#
# Coordination Sequence:
#
# PCOD9445611 Si02
#       6
#     8   8   8   8   8   8
#     4   8  14  27  49  72  91 117 155 196 235 272
#     4   9  18  33  52  71  90 118 160 202 232 265
#     4  11  22  31  43  69 102 131 154 182 230 285
#     4   9  17  28  43  69 102 125 146 186 236 283
#     4   9  18  33  52  71  90 118 160 202 232 265
#     4   8  14  27  49  72  91 117 155 196 235 272
#
# _framework density 20.657830000000001
#
# number of rings (size 3 to 8) (size 9 to 14) (size 15 to 20)
#    0.000    3.000    0.000    3.500    0.000    6.000 
#    0.000    0.000    0.000    2.000    0.000    0.000 
#    0.000   10.667    0.000    0.000    0.000    0.000 
#
# Total GULP energy -267782.840093 kJ/mol
# GULP energy per Si atom -5578.809169 kJ/mol
# Density = 2.061081 g / cm^3
# Si number density = 20.657830 Si / 1000 Ang^3
#
#
#
# Elastic Constant Matrix: (Units=GPa)
#
#
# Indices 1 2 3 4 5 6 
#
# 1 65.6504 45.8372 -11.3041 0.0000 0.0000 0.0000
# 2 45.8372 91.2581 -8.2115 0.0000 0.0000 0.0000
# 3 -11.3041 -8.2115 38.1622 0.0000 0.0000 0.0000
# 4 0.0000 0.0000 0.0000 9.4190 0.0000 0.0000
# 5 0.0000 0.0000 0.0000 0.0000 1.0807 0.0000
# 6 0.0000 0.0000 0.0000 0.0000 0.0000 -5.7387
#
#
#
# Elastic Compliance Matrix: (Units=1/GPa)
#
#
# Indices 1 2 3 4 5 6 
#
# 1 0.024243 -0.011758 0.004651 0.000000 0.000000 0.000000
# 2 -0.011758 0.016877 0.000149 0.000000 0.000000 0.000000
# 3 0.004651 0.000149 0.027614 0.000000 0.000000 0.000000
# 4 0.000000 0.000000 0.000000 0.106169 0.000000 0.000000
# 5 0.000000 0.000000 0.000000 0.000000 0.925319 0.000000
# 6 0.000000 0.000000 0.000000 0.000000 0.000000 -0.174254
#
#
# Mechanical properties :
#
#
# Convention : Reuss Voigt Hill
#
# Bulk Modulus (GPa) = 18.24276 27.52376 22.88326
# Shear Modulus (GPa) = 5.21836 12.20213 8.71024
#
# Velocity S-wave (km/s) = 1.59109 2.43302 2.05562
# Velocity P-wave (km/s) = 3.49650 4.60927 4.09090
#
# Compressibility (1/GPa) = 0.05481628
#
# Stress axis : x y z
#
# Youngs Moduli (GPa) = 41.24982 59.25168 36.21403
#
# Poissons Ratio (x) = 0.69669 -0.16843
# Poissons Ratio (y) = 0.48502 -0.00538
# Poissons Ratio (z) = -0.19185 -0.00881
#
# Static dielectric constant tensor:
#      x y z
#    x 1.709830 0.000000 0.000000 
#    y 0.000000 1.721910 0.000000 
#    z 0.000000 0.000000 1.802860 
# 
# From -- ./inp_files/5881.got.cif
#   From: 2010.05.17/outbox.cif.g08.bks.cpg/sg58_3_cif.got.tgz:5881.got - 2010.06.03 14:20:14.
