data_PCOD9445182
_publ_section_title
;
Structure prediction by ZEFSAII (Michael W. Deem and Ramdas Pophale) SiO2 
 PCOD9445182
Probable space group: P N N M
;
_chemical_formula_sum "Si O2"
_cell_formula_units_Z 36
_cell_length_a 8.405394
_cell_length_b 8.328501
_cell_length_c 21.133083
_cell_angle_alpha 90.000000
_cell_angle_beta 90.000000
_cell_angle_gamma 90.000000
_cell_volume 1479.407366
_symmetry_space_group_name_H-M "P N N M"
_symmetry_group_IT_number 58
_symmetry_cell_setting 'orthorhombic'
loop_
_space_group_symop_operation_xyz
x,y,z
-x,-y,z
1/2+x,1/2-y,1/2-z
1/2-x,1/2+y,1/2-z
-x,-y,-z
x,y,-z
1/2-x,1/2+y,1/2+z
1/2+x,1/2-y,1/2+z
loop_
_atom_site_type_symbol
_atom_site_label
_atom_site_fract_x
_atom_site_fract_y
_atom_site_fract_z
Si Si1 0.598689 0.726128 0.396318
Si Si2 0.171244 0.065864 0.334916
Si Si3 0.822076 0.743748 0.000000
Si Si4 0.847357 0.745978 0.789338
Si Si5 0.674109 0.927497 0.107111
O O1 0.731568 0.862499 0.392964
O O2 0.462262 0.766972 0.445341
O O3 0.511840 0.723896 0.327536
O O4 0.690530 0.560501 0.410631
O O5 0.140819 0.205325 0.283187
O O6 0.280556 0.930367 0.302516
O O7 0.000000 0.000000 0.352458
O O8 0.692985 0.787264 0.056063
O O9 0.722345 0.862595 0.824459
O O10 0.500000 0.000000 0.105864
#
# Coordination Sequence:
#
# PCOD9445182 Si02
#       5
#     8   8   4   8   8
#     4  11  23  42  65  92 128 169 209 255 314 375
#     4  12  24  40  62  93 126 163 210 261 313 375
#     4  10  22  42  67  92 126 170 213 254 312 376
#     4  11  23  40  62  91 127 167 204 255 321 380
#     4  11  21  38  65  96 124 161 212 264 308 367
#
# _framework density 24.334070000000001
#
# number of rings (size 3 to 8) (size 9 to 14) (size 15 to 20)
#    0.000    0.889    0.000   10.333    0.000    1.778 
#    0.000    9.444    0.000    0.000    0.000    0.000 
#    0.000    0.000    0.000    0.000    0.000    0.000 
#
# Total GULP energy -200801.869758 kJ/mol
# GULP energy per Si atom -5577.829715 kJ/mol
# Density = 2.427868 g / cm^3
# Si number density = 24.334070 Si / 1000 Ang^3
#
#
#
# Elastic Constant Matrix: (Units=GPa)
#
#
# Indices 1 2 3 4 5 6 
#
# 1 122.1135 -0.5536 24.8351 0.0000 0.0000 0.0000
# 2 -0.5536 45.2227 3.3041 0.0000 0.0000 0.0000
# 3 24.8351 3.3041 46.2187 0.0000 0.0000 0.0000
# 4 0.0000 0.0000 0.0000 -21.7240 0.0000 0.0000
# 5 0.0000 0.0000 0.0000 0.0000 -199.9179 0.0000
# 6 0.0000 0.0000 0.0000 0.0000 0.0000 45.0904
#
#
#
# Elastic Compliance Matrix: (Units=1/GPa)
#
#
# Indices 1 2 3 4 5 6 
#
# 1 0.009204 0.000477 -0.004980 0.000000 0.000000 0.000000
# 2 0.000477 0.022254 -0.001847 0.000000 0.000000 0.000000
# 3 -0.004980 -0.001847 0.024444 0.000000 0.000000 0.000000
# 4 0.000000 0.000000 0.000000 -0.046032 0.000000 0.000000
# 5 0.000000 0.000000 0.000000 0.000000 -0.005002 0.000000
# 6 0.000000 0.000000 0.000000 0.000000 0.000000 0.022178
#
#
# Mechanical properties :
#
#
# Convention : Reuss Voigt Hill
#
# Bulk Modulus (GPa) = 23.14741 29.85845 26.50293
# Shear Modulus (GPa) = 92.34302 -22.91233 34.71535
#
# Velocity S-wave (km/s) = 6.16688 -3.07184 3.78115
# Velocity P-wave (km/s) = 7.76146 0.53358 5.47519
#
# Compressibility (1/GPa) = 0.04320138
#
# Stress axis : x y z
#
# Youngs Moduli (GPa) = 108.64811 44.93664 40.90970
#
# Poissons Ratio (x) = -0.02141 0.20372
# Poissons Ratio (y) = -0.05177 0.07556
# Poissons Ratio (z) = 0.54104 0.08299
#
# Static dielectric constant tensor:
#      x y z
#    x 1.920170 0.000000 0.000000 
#    y 0.000000 2.045300 0.000000 
#    z 0.000000 0.000000 1.884090 
# 
# From -- ./inp_files/28571.got.cif
#   From: 2010.05.17/outbox.cif.g08.bks.cpg/sg58_15_cif.got.tgz:28571.got - 2010.06.03 14:20:14.
