data_PCOD9445849
_publ_section_title
;
Structure prediction by ZEFSAII (Michael W. Deem and Ramdas Pophale) SiO2 
 PCOD9445849
Probable space group: P N N M
;
_chemical_formula_sum "Si O2"
_cell_formula_units_Z 24
_cell_length_a 5.749309
_cell_length_b 9.974555
_cell_length_c 15.114107
_cell_angle_alpha 90.000000
_cell_angle_beta 90.000000
_cell_angle_gamma 90.000000
_cell_volume 866.745654
_symmetry_space_group_name_H-M "P N N M"
_symmetry_group_IT_number 58
_symmetry_cell_setting 'orthorhombic'
loop_
_space_group_symop_operation_xyz
x,y,z
-x,-y,z
1/2+x,1/2-y,1/2-z
1/2-x,1/2+y,1/2-z
-x,-y,-z
x,y,-z
1/2-x,1/2+y,1/2+z
1/2+x,1/2-y,1/2+z
loop_
_atom_site_type_symbol
_atom_site_label
_atom_site_fract_x
_atom_site_fract_y
_atom_site_fract_z
Si Si1 0.000031 0.254008 0.500000
Si Si2 0.250000 0.035699 0.323385
Si Si3 0.750000 0.656806 0.343007
Si Si4 0.500031 0.745992 0.500000
O O1 0.750000 0.189884 0.500000
O O2 0.033356 0.341848 0.411402
O O3 0.250000 0.176073 0.500000
O O4 0.250000 0.193250 0.302542
O O5 0.500000 0.000000 0.366531
O O6 0.250000 0.948593 0.233886
O O7 0.000000 0.000000 0.366531
O O8 0.533356 0.658152 0.411402
#
# Coordination Sequence:
#
# PCOD9445849 Si02
#       4
#     4   8   8   4
#     4   8  20  40  70  90 138 176 228 258 340 404
#     4  12  26  40  70 102 140 168 228 278 346 388
#     4   9  24  44  70 101 130 180 222 283 330 404
#     4   8  20  40  70  90 138 176 228 258 340 404
#
# _framework density 27.689786999999999
#
# number of rings (size 3 to 8) (size 9 to 14) (size 15 to 20)
#    2.000    0.000    0.000    2.000    9.333    0.000 
#    0.000   13.333    0.000    8.000    0.000    0.000 
#    0.000    0.000    0.000    0.000    0.000    0.000 
#
# Total GULP energy -134070.264014 kJ/mol
# GULP energy per Si atom -5586.261001 kJ/mol
# Density = 2.762676 g / cm^3
# Si number density = 27.689787 Si / 1000 Ang^3
#
#
#
# Elastic Constant Matrix: (Units=GPa)
#
#
# Indices 1 2 3 4 5 6 
#
# 1 310.0027 32.2801 64.3894 0.0000 0.0000 0.0000
# 2 32.2801 168.2181 70.2188 0.0000 0.0000 0.0000
# 3 64.3894 70.2188 84.4128 0.0000 0.0000 0.0000
# 4 0.0000 0.0000 0.0000 41.3101 0.0000 0.0000
# 5 0.0000 0.0000 0.0000 0.0000 21.9058 0.0000
# 6 0.0000 0.0000 0.0000 0.0000 0.0000 26.0357
#
#
#
# Elastic Compliance Matrix: (Units=1/GPa)
#
#
# Indices 1 2 3 4 5 6 
#
# 1 0.003895 0.000755 -0.003599 0.000000 0.000000 0.000000
# 2 0.000755 0.009253 -0.008273 0.000000 0.000000 0.000000
# 3 -0.003599 -0.008273 0.021474 0.000000 0.000000 0.000000
# 4 0.000000 0.000000 0.000000 0.024207 0.000000 0.000000
# 5 0.000000 0.000000 0.000000 0.000000 0.045650 0.000000
# 6 0.000000 0.000000 0.000000 0.000000 0.000000 0.038409
#
#
# Mechanical properties :
#
#
# Convention : Reuss Voigt Hill
#
# Bulk Modulus (GPa) = 80.72634 99.60115 90.16374
# Shear Modulus (GPa) = 29.54200 44.23334 36.88767
#
# Velocity S-wave (km/s) = 3.26987 4.00116 3.65386
# Velocity P-wave (km/s) = 6.59342 7.57589 7.10167
#
# Compressibility (1/GPa) = 0.01238753
#
# Stress axis : x y z
#
# Youngs Moduli (GPa) = 256.76213 108.07039 46.56880
#
# Poissons Ratio (x) = -0.08158 0.16759
# Poissons Ratio (y) = -0.19382 0.38527
# Poissons Ratio (z) = 0.92402 0.89408
#
# Static dielectric constant tensor:
#      x y z
#    x 2.239880 0.000000 0.000000 
#    y 0.000000 2.070510 0.000000 
#    z 0.000000 0.000000 2.216160 
# 
# From -- ./inp_files/23968.got.cif
#   From: 2010.05.17/outbox.cif.g08.bks.cpg/sg58_12_cif.got.tgz:23968.got - 2010.06.03 14:20:14.
