data_PCOD9445289
_publ_section_title
;
Structure prediction by ZEFSAII (Michael W. Deem and Ramdas Pophale) SiO2 
 PCOD9445289
Probable space group: P N N M
;
_chemical_formula_sum "Si O2"
_cell_formula_units_Z 44
_cell_length_a 8.998965
_cell_length_b 10.706710
_cell_length_c 23.068908
_cell_angle_alpha 90.000000
_cell_angle_beta 90.000000
_cell_angle_gamma 90.000000
_cell_volume 2222.673335
_symmetry_space_group_name_H-M "P N N M"
_symmetry_group_IT_number 58
_symmetry_cell_setting 'orthorhombic'
loop_
_space_group_symop_operation_xyz
x,y,z
-x,-y,z
1/2+x,1/2-y,1/2-z
1/2-x,1/2+y,1/2-z
-x,-y,-z
x,y,-z
1/2-x,1/2+y,1/2+z
1/2+x,1/2-y,1/2+z
loop_
_atom_site_type_symbol
_atom_site_label
_atom_site_fract_x
_atom_site_fract_y
_atom_site_fract_z
Si Si1 0.266237 0.599413 0.500000
Si Si2 0.976711 0.857933 0.805625
Si Si3 0.018633 0.309131 0.000000
Si Si4 0.972852 0.353388 0.595467
Si Si5 0.172569 0.770214 0.699530
Si Si6 0.082910 0.376948 0.873880
Si Si7 0.791877 0.695875 0.500000
O O1 0.422143 0.666706 0.500000
O O2 0.175896 0.649252 0.556065
O O3 0.260732 0.449835 0.500000
O O4 0.091535 0.828404 0.754293
O O5 0.805759 0.828485 0.786131
O O6 0.998139 0.752204 0.854705
O O7 0.000000 0.000000 0.825353
O O8 0.841385 0.293818 0.000000
O O9 0.082655 0.374404 0.057047
O O10 0.946428 0.293131 0.657310
O O11 0.000000 0.500000 0.602843
O O12 0.103254 0.294768 0.556665
O O13 0.260172 0.868762 0.658944
O O14 0.000000 0.500000 0.853085
#
# Coordination Sequence:
#
# PCOD9445289 Si02
#       7
#     4   8   4   8   8   8   4
#     4   9  15  34  56  86 130 167 215 257 322 376
#     4  10  25  43  68 100 125 169 230 267 328 389
#     4  12  20  38  63  95 128 167 225 267 321 403
#     4   9  18  36  56  88 130 176 209 258 336 384
#     4  10  23  41  66  93 133 171 211 282 323 392
#     4  10  25  42  67  91 133 178 212 267 337 390
#     4   9  21  30  57  93 128 170 219 272 318 392
#
# _framework density 19.795981000000001
#
# number of rings (size 3 to 8) (size 9 to 14) (size 15 to 20)
#    1.091    1.091    1.818    1.636    2.545    8.000 
#    0.000    0.000    0.000    1.091    0.000    0.000 
#    0.000    0.000    0.000    0.000    0.000    0.000 
#
# Total GULP energy -245210.341571 kJ/mol
# GULP energy per Si atom -5572.962308 kJ/mol
# Density = 1.975092 g / cm^3
# Si number density = 19.795981 Si / 1000 Ang^3
#
#
#
# Elastic Constant Matrix: (Units=GPa)
#
#
# Indices 1 2 3 4 5 6 
#
# 1 68.0108 13.0182 11.1389 0.0000 0.0000 0.0000
# 2 13.0182 77.9218 21.5893 0.0000 0.0000 0.0000
# 3 11.1389 21.5893 82.0160 0.0000 0.0000 0.0000
# 4 0.0000 0.0000 0.0000 -19.9981 0.0000 0.0000
# 5 0.0000 0.0000 0.0000 0.0000 21.0827 0.0000
# 6 0.0000 0.0000 0.0000 0.0000 0.0000 19.8189
#
#
#
# Elastic Compliance Matrix: (Units=1/GPa)
#
#
# Indices 1 2 3 4 5 6 
#
# 1 0.015363 -0.002145 -0.001522 0.000000 0.000000 0.000000
# 2 -0.002145 0.014142 -0.003431 0.000000 0.000000 0.000000
# 3 -0.001522 -0.003431 0.013303 0.000000 0.000000 0.000000
# 4 0.000000 0.000000 0.000000 -0.050005 0.000000 0.000000
# 5 0.000000 0.000000 0.000000 0.000000 0.047432 0.000000
# 6 0.000000 0.000000 0.000000 0.000000 0.000000 0.050457
#
#
# Mechanical properties :
#
#
# Convention : Reuss Voigt Hill
#
# Bulk Modulus (GPa) = 34.95065 35.49349 35.22207
# Shear Modulus (GPa) = 43.69600 16.32752 30.01176
#
# Velocity S-wave (km/s) = 4.70331 2.87503 3.89788
# Velocity P-wave (km/s) = 6.86939 5.38420 6.17164
#
# Compressibility (1/GPa) = 0.02861177
#
# Stress axis : x y z
#
# Youngs Moduli (GPa) = 65.08979 70.70898 75.17269
#
# Poissons Ratio (x) = 0.15168 0.11441
# Poissons Ratio (y) = 0.13962 0.25795
# Poissons Ratio (z) = 0.09906 0.24263
#
# Static dielectric constant tensor:
#      x y z
#    x 1.719540 0.000000 0.000000 
#    y 0.000000 1.709420 0.000000 
#    z 0.000000 0.000000 1.696060 
# 
# From -- ./inp_files/31414.got.cif
#   From: 2010.05.17/outbox.cif.g08.bks.cpg/sg58_16_cif.got.tgz:31414.got - 2010.06.03 14:20:14.
