data_PCOD9445046
_publ_section_title
;
Structure prediction by ZEFSAII (Michael W. Deem and Ramdas Pophale) SiO2 
 PCOD9445046
Probable space group: P N N M
;
_chemical_formula_sum "Si O2"
_cell_formula_units_Z 40
_cell_length_a 27.595861
_cell_length_b 5.340771
_cell_length_c 12.791058
_cell_angle_alpha 90.000000
_cell_angle_beta 90.000000
_cell_angle_gamma 90.000000
_cell_volume 1885.186729
_symmetry_space_group_name_H-M "P N N M"
_symmetry_group_IT_number 58
_symmetry_cell_setting 'orthorhombic'
loop_
_space_group_symop_operation_xyz
x,y,z
-x,-y,z
1/2+x,1/2-y,1/2-z
1/2-x,1/2+y,1/2-z
-x,-y,-z
x,y,-z
1/2-x,1/2+y,1/2+z
1/2+x,1/2-y,1/2+z
loop_
_atom_site_type_symbol
_atom_site_label
_atom_site_fract_x
_atom_site_fract_y
_atom_site_fract_z
Si Si1 0.584171 0.538339 0.624213
Si Si2 0.446068 0.946186 0.741497
Si Si3 0.815249 0.141391 0.793624
Si Si4 0.857195 0.505325 0.382861
Si Si5 0.268114 0.606204 0.110593
O O1 0.579167 0.553535 0.500000
O O2 0.554991 0.302233 0.669886
O O3 0.640564 0.489780 0.656307
O O4 0.569552 0.805197 0.675822
O O5 0.500000 0.000000 0.780927
O O6 0.407525 0.898240 0.834243
O O7 0.774148 0.009999 0.724716
O O8 0.839260 0.309048 0.703051
O O9 0.785163 0.276427 0.883523
O O10 0.865049 0.404327 0.500000
O O11 0.814108 0.707330 0.390656
O O12 0.271087 0.458348 0.000000
#
# Coordination Sequence:
#
# PCOD9445046 Si02
#       5
#     8   8   8   8   8
#     4  11  24  42  66  95 129 166 208 260 318 378
#     4  11  24  43  66  94 126 163 213 267 316 374
#     4  11  21  39  59  91 125 160 205 259 304 378
#     4  10  22  40  61  86 121 164 206 255 313 369
#     4  11  21  36  59  85 118 162 203 248 307 370
#
# _framework density 21.218056000000001
#
# number of rings (size 3 to 8) (size 9 to 14) (size 15 to 20)
#    0.000    1.200    4.000    2.400    0.000    2.800 
#    0.000    2.000    0.000    3.600    0.000    0.000 
#    0.000    0.000    0.000    0.000    0.000    0.000 
#
# Total GULP energy -222984.474777 kJ/mol
# GULP energy per Si atom -5574.611869 kJ/mol
# Density = 2.116976 g / cm^3
# Si number density = 21.218056 Si / 1000 Ang^3
#
#
#
# Elastic Constant Matrix: (Units=GPa)
#
#
# Indices 1 2 3 4 5 6 
#
# 1 77.1750 -4.6836 26.5651 0.0000 0.0000 0.0000
# 2 -4.6836 60.5405 19.2621 0.0000 0.0000 0.0000
# 3 26.5651 19.2621 117.4300 0.0000 0.0000 0.0000
# 4 0.0000 0.0000 0.0000 17.1441 0.0000 0.0000
# 5 0.0000 0.0000 0.0000 0.0000 24.2156 0.0000
# 6 0.0000 0.0000 0.0000 0.0000 0.0000 29.0476
#
#
#
# Elastic Compliance Matrix: (Units=1/GPa)
#
#
# Indices 1 2 3 4 5 6 
#
# 1 0.014339 0.002259 -0.003614 0.000000 0.000000 0.000000
# 2 0.002259 0.017783 -0.003428 0.000000 0.000000 0.000000
# 3 -0.003614 -0.003428 0.009896 0.000000 0.000000 0.000000
# 4 0.000000 0.000000 0.000000 0.058329 0.000000 0.000000
# 5 0.000000 0.000000 0.000000 0.000000 0.041296 0.000000
# 6 0.000000 0.000000 0.000000 0.000000 0.000000 0.034426
#
#
# Mechanical properties :
#
#
# Convention : Reuss Voigt Hill
#
# Bulk Modulus (GPa) = 30.81525 37.49253 34.15389
# Shear Modulus (GPa) = 25.45148 28.34826 26.89987
#
# Velocity S-wave (km/s) = 3.46717 3.65916 3.56446
# Velocity P-wave (km/s) = 5.53019 5.96331 5.75083
#
# Compressibility (1/GPa) = 0.03245146
#
# Stress axis : x y z
#
# Youngs Moduli (GPa) = 69.74094 56.23234 101.05446
#
# Poissons Ratio (x) = -0.12704 0.36524
# Poissons Ratio (y) = -0.15756 0.34642
# Poissons Ratio (z) = 0.25207 0.19277
#
# Static dielectric constant tensor:
#      x y z
#    x 1.803680 0.000000 0.000000 
#    y 0.000000 1.905890 0.000000 
#    z 0.000000 0.000000 1.730930 
# 
# From -- ./inp_files/11737.got.cif
#   From: 2010.05.17/outbox.cif.g08.bks.cpg/sg58_6_cif.got.tgz:11737.got - 2010.06.03 14:20:14.
