data_PCOD9445388
_publ_section_title
;
Structure prediction by ZEFSAII (Michael W. Deem and Ramdas Pophale) SiO2 
 PCOD9445388
Probable space group: P N N M
;
_chemical_formula_sum "Si O2"
_cell_formula_units_Z 48
_cell_length_a 8.146655
_cell_length_b 14.642326
_cell_length_c 20.926481
_cell_angle_alpha 90.000000
_cell_angle_beta 90.000000
_cell_angle_gamma 90.000000
_cell_volume 2496.235759
_symmetry_space_group_name_H-M "P N N M"
_symmetry_group_IT_number 58
_symmetry_cell_setting 'orthorhombic'
loop_
_space_group_symop_operation_xyz
x,y,z
-x,-y,z
1/2+x,1/2-y,1/2-z
1/2-x,1/2+y,1/2-z
-x,-y,-z
x,y,-z
1/2-x,1/2+y,1/2+z
1/2+x,1/2-y,1/2+z
loop_
_atom_site_type_symbol
_atom_site_label
_atom_site_fract_x
_atom_site_fract_y
_atom_site_fract_z
Si Si1 0.325945 0.273705 0.930404
Si Si2 0.658468 0.389827 0.928006
Si Si3 0.178962 0.702872 0.296728
Si Si4 0.670435 0.454402 0.783236
Si Si5 0.011957 0.391412 0.094664
Si Si6 0.628566 0.126860 0.735805
O O1 0.501052 0.324287 0.919891
O O2 0.287369 0.206664 0.872103
O O3 0.180460 0.348934 0.930619
O O4 0.331087 0.229687 0.000000
O O5 0.668693 0.446737 0.861208
O O6 0.841874 0.347486 0.928717
O O7 0.640483 0.431997 0.000000
O O8 0.295264 0.639304 0.253537
O O9 0.216466 0.806145 0.274054
O O10 0.994405 0.668166 0.287026
O O11 0.500000 0.500000 0.765252
O O12 0.807959 0.524695 0.758706
O O13 0.025049 0.373497 0.170116
O O14 0.000000 0.500000 0.080968
#
# Coordination Sequence:
#
# PCOD9445388 Si02
#       6
#     8   8   8   8   8   8
#     4  10  24  41  58  87 122 158 204 254 305 359
#     4  11  23  37  57  89 127 162 194 233 295 375
#     4  11  22  39  62  85 117 161 200 255 301 353
#     4  12  23  41  60  90 122 159 206 249 298 364
#     4  11  20  37  55  85 124 162 196 237 292 369
#     4  11  21  37  60  88 119 158 205 245 296 355
#
# _framework density 19.228954000000002
#
# number of rings (size 3 to 8) (size 9 to 14) (size 15 to 20)
#    0.000    1.000    3.333    5.000    0.000    1.667 
#    0.000    0.000    0.000    2.500    0.000    0.000 
#    0.000    0.000    0.000    0.000    0.000    0.000 
#
# Total GULP energy -267717.106705 kJ/mol
# GULP energy per Si atom -5577.439723 kJ/mol
# Density = 1.918519 g / cm^3
# Si number density = 19.228954 Si / 1000 Ang^3
#
#
#
# Elastic Constant Matrix: (Units=GPa)
#
#
# Indices 1 2 3 4 5 6 
#
# 1 117.4634 13.8508 27.1990 0.0000 0.0000 0.0000
# 2 13.8508 63.9139 41.8279 0.0000 0.0000 0.0000
# 3 27.1990 41.8279 106.9850 0.0000 0.0000 0.0000
# 4 0.0000 0.0000 0.0000 5.8515 0.0000 0.0000
# 5 0.0000 0.0000 0.0000 0.0000 4.0412 0.0000
# 6 0.0000 0.0000 0.0000 0.0000 0.0000 32.6340
#
#
#
# Elastic Compliance Matrix: (Units=1/GPa)
#
#
# Indices 1 2 3 4 5 6 
#
# 1 0.009064 -0.000613 -0.002065 0.000000 0.000000 0.000000
# 2 -0.000613 0.021067 -0.008081 0.000000 0.000000 0.000000
# 3 -0.002065 -0.008081 0.013031 0.000000 0.000000 0.000000
# 4 0.000000 0.000000 0.000000 0.170897 0.000000 0.000000
# 5 0.000000 0.000000 0.000000 0.000000 0.247454 0.000000
# 6 0.000000 0.000000 0.000000 0.000000 0.000000 0.030643
#
#
# Mechanical properties :
#
#
# Convention : Reuss Voigt Hill
#
# Bulk Modulus (GPa) = 46.19915 50.45750 48.32832
# Shear Modulus (GPa) = 9.59898 22.20431 15.90165
#
# Velocity S-wave (km/s) = 2.23669 3.40182 2.87882
# Velocity P-wave (km/s) = 5.54512 6.45966 6.01978
#
# Compressibility (1/GPa) = 0.02164542
#
# Stress axis : x y z
#
# Youngs Moduli (GPa) = 110.33098 47.46685 76.73808
#
# Poissons Ratio (x) = 0.02910 0.15843
# Poissons Ratio (y) = 0.06764 0.62011
# Poissons Ratio (z) = 0.22779 0.38357
#
# Static dielectric constant tensor:
#      x y z
#    x 1.744900 0.000000 0.000000 
#    y 0.000000 1.649160 0.000000 
#    z 0.000000 0.000000 1.697880 
# 
# From -- ./inp_files/28842.got.cif
#   From: 2010.05.17/outbox.cif.g08.bks.cpg/sg58_15_cif.got.tgz:28842.got - 2010.06.03 14:20:14.
