data_PCOD9445542
_publ_section_title
;
Structure prediction by ZEFSAII (Michael W. Deem and Ramdas Pophale) SiO2 
 PCOD9445542
Probable space group: P N N M
;
_chemical_formula_sum "Si O2"
_cell_formula_units_Z 56
_cell_length_a 21.313279
_cell_length_b 8.853015
_cell_length_c 14.920936
_cell_angle_alpha 90.000000
_cell_angle_beta 90.000000
_cell_angle_gamma 90.000000
_cell_volume 2815.383349
_symmetry_space_group_name_H-M "P N N M"
_symmetry_group_IT_number 58
_symmetry_cell_setting 'orthorhombic'
loop_
_space_group_symop_operation_xyz
x,y,z
-x,-y,z
1/2+x,1/2-y,1/2-z
1/2-x,1/2+y,1/2-z
-x,-y,-z
x,y,-z
1/2-x,1/2+y,1/2+z
1/2+x,1/2-y,1/2+z
loop_
_atom_site_type_symbol
_atom_site_label
_atom_site_fract_x
_atom_site_fract_y
_atom_site_fract_z
Si Si1 0.124034 0.404417 0.744950
Si Si2 0.068005 0.923820 0.147398
Si Si3 0.066679 0.583819 0.904002
Si Si4 0.166995 0.176882 0.100572
Si Si5 0.088336 0.882674 0.357906
Si Si6 0.947740 0.783116 0.599382
Si Si7 0.814867 0.384493 0.398839
O O1 0.098535 0.529197 0.813242
O O2 0.151084 0.282086 0.814592
O O3 0.073303 0.322016 0.681454
O O4 0.168371 0.490412 0.675041
O O5 0.061656 0.762831 0.101263
O O6 0.084006 0.896977 0.251230
O O7 0.122243 0.030851 0.108980
O O8 0.000000 0.000000 0.141634
O O9 0.000000 0.500000 0.904245
O O10 0.097791 0.547497 0.000000
O O11 0.240754 0.143961 0.105885
O O12 0.155172 0.239548 0.000000
O O13 0.144380 0.768819 0.383180
O O14 0.021800 0.816051 0.391155
O O15 0.088652 0.055737 0.392934
O O16 0.936052 0.719499 0.500000
O O17 0.829676 0.436548 0.500000
#
# Coordination Sequence:
#
# PCOD9445542 Si02
#       7
#     8   8   8   8   8   8   8
#     4  12  24  40  66  92 133 168 217 270 327 387
#     4  12  22  43  72  97 129 170 217 272 331 398
#     4  11  24  40  63  98 133 167 214 274 335 391
#     4  11  26  46  66  94 130 176 226 269 325 397
#     4  11  20  41  65  93 132 169 216 269 329 389
#     4  11  22  38  66 100 132 169 216 271 333 398
#     4  11  26  44  65  94 132 175 223 274 327 393
#
# _framework density 19.890719000000001
#
# number of rings (size 3 to 8) (size 9 to 14) (size 15 to 20)
#    0.000    0.714    4.286    4.714    2.000    2.286 
#    0.000    1.429    0.000    6.857    0.000    0.000 
#    0.000    0.000    0.000    0.000    0.000    0.000 
#
# Total GULP energy -312765.211565 kJ/mol
# GULP energy per Si atom -5585.093064 kJ/mol
# Density = 1.984545 g / cm^3
# Si number density = 19.890719 Si / 1000 Ang^3
#
#
#
# Elastic Constant Matrix: (Units=GPa)
#
#
# Indices 1 2 3 4 5 6 
#
# 1 95.5852 54.7187 48.9600 0.0000 0.0000 0.0000
# 2 54.7187 109.4388 62.1965 0.0000 0.0000 0.0000
# 3 48.9600 62.1965 191.8984 0.0000 0.0000 0.0000
# 4 0.0000 0.0000 0.0000 -129.1321 0.0000 0.0000
# 5 0.0000 0.0000 0.0000 0.0000 57.7035 0.0000
# 6 0.0000 0.0000 0.0000 0.0000 0.0000 18.1706
#
#
#
# Elastic Compliance Matrix: (Units=1/GPa)
#
#
# Indices 1 2 3 4 5 6 
#
# 1 0.015108 -0.006574 -0.001724 0.000000 0.000000 0.000000
# 2 -0.006574 0.014062 -0.002880 0.000000 0.000000 0.000000
# 3 -0.001724 -0.002880 0.006584 0.000000 0.000000 0.000000
# 4 0.000000 0.000000 0.000000 -0.007744 0.000000 0.000000
# 5 0.000000 0.000000 0.000000 0.000000 0.017330 0.000000
# 6 0.000000 0.000000 0.000000 0.000000 0.000000 0.055034
#
#
# Mechanical properties :
#
#
# Convention : Reuss Voigt Hill
#
# Bulk Modulus (GPa) = 74.64048 80.96363 77.80206
# Shear Modulus (GPa) = 39.30913 4.75156 22.03034
#
# Velocity S-wave (km/s) = 4.45033 1.54726 3.33163
# Velocity P-wave (km/s) = 8.00088 6.63209 7.34842
#
# Compressibility (1/GPa) = 0.01339756
#
# Stress axis : x y z
#
# Youngs Moduli (GPa) = 66.18818 71.11596 151.87426
#
# Poissons Ratio (x) = 0.46755 0.26181
# Poissons Ratio (y) = 0.43515 0.43742
# Poissons Ratio (z) = 0.11410 0.20482
#
# Static dielectric constant tensor:
#      x y z
#    x 1.668420 0.000000 0.000000 
#    y 0.000000 1.706130 0.000000 
#    z 0.000000 0.000000 1.710370 
# 
# From -- ./inp_files/23237.got.cif
#   From: 2010.05.17/outbox.cif.g08.bks.cpg/sg58_12_cif.got.tgz:23237.got - 2010.06.03 14:20:14.
