data_PCOD9445212
_publ_section_title
;
Structure prediction by ZEFSAII (Michael W. Deem and Ramdas Pophale) SiO2 
 PCOD9445212
Probable space group: P N N M
;
_chemical_formula_sum "Si O2"
_cell_formula_units_Z 44
_cell_length_a 27.480937
_cell_length_b 8.669473
_cell_length_c 7.346519
_cell_angle_alpha 90.000000
_cell_angle_beta 90.000000
_cell_angle_gamma 90.000000
_cell_volume 1750.273192
_symmetry_space_group_name_H-M "P N N M"
_symmetry_group_IT_number 58
_symmetry_cell_setting 'orthorhombic'
loop_
_space_group_symop_operation_xyz
x,y,z
-x,-y,z
1/2+x,1/2-y,1/2-z
1/2-x,1/2+y,1/2-z
-x,-y,-z
x,y,-z
1/2-x,1/2+y,1/2+z
1/2+x,1/2-y,1/2+z
loop_
_atom_site_type_symbol
_atom_site_label
_atom_site_fract_x
_atom_site_fract_y
_atom_site_fract_z
Si Si1 0.569994 0.056729 0.280035
Si Si2 0.588945 0.832015 0.000000
Si Si3 0.455603 0.603497 0.719615
Si Si4 0.774486 0.900695 0.718559
Si Si5 0.134742 0.889553 0.789479
Si Si6 0.318454 0.932880 0.710386
O O1 0.565971 0.037184 0.500000
O O2 0.555305 0.911351 0.162158
O O3 0.546233 0.219075 0.228244
O O4 0.627007 0.074416 0.216066
O O5 0.622928 0.749226 0.158005
O O6 0.500000 0.500000 0.790063
O O7 0.458649 0.603612 0.500000
O O8 0.404889 0.520274 0.763982
O O9 0.772742 0.895109 0.500000
O O10 0.812599 0.033563 0.771997
O O11 0.721229 0.949149 0.787742
O O12 0.794448 0.736467 0.782072
O O13 0.126697 0.846626 0.000000
O O14 0.325082 0.975164 0.500000
#
# Coordination Sequence:
#
# PCOD9445212 Si02
#       6
#     8   4   8   8   8   8
#     4  10  22  43  66  95 131 172 219 271 328 386
#     4  12  26  40  65  92 134 176 212 260 331 390
#     4   9  19  41  74 101 125 168 222 276 331 390
#     4  11  23  38  61  91 128 167 216 269 323 385
#     4  11  23  43  66  94 132 171 217 272 327 389
#     4  10  23  39  59  90 127 169 216 266 324 384
#
# _framework density 25.138932
#
# number of rings (size 3 to 8) (size 9 to 14) (size 15 to 20)
#    0.000    1.636    2.727    1.091    3.818    2.182 
#    0.000    3.636    0.000    4.364    0.000    0.000 
#    0.000    0.000    0.000    0.000    0.000    0.000 
#
# Total GULP energy -245363.097642 kJ/mol
# GULP energy per Si atom -5576.434037 kJ/mol
# Density = 2.508171 g / cm^3
# Si number density = 25.138932 Si / 1000 Ang^3
#
#
#
# Elastic Constant Matrix: (Units=GPa)
#
#
# Indices 1 2 3 4 5 6 
#
# 1 144.4847 47.6833 9.7276 0.0000 0.0000 0.0000
# 2 47.6833 83.2669 9.7198 0.0000 0.0000 0.0000
# 3 9.7276 9.7198 141.3800 0.0000 0.0000 0.0000
# 4 0.0000 0.0000 0.0000 1453.9441 0.0000 0.0000
# 5 0.0000 0.0000 0.0000 0.0000 20.2733 0.0000
# 6 0.0000 0.0000 0.0000 0.0000 0.0000 49.9175
#
#
#
# Elastic Compliance Matrix: (Units=1/GPa)
#
#
# Indices 1 2 3 4 5 6 
#
# 1 0.008543 -0.004863 -0.000253 0.000000 0.000000 0.000000
# 2 -0.004863 0.014874 -0.000688 0.000000 0.000000 0.000000
# 3 -0.000253 -0.000688 0.007138 0.000000 0.000000 0.000000
# 4 0.000000 0.000000 0.000000 0.000688 0.000000 0.000000
# 5 0.000000 0.000000 0.000000 0.000000 0.049326 0.000000
# 6 0.000000 0.000000 0.000000 0.000000 0.000000 0.020033
#
#
# Mechanical properties :
#
#
# Convention : Reuss Voigt Hill
#
# Bulk Modulus (GPa) = 52.77861 55.93257 54.35559
# Shear Modulus (GPa) = 42.18480 324.96037 183.57259
#
# Velocity S-wave (km/s) = 4.10086 11.38185 8.55463
# Velocity P-wave (km/s) = 6.59266 13.96518 10.91992
#
# Compressibility (1/GPa) = 0.01894707
#
# Stress axis : x y z
#
# Youngs Moduli (GPa) = 117.05507 67.22916 140.09763
#
# Poissons Ratio (x) = 0.32691 0.03551
# Poissons Ratio (y) = 0.56919 0.09639
# Poissons Ratio (z) = 0.02967 0.04626
#
# Static dielectric constant tensor:
#      x y z
#    x 2.025850 0.000000 0.000000 
#    y 0.000000 2.016210 0.000000 
#    z 0.000000 0.000000 1.996440 
# 
# From -- ./inp_files/10696.got.cif
#   From: 2010.05.17/outbox.cif.g08.bks.cpg/sg58_6_cif.got.tgz:10696.got - 2010.06.03 14:20:14.
