data_PCOD9445543
_publ_section_title
;
Structure prediction by ZEFSAII (Michael W. Deem and Ramdas Pophale) SiO2 
 PCOD9445543
Probable space group: P N N M
;
_chemical_formula_sum "Si O2"
_cell_formula_units_Z 40
_cell_length_a 18.240639
_cell_length_b 6.641915
_cell_length_c 15.486911
_cell_angle_alpha 90.000000
_cell_angle_beta 90.000000
_cell_angle_gamma 90.000000
_cell_volume 1876.282225
_symmetry_space_group_name_H-M "P N N M"
_symmetry_group_IT_number 58
_symmetry_cell_setting 'orthorhombic'
loop_
_space_group_symop_operation_xyz
x,y,z
-x,-y,z
1/2+x,1/2-y,1/2-z
1/2-x,1/2+y,1/2-z
-x,-y,-z
x,y,-z
1/2-x,1/2+y,1/2+z
1/2+x,1/2-y,1/2+z
loop_
_atom_site_type_symbol
_atom_site_label
_atom_site_fract_x
_atom_site_fract_y
_atom_site_fract_z
Si Si1 0.634393 0.148603 0.597291
Si Si2 0.772696 0.405654 0.361127
Si Si3 0.080000 0.089232 0.252696
Si Si4 0.920163 0.591368 0.599189
Si Si5 0.682162 0.757543 0.317489
O O1 0.607624 0.172152 0.500000
O O2 0.717717 0.238107 0.602730
O O3 0.588308 0.272557 0.667454
O O4 0.637937 0.918254 0.627125
O O5 0.855736 0.424901 0.393001
O O6 0.734663 0.621663 0.376232
O O7 0.775258 0.376245 0.257546
O O8 0.098370 0.231042 0.333872
O O9 0.131813 0.899886 0.234015
O O10 0.000000 0.000000 0.264812
O O11 0.923324 0.661178 0.500000
O O12 0.000000 0.500000 0.621676
#
# Coordination Sequence:
#
# PCOD9445543 Si02
#       5
#     8   8   8   8   8
#     4  11  25  42  68 100 131 171 220 273 327 386
#     4  11  20  41  67  97 131 171 215 266 321 387
#     4  11  25  43  69  95 133 176 219 272 330 392
#     4  11  24  43  69  99 133 174 221 271 331 399
#     4  11  21  40  68  97 130 175 217 262 325 390
#
# _framework density 21.318756
#
# number of rings (size 3 to 8) (size 9 to 14) (size 15 to 20)
#    0.000    1.000    4.000    3.000    0.000    4.800 
#    0.000    2.000    0.000    0.000    0.000    0.000 
#    0.000    0.000    0.000    0.000    0.000    0.000 
#
# Total GULP energy -223578.431328 kJ/mol
# GULP energy per Si atom -5589.460783 kJ/mol
# Density = 2.127023 g / cm^3
# Si number density = 21.318756 Si / 1000 Ang^3
#
#
#
# Elastic Constant Matrix: (Units=GPa)
#
#
# Indices 1 2 3 4 5 6 
#
# 1 56.1638 4.5843 -11.9937 0.0000 0.0000 0.0000
# 2 4.5843 92.1813 34.4181 0.0000 0.0000 0.0000
# 3 -11.9937 34.4181 115.4091 0.0000 0.0000 0.0000
# 4 0.0000 0.0000 0.0000 -2.1074 0.0000 0.0000
# 5 0.0000 0.0000 0.0000 0.0000 13.9941 0.0000
# 6 0.0000 0.0000 0.0000 0.0000 0.0000 21.1309
#
#
#
# Elastic Compliance Matrix: (Units=1/GPa)
#
#
# Indices 1 2 3 4 5 6 
#
# 1 0.018483 -0.001841 0.002470 0.000000 0.000000 0.000000
# 2 -0.001841 0.012391 -0.003887 0.000000 0.000000 0.000000
# 3 0.002470 -0.003887 0.010081 0.000000 0.000000 0.000000
# 4 0.000000 0.000000 0.000000 -0.474525 0.000000 0.000000
# 5 0.000000 0.000000 0.000000 0.000000 0.071458 0.000000
# 6 0.000000 0.000000 0.000000 0.000000 0.000000 0.047324
#
#
# Mechanical properties :
#
#
# Convention : Reuss Voigt Hill
#
# Bulk Modulus (GPa) = 29.03755 35.30795 32.17275
# Shear Modulus (GPa) = -16.84680 22.38657 2.76989
#
# Velocity S-wave (km/s) = -2.81416 3.24402 1.14109
# Velocity P-wave (km/s) = 1.75810 5.53439 4.10611
#
# Compressibility (1/GPa) = 0.03443817
#
# Stress axis : x y z
#
# Youngs Moduli (GPa) = 54.10427 80.70411 99.20022
#
# Poissons Ratio (x) = 0.14861 -0.24502
# Poissons Ratio (y) = 0.09963 0.38556
# Poissons Ratio (z) = -0.13364 0.31367
#
# Static dielectric constant tensor:
#      x y z
#    x 1.817440 0.000000 0.000000 
#    y 0.000000 1.767780 0.000000 
#    z 0.000000 0.000000 1.757840 
# 
# From -- ./inp_files/24182.got.cif
#   From: 2010.05.17/outbox.cif.g08.bks.cpg/sg58_13_cif.got.tgz:24182.got - 2010.06.03 14:20:14.
