data_PCOD9445756
_publ_section_title
;
Structure prediction by ZEFSAII (Michael W. Deem and Ramdas Pophale) SiO2 
 PCOD9445756
Probable space group: P N N M
;
_chemical_formula_sum "Si O2"
_cell_formula_units_Z 56
_cell_length_a 10.787722
_cell_length_b 16.822819
_cell_length_c 14.319235
_cell_angle_alpha 90.000000
_cell_angle_beta 90.000000
_cell_angle_gamma 90.000000
_cell_volume 2598.653259
_symmetry_space_group_name_H-M "P N N M"
_symmetry_group_IT_number 58
_symmetry_cell_setting 'orthorhombic'
loop_
_space_group_symop_operation_xyz
x,y,z
-x,-y,z
1/2+x,1/2-y,1/2-z
1/2-x,1/2+y,1/2-z
-x,-y,-z
x,y,-z
1/2-x,1/2+y,1/2+z
1/2+x,1/2-y,1/2+z
loop_
_atom_site_type_symbol
_atom_site_label
_atom_site_fract_x
_atom_site_fract_y
_atom_site_fract_z
Si Si1 0.650162 0.231170 0.889688
Si Si2 0.487955 0.089285 0.809382
Si Si3 0.308418 0.497643 0.893397
Si Si4 0.907597 0.161365 0.610571
Si Si5 0.450139 0.900031 0.598439
Si Si6 0.260550 0.645901 0.759245
Si Si7 0.170362 0.235083 0.105138
O O1 0.594437 0.148796 0.847315
O O2 0.534353 0.291960 0.879615
O O3 0.753817 0.278628 0.830117
O O4 0.678820 0.222236 0.000000
O O5 0.492290 0.082640 0.697101
O O6 0.350503 0.125478 0.814125
O O7 0.500000 0.000000 0.848597
O O8 0.400507 0.429074 0.854818
O O9 0.179138 0.448235 0.900836
O O10 0.290443 0.570450 0.823553
O O11 0.341366 0.523961 0.000000
O O12 0.885672 0.151187 0.500000
O O13 0.793223 0.216824 0.639768
O O14 0.517008 0.917275 0.500000
O O15 0.426566 0.806325 0.599334
O O16 0.364539 0.673272 0.684872
O O17 0.190421 0.204084 0.000000
#
# Coordination Sequence:
#
# PCOD9445756 Si02
#       7
#     8   8   8   8   8   8   8
#     4  11  24  41  61  90 123 160 206 254 303 360
#     4  12  24  39  60  90 125 163 200 241 314 378
#     4   9  18  33  56  88 118 148 187 248 312 359
#     4   8  16  34  58  79 111 154 195 242 301 360
#     4   9  18  35  57  81 115 150 194 247 301 359
#     4  12  22  34  60  89 121 153 203 256 293 360
#     4   9  17  33  57  81 107 154 206 241 282 352
#
# _framework density 21.549621999999999
#
# number of rings (size 3 to 8) (size 9 to 14) (size 15 to 20)
#    0.000    2.000    4.286    2.143    0.000    2.286 
#    0.000    2.143    0.000    0.000    0.000    2.000 
#    0.000    0.000    0.000    0.000    0.000    0.000 
#
# Total GULP energy -312029.812890 kJ/mol
# GULP energy per Si atom -5571.960944 kJ/mol
# Density = 2.150057 g / cm^3
# Si number density = 21.549622 Si / 1000 Ang^3
#
#
#
# Elastic Constant Matrix: (Units=GPa)
#
#
# Indices 1 2 3 4 5 6 
#
# 1 20.2763 9.9367 -9.7440 0.0000 0.0000 0.0000
# 2 9.9367 156.8993 51.6734 0.0000 0.0000 0.0000
# 3 -9.7440 51.6734 110.4775 0.0000 0.0000 0.0000
# 4 0.0000 0.0000 0.0000 32.0780 0.0000 0.0000
# 5 0.0000 0.0000 0.0000 0.0000 20.1963 0.0000
# 6 0.0000 0.0000 0.0000 0.0000 0.0000 27.4030
#
#
#
# Elastic Compliance Matrix: (Units=1/GPa)
#
#
# Indices 1 2 3 4 5 6 
#
# 1 0.056072 -0.006123 0.007809 0.000000 0.000000 0.000000
# 2 -0.006123 0.008203 -0.004377 0.000000 0.000000 0.000000
# 3 0.007809 -0.004377 0.011787 0.000000 0.000000 0.000000
# 4 0.000000 0.000000 0.000000 0.031174 0.000000 0.000000
# 5 0.000000 0.000000 0.000000 0.000000 0.049514 0.000000
# 6 0.000000 0.000000 0.000000 0.000000 0.000000 0.036492
#
#
# Mechanical properties :
#
#
# Convention : Reuss Voigt Hill
#
# Bulk Modulus (GPa) = 14.14793 43.48726 28.81760
# Shear Modulus (GPa) = 22.50386 31.65460 27.07923
#
# Velocity S-wave (km/s) = 3.23504 3.83680 3.54870
# Velocity P-wave (km/s) = 4.53139 6.31284 5.49479
#
# Compressibility (1/GPa) = 0.07068171
#
# Stress axis : x y z
#
# Youngs Moduli (GPa) = 17.83414 121.91076 84.83568
#
# Poissons Ratio (x) = 0.74647 -0.66252
# Poissons Ratio (y) = 0.10920 0.37130
# Poissons Ratio (z) = -0.13927 0.53357
#
# Static dielectric constant tensor:
#      x y z
#    x 1.964300 0.000000 0.000000 
#    y 0.000000 1.873340 0.000000 
#    z 0.000000 0.000000 1.797020 
# 
# From -- ./inp_files/22336.got.cif
#   From: 2010.05.17/outbox.cif.g08.bks.cpg/sg58_12_cif.got.tgz:22336.got - 2010.06.03 14:20:14.
