data_PCOD9445094
_publ_section_title
;
Structure prediction by ZEFSAII (Michael W. Deem and Ramdas Pophale) SiO2 
 PCOD9445094
Probable space group: P N N M
;
_chemical_formula_sum "Si O2"
_cell_formula_units_Z 48
_cell_length_a 8.824748
_cell_length_b 13.640314
_cell_length_c 18.989979
_cell_angle_alpha 90.000000
_cell_angle_beta 90.000000
_cell_angle_gamma 90.000000
_cell_volume 2285.868089
_symmetry_space_group_name_H-M "P N N M"
_symmetry_group_IT_number 58
_symmetry_cell_setting 'orthorhombic'
loop_
_space_group_symop_operation_xyz
x,y,z
-x,-y,z
1/2+x,1/2-y,1/2-z
1/2-x,1/2+y,1/2-z
-x,-y,-z
x,y,-z
1/2-x,1/2+y,1/2+z
1/2+x,1/2-y,1/2+z
loop_
_atom_site_type_symbol
_atom_site_label
_atom_site_fract_x
_atom_site_fract_y
_atom_site_fract_z
Si Si1 0.233871 0.299316 0.356426
Si Si2 0.079018 0.197856 0.889087
Si Si3 0.866053 0.580211 0.923051
Si Si4 0.290572 0.418632 0.772362
Si Si5 0.756370 0.428526 0.500000
Si Si6 0.396704 0.860607 0.000000
Si Si7 0.130915 0.140934 0.739598
O O1 0.403739 0.328235 0.377922
O O2 0.191744 0.368927 0.289920
O O3 0.136195 0.306473 0.426730
O O4 0.222097 0.191438 0.323186
O O5 0.081627 0.306135 0.921862
O O6 0.153611 0.199542 0.811922
O O7 0.165346 0.116634 0.934416
O O8 0.772969 0.572652 0.851010
O O9 0.000000 0.500000 0.919216
O O10 0.789707 0.564469 0.000000
O O11 0.451043 0.361381 0.776291
O O12 0.322096 0.529530 0.748527
O O13 0.784665 0.544630 0.500000
O O14 0.927652 0.388750 0.500000
#
# Coordination Sequence:
#
# PCOD9445094 Si02
#       7
#     8   8   8   8   4   4   8
#     4  11  23  41  67  96 130 174 226 274 328 415
#     4  11  22  40  70  92 130 182 220 278 340 403
#     4  11  23  40  64  96 132 175 228 270 334 409
#     4  10  22  43  63  95 132 176 220 286 334 398
#     4  11  25  45  64  94 135 171 218 285 342 398
#     4  11  27  43  63 101 131 171 226 280 344 401
#     4  10  22  40  66  96 132 171 229 273 342 401
#
# _framework density 20.998588000000002
#
# number of rings (size 3 to 8) (size 9 to 14) (size 15 to 20)
#    0.000    1.333    2.500    2.500    2.333    2.667 
#    7.500    0.833    0.000    0.000    0.000    0.000 
#    0.000    0.000    0.000    0.000    0.000    0.000 
#
# Total GULP energy -267931.307863 kJ/mol
# GULP energy per Si atom -5581.902247 kJ/mol
# Density = 2.095079 g / cm^3
# Si number density = 20.998588 Si / 1000 Ang^3
#
#
#
# Elastic Constant Matrix: (Units=GPa)
#
#
# Indices 1 2 3 4 5 6 
#
# 1 31.9631 6.0460 30.0353 0.0000 0.0000 0.0000
# 2 6.0460 67.2928 26.5356 0.0000 0.0000 0.0000
# 3 30.0353 26.5356 155.4219 0.0000 0.0000 0.0000
# 4 0.0000 0.0000 0.0000 31.3150 0.0000 0.0000
# 5 0.0000 0.0000 0.0000 0.0000 35.6414 0.0000
# 6 0.0000 0.0000 0.0000 0.0000 0.0000 26.7064
#
#
#
# Elastic Compliance Matrix: (Units=1/GPa)
#
#
# Indices 1 2 3 4 5 6 
#
# 1 0.038248 -0.000559 -0.007296 0.000000 0.000000 0.000000
# 2 -0.000559 0.015941 -0.002614 0.000000 0.000000 0.000000
# 3 -0.007296 -0.002614 0.008290 0.000000 0.000000 0.000000
# 4 0.000000 0.000000 0.000000 0.031934 0.000000 0.000000
# 5 0.000000 0.000000 0.000000 0.000000 0.028057 0.000000
# 6 0.000000 0.000000 0.000000 0.000000 0.000000 0.037444
#
#
# Mechanical properties :
#
#
# Convention : Reuss Voigt Hill
#
# Bulk Modulus (GPa) = 24.07233 42.21241 33.14237
# Shear Modulus (GPa) = 25.68065 31.53662 28.60863
#
# Velocity S-wave (km/s) = 3.50089 3.87957 3.69508
# Velocity P-wave (km/s) = 5.27545 6.34147 5.83286
#
# Compressibility (1/GPa) = 0.04154147
#
# Stress axis : x y z
#
# Youngs Moduli (GPa) = 26.14540 62.73003 120.62366
#
# Poissons Ratio (x) = 0.03509 0.88005
# Poissons Ratio (y) = 0.01463 0.31526
# Poissons Ratio (z) = 0.19075 0.16395
#
# Static dielectric constant tensor:
#      x y z
#    x 1.746850 0.000000 0.000000 
#    y 0.000000 1.763970 0.000000 
#    z 0.000000 0.000000 1.782200 
# 
# From -- ./inp_files/25324.got.cif
#   From: 2010.05.17/outbox.cif.g08.bks.cpg/sg58_13_cif.got.tgz:25324.got - 2010.06.03 14:20:14.
