data_PCOD9445232
_publ_section_title
;
Structure prediction by ZEFSAII (Michael W. Deem and Ramdas Pophale) SiO2 
 PCOD9445232
Probable space group: P N N M
;
_chemical_formula_sum "Si O2"
_cell_formula_units_Z 64
_cell_length_a 9.410860
_cell_length_b 11.141479
_cell_length_c 30.518957
_cell_angle_alpha 90.000000
_cell_angle_beta 90.000000
_cell_angle_gamma 90.000000
_cell_volume 3199.940080
_symmetry_space_group_name_H-M "P N N M"
_symmetry_group_IT_number 58
_symmetry_cell_setting 'orthorhombic'
loop_
_space_group_symop_operation_xyz
x,y,z
-x,-y,z
1/2+x,1/2-y,1/2-z
1/2-x,1/2+y,1/2-z
-x,-y,-z
x,y,-z
1/2-x,1/2+y,1/2+z
1/2+x,1/2-y,1/2+z
loop_
_atom_site_type_symbol
_atom_site_label
_atom_site_fract_x
_atom_site_fract_y
_atom_site_fract_z
Si Si1 0.943563 0.365278 0.051728
Si Si2 0.724962 0.234635 0.114682
Si Si3 0.451654 0.361857 0.138218
Si Si4 0.845646 0.715143 0.883547
Si Si5 0.417074 0.373194 0.762725
Si Si6 0.341024 0.999270 0.765735
Si Si7 0.423064 0.185353 0.690656
Si Si8 0.670484 0.481982 0.645098
O O1 0.072363 0.287605 0.070815
O O2 0.000000 0.500000 0.062588
O O3 0.809244 0.311422 0.078042
O O4 0.921439 0.358344 0.000000
O O5 0.562011 0.273966 0.114564
O O6 0.789449 0.277920 0.161206
O O7 0.762705 0.092955 0.117431
O O8 0.500000 0.500000 0.138000
O O9 0.296668 0.360050 0.117417
O O10 0.440295 0.321120 0.189043
O O11 0.952734 0.666843 0.845230
O O12 0.805937 0.851861 0.874614
O O13 0.500000 0.500000 0.761730
O O14 0.247212 0.389063 0.755284
O O15 0.470035 0.290841 0.723387
O O16 0.367010 0.084415 0.723735
O O17 0.500000 0.000000 0.784721
O O18 0.239885 0.025019 0.806766
O O19 0.500000 0.500000 0.647789
#
# Coordination Sequence:
#
# PCOD9445232 Si02
#       8
#     8   8   8   8   8   8   8   8
#     4  10  22  44  74 102 127 161 217 275 332 411
#     4  11  24  41  66  94 129 172 222 269 339 393
#     4  11  24  39  60  92 131 170 218 275 325 385
#     4  11  23  40  66  89 131 171 213 269 338 389
#     4  11  22  37  52  76 121 169 218 267 311 358
#     4  12  25  34  54  86 120 170 229 268 312 363
#     4  11  22  37  57  81 120 173 223 265 309 376
#     4  12  23  44  60  89 130 178 221 275 320 393
#
# _framework density 20.000374999999998
#
# number of rings (size 3 to 8) (size 9 to 14) (size 15 to 20)
#    0.000    0.875    3.750    4.875    3.500    5.000 
#    0.000    1.875    0.000    2.250    0.000    1.750 
#    0.000    0.000    0.000    0.000    0.000    0.000 
#
# Total GULP energy -357292.315017 kJ/mol
# GULP energy per Si atom -5582.692422 kJ/mol
# Density = 1.995485 g / cm^3
# Si number density = 20.000375 Si / 1000 Ang^3
#
#
#
# Elastic Constant Matrix: (Units=GPa)
#
#
# Indices 1 2 3 4 5 6 
#
# 1 108.6297 11.4274 3.8835 0.0000 0.0000 0.0000
# 2 11.4274 68.3705 28.9601 0.0000 0.0000 0.0000
# 3 3.8835 28.9601 60.0516 0.0000 0.0000 0.0000
# 4 0.0000 0.0000 0.0000 -57.8008 0.0000 0.0000
# 5 0.0000 0.0000 0.0000 0.0000 0.7950 0.0000
# 6 0.0000 0.0000 0.0000 0.0000 0.0000 28.3506
#
#
#
# Elastic Compliance Matrix: (Units=1/GPa)
#
#
# Indices 1 2 3 4 5 6 
#
# 1 0.009372 -0.001646 0.000188 0.000000 0.000000 0.000000
# 2 -0.001646 0.018670 -0.008897 0.000000 0.000000 0.000000
# 3 0.000188 -0.008897 0.020931 0.000000 0.000000 0.000000
# 4 0.000000 0.000000 0.000000 -0.017301 0.000000 0.000000
# 5 0.000000 0.000000 0.000000 0.000000 1.257797 0.000000
# 6 0.000000 0.000000 0.000000 0.000000 0.000000 0.035273
#
#
# Mechanical properties :
#
#
# Convention : Reuss Voigt Hill
#
# Bulk Modulus (GPa) = 35.38324 36.17707 35.78015
# Shear Modulus (GPa) = 3.69038 7.12103 5.40571
#
# Velocity S-wave (km/s) = 1.35984 1.88896 1.64580
# Velocity P-wave (km/s) = 4.49391 4.78383 4.64114
#
# Compressibility (1/GPa) = 0.02826197
#
# Stress axis : x y z
#
# Youngs Moduli (GPa) = 106.70061 53.56210 47.77627
#
# Poissons Ratio (x) = 0.08816 -0.00897
# Poissons Ratio (y) = 0.17562 0.42507
# Poissons Ratio (z) = -0.02002 0.47655
#
# Static dielectric constant tensor:
#      x y z
#    x 1.746360 0.000000 0.000000 
#    y 0.000000 1.806890 0.000000 
#    z 0.000000 0.000000 1.670400 
# 
# From -- ./inp_files/34775.got.cif
#   From: 2010.05.17/outbox.cif.g08.bks.cpg/sg58_18_cif.got.tgz:34775.got - 2010.06.03 14:20:14.
