data_PCOD9445196
_publ_section_title
;
Structure prediction by ZEFSAII (Michael W. Deem and Ramdas Pophale) SiO2 
 PCOD9445196
Probable space group: P N N M
;
_chemical_formula_sum "Si O2"
_cell_formula_units_Z 64
_cell_length_a 9.535329
_cell_length_b 11.194367
_cell_length_c 31.288398
_cell_angle_alpha 90.000000
_cell_angle_beta 90.000000
_cell_angle_gamma 90.000000
_cell_volume 3339.785312
_symmetry_space_group_name_H-M "P N N M"
_symmetry_group_IT_number 58
_symmetry_cell_setting 'orthorhombic'
loop_
_space_group_symop_operation_xyz
x,y,z
-x,-y,z
1/2+x,1/2-y,1/2-z
1/2-x,1/2+y,1/2-z
-x,-y,-z
x,y,-z
1/2-x,1/2+y,1/2+z
1/2+x,1/2-y,1/2+z
loop_
_atom_site_type_symbol
_atom_site_label
_atom_site_fract_x
_atom_site_fract_y
_atom_site_fract_z
Si Si1 0.263680 0.718176 0.388173
Si Si2 0.167346 0.990195 0.165486
Si Si3 0.695956 0.661916 0.251170
Si Si4 0.308724 0.769029 0.117966
Si Si5 0.953145 0.130633 0.662194
Si Si6 0.026359 0.641614 0.450868
Si Si7 0.525800 0.865276 0.613884
Si Si8 0.504271 0.137486 0.716055
O O1 0.275000 0.616306 0.351494
O O2 0.174499 0.824218 0.366883
O O3 0.413423 0.768884 0.402798
O O4 0.172236 0.668316 0.427087
O O5 0.197124 0.943253 0.213422
O O6 0.234185 0.887980 0.135597
O O7 0.000000 0.000000 0.160949
O O8 0.602250 0.626720 0.210431
O O9 0.624425 0.779929 0.270391
O O10 0.851668 0.688505 0.234701
O O11 0.415655 0.718481 0.153886
O O12 0.404744 0.797180 0.077198
O O13 0.184920 0.676564 0.107975
O O14 0.000000 0.000000 0.648678
O O15 0.026619 0.681077 0.500000
O O16 0.000000 0.500000 0.449602
O O17 0.496078 0.863556 0.664874
O O18 0.500000 0.000000 0.598378
O O19 0.500000 0.000000 0.730738
#
# Coordination Sequence:
#
# PCOD9445196 Si02
#       8
#     8   8   8   8   8   8   8   8
#     4  11  22  42  67  94 130 171 213 267 331 392
#     4  12  23  38  62  92 127 170 215 270 330 376
#     4  12  25  41  58  88 129 173 227 285 319 369
#     4  11  22  41  67  93 128 167 213 260 333 389
#     4  11  25  40  61  86 125 179 225 265 317 373
#     4  10  22  42  71 104 133 159 201 263 335 419
#     4  11  22  42  64  88 124 174 221 261 312 390
#     4  11  26  41  59  84 125 172 227 276 330 374
#
# _framework density 19.162908999999999
#
# number of rings (size 3 to 8) (size 9 to 14) (size 15 to 20)
#    0.000    0.875    5.000    1.875    3.500    0.000 
#    0.000    0.625    0.000   16.500    0.000    0.000 
#    0.000    0.000    0.000    0.000    0.000    0.000 
#
# Total GULP energy -357793.022021 kJ/mol
# GULP energy per Si atom -5590.515969 kJ/mol
# Density = 1.911929 g / cm^3
# Si number density = 19.162909 Si / 1000 Ang^3
#
#
#
# Elastic Constant Matrix: (Units=GPa)
#
#
# Indices 1 2 3 4 5 6 
#
# 1 112.6678 18.0448 41.1368 0.0000 0.0000 0.0000
# 2 18.0448 67.6489 25.2519 0.0000 0.0000 0.0000
# 3 41.1368 25.2519 105.6267 0.0000 0.0000 0.0000
# 4 0.0000 0.0000 0.0000 12.4241 0.0000 0.0000
# 5 0.0000 0.0000 0.0000 0.0000 11.8256 0.0000
# 6 0.0000 0.0000 0.0000 0.0000 0.0000 35.5031
#
#
#
# Elastic Compliance Matrix: (Units=1/GPa)
#
#
# Indices 1 2 3 4 5 6 
#
# 1 0.010465 -0.001395 -0.003742 0.000000 0.000000 0.000000
# 2 -0.001395 0.016416 -0.003381 0.000000 0.000000 0.000000
# 3 -0.003742 -0.003381 0.011733 0.000000 0.000000 0.000000
# 4 0.000000 0.000000 0.000000 0.080489 0.000000 0.000000
# 5 0.000000 0.000000 0.000000 0.000000 0.084562 0.000000
# 6 0.000000 0.000000 0.000000 0.000000 0.000000 0.028167
#
#
# Mechanical properties :
#
#
# Convention : Reuss Voigt Hill
#
# Bulk Modulus (GPa) = 46.34338 50.53448 48.43893
# Shear Modulus (GPa) = 19.52647 25.38454 22.45550
#
# Velocity S-wave (km/s) = 3.19560 3.64355 3.42690
# Velocity P-wave (km/s) = 6.15241 6.64295 6.40238
#
# Compressibility (1/GPa) = 0.02157806
#
# Stress axis : x y z
#
# Youngs Moduli (GPa) = 95.55279 60.91454 85.22829
#
# Poissons Ratio (x) = 0.08495 0.31896
# Poissons Ratio (y) = 0.13326 0.28820
# Poissons Ratio (z) = 0.35760 0.20598
#
# Static dielectric constant tensor:
#      x y z
#    x 1.677060 0.000000 0.000000 
#    y 0.000000 1.691370 0.000000 
#    z 0.000000 0.000000 1.644820 
# 
# From -- ./inp_files/34737.got.cif
#   From: 2010.05.17/outbox.cif.g08.bks.cpg/sg58_18_cif.got.tgz:34737.got - 2010.06.03 14:20:14.
