data_PCOD9445223
_publ_section_title
;
Structure prediction by ZEFSAII (Michael W. Deem and Ramdas Pophale) SiO2 
 PCOD9445223
Probable space group: P N N M
;
_chemical_formula_sum "Si O2"
_cell_formula_units_Z 56
_cell_length_a 16.697835
_cell_length_b 5.672544
_cell_length_c 25.614619
_cell_angle_alpha 90.000000
_cell_angle_beta 90.000000
_cell_angle_gamma 90.000000
_cell_volume 2426.196316
_symmetry_space_group_name_H-M "P N N M"
_symmetry_group_IT_number 58
_symmetry_cell_setting 'orthorhombic'
loop_
_space_group_symop_operation_xyz
x,y,z
-x,-y,z
1/2+x,1/2-y,1/2-z
1/2-x,1/2+y,1/2-z
-x,-y,-z
x,y,-z
1/2-x,1/2+y,1/2+z
1/2+x,1/2-y,1/2+z
loop_
_atom_site_type_symbol
_atom_site_label
_atom_site_fract_x
_atom_site_fract_y
_atom_site_fract_z
Si Si1 0.078478 0.873318 0.639176
Si Si2 0.795730 0.767958 0.632090
Si Si3 0.000000 0.500000 0.716230
Si Si4 0.765191 0.976368 0.220709
Si Si5 0.810346 0.388542 0.440640
Si Si6 0.000000 0.500000 0.107294
Si Si7 0.060921 0.189591 0.799072
Si Si8 0.674503 0.029610 0.561302
O O1 0.130446 0.765319 0.593477
O O2 0.044063 0.688055 0.680129
O O3 0.140833 0.066676 0.661039
O O4 0.000000 0.000000 0.617997
O O5 0.783531 0.544583 0.669092
O O6 0.824550 0.654106 0.578198
O O7 0.716465 0.898340 0.611088
O O8 0.935142 0.604083 0.756507
O O9 0.761653 0.227783 0.252658
O O10 0.853507 0.927770 0.198393
O O11 0.830834 0.362369 0.500000
O O12 0.718859 0.286541 0.435001
O O13 0.021417 0.287403 0.147764
O O14 0.080267 0.503643 0.072412
O O15 0.000000 0.000000 0.776338
O O16 0.689593 0.954042 0.500000
#
# Coordination Sequence:
#
# PCOD9445223 Si02
#       8
#     8   8   4   8   8   4   8   8
#     4  11  25  42  69 103 138 189 239 307 366 449
#     4  11  25  45  71 100 146 187 244 304 374 443
#     4  11  26  44  70 100 142 196 252 299 380 450
#     4  12  32  46  74 112 149 197 250 311 377 456
#     4  10  23  43  69 100 140 188 240 305 372 441
#     4  11  23  44  71 106 147 194 243 317 380 448
#     4  11  27  45  69  99 148 193 244 308 379 452
#     4  10  22  43  73 106 143 192 249 306 376 451
#
# _framework density 23.081398
#
# number of rings (size 3 to 8) (size 9 to 14) (size 15 to 20)
#    0.000    1.143    0.000    3.643   16.000    0.857 
#    0.000    2.500    0.000    4.286    0.000    0.000 
#    0.000    0.000    0.000    0.000    0.000    0.000 
#
# Total GULP energy -312622.358132 kJ/mol
# GULP energy per Si atom -5582.542110 kJ/mol
# Density = 2.302886 g / cm^3
# Si number density = 23.081398 Si / 1000 Ang^3
#
#
#
# Elastic Constant Matrix: (Units=GPa)
#
#
# Indices 1 2 3 4 5 6 
#
# 1 129.8131 37.4228 35.0514 0.0000 0.0000 0.0000
# 2 37.4228 91.0266 37.5259 0.0000 0.0000 0.0000
# 3 35.0514 37.5259 105.2895 0.0000 0.0000 0.0000
# 4 0.0000 0.0000 0.0000 32.5963 0.0000 0.0000
# 5 0.0000 0.0000 0.0000 0.0000 30.2289 0.0000
# 6 0.0000 0.0000 0.0000 0.0000 0.0000 30.9977
#
#
#
# Elastic Compliance Matrix: (Units=1/GPa)
#
#
# Indices 1 2 3 4 5 6 
#
# 1 0.009079 -0.002915 -0.001984 0.000000 0.000000 0.000000
# 2 -0.002915 0.013814 -0.003953 0.000000 0.000000 0.000000
# 3 -0.001984 -0.003953 0.011567 0.000000 0.000000 0.000000
# 4 0.000000 0.000000 0.000000 0.030678 0.000000 0.000000
# 5 0.000000 0.000000 0.000000 0.000000 0.033081 0.000000
# 6 0.000000 0.000000 0.000000 0.000000 0.000000 0.032260
#
#
# Mechanical properties :
#
#
# Convention : Reuss Voigt Hill
#
# Bulk Modulus (GPa) = 59.67679 60.68103 60.17891
# Shear Modulus (GPa) = 32.51646 33.17319 32.84482
#
# Velocity S-wave (km/s) = 3.75743 3.79519 3.77636
# Velocity P-wave (km/s) = 6.68846 6.74920 6.71890
#
# Compressibility (1/GPa) = 0.01675693
#
# Stress axis : x y z
#
# Youngs Moduli (GPa) = 110.14044 72.39148 86.45403
#
# Poissons Ratio (x) = 0.21101 0.17149
# Poissons Ratio (y) = 0.32105 0.34175
# Poissons Ratio (z) = 0.21848 0.28616
#
# Static dielectric constant tensor:
#      x y z
#    x 1.886180 0.000000 0.000000 
#    y 0.000000 2.049190 0.000000 
#    z 0.000000 0.000000 1.869860 
# 
# From -- ./inp_files/35068.got.cif
#   From: 2010.05.17/outbox.cif.g08.bks.cpg/sg58_18_cif.got.tgz:35068.got - 2010.06.03 14:20:14.
