data_PCOD9445620
_publ_section_title
;
Structure prediction by ZEFSAII (Michael W. Deem and Ramdas Pophale) SiO2 
 PCOD9445620
Probable space group: P N N M
;
_chemical_formula_sum "Si O2"
_cell_formula_units_Z 40
_cell_length_a 12.149456
_cell_length_b 5.194786
_cell_length_c 30.355995
_cell_angle_alpha 90.000000
_cell_angle_beta 90.000000
_cell_angle_gamma 90.000000
_cell_volume 1915.882924
_symmetry_space_group_name_H-M "P N N M"
_symmetry_group_IT_number 58
_symmetry_cell_setting 'orthorhombic'
loop_
_space_group_symop_operation_xyz
x,y,z
-x,-y,z
1/2+x,1/2-y,1/2-z
1/2-x,1/2+y,1/2-z
-x,-y,-z
x,y,-z
1/2-x,1/2+y,1/2+z
1/2+x,1/2-y,1/2+z
loop_
_atom_site_type_symbol
_atom_site_label
_atom_site_fract_x
_atom_site_fract_y
_atom_site_fract_z
Si Si1 0.377375 0.579177 0.150124
Si Si2 0.782563 0.076100 0.101484
Si Si3 0.793568 0.818113 0.818321
Si Si4 0.884752 0.624147 0.735329
Si Si5 0.872559 0.567482 0.947275
O O1 0.500000 0.500000 0.136101
O O2 0.335771 0.829094 0.122650
O O3 0.282777 0.360335 0.150212
O O4 0.380134 0.635121 0.202502
O O5 0.811083 0.321018 0.072198
O O6 0.844449 0.025150 0.148217
O O7 0.819559 0.828934 0.072541
O O8 0.877044 0.670787 0.787144
O O9 0.714636 0.949358 0.782151
O O10 0.000000 0.500000 0.724062
O O11 0.000000 0.500000 0.935963
O O12 0.864953 0.582243 0.000000
#
# Coordination Sequence:
#
# PCOD9445620 Si02
#       5
#     8   8   8   8   8
#     4  11  22  41  65  91 132 184 234 274 328 394
#     4  11  24  43  68 103 133 171 220 277 325 402
#     4  11  22  39  60  93 134 178 229 285 323 383
#     4  11  22  36  61  89 133 187 235 281 332 384
#     4  11  24  47  75 101 133 170 208 262 344 427
#
# _framework density 20.878104
#
# number of rings (size 3 to 8) (size 9 to 14) (size 15 to 20)
#    0.000    1.000    6.000    1.200    0.000    2.400 
#    3.600    0.000    0.000    3.600    0.000    0.000 
#    0.000    0.000    0.000    0.000    0.000    0.000 
#
# Total GULP energy -222703.516961 kJ/mol
# GULP energy per Si atom -5567.587924 kJ/mol
# Density = 2.083058 g / cm^3
# Si number density = 20.878104 Si / 1000 Ang^3
#
#
#
# Elastic Constant Matrix: (Units=GPa)
#
#
# Indices 1 2 3 4 5 6 
#
# 1 47.0730 27.5443 37.7002 0.0000 0.0000 0.0000
# 2 27.5443 126.6423 43.3543 0.0000 0.0000 0.0000
# 3 37.7002 43.3543 93.2531 0.0000 0.0000 0.0000
# 4 0.0000 0.0000 0.0000 52.7486 0.0000 0.0000
# 5 0.0000 0.0000 0.0000 0.0000 -17.1252 0.0000
# 6 0.0000 0.0000 0.0000 0.0000 0.0000 20.2120
#
#
#
# Elastic Compliance Matrix: (Units=1/GPa)
#
#
# Indices 1 2 3 4 5 6 
#
# 1 0.032374 -0.003045 -0.011672 0.000000 0.000000 0.000000
# 2 -0.003045 0.009677 -0.003268 0.000000 0.000000 0.000000
# 3 -0.011672 -0.003268 0.016962 0.000000 0.000000 0.000000
# 4 0.000000 0.000000 0.000000 0.018958 0.000000 0.000000
# 5 0.000000 0.000000 0.000000 0.000000 -0.058394 0.000000
# 6 0.000000 0.000000 0.000000 0.000000 0.000000 0.049476
#
#
# Mechanical properties :
#
#
# Convention : Reuss Voigt Hill
#
# Bulk Modulus (GPa) = 43.39950 53.79621 48.59786
# Shear Modulus (GPa) = 44.36413 21.72508 33.04460
#
# Velocity S-wave (km/s) = 4.61468 3.22928 3.98268
# Velocity P-wave (km/s) = 7.01612 6.30294 6.66907
#
# Compressibility (1/GPa) = 0.02304174
#
# Stress axis : x y z
#
# Youngs Moduli (GPa) = 30.88932 103.33420 58.95680
#
# Poissons Ratio (x) = 0.31469 0.68815
# Poissons Ratio (y) = 0.09407 0.19267
# Poissons Ratio (z) = 0.36054 0.33769
#
# Static dielectric constant tensor:
#      x y z
#    x 1.817360 0.000000 0.000000 
#    y 0.000000 2.278150 0.000000 
#    z 0.000000 0.000000 1.735300 
# 
# From -- ./inp_files/32742.got.cif
#   From: 2010.05.17/outbox.cif.g08.bks.cpg/sg58_17_cif.got.tgz:32742.got - 2010.06.03 14:20:14.
