data_PCOD9445843
_publ_section_title
;
Structure prediction by ZEFSAII (Michael W. Deem and Ramdas Pophale) SiO2 
 PCOD9445843
Probable space group: P N N M
;
_chemical_formula_sum "Si O2"
_cell_formula_units_Z 48
_cell_length_a 12.551359
_cell_length_b 8.468700
_cell_length_c 19.071171
_cell_angle_alpha 90.000000
_cell_angle_beta 90.000000
_cell_angle_gamma 90.000000
_cell_volume 2027.145214
_symmetry_space_group_name_H-M "P N N M"
_symmetry_group_IT_number 58
_symmetry_cell_setting 'orthorhombic'
loop_
_space_group_symop_operation_xyz
x,y,z
-x,-y,z
1/2+x,1/2-y,1/2-z
1/2-x,1/2+y,1/2-z
-x,-y,-z
x,y,-z
1/2-x,1/2+y,1/2+z
1/2+x,1/2-y,1/2+z
loop_
_atom_site_type_symbol
_atom_site_label
_atom_site_fract_x
_atom_site_fract_y
_atom_site_fract_z
Si Si1 0.462078 0.680286 0.612961
Si Si2 0.163897 0.892109 0.500000
Si Si3 0.289574 0.612283 0.500000
Si Si4 0.627926 0.748652 0.500000
Si Si5 0.328206 0.686239 0.744251
Si Si6 0.855807 0.783418 0.500000
Si Si7 0.848425 0.135120 0.665351
Si Si8 0.557362 0.165191 0.142413
O O1 0.500000 0.500000 0.614533
O O2 0.357249 0.678316 0.565200
O O3 0.554018 0.767968 0.568478
O O4 0.426084 0.720390 0.690580
O O5 0.174619 0.696055 0.500000
O O6 0.190104 0.904093 0.586174
O O7 0.091309 0.047672 0.500000
O O8 0.314855 0.425446 0.500000
O O9 0.733523 0.849606 0.500000
O O10 0.221800 0.726271 0.701414
O O11 0.336551 0.516674 0.782910
O O12 0.344754 0.813003 0.805135
O O13 0.891755 0.688166 0.433137
O O14 0.968950 0.199289 0.656991
O O15 0.500000 0.000000 0.149587
#
# Coordination Sequence:
#
# PCOD9445843 Si02
#       8
#     8   4   4   4   8   4   8   8
#     4   9  18  38  66 103 135 179 234 294 363 437
#     4  12  24  46  74 102 147 195 246 307 367 438
#     4   9  18  37  68 101 129 183 243 289 360 435
#     4   9  22  40  71 104 135 183 245 306 361 443
#     4  12  25  46  73 106 147 197 245 311 385 450
#     4  12  27  47  72 106 149 194 249 308 379 448
#     4  12  27  48  77 105 153 199 250 310 380 453
#     4  12  28  47  70 108 144 193 253 309 376 455
#
# _framework density 23.678619000000001
#
# number of rings (size 3 to 8) (size 9 to 14) (size 15 to 20)
#    0.000    1.000    3.333    4.250    2.333    4.667 
#    3.000    1.667    0.000    0.000    0.000    0.000 
#    0.000    0.000    0.000    0.000    0.000    0.000 
#
# Total GULP energy -267318.040470 kJ/mol
# GULP energy per Si atom -5569.125843 kJ/mol
# Density = 2.362473 g / cm^3
# Si number density = 23.678619 Si / 1000 Ang^3
#
#
#
# Elastic Constant Matrix: (Units=GPa)
#
#
# Indices 1 2 3 4 5 6 
#
# 1 132.7058 31.3037 95.5567 0.0000 0.0000 0.0000
# 2 31.3037 76.1531 70.9574 0.0000 0.0000 0.0000
# 3 95.5567 70.9574 232.3385 0.0000 0.0000 0.0000
# 4 0.0000 0.0000 0.0000 30.2720 0.0000 0.0000
# 5 0.0000 0.0000 0.0000 0.0000 98.3453 0.0000
# 6 0.0000 0.0000 0.0000 0.0000 0.0000 155.5206
#
#
#
# Elastic Compliance Matrix: (Units=1/GPa)
#
#
# Indices 1 2 3 4 5 6 
#
# 1 0.010716 -0.000417 -0.004280 0.000000 0.000000 0.000000
# 2 -0.000417 0.018371 -0.005439 0.000000 0.000000 0.000000
# 3 -0.004280 -0.005439 0.007725 0.000000 0.000000 0.000000
# 4 0.000000 0.000000 0.000000 0.033034 0.000000 0.000000
# 5 0.000000 0.000000 0.000000 0.000000 0.010168 0.000000
# 6 0.000000 0.000000 0.000000 0.000000 0.000000 0.006430
#
#
# Mechanical properties :
#
#
# Convention : Reuss Voigt Hill
#
# Bulk Modulus (GPa) = 60.45910 92.98145 76.72027
# Shear Modulus (GPa) = 44.55190 73.05289 58.80240
#
# Velocity S-wave (km/s) = 4.34236 5.56047 4.98873
# Velocity P-wave (km/s) = 7.12251 8.97655 8.10273
#
# Compressibility (1/GPa) = 0.01654011
#
# Stress axis : x y z
#
# Youngs Moduli (GPa) = 93.32253 54.43425 129.44388
#
# Poissons Ratio (x) = 0.02270 0.55399
# Poissons Ratio (y) = 0.03892 0.70405
# Poissons Ratio (z) = 0.39940 0.29607
#
# Static dielectric constant tensor:
#      x y z
#    x 1.992510 0.000000 0.000000 
#    y 0.000000 1.973940 0.000000 
#    z 0.000000 0.000000 2.066200 
# 
# From -- ./inp_files/26866.got.cif
#   From: 2010.05.17/outbox.cif.g08.bks.cpg/sg58_14_cif.got.tgz:26866.got - 2010.06.03 14:20:14.
