data_PCOD9445426
_publ_section_title
;
Structure prediction by ZEFSAII (Michael W. Deem and Ramdas Pophale) SiO2 
 PCOD9445426
Probable space group: P N N M
;
_chemical_formula_sum "Si O2"
_cell_formula_units_Z 58
_cell_length_a 12.366323
_cell_length_b 24.338839
_cell_length_c 9.585967
_cell_angle_alpha 90.000000
_cell_angle_beta 90.000000
_cell_angle_gamma 90.000000
_cell_volume 2885.202988
_symmetry_space_group_name_H-M "P N N M"
_symmetry_group_IT_number 58
_symmetry_cell_setting 'orthorhombic'
loop_
_space_group_symop_operation_xyz
x,y,z
-x,-y,z
1/2+x,1/2-y,1/2-z
1/2-x,1/2+y,1/2-z
-x,-y,-z
x,y,-z
1/2-x,1/2+y,1/2+z
1/2+x,1/2-y,1/2+z
loop_
_atom_site_type_symbol
_atom_site_label
_atom_site_fract_x
_atom_site_fract_y
_atom_site_fract_z
Si Si1 0.051659 0.143467 0.660983
Si Si2 0.900309 0.364188 0.342666
Si Si3 0.743671 0.783112 0.336052
Si Si4 0.801256 0.173457 0.335998
Si Si5 0.341001 0.013720 0.762761
Si Si6 0.356168 0.892695 0.844902
Si Si7 0.106427 0.036794 0.166384
Si Si8 0.500000 0.000000 0.500000
O O1 0.063824 0.123631 0.500000
O O2 0.134761 0.193679 0.677476
O O3 0.083644 0.096271 0.768882
O O4 0.928132 0.161080 0.680973
O O5 0.878466 0.343771 0.500000
O O6 0.835270 0.328799 0.230910
O O7 0.866283 0.427906 0.333444
O O8 0.029065 0.363562 0.318347
O O9 0.720644 0.775449 0.500000
O O10 0.728572 0.727634 0.250221
O O11 0.778765 0.180016 0.500000
O O12 0.729369 0.124955 0.270671
O O13 0.210824 0.012252 0.756168
O O14 0.408288 0.012062 0.621072
O O15 0.374041 0.958007 0.841135
O O16 0.317777 0.877066 0.000000
O O17 0.128980 0.039303 0.000000
O O18 0.000000 0.000000 0.186239
#
# Coordination Sequence:
#
# PCOD9445426 Si02
#       8
#     8   8   8   8   8   8   8   2
#     4  10  24  45  66  96 133 173 221 280 337 403
#     4  11  23  41  67  97 132 174 221 275 338 403
#     4  11  25  44  69  96 128 172 225 279 341 403
#     4  11  26  46  68  97 136 178 227 281 342 406
#     4  12  24  42  67 100 142 182 226 281 342 409
#     4  11  24  43  68  99 138 178 221 276 339 402
#     4  11  24  42  68 102 139 183 232 281 338 415
#     4  12  28  40  64 104 148 180 238 290 344 422
#
# _framework density 20.102573
#
# number of rings (size 3 to 8) (size 9 to 14) (size 15 to 20)
#    0.000    0.966    2.759    2.897    4.828    4.690 
#    0.000    0.000    0.000    0.000    0.000    0.000 
#    0.000    0.000    0.000    0.000    0.000    0.000 
#
# Total GULP energy -323722.877377 kJ/mol
# GULP energy per Si atom -5581.428920 kJ/mol
# Density = 2.005682 g / cm^3
# Si number density = 20.102573 Si / 1000 Ang^3
#
#
#
# Elastic Constant Matrix: (Units=GPa)
#
#
# Indices 1 2 3 4 5 6 
#
# 1 86.4549 2.8435 60.5388 0.0000 0.0000 0.0000
# 2 2.8435 66.9007 33.3234 0.0000 0.0000 0.0000
# 3 60.5388 33.3234 122.7145 0.0000 0.0000 0.0000
# 4 0.0000 0.0000 0.0000 -444.7419 0.0000 0.0000
# 5 0.0000 0.0000 0.0000 0.0000 3.9581 0.0000
# 6 0.0000 0.0000 0.0000 0.0000 0.0000 -6.0711
#
#
#
# Elastic Compliance Matrix: (Units=1/GPa)
#
#
# Indices 1 2 3 4 5 6 
#
# 1 0.018729 0.004402 -0.010435 0.000000 0.000000 0.000000
# 2 0.004402 0.018320 -0.007146 0.000000 0.000000 0.000000
# 3 -0.010435 -0.007146 0.015237 0.000000 0.000000 0.000000
# 4 0.000000 0.000000 0.000000 -0.002248 0.000000 0.000000
# 5 0.000000 0.000000 0.000000 0.000000 0.252647 0.000000
# 6 0.000000 0.000000 0.000000 0.000000 0.000000 -0.164716
#
#
# Mechanical properties :
#
#
# Convention : Reuss Voigt Hill
#
# Bulk Modulus (GPa) = 38.56954 52.16462 45.36708
# Shear Modulus (GPa) = 28.90680 -77.41334 -24.25327
#
# Velocity S-wave (km/s) = 3.79616 -6.21231 -3.47720
# Velocity P-wave (km/s) = 6.20020 5.04494 2.54863
#
# Compressibility (1/GPa) = 0.02592719
#
# Stress axis : x y z
#
# Youngs Moduli (GPa) = 53.39404 54.58517 65.62836
#
# Poissons Ratio (x) = -0.24026 0.68481
# Poissons Ratio (y) = -0.23501 0.46900
# Poissons Ratio (z) = 0.55715 0.39008
#
# Static dielectric constant tensor:
#      x y z
#    x 1.714670 0.000000 0.000000 
#    y 0.000000 1.705200 0.000000 
#    z 0.000000 0.000000 1.687450 
# 
# From -- ./inp_files/4472.got.cif
#   From: 2010.05.17/outbox.cif.g08.bks.cpg/sg58_3_cif.got.tgz:4472.got - 2010.06.03 14:20:14.
