data_PCOD9445728
_publ_section_title
;
Structure prediction by ZEFSAII (Michael W. Deem and Ramdas Pophale) SiO2 
 PCOD9445728
Probable space group: P N N M
;
_chemical_formula_sum "Si O2"
_cell_formula_units_Z 32
_cell_length_a 8.183042
_cell_length_b 14.823031
_cell_length_c 12.335214
_cell_angle_alpha 90.000000
_cell_angle_beta 90.000000
_cell_angle_gamma 90.000000
_cell_volume 1496.230438
_symmetry_space_group_name_H-M "P N N M"
_symmetry_group_IT_number 58
_symmetry_cell_setting 'orthorhombic'
loop_
_space_group_symop_operation_xyz
x,y,z
-x,-y,z
1/2+x,1/2-y,1/2-z
1/2-x,1/2+y,1/2-z
-x,-y,-z
x,y,-z
1/2-x,1/2+y,1/2+z
1/2+x,1/2-y,1/2+z
loop_
_atom_site_type_symbol
_atom_site_label
_atom_site_fract_x
_atom_site_fract_y
_atom_site_fract_z
Si Si1 0.777464 0.924932 0.500000
Si Si2 0.364809 0.365097 0.000000
Si Si3 0.684785 0.536561 0.626029
Si Si4 0.154405 0.617959 0.232098
Si Si5 0.290079 0.807300 0.727409
O O1 0.676413 0.910747 0.391681
O O2 0.937760 0.860448 0.500000
O O3 0.831338 0.028428 0.500000
O O4 0.283376 0.325697 0.108183
O O5 0.500000 0.500000 0.632019
O O6 0.732657 0.543625 0.500000
O O7 0.798307 0.465138 0.690402
O O8 0.690789 0.632589 0.686038
O O9 0.275608 0.701353 0.252854
O O10 0.973261 0.656872 0.243125
#
# Coordination Sequence:
#
# PCOD9445728 Si02
#       5
#     4   4   8   8   8
#     4  11  23  43  71  98 132 171 220 276 332 389
#     4  11  23  43  71  98 132 171 220 276 332 389
#     4  11  25  46  69  96 135 175 221 275 331 392
#     4  12  26  44  69  99 135 175 223 272 330 394
#     4  12  26  44  69  99 135 175 223 272 330 394
#
# _framework density 21.387080000000001
#
# number of rings (size 3 to 8) (size 9 to 14) (size 15 to 20)
#    0.000    0.500    2.500    6.000    3.500    3.000 
#    0.000    0.000    0.000    0.000    0.000    0.000 
#    0.000    0.000    0.000    0.000    0.000    0.000 
#
# Total GULP energy -179178.391140 kJ/mol
# GULP energy per Si atom -5599.324723 kJ/mol
# Density = 2.133840 g / cm^3
# Si number density = 21.387080 Si / 1000 Ang^3
#
#
#
# Elastic Constant Matrix: (Units=GPa)
#
#
# Indices 1 2 3 4 5 6 
#
# 1 46.7550 -22.3374 5.0513 0.0000 0.0000 0.0000
# 2 -22.3374 79.5258 26.7102 0.0000 0.0000 0.0000
# 3 5.0513 26.7102 160.5457 0.0000 0.0000 0.0000
# 4 0.0000 0.0000 0.0000 -10.7072 0.0000 0.0000
# 5 0.0000 0.0000 0.0000 0.0000 9.9531 0.0000
# 6 0.0000 0.0000 0.0000 0.0000 0.0000 38.7150
#
#
#
# Elastic Compliance Matrix: (Units=1/GPa)
#
#
# Indices 1 2 3 4 5 6 
#
# 1 0.025354 0.007827 -0.002100 0.000000 0.000000 0.000000
# 2 0.007827 0.015735 -0.002864 0.000000 0.000000 0.000000
# 3 -0.002100 -0.002864 0.006771 0.000000 0.000000 0.000000
# 4 0.000000 0.000000 0.000000 -0.093395 0.000000 0.000000
# 5 0.000000 0.000000 0.000000 0.000000 0.100471 0.000000
# 6 0.000000 0.000000 0.000000 0.000000 0.000000 0.025830
#
#
# Mechanical properties :
#
#
# Convention : Reuss Voigt Hill
#
# Bulk Modulus (GPa) = 18.66150 33.96386 26.31268
# Shear Modulus (GPa) = 53.81992 26.08568 39.95280
#
# Velocity S-wave (km/s) = 5.02188 3.49620 4.32682
# Velocity P-wave (km/s) = 6.50925 5.67564 6.10669
#
# Compressibility (1/GPa) = 0.05358627
#
# Stress axis : x y z
#
# Youngs Moduli (GPa) = 39.44108 63.55289 147.68148
#
# Poissons Ratio (x) = -0.49742 0.31012
# Poissons Ratio (y) = -0.30870 0.42297
# Poissons Ratio (z) = 0.08282 0.18202
#
# Static dielectric constant tensor:
#      x y z
#    x 1.813030 0.000000 0.000000 
#    y 0.000000 1.712190 0.000000 
#    z 0.000000 0.000000 1.621100 
# 
# From -- ./inp_files/12375.got.cif
#   From: 2010.05.17/outbox.cif.g08.bks.cpg/sg58_7_cif.got.tgz:12375.got - 2010.06.03 14:20:14.
