data_PCOD9445730
_publ_section_title
;
Structure prediction by ZEFSAII (Michael W. Deem and Ramdas Pophale) SiO2 
 PCOD9445730
Probable space group: P N N M
;
_chemical_formula_sum "Si O2"
_cell_formula_units_Z 32
_cell_length_a 12.369927
_cell_length_b 8.004891
_cell_length_c 13.151736
_cell_angle_alpha 90.000000
_cell_angle_beta 90.000000
_cell_angle_gamma 90.000000
_cell_volume 1302.283811
_symmetry_space_group_name_H-M "P N N M"
_symmetry_group_IT_number 58
_symmetry_cell_setting 'orthorhombic'
loop_
_space_group_symop_operation_xyz
x,y,z
-x,-y,z
1/2+x,1/2-y,1/2-z
1/2-x,1/2+y,1/2-z
-x,-y,-z
x,y,-z
1/2-x,1/2+y,1/2+z
1/2+x,1/2-y,1/2+z
loop_
_atom_site_type_symbol
_atom_site_label
_atom_site_fract_x
_atom_site_fract_y
_atom_site_fract_z
Si Si1 0.640682 0.633772 0.307047
Si Si2 0.314469 0.950593 0.500000
Si Si3 0.046064 0.687214 0.612041
Si Si4 0.515716 0.743158 0.500000
Si Si5 0.169847 0.135175 0.655984
O O1 0.609133 0.755082 0.212417
O O2 0.557262 0.655681 0.398118
O O3 0.756769 0.700535 0.342973
O O4 0.647769 0.447723 0.264389
O O5 0.388203 0.785819 0.500000
O O6 0.407901 0.091777 0.500000
O O7 0.238325 0.995696 0.595107
O O8 0.100517 0.694217 0.500000
O O9 0.000000 0.500000 0.625189
O O10 0.944141 0.813285 0.610040
#
# Coordination Sequence:
#
# PCOD9445730 Si02
#       5
#     8   4   8   4   8
#     4  11  25  42  70 101 143 184 238 288 353 420
#     4   9  20  40  71  94 136 185 243 282 355 413
#     4  11  25  45  70  99 136 179 232 294 352 415
#     4   9  22  42  66  99 137 194 231 298 343 415
#     4  11  23  44  69 105 136 185 234 287 350 418
#
# _framework density 24.572216000000001
#
# number of rings (size 3 to 8) (size 9 to 14) (size 15 to 20)
#    0.000    1.500    1.250    2.250   12.250    1.000 
#    2.250    2.500    0.000    0.000    0.000    0.000 
#    0.000    0.000    0.000    0.000    0.000    0.000 
#
# Total GULP energy -179050.215031 kJ/mol
# GULP energy per Si atom -5595.319220 kJ/mol
# Density = 2.451629 g / cm^3
# Si number density = 24.572216 Si / 1000 Ang^3
#
#
#
# Elastic Constant Matrix: (Units=GPa)
#
#
# Indices 1 2 3 4 5 6 
#
# 1 55.6838 9.5512 26.1799 0.0000 0.0000 0.0000
# 2 9.5512 73.4610 9.1526 0.0000 0.0000 0.0000
# 3 26.1799 9.1526 117.0803 0.0000 0.0000 0.0000
# 4 0.0000 0.0000 0.0000 -25.3575 0.0000 0.0000
# 5 0.0000 0.0000 0.0000 0.0000 8.8130 0.0000
# 6 0.0000 0.0000 0.0000 0.0000 0.0000 43.5513
#
#
#
# Elastic Compliance Matrix: (Units=1/GPa)
#
#
# Indices 1 2 3 4 5 6 
#
# 1 0.020385 -0.002103 -0.004394 0.000000 0.000000 0.000000
# 2 -0.002103 0.013964 -0.000621 0.000000 0.000000 0.000000
# 3 -0.004394 -0.000621 0.009572 0.000000 0.000000 0.000000
# 4 0.000000 0.000000 0.000000 -0.039436 0.000000 0.000000
# 5 0.000000 0.000000 0.000000 0.000000 0.113469 0.000000
# 6 0.000000 0.000000 0.000000 0.000000 0.000000 0.022961
#
#
# Mechanical properties :
#
#
# Convention : Reuss Voigt Hill
#
# Bulk Modulus (GPa) = 33.68767 37.33252 35.51009
# Shear Modulus (GPa) = 30.29449 18.82411 24.55930
#
# Velocity S-wave (km/s) = 3.51504 2.77080 3.16488
# Velocity P-wave (km/s) = 5.49668 5.04603 5.27617
#
# Compressibility (1/GPa) = 0.02968445
#
# Stress axis : x y z
#
# Youngs Moduli (GPa) = 49.05557 71.61526 104.46910
#
# Poissons Ratio (x) = 0.15061 0.45902
# Poissons Ratio (y) = 0.10316 0.06491
# Poissons Ratio (z) = 0.21554 0.04450
#
# Static dielectric constant tensor:
#      x y z
#    x 1.915380 0.000000 0.000000 
#    y 0.000000 1.937510 0.000000 
#    z 0.000000 0.000000 1.953400 
# 
# From -- ./inp_files/20681.got.cif
#   From: 2010.05.17/outbox.cif.g08.bks.cpg/sg58_11_cif.got.tgz:20681.got - 2010.06.03 14:20:14.
