data_PCOD9445941
_publ_section_title
;
Structure prediction by ZEFSAII (Michael W. Deem and Ramdas Pophale) SiO2 
 PCOD9445941
Probable space group: P N N M
;
_chemical_formula_sum "Si O2"
_cell_formula_units_Z 64
_cell_length_a 24.000000
_cell_length_b 15.000000
_cell_length_c 9.000000
_cell_angle_alpha 90.000000
_cell_angle_beta 90.000000
_cell_angle_gamma 90.000000
_cell_volume 3240.000000
_symmetry_space_group_name_H-M "P N N M"
_symmetry_group_IT_number 58
_symmetry_cell_setting 'orthorhombic'
loop_
_space_group_symop_operation_xyz
x,y,z
-x,-y,z
1/2+x,1/2-y,1/2-z
1/2-x,1/2+y,1/2-z
-x,-y,-z
x,y,-z
1/2-x,1/2+y,1/2+z
1/2+x,1/2-y,1/2+z
loop_
_atom_site_type_symbol
_atom_site_label
_atom_site_fract_x
_atom_site_fract_y
_atom_site_fract_z
Si Si1 0.684474 0.455133 0.821956
Si Si2 0.598898 0.154339 0.671565
Si Si3 0.967216 0.368767 0.173165
Si Si4 0.333263 0.362330 0.321216
Si Si5 0.875233 0.478302 0.322790
Si Si6 0.549185 0.676643 0.820770
Si Si7 0.577831 0.343832 0.178567
Si Si8 0.790651 0.336454 0.178549
O O1 0.696462 0.548497 0.740144
O O2 0.622751 0.419174 0.781704
O O3 0.729240 0.376676 0.789175
O O4 0.685847 0.470348 0.000000
O O5 0.616673 0.160210 0.500000
O O6 0.533792 0.125213 0.673298
O O7 0.597602 0.251242 0.747494
O O8 0.632610 0.077512 0.756945
O O9 0.934905 0.443514 0.263941
O O10 0.952644 0.276010 0.253223
O O11 0.948859 0.369124 0.000000
O O12 0.336261 0.365312 0.500000
O O13 0.395576 0.364901 0.251206
O O14 0.304318 0.266797 0.280112
O O15 0.873087 0.480192 0.500000
O O16 0.832610 0.405127 0.257936
O O17 0.487357 0.637665 0.783856
O O18 0.554585 0.677242 0.000000
O O19 0.579652 0.332485 0.000000
O O20 0.798698 0.342036 0.000000
#
# Coordination Sequence:
#
# PCOD9445941 Si02
#       8
#     8   8   8   8   8   8   8   8
#     4  10  23  44  67  90 120 160 203 252 309 366
#     4  10  21  35  55  84 122 164 201 245 305 366
#     4  10  19  33  53  82 121 161 201 248 303 361
#     4  11  23  40  64  93 125 160 201 253 306 365
#     4  12  23  34  55  85 118 159 207 254 300 359
#     4  10  19  34  60  91 123 162 205 250 306 366
#     4   9  20  39  61  89 125 162 205 257 309 365
#     4  10  23  43  64  86 119 160 203 254 308 362
#
# _framework density 19.753086
#
# number of rings (size 3 to 8) (size 9 to 14) (size 15 to 20)
#    0.000    1.750    1.250    3.000    0.000    6.500 
#    0.000    3.750    0.000    0.000    0.000    0.000 
#    0.000    0.000    0.000    0.000    0.000    0.000 
#
# Total GULP energy -357427.813817 kJ/mol
# GULP energy per Si atom -5584.809591 kJ/mol
# Density = 1.970813 g / cm^3
# Si number density = 19.753086 Si / 1000 Ang^3
#
#
#
# Elastic Constant Matrix: (Units=GPa)
#
#
# Indices 1 2 3 4 5 6 
#
# 1 67.1024 53.3210 30.2516 0.0000 0.0000 0.0000
# 2 53.3210 117.4857 39.4685 0.0000 0.0000 0.0000
# 3 30.2516 39.4685 73.6138 0.0000 0.0000 0.0000
# 4 0.0000 0.0000 0.0000 31.7165 0.0000 0.0000
# 5 0.0000 0.0000 0.0000 0.0000 16.1742 0.0000
# 6 0.0000 0.0000 0.0000 0.0000 0.0000 26.5273
#
#
#
# Elastic Compliance Matrix: (Units=1/GPa)
#
#
# Indices 1 2 3 4 5 6 
#
# 1 0.024765 -0.009539 -0.005063 0.000000 0.000000 0.000000
# 2 -0.009539 0.014056 -0.003616 0.000000 0.000000 0.000000
# 3 -0.005063 -0.003616 0.017604 0.000000 0.000000 0.000000
# 4 0.000000 0.000000 0.000000 0.031529 0.000000 0.000000
# 5 0.000000 0.000000 0.000000 0.000000 0.061827 0.000000
# 6 0.000000 0.000000 0.000000 0.000000 0.000000 0.037697
#
#
# Mechanical properties :
#
#
# Convention : Reuss Voigt Hill
#
# Bulk Modulus (GPa) = 50.02779 56.03158 53.02969
# Shear Modulus (GPa) = 21.68489 23.89432 22.78961
#
# Velocity S-wave (km/s) = 3.31690 3.48178 3.40034
# Velocity P-wave (km/s) = 6.32856 6.67767 6.50545
#
# Compressibility (1/GPa) = 0.01998889
#
# Stress axis : x y z
#
# Youngs Moduli (GPa) = 40.38009 71.14597 56.80599
#
# Poissons Ratio (x) = 0.67864 0.28760
# Poissons Ratio (y) = 0.38517 0.20542
# Poissons Ratio (z) = 0.20444 0.25727
#
# Static dielectric constant tensor:
#      x y z
#    x 1.729060 0.000000 0.000000 
#    y 0.000000 1.702250 0.000000 
#    z 0.000000 0.000000 1.660010 
# 
# From -- ./inp_files/9952.got.cif
#   From: 2010.05.17/outbox.ucp.g08.bks.cvg/sg58_5_cif.got.tgz:9952.got - 2010.06.11 16:41:41.
