data_PCOD9445395
_publ_section_title
;
Structure prediction by ZEFSAII (Michael W. Deem and Ramdas Pophale) SiO2 
 PCOD9445395
Probable space group: P N N M
;
_chemical_formula_sum "Si O2"
_cell_formula_units_Z 64
_cell_length_a 8.252689
_cell_length_b 15.065334
_cell_length_c 23.332273
_cell_angle_alpha 90.000000
_cell_angle_beta 90.000000
_cell_angle_gamma 90.000000
_cell_volume 2900.890214
_symmetry_space_group_name_H-M "P N N M"
_symmetry_group_IT_number 58
_symmetry_cell_setting 'orthorhombic'
loop_
_space_group_symop_operation_xyz
x,y,z
-x,-y,z
1/2+x,1/2-y,1/2-z
1/2-x,1/2+y,1/2-z
-x,-y,-z
x,y,-z
1/2-x,1/2+y,1/2+z
1/2+x,1/2-y,1/2+z
loop_
_atom_site_type_symbol
_atom_site_label
_atom_site_fract_x
_atom_site_fract_y
_atom_site_fract_z
Si Si1 0.319574 0.034445 0.939855
Si Si2 0.308703 0.502165 0.855682
Si Si3 0.278119 0.674363 0.642223
Si Si4 0.149307 0.883558 0.878586
Si Si5 0.745224 0.608172 0.254493
Si Si6 0.574142 0.781910 0.752866
Si Si7 0.678002 0.154833 0.567564
Si Si8 0.338075 0.188994 0.620749
O O1 0.329344 0.103366 0.889279
O O2 0.500000 0.000000 0.944864
O O3 0.197095 0.954854 0.925550
O O4 0.268480 0.077858 0.000000
O O5 0.500000 0.500000 0.848825
O O6 0.234245 0.464354 0.795441
O O7 0.242020 0.436309 0.904827
O O8 0.269726 0.602426 0.873588
O O9 0.460483 0.640675 0.629799
O O10 0.216853 0.679868 0.707074
O O11 0.254934 0.767252 0.609011
O O12 0.204807 0.925185 0.817906
O O13 0.229794 0.787344 0.892386
O O14 0.598556 0.676094 0.237852
O O15 0.903725 0.670282 0.264135
O O16 0.597387 0.797932 0.685644
O O17 0.714896 0.163357 0.500000
O O18 0.485032 0.164794 0.578338
#
# Coordination Sequence:
#
# PCOD9445395 Si02
#       8
#     8   8   8   8   8   8   8   8
#     4  11  25  44  66  99 140 183 233 289 353 430
#     4  12  27  41  66 102 144 183 239 293 354 407
#     4  11  23  43  71 105 134 183 228 297 360 429
#     4  10  24  41  66  99 135 182 235 279 359 425
#     4  11  23  40  64 100 136 180 219 287 348 429
#     4  11  21  40  68  94 143 170 227 278 358 423
#     4  11  24  48  72  98 138 189 245 291 351 424
#     4  10  24  43  66 101 136 188 229 290 347 423
#
# _framework density 22.062193000000001
#
# number of rings (size 3 to 8) (size 9 to 14) (size 15 to 20)
#    0.000    1.125    2.500    3.375    7.000    5.250 
#    0.000    0.000    0.000    0.000    0.000    0.000 
#    0.000    0.000    0.000    0.000    0.000    0.000 
#
# Total GULP energy -357360.033289 kJ/mol
# GULP energy per Si atom -5583.750520 kJ/mol
# Density = 2.201198 g / cm^3
# Si number density = 22.062193 Si / 1000 Ang^3
#
#
#
# Elastic Constant Matrix: (Units=GPa)
#
#
# Indices 1 2 3 4 5 6 
#
# 1 44.3053 3.2227 6.4198 0.0000 0.0000 0.0000
# 2 3.2227 52.0843 -6.7992 0.0000 0.0000 0.0000
# 3 6.4198 -6.7992 66.6252 0.0000 0.0000 0.0000
# 4 0.0000 0.0000 0.0000 10.1563 0.0000 0.0000
# 5 0.0000 0.0000 0.0000 0.0000 24.2781 0.0000
# 6 0.0000 0.0000 0.0000 0.0000 0.0000 25.0105
#
#
#
# Elastic Compliance Matrix: (Units=1/GPa)
#
#
# Indices 1 2 3 4 5 6 
#
# 1 0.023045 -0.001739 -0.002398 0.000000 0.000000 0.000000
# 2 -0.001739 0.019590 0.002167 0.000000 0.000000 0.000000
# 3 -0.002398 0.002167 0.015462 0.000000 0.000000 0.000000
# 4 0.000000 0.000000 0.000000 0.098461 0.000000 0.000000
# 5 0.000000 0.000000 0.000000 0.000000 0.041189 0.000000
# 6 0.000000 0.000000 0.000000 0.000000 0.000000 0.039983
#
#
# Mechanical properties :
#
#
# Convention : Reuss Voigt Hill
#
# Bulk Modulus (GPa) = 18.46517 18.74459 18.60488
# Shear Modulus (GPa) = 19.25133 22.56708 20.90921
#
# Velocity S-wave (km/s) = 2.95717 3.20173 3.08188
# Velocity P-wave (km/s) = 4.47746 4.70986 4.59513
#
# Compressibility (1/GPa) = 0.05415601
#
# Stress axis : x y z
#
# Youngs Moduli (GPa) = 43.39411 51.04616 64.67665
#
# Poissons Ratio (x) = 0.08876 0.15509
# Poissons Ratio (y) = 0.07546 -0.14014
# Poissons Ratio (z) = 0.10406 -0.11061
#
# Static dielectric constant tensor:
#      x y z
#    x 1.846860 0.000000 0.000000 
#    y 0.000000 1.853350 0.000000 
#    z 0.000000 0.000000 1.774810 
# 
# From -- ./inp_files/31644.got.cif
#   From: 2010.05.17/outbox.cif.g08.bks.cpg/sg58_16_cif.got.tgz:31644.got - 2010.06.03 14:20:14.
