data_PCOD9445419
_publ_section_title
;
Structure prediction by ZEFSAII (Michael W. Deem and Ramdas Pophale) SiO2 
 PCOD9445419
Probable space group: P N N M
;
_chemical_formula_sum "Si O2"
_cell_formula_units_Z 38
_cell_length_a 7.813005
_cell_length_b 13.780480
_cell_length_c 17.460721
_cell_angle_alpha 90.000000
_cell_angle_beta 90.000000
_cell_angle_gamma 90.000000
_cell_volume 1879.942735
_symmetry_space_group_name_H-M "P N N M"
_symmetry_group_IT_number 58
_symmetry_cell_setting 'orthorhombic'
loop_
_space_group_symop_operation_xyz
x,y,z
-x,-y,z
1/2+x,1/2-y,1/2-z
1/2-x,1/2+y,1/2-z
-x,-y,-z
x,y,-z
1/2-x,1/2+y,1/2+z
1/2+x,1/2-y,1/2+z
loop_
_atom_site_type_symbol
_atom_site_label
_atom_site_fract_x
_atom_site_fract_y
_atom_site_fract_z
Si Si1 0.085458 0.663633 0.000000
Si Si2 0.139406 0.783302 0.156773
Si Si3 0.314848 0.627826 0.740531
Si Si4 0.761848 0.046812 0.500000
Si Si5 0.500000 0.500000 0.500000
Si Si6 0.811565 0.521342 0.378997
Si Si7 0.500000 0.500000 0.133234
O O1 0.116430 0.727350 0.923979
O O2 0.199479 0.565794 0.000000
O O3 0.894114 0.620804 0.000000
O O4 0.199847 0.711454 0.223314
O O5 0.280011 0.867322 0.145022
O O6 0.962032 0.830620 0.184926
O O7 0.208547 0.548501 0.694017
O O8 0.402560 0.573785 0.811914
O O9 0.873752 0.057066 0.423738
O O10 0.652267 0.499823 0.434441
O O11 0.000000 0.500000 0.411174
#
# Coordination Sequence:
#
# PCOD9445419 Si02
#       7
#     4   8   8   4   2   8   4
#     4  11  25  43  68 102 139 188 239 302 357 447
#     4  12  25  45  70 109 145 189 252 302 365 452
#     4  12  25  44  73 103 147 188 242 311 361 432
#     4  10  24  44  69  95 139 190 232 294 380 425
#     4  12  22  50  72 100 154 182 248 290 370 456
#     4  12  26  48  74 106 146 197 239 307 373 432
#     4  11  21  46  67  99 144 184 234 303 361 432
#
# _framework density 20.213380999999998
#
# number of rings (size 3 to 8) (size 9 to 14) (size 15 to 20)
#    0.000    0.421    6.316    2.211    2.947    1.684 
#    0.000    0.000    0.000    0.000    0.000    0.000 
#    0.000    0.000    0.000    0.000    0.000    0.000 
#
# Total GULP energy -211967.565883 kJ/mol
# GULP energy per Si atom -5578.093839 kJ/mol
# Density = 2.016737 g / cm^3
# Si number density = 20.213381 Si / 1000 Ang^3
#
#
#
# Elastic Constant Matrix: (Units=GPa)
#
#
# Indices 1 2 3 4 5 6 
#
# 1 129.4512 39.3005 44.3755 0.0000 0.0000 0.0000
# 2 39.3005 108.5437 47.9597 0.0000 0.0000 0.0000
# 3 44.3755 47.9597 121.7804 0.0000 0.0000 0.0000
# 4 0.0000 0.0000 0.0000 92.3485 0.0000 0.0000
# 5 0.0000 0.0000 0.0000 0.0000 0.8566 0.0000
# 6 0.0000 0.0000 0.0000 0.0000 0.0000 24.8316
#
#
#
# Elastic Compliance Matrix: (Units=1/GPa)
#
#
# Indices 1 2 3 4 5 6 
#
# 1 0.009262 -0.002255 -0.002487 0.000000 0.000000 0.000000
# 2 -0.002255 0.011703 -0.003787 0.000000 0.000000 0.000000
# 3 -0.002487 -0.003787 0.010609 0.000000 0.000000 0.000000
# 4 0.000000 0.000000 0.000000 0.010829 0.000000 0.000000
# 5 0.000000 0.000000 0.000000 0.000000 1.167429 0.000000
# 6 0.000000 0.000000 0.000000 0.000000 0.000000 0.040271
#
#
# Mechanical properties :
#
#
# Convention : Reuss Voigt Hill
#
# Bulk Modulus (GPa) = 68.88895 69.22741 69.05818
# Shear Modulus (GPa) = 3.93082 38.81664 21.37373
#
# Velocity S-wave (km/s) = 1.39602 4.38693 3.25530
# Velocity P-wave (km/s) = 6.06246 7.74486 6.95472
#
# Compressibility (1/GPa) = 0.01451612
#
# Stress axis : x y z
#
# Youngs Moduli (GPa) = 107.96860 85.45147 94.25758
#
# Poissons Ratio (x) = 0.19266 0.23442
# Poissons Ratio (y) = 0.24342 0.35697
# Poissons Ratio (z) = 0.26852 0.32362
#
# Static dielectric constant tensor:
#      x y z
#    x 1.723880 0.000000 0.000000 
#    y 0.000000 -0.952050 0.000000 
#    z 0.000000 0.000000 1.678110 
# 
# From -- ./inp_files/25009.got.cif
#   From: 2010.05.17/outbox.cif.g08.bks.cpg/sg58_13_cif.got.tgz:25009.got - 2010.06.03 14:20:14.
