data_PCOD9445963
_publ_section_title
;
Structure prediction by ZEFSAII (Michael W. Deem and Ramdas Pophale) SiO2 
 PCOD9445963
Probable space group: P N N M
;
_chemical_formula_sum "Si O2"
_cell_formula_units_Z 56
_cell_length_a 9.000000
_cell_length_b 15.000000
_cell_length_c 21.000000
_cell_angle_alpha 90.000000
_cell_angle_beta 90.000000
_cell_angle_gamma 90.000000
_cell_volume 2835.000000
_symmetry_space_group_name_H-M "P N N M"
_symmetry_group_IT_number 58
_symmetry_cell_setting 'orthorhombic'
loop_
_space_group_symop_operation_xyz
x,y,z
-x,-y,z
1/2+x,1/2-y,1/2-z
1/2-x,1/2+y,1/2-z
-x,-y,-z
x,y,-z
1/2-x,1/2+y,1/2+z
1/2+x,1/2-y,1/2+z
loop_
_atom_site_type_symbol
_atom_site_label
_atom_site_fract_x
_atom_site_fract_y
_atom_site_fract_z
Si Si1 0.321896 0.005855 0.574222
Si Si2 0.426878 0.095094 0.234580
Si Si3 0.143488 0.677974 0.859577
Si Si4 0.055063 0.232112 0.316872
Si Si5 0.071669 0.193487 0.927183
Si Si6 0.154052 0.826159 0.573766
Si Si7 0.921860 0.905343 0.794182
O O1 0.291572 0.019284 0.500000
O O2 0.273651 0.092117 0.612259
O O3 0.500000 0.000000 0.581516
O O4 0.242802 0.915129 0.593264
O O5 0.457886 0.136547 0.304336
O O6 0.490967 0.169423 0.188549
O O7 0.251741 0.086176 0.223033
O O8 0.500000 0.000000 0.228056
O O9 0.268583 0.737456 0.826682
O O10 0.051978 0.730985 0.912117
O O11 0.977753 0.189279 0.377904
O O12 0.022145 0.171404 0.254648
O O13 0.228863 0.244783 0.923048
O O14 0.060993 0.126130 0.867652
O O15 0.054166 0.159818 0.000000
O O16 0.107215 0.835196 0.500000
O O17 0.000000 0.000000 0.784044
#
# Coordination Sequence:
#
# PCOD9445963 Si02
#       7
#     8   8   8   8   8   8   8
#     4  10  19  34  58  93 127 161 205 247 302 379
#     4  11  25  42  66  93 126 167 210 267 326 380
#     4  11  23  37  62  96 125 164 205 265 313 381
#     4  11  25  43  64  94 130 164 210 261 322 381
#     4  11  22  41  66  91 126 173 217 262 314 373
#     4  10  22  39  64  89 130 175 206 256 317 382
#     4  11  26  42  67  98 127 166 219 267 312 376
#
# _framework density 19.753086
#
# number of rings (size 3 to 8) (size 9 to 14) (size 15 to 20)
#    0.000    1.286    4.286    0.857    6.000    1.429 
#    0.000    1.429    0.000    0.857    0.000    0.000 
#    0.000    0.000    0.000    0.000    0.000    0.000 
#
# Total GULP energy -312688.275121 kJ/mol
# GULP energy per Si atom -5583.719199 kJ/mol
# Density = 1.970813 g / cm^3
# Si number density = 19.753086 Si / 1000 Ang^3
#
#
#
# Elastic Constant Matrix: (Units=GPa)
#
#
# Indices 1 2 3 4 5 6 
#
# 1 37.0307 50.7933 47.0979 0.0000 0.0000 0.0000
# 2 50.7933 85.2504 15.7942 0.0000 0.0000 0.0000
# 3 47.0979 15.7942 82.7959 0.0000 0.0000 0.0000
# 4 0.0000 0.0000 0.0000 18.3886 0.0000 0.0000
# 5 0.0000 0.0000 0.0000 0.0000 26.6828 0.0000
# 6 0.0000 0.0000 0.0000 0.0000 0.0000 30.2007
#
#
#
# Elastic Compliance Matrix: (Units=1/GPa)
#
#
# Indices 1 2 3 4 5 6 
#
# 1 -0.090778 0.046151 0.042835 0.000000 0.000000 0.000000
# 2 0.046151 -0.011303 -0.024096 0.000000 0.000000 0.000000
# 3 0.042835 -0.024096 -0.007692 0.000000 0.000000 0.000000
# 4 0.000000 0.000000 0.000000 0.054382 0.000000 0.000000
# 5 0.000000 0.000000 0.000000 0.000000 0.037477 0.000000
# 6 0.000000 0.000000 0.000000 0.000000 0.000000 0.033112
#
#
# Mechanical properties :
#
#
# Convention : Reuss Voigt Hill
#
# Bulk Modulus (GPa) = 49.98595 48.04976 49.01785
# Shear Modulus (GPa) = -46.33412 21.14719 -12.59347
#
# Velocity S-wave (km/s) = -4.84846 3.27552 -2.52770
# Velocity P-wave (km/s) = 2.44604 6.21959 4.04353
#
# Compressibility (1/GPa) = 0.02000562
#
# Stress axis : x y z
#
# Youngs Moduli (GPa) = -11.01586 -88.47395 -130.00934
#
# Poissons Ratio (x) = 4.08315 5.56893
# Poissons Ratio (y) = 0.50839 -3.13277
# Poissons Ratio (z) = 0.47186 -2.13191
#
# Static dielectric constant tensor:
#      x y z
#    x 1.681950 0.000000 0.000000 
#    y 0.000000 1.705970 0.000000 
#    z 0.000000 0.000000 1.706620 
# 
# From -- ./inp_files/28960.got.cif
#   From: 2010.05.17/outbox.ucp.g08.bks.cvg/sg58_15_cif.got.tgz:28960.got - 2010.06.11 16:41:41.
