data_PCOD9445749
_publ_section_title
;
Structure prediction by ZEFSAII (Michael W. Deem and Ramdas Pophale) SiO2 
 PCOD9445749
Probable space group: P N N M
;
_chemical_formula_sum "Si O2"
_cell_formula_units_Z 64
_cell_length_a 20.751617
_cell_length_b 9.021956
_cell_length_c 19.809890
_cell_angle_alpha 90.000000
_cell_angle_beta 90.000000
_cell_angle_gamma 90.000000
_cell_volume 3708.811082
_symmetry_space_group_name_H-M "P N N M"
_symmetry_group_IT_number 58
_symmetry_cell_setting 'orthorhombic'
loop_
_space_group_symop_operation_xyz
x,y,z
-x,-y,z
1/2+x,1/2-y,1/2-z
1/2-x,1/2+y,1/2-z
-x,-y,-z
x,y,-z
1/2-x,1/2+y,1/2+z
1/2+x,1/2-y,1/2+z
loop_
_atom_site_type_symbol
_atom_site_label
_atom_site_fract_x
_atom_site_fract_y
_atom_site_fract_z
Si Si1 0.112934 0.174932 0.423130
Si Si2 0.309741 0.676021 0.289560
Si Si3 0.573499 0.175047 0.212248
Si Si4 0.768043 0.325695 0.077418
Si Si5 0.768083 0.674367 0.922582
Si Si6 0.690325 0.676095 0.710446
Si Si7 0.573563 0.825129 0.212246
Si Si8 0.112974 0.824877 0.576867
O O1 0.094819 0.214768 0.500000
O O2 0.080955 0.269832 0.364753
O O3 0.190502 0.192135 0.416919
O O4 0.098739 0.999895 0.413716
O O5 0.375040 0.736361 0.256497
O O6 0.302388 0.726997 0.366846
O O7 0.305948 0.499967 0.282689
O O8 0.250051 0.750017 0.249992
O O9 0.499962 0.200071 0.234198
O O10 0.587599 0.000100 0.215960
O O11 0.781502 0.500023 0.089801
O O12 0.802334 0.227040 0.133155
O O13 0.785570 0.291341 0.000000
O O14 0.690544 0.692258 0.916921
O O15 0.785619 0.708701 0.000000
O O16 0.625058 0.736585 0.743527
O O17 0.581016 0.770063 0.135239
O O18 0.094865 0.785022 0.500000
#
# Coordination Sequence:
#
# PCOD9445749 Si02
#       8
#     8   8   8   8   8   8   8   8
#     4   9  18  33  54  80 111 149 188 225 271 329
#     4  12  23  36  58  85 113 146 187 232 279 329
#     4  11  24  39  55  79 112 150 191 233 279 330
#     4   9  18  34  57  85 115 145 180 225 277 331
#     4   9  18  34  57  85 115 145 180 225 277 331
#     4  12  23  36  58  85 113 146 187 232 279 329
#     4  11  24  39  55  79 112 150 191 233 279 330
#     4   9  18  33  54  80 111 149 188 225 271 329
#
# _framework density 17.256202999999999
#
# number of rings (size 3 to 8) (size 9 to 14) (size 15 to 20)
#    0.000    1.750    2.500    4.500    0.000    3.500 
#    0.000    5.000    0.000    0.750    0.000    5.250 
#    0.000    0.000    0.000    0.000    0.000    0.000 
#
# Total GULP energy -357518.749058 kJ/mol
# GULP energy per Si atom -5586.230454 kJ/mol
# Density = 1.721693 g / cm^3
# Si number density = 17.256203 Si / 1000 Ang^3
#
#
#
# Elastic Constant Matrix: (Units=GPa)
#
#
# Indices 1 2 3 4 5 6 
#
# 1 75.7466 73.8623 52.9217 0.0000 0.0000 0.0000
# 2 73.8623 124.3680 74.5392 0.0000 0.0000 0.0000
# 3 52.9217 74.5392 95.2838 0.0000 0.0000 0.0000
# 4 0.0000 0.0000 0.0000 35.5874 0.0000 0.0000
# 5 0.0000 0.0000 0.0000 0.0000 16.9389 0.0000
# 6 0.0000 0.0000 0.0000 0.0000 0.0000 23.7171
#
#
#
# Elastic Compliance Matrix: (Units=1/GPa)
#
#
# Indices 1 2 3 4 5 6 
#
# 1 0.032894 -0.016165 -0.005624 0.000000 0.000000 0.000000
# 2 -0.016165 0.023083 -0.009079 0.000000 0.000000 0.000000
# 3 -0.005624 -0.009079 0.020721 0.000000 0.000000 0.000000
# 4 0.000000 0.000000 0.000000 0.028100 0.000000 0.000000
# 5 0.000000 0.000000 0.000000 0.000000 0.059036 0.000000
# 6 0.000000 0.000000 0.000000 0.000000 0.000000 0.042164
#
#
# Mechanical properties :
#
#
# Convention : Reuss Voigt Hill
#
# Bulk Modulus (GPa) = 66.83797 77.56055 72.19926
# Shear Modulus (GPa) = 18.33378 21.52034 19.92706
#
# Velocity S-wave (km/s) = 3.26305 3.53527 3.40189
# Velocity P-wave (km/s) = 7.28104 7.85546 7.57370
#
# Compressibility (1/GPa) = 0.01496156
#
# Stress axis : x y z
#
# Youngs Moduli (GPa) = 30.40032 43.32272 48.26061
#
# Poissons Ratio (x) = 0.70032 0.27142
# Poissons Ratio (y) = 0.49143 0.43815
# Poissons Ratio (z) = 0.17097 0.39332
#
# Static dielectric constant tensor:
#      x y z
#    x 1.574870 0.000000 0.000000 
#    y 0.000000 1.571970 0.000000 
#    z 0.000000 0.000000 1.588790 
# 
# From -- ./inp_files/25676.got.cif
#   From: 2010.05.17/outbox.cif.g08.bks.cpg/sg58_13_cif.got.tgz:25676.got - 2010.06.03 14:20:14.
