data_PCOD9445871
_publ_section_title
;
Structure prediction by ZEFSAII (Michael W. Deem and Ramdas Pophale) SiO2 
 PCOD9445871
Probable space group: P N N M
;
_chemical_formula_sum "Si O2"
_cell_formula_units_Z 64
_cell_length_a 21.428649
_cell_length_b 20.252758
_cell_length_c 7.454685
_cell_angle_alpha 90.000000
_cell_angle_beta 90.000000
_cell_angle_gamma 90.000000
_cell_volume 3235.253096
_symmetry_space_group_name_H-M "P N N M"
_symmetry_group_IT_number 58
_symmetry_cell_setting 'orthorhombic'
loop_
_space_group_symop_operation_xyz
x,y,z
-x,-y,z
1/2+x,1/2-y,1/2-z
1/2-x,1/2+y,1/2-z
-x,-y,-z
x,y,-z
1/2-x,1/2+y,1/2+z
1/2+x,1/2-y,1/2+z
loop_
_atom_site_type_symbol
_atom_site_label
_atom_site_fract_x
_atom_site_fract_y
_atom_site_fract_z
Si Si1 0.667926 0.508023 0.712875
Si Si2 0.287768 0.825133 0.285027
Si Si3 0.803150 0.523599 0.214981
Si Si4 0.983203 0.197200 0.780321
Si Si5 0.348068 0.341454 0.713140
Si Si6 0.438415 0.962874 0.281004
Si Si7 0.045209 0.060062 0.218604
Si Si8 0.076506 0.309989 0.218811
O O1 0.658412 0.512684 0.500000
O O2 0.739460 0.486576 0.739279
O O3 0.658153 0.583015 0.785232
O O4 0.614657 0.458885 0.780152
O O5 0.290407 0.826310 0.500000
O O6 0.292877 0.901087 0.219603
O O7 0.217539 0.804009 0.240470
O O8 0.352418 0.791715 0.224830
O O9 0.872488 0.504382 0.275566
O O10 0.805354 0.525851 0.000000
O O11 0.911186 0.192862 0.720624
O O12 0.017590 0.129828 0.723657
O O13 0.023795 0.259494 0.719869
O O14 0.983181 0.198809 0.000000
O O15 0.355637 0.347900 0.500000
O O16 0.439599 0.963838 0.500000
O O17 0.436499 0.885782 0.228744
O O18 0.500000 0.000000 0.217952
O O19 0.044914 0.062234 0.000000
O O20 0.000000 0.000000 0.270854
O O21 0.075953 0.309057 0.000000
#
# Coordination Sequence:
#
# PCOD9445871 Si02
#       8
#     8   8   8   8   8   8   8   8
#     4   9  15  23  38  59  81 104 133 164 193 230
#     4   8  14  25  40  57  78 102 131 164 195 233
#     4   8  14  24  39  59  80 102 128 162 200 235
#     4   9  15  23  38  59  80 101 131 169 201 229
#     4   9  15  23  39  62  81 100 130 167 199 229
#     4   8  13  23  41  61  77  97 131 170 203 236
#     4   9  14  22  36  56  80 104 131 164 197 227
#     4   8  14  24  39  59  78  99 132 169 199 232
#
# _framework density 19.782067999999999
#
# number of rings (size 3 to 8) (size 9 to 14) (size 15 to 20)
#    0.000    3.500    1.250    1.500    0.000    0.000 
#    0.000    0.000    2.750    2.250    0.000    0.000 
#    0.000    0.000    0.000    0.000    0.000    0.000 
#
# Total GULP energy -356300.131785 kJ/mol
# GULP energy per Si atom -5567.189559 kJ/mol
# Density = 1.973704 g / cm^3
# Si number density = 19.782068 Si / 1000 Ang^3
#
#
#
# Elastic Constant Matrix: (Units=GPa)
#
#
# Indices 1 2 3 4 5 6 
#
# 1 249.3287 72.6027 4.0759 0.0000 0.0000 0.0000
# 2 72.6027 55.4490 0.9959 0.0000 0.0000 0.0000
# 3 4.0759 0.9959 55.2710 0.0000 0.0000 0.0000
# 4 0.0000 0.0000 0.0000 -4.7037 0.0000 0.0000
# 5 0.0000 0.0000 0.0000 0.0000 17.7892 0.0000
# 6 0.0000 0.0000 0.0000 0.0000 0.0000 28.1427
#
#
#
# Elastic Compliance Matrix: (Units=1/GPa)
#
#
# Indices 1 2 3 4 5 6 
#
# 1 0.006488 -0.008490 -0.000325 0.000000 0.000000 0.000000
# 2 -0.008490 0.029149 0.000101 0.000000 0.000000 0.000000
# 3 -0.000325 0.000101 0.018115 0.000000 0.000000 0.000000
# 4 0.000000 0.000000 0.000000 -0.212599 0.000000 0.000000
# 5 0.000000 0.000000 0.000000 0.000000 0.056214 0.000000
# 6 0.000000 0.000000 0.000000 0.000000 0.000000 0.035533
#
#
# Mechanical properties :
#
#
# Convention : Reuss Voigt Hill
#
# Bulk Modulus (GPa) = 27.53053 57.26639 42.39846
# Shear Modulus (GPa) = -133.10636 27.07059 -53.01788
#
# Velocity S-wave (km/s) = -8.21173 3.70326 -5.18258
# Velocity P-wave (km/s) = 8.71566 6.87728 3.78588
#
# Compressibility (1/GPa) = 0.03632331
#
# Stress axis : x y z
#
# Youngs Moduli (GPa) = 154.12659 34.30696 55.20328
#
# Poissons Ratio (x) = 0.29125 0.01797
# Poissons Ratio (y) = 1.30846 -0.00557
# Poissons Ratio (z) = 0.05017 -0.00346
#
# Static dielectric constant tensor:
#      x y z
#    x 1.750490 0.000000 0.000000 
#    y 0.000000 1.654640 0.000000 
#    z 0.000000 0.000000 1.773410 
# 
# From -- ./inp_files/17200.got.cif
#   From: 2010.05.17/outbox.cif.g08.bks.cpg/sg58_9_cif.got.tgz:17200.got - 2010.06.03 14:20:14.
