data_PCOD9445744
_publ_section_title
;
Structure prediction by ZEFSAII (Michael W. Deem and Ramdas Pophale) SiO2 
 PCOD9445744
Probable space group: P N N M
;
_chemical_formula_sum "Si O2"
_cell_formula_units_Z 34
_cell_length_a 5.285524
_cell_length_b 10.739057
_cell_length_c 23.275702
_cell_angle_alpha 90.000000
_cell_angle_beta 90.000000
_cell_angle_gamma 90.000000
_cell_volume 1321.164772
_symmetry_space_group_name_H-M "P N N M"
_symmetry_group_IT_number 58
_symmetry_cell_setting 'orthorhombic'
loop_
_space_group_symop_operation_xyz
x,y,z
-x,-y,z
1/2+x,1/2-y,1/2-z
1/2-x,1/2+y,1/2-z
-x,-y,-z
x,y,-z
1/2-x,1/2+y,1/2+z
1/2+x,1/2-y,1/2+z
loop_
_atom_site_type_symbol
_atom_site_label
_atom_site_fract_x
_atom_site_fract_y
_atom_site_fract_z
Si Si1 0.176417 0.840759 0.563002
Si Si2 0.833525 0.184063 0.914171
Si Si3 0.500000 0.500000 0.500000
Si Si4 0.907798 0.633256 0.305442
Si Si5 0.690065 0.607749 0.813920
O O1 0.189925 0.900908 0.500000
O O2 0.400290 0.739323 0.564771
O O3 0.241651 0.922590 0.619338
O O4 0.901211 0.775699 0.570404
O O5 0.834126 0.163248 0.845472
O O6 0.813903 0.058436 0.949742
O O7 0.887954 0.619912 0.237059
O O8 0.000000 0.500000 0.327339
O O9 0.075866 0.754105 0.315849
O O10 0.500000 0.500000 0.793432
#
# Coordination Sequence:
#
# PCOD9445744 Si02
#       5
#     8   8   2   8   8
#     4  11  23  47  66 102 141 190 236 294 355 424
#     4  11  26  40  71 104 147 184 236 296 359 427
#     4  12  24  38  72 106 150 186 238 290 366 438
#     4  11  25  45  73 108 146 189 243 301 364 428
#     4  11  25  44  71 103 145 190 243 298 360 431
#
# _framework density 25.734867000000001
#
# number of rings (size 3 to 8) (size 9 to 14) (size 15 to 20)
#    0.000    0.941    2.353    2.824    8.235    3.294 
#    0.000    0.000    0.000    7.765    0.000    0.000 
#    0.000    0.000    0.000    0.000    0.000    0.000 
#
# Total GULP energy -189455.951966 kJ/mol
# GULP energy per Si atom -5572.233881 kJ/mol
# Density = 2.567629 g / cm^3
# Si number density = 25.734867 Si / 1000 Ang^3
#
#
#
# Elastic Constant Matrix: (Units=GPa)
#
#
# Indices 1 2 3 4 5 6 
#
# 1 80.7465 45.5110 14.7773 0.0000 0.0000 0.0000
# 2 45.5110 96.6038 2.9295 0.0000 0.0000 0.0000
# 3 14.7773 2.9295 198.9109 0.0000 0.0000 0.0000
# 4 0.0000 0.0000 0.0000 -155.1637 0.0000 0.0000
# 5 0.0000 0.0000 0.0000 0.0000 30.6125 0.0000
# 6 0.0000 0.0000 0.0000 0.0000 0.0000 38.0383
#
#
#
# Elastic Compliance Matrix: (Units=1/GPa)
#
#
# Indices 1 2 3 4 5 6 
#
# 1 0.017122 -0.008032 -0.001154 0.000000 0.000000 0.000000
# 2 -0.008032 0.014124 0.000389 0.000000 0.000000 0.000000
# 3 -0.001154 0.000389 0.005107 0.000000 0.000000 0.000000
# 4 0.000000 0.000000 0.000000 -0.006445 0.000000 0.000000
# 5 0.000000 0.000000 0.000000 0.000000 0.032666 0.000000
# 6 0.000000 0.000000 0.000000 0.000000 0.000000 0.026289
#
#
# Mechanical properties :
#
#
# Convention : Reuss Voigt Hill
#
# Bulk Modulus (GPa) = 53.30489 55.85521 54.58005
# Shear Modulus (GPa) = 44.36138 3.56699 23.96418
#
# Velocity S-wave (km/s) = 4.15635 1.17859 3.05486
# Velocity P-wave (km/s) = 6.61753 4.85832 5.80496
#
# Compressibility (1/GPa) = 0.01876001
#
# Stress axis : x y z
#
# Youngs Moduli (GPa) = 58.40313 70.80395 195.79563
#
# Poissons Ratio (x) = 0.56866 0.22590
# Poissons Ratio (y) = 0.46907 -0.07610
# Poissons Ratio (z) = 0.06738 -0.02752
#
# Static dielectric constant tensor:
#      x y z
#    x 2.067170 0.000000 0.000000 
#    y 0.000000 1.488260 0.000000 
#    z 0.000000 0.000000 2.045510 
# 
# From -- ./inp_files/30837.got.cif
#   From: 2010.05.17/outbox.cif.g08.bks.cpg/sg58_16_cif.got.tgz:30837.got - 2010.06.03 14:20:14.
