data_PCOD9445618
_publ_section_title
;
Structure prediction by ZEFSAII (Michael W. Deem and Ramdas Pophale) SiO2 
 PCOD9445618
Probable space group: P N N M
;
_chemical_formula_sum "Si O2"
_cell_formula_units_Z 56
_cell_length_a 14.713586
_cell_length_b 21.086653
_cell_length_c 8.601764
_cell_angle_alpha 90.000000
_cell_angle_beta 90.000000
_cell_angle_gamma 90.000000
_cell_volume 2668.785727
_symmetry_space_group_name_H-M "P N N M"
_symmetry_group_IT_number 58
_symmetry_cell_setting 'orthorhombic'
loop_
_space_group_symop_operation_xyz
x,y,z
-x,-y,z
1/2+x,1/2-y,1/2-z
1/2-x,1/2+y,1/2-z
-x,-y,-z
x,y,-z
1/2-x,1/2+y,1/2+z
1/2+x,1/2-y,1/2+z
loop_
_atom_site_type_symbol
_atom_site_label
_atom_site_fract_x
_atom_site_fract_y
_atom_site_fract_z
Si Si1 0.504773 0.769416 0.679416
Si Si2 0.231311 0.522002 0.814804
Si Si3 0.072974 0.056835 0.178240
Si Si4 0.763104 0.104112 0.817180
Si Si5 0.305718 0.751829 0.183657
Si Si6 0.659469 0.849437 0.816233
Si Si7 0.439881 0.351936 0.176723
O O1 0.499152 0.787101 0.500000
O O2 0.406362 0.751255 0.744883
O O3 0.560604 0.821641 0.773973
O O4 0.563510 0.705654 0.703030
O O5 0.329724 0.535711 0.738490
O O6 0.202340 0.454020 0.743782
O O7 0.173255 0.583091 0.766333
O O8 0.237558 0.517648 0.000000
O O9 0.031261 0.109694 0.290293
O O10 0.079676 0.080358 0.000000
O O11 0.000000 0.000000 0.178290
O O12 0.724621 0.174817 0.796099
O O13 0.854912 0.103786 0.715805
O O14 0.783306 0.094513 0.000000
O O15 0.236130 0.701343 0.259026
O O16 0.309211 0.738147 0.000000
O O17 0.669439 0.856917 0.000000
O O18 0.435575 0.328703 0.000000
#
# Coordination Sequence:
#
# PCOD9445618 Si02
#       7
#     8   8   8   8   8   8   8
#     4  12  25  43  67  96 131 169 218 272 326 386
#     4  12  25  41  63  92 131 171 216 268 328 391
#     4  11  22  36  57  85 124 166 209 256 317 385
#     4  11  23  41  65  93 129 169 213 263 322 385
#     4  11  24  44  70  99 133 172 219 271 329 391
#     4  12  25  44  69  97 133 173 220 272 331 390
#     4  12  23  37  61  91 126 165 211 261 322 386
#
# _framework density 20.983326000000002
#
# number of rings (size 3 to 8) (size 9 to 14) (size 15 to 20)
#    0.000    0.429    2.857    7.286    0.000    2.286 
#    0.000    0.714    0.000    4.286    0.000    0.000 
#    0.000    0.000    0.000    0.000    0.000    0.000 
#
# Total GULP energy -313281.570990 kJ/mol
# GULP energy per Si atom -5594.313768 kJ/mol
# Density = 2.093557 g / cm^3
# Si number density = 20.983326 Si / 1000 Ang^3
#
#
#
# Elastic Constant Matrix: (Units=GPa)
#
#
# Indices 1 2 3 4 5 6 
#
# 1 42.0644 -3.3251 11.3527 0.0000 0.0000 0.0000
# 2 -3.3251 72.0920 20.1258 0.0000 0.0000 0.0000
# 3 11.3527 20.1258 115.6714 0.0000 0.0000 0.0000
# 4 0.0000 0.0000 0.0000 32.8884 0.0000 0.0000
# 5 0.0000 0.0000 0.0000 0.0000 16.4832 0.0000
# 6 0.0000 0.0000 0.0000 0.0000 0.0000 25.6381
#
#
#
# Elastic Compliance Matrix: (Units=1/GPa)
#
#
# Indices 1 2 3 4 5 6 
#
# 1 0.024667 0.001906 -0.002753 0.000000 0.000000 0.000000
# 2 0.001906 0.014727 -0.002749 0.000000 0.000000 0.000000
# 3 -0.002753 -0.002749 0.009394 0.000000 0.000000 0.000000
# 4 0.000000 0.000000 0.000000 0.030406 0.000000 0.000000
# 5 0.000000 0.000000 0.000000 0.000000 0.060668 0.000000
# 6 0.000000 0.000000 0.000000 0.000000 0.000000 0.039004
#
#
# Mechanical properties :
#
#
# Convention : Reuss Voigt Hill
#
# Bulk Modulus (GPa) = 24.04117 31.79272 27.91695
# Shear Modulus (GPa) = 25.00976 28.44690 26.72833
#
# Velocity S-wave (km/s) = 3.45612 3.68597 3.57289
# Velocity P-wave (km/s) = 5.23531 5.77057 5.50944
#
# Compressibility (1/GPa) = 0.04159531
#
# Stress axis : x y z
#
# Youngs Moduli (GPa) = 40.54058 67.90424 106.45424
#
# Poissons Ratio (x) = -0.12944 0.29303
# Poissons Ratio (y) = -0.07728 0.29268
# Poissons Ratio (z) = 0.11159 0.18669
#
# Static dielectric constant tensor:
#      x y z
#    x 1.755410 0.000000 0.000000 
#    y 0.000000 1.806090 0.000000 
#    z 0.000000 0.000000 1.694890 
# 
# From -- ./inp_files/6436.got.cif
#   From: 2010.05.17/outbox.cif.g08.bks.cpg/sg58_4_cif.got.tgz:6436.got - 2010.06.03 14:20:14.
