data_PCOD9445117
_publ_section_title
;
Structure prediction by ZEFSAII (Michael W. Deem and Ramdas Pophale) SiO2 
 PCOD9445117
Probable space group: P N N M
;
_chemical_formula_sum "Si O2"
_cell_formula_units_Z 58
_cell_length_a 18.750277
_cell_length_b 19.397725
_cell_length_c 7.570274
_cell_angle_alpha 90.000000
_cell_angle_beta 90.000000
_cell_angle_gamma 90.000000
_cell_volume 2753.404924
_symmetry_space_group_name_H-M "P N N M"
_symmetry_group_IT_number 58
_symmetry_cell_setting 'orthorhombic'
loop_
_space_group_symop_operation_xyz
x,y,z
-x,-y,z
1/2+x,1/2-y,1/2-z
1/2-x,1/2+y,1/2-z
-x,-y,-z
x,y,-z
1/2-x,1/2+y,1/2+z
1/2+x,1/2-y,1/2+z
loop_
_atom_site_type_symbol
_atom_site_label
_atom_site_fract_x
_atom_site_fract_y
_atom_site_fract_z
Si Si1 0.772342 0.022412 0.298132
Si Si2 0.651746 0.388675 0.705032
Si Si3 0.392857 0.973900 0.285061
Si Si4 0.260953 0.737787 0.286667
Si Si5 0.147081 0.842178 0.204059
Si Si6 0.010788 0.183959 0.783508
Si Si7 0.500000 0.000000 0.000000
Si Si8 0.904735 0.683432 0.786393
O O1 0.769774 0.000553 0.500000
O O2 0.690705 0.019870 0.236902
O O3 0.804118 0.098902 0.288693
O O4 0.825007 0.967215 0.212801
O O5 0.646581 0.368823 0.500000
O O6 0.713656 0.337743 0.774893
O O7 0.573988 0.367708 0.775972
O O8 0.401114 0.982583 0.500000
O O9 0.414458 0.895178 0.232302
O O10 0.441485 0.019150 0.158459
O O11 0.254587 0.739339 0.500000
O O12 0.188614 0.769970 0.215570
O O13 0.327173 0.787341 0.234348
O O14 0.067651 0.835817 0.279397
O O15 0.141235 0.862674 0.000000
O O16 0.037110 0.260306 0.729816
O O17 0.007087 0.183983 0.000000
O O18 0.904565 0.682968 0.000000
#
# Coordination Sequence:
#
# PCOD9445117 Si02
#       8
#     8   8   8   8   8   8   2   8
#     4  11  23  39  60  84 121 162 203 243 302 366
#     4   9  19  37  61  83 115 158 202 250 303 366
#     4  10  22  41  63  89 120 165 204 252 305 364
#     4   9  17  34  58  84 110 147 194 248 304 360
#     4  11  21  33  57  89 118 148 201 257 297 362
#     4   8  17  34  56  86 115 151 196 250 313 364
#     4  12  26  40  64  86 128 150 210 250 300 368
#     4   8  14  33  62  79 106 151 197 239 303 366
#
# _framework density 21.064829
#
# number of rings (size 3 to 8) (size 9 to 14) (size 15 to 20)
#    0.000    2.483    1.379    2.690    1.931    1.103 
#    2.483    4.138    3.034    0.000    0.000    0.000 
#    0.000    0.000    0.000    0.000    0.000    0.000 
#
# Total GULP energy -322891.070381 kJ/mol
# GULP energy per Si atom -5567.087420 kJ/mol
# Density = 2.101688 g / cm^3
# Si number density = 21.064829 Si / 1000 Ang^3
#
#
#
# Elastic Constant Matrix: (Units=GPa)
#
#
# Indices 1 2 3 4 5 6 
#
# 1 142.9092 20.4403 15.1686 0.0000 0.0000 0.0000
# 2 20.4403 27.5545 -3.2365 0.0000 0.0000 0.0000
# 3 15.1686 -3.2365 59.9359 0.0000 0.0000 0.0000
# 4 0.0000 0.0000 0.0000 12.2249 0.0000 0.0000
# 5 0.0000 0.0000 0.0000 0.0000 4.4357 0.0000
# 6 0.0000 0.0000 0.0000 0.0000 0.0000 11.5982
#
#
#
# Elastic Compliance Matrix: (Units=1/GPa)
#
#
# Indices 1 2 3 4 5 6 
#
# 1 0.008159 -0.006335 -0.002407 0.000000 0.000000 0.000000
# 2 -0.006335 0.041442 0.003841 0.000000 0.000000 0.000000
# 3 -0.002407 0.003841 0.017501 0.000000 0.000000 0.000000
# 4 0.000000 0.000000 0.000000 0.081800 0.000000 0.000000
# 5 0.000000 0.000000 0.000000 0.000000 0.225441 0.000000
# 6 0.000000 0.000000 0.000000 0.000000 0.000000 0.086221
#
#
# Mechanical properties :
#
#
# Convention : Reuss Voigt Hill
#
# Bulk Modulus (GPa) = 17.45184 32.79382 25.12283
# Shear Modulus (GPa) = 10.21519 18.85358 14.53439
#
# Velocity S-wave (km/s) = 2.20453 2.99494 2.62960
# Velocity P-wave (km/s) = 3.84483 5.24990 4.60131
#
# Compressibility (1/GPa) = 0.05730056
#
# Stress axis : x y z
#
# Youngs Moduli (GPa) = 122.56320 24.12986 57.13935
#
# Poissons Ratio (x) = 0.15287 0.13753
# Poissons Ratio (y) = 0.77646 -0.21948
# Poissons Ratio (z) = 0.29501 -0.09269
#
# Static dielectric constant tensor:
#      x y z
#    x 1.783520 0.000000 0.000000 
#    y 0.000000 1.768460 0.000000 
#    z 0.000000 0.000000 1.803160 
# 
# From -- ./inp_files/7993.got.cif
#   From: 2010.05.17/outbox.cif.g08.bks.cpg/sg58_4_cif.got.tgz:7993.got - 2010.06.03 14:20:14.
