data_PCOD9445060
_publ_section_title
;
Structure prediction by ZEFSAII (Michael W. Deem and Ramdas Pophale) SiO2 
 PCOD9445060
Probable space group: P N N M
;
_chemical_formula_sum "Si O2"
_cell_formula_units_Z 48
_cell_length_a 5.562427
_cell_length_b 20.477381
_cell_length_c 19.681398
_cell_angle_alpha 90.000000
_cell_angle_beta 90.000000
_cell_angle_gamma 90.000000
_cell_volume 2241.788717
_symmetry_space_group_name_H-M "P N N M"
_symmetry_group_IT_number 58
_symmetry_cell_setting 'orthorhombic'
loop_
_space_group_symop_operation_xyz
x,y,z
-x,-y,z
1/2+x,1/2-y,1/2-z
1/2-x,1/2+y,1/2-z
-x,-y,-z
x,y,-z
1/2-x,1/2+y,1/2+z
1/2+x,1/2-y,1/2+z
loop_
_atom_site_type_symbol
_atom_site_label
_atom_site_fract_x
_atom_site_fract_y
_atom_site_fract_z
Si Si1 0.239986 0.774757 0.577190
Si Si2 0.005580 0.858026 0.925716
Si Si3 0.145143 0.301880 0.668406
Si Si4 0.439579 0.171637 0.688501
Si Si5 0.747750 0.464657 0.799339
Si Si6 0.752699 0.466862 0.364721
O O1 0.175591 0.796086 0.500000
O O2 0.439180 0.718049 0.569195
O O3 0.360197 0.825959 0.629119
O O4 0.029438 0.737295 0.617406
O O5 0.776216 0.895606 0.897020
O O6 0.214893 0.858504 0.871125
O O7 0.073528 0.882160 0.000000
O O8 0.318760 0.243005 0.692420
O O9 0.044386 0.334980 0.736002
O O10 0.263486 0.110709 0.676992
O O11 0.500000 0.500000 0.821190
O O12 0.746373 0.464642 0.716960
O O13 0.000000 0.500000 0.819531
O O14 0.500000 0.500000 0.386967
O O15 0.000000 0.500000 0.386583
#
# Coordination Sequence:
#
# PCOD9445060 Si02
#       6
#     8   8   8   8   8   8
#     4  10  22  40  62  93 131 167 208 275 350 408
#     4  10  23  39  59  87 129 176 221 271 336 399
#     4  11  22  37  64  99 126 169 216 284 337 406
#     4  11  23  37  66  97 128 164 224 272 338 402
#     4  10  24  40  64  94 128 171 218 279 335 392
#     4  10  23  39  59  89 126 176 230 280 322 378
#
# _framework density 21.411473000000001
#
# number of rings (size 3 to 8) (size 9 to 14) (size 15 to 20)
#    0.000    1.667    1.667    1.500   14.000    1.333 
#    0.000    0.000    0.000    1.000    0.000    0.000 
#    0.000    0.000    0.000    0.000    0.000    0.000 
#
# Total GULP energy -267907.907056 kJ/mol
# GULP energy per Si atom -5581.414730 kJ/mol
# Density = 2.136274 g / cm^3
# Si number density = 21.411473 Si / 1000 Ang^3
#
#
#
# Elastic Constant Matrix: (Units=GPa)
#
#
# Indices 1 2 3 4 5 6 
#
# 1 111.9284 47.1493 59.3525 0.0000 0.0000 0.0000
# 2 47.1493 66.0203 1.8532 0.0000 0.0000 0.0000
# 3 59.3525 1.8532 108.9843 0.0000 0.0000 0.0000
# 4 0.0000 0.0000 0.0000 7.2092 0.0000 0.0000
# 5 0.0000 0.0000 0.0000 0.0000 -3.9165 0.0000
# 6 0.0000 0.0000 0.0000 0.0000 0.0000 42.0073
#
#
#
# Elastic Compliance Matrix: (Units=1/GPa)
#
#
# Indices 1 2 3 4 5 6 
#
# 1 0.021122 -0.014769 -0.011252 0.000000 0.000000 0.000000
# 2 -0.014769 0.025481 0.007610 0.000000 0.000000 0.000000
# 3 -0.011252 0.007610 0.015174 0.000000 0.000000 0.000000
# 4 0.000000 0.000000 0.000000 0.138711 0.000000 0.000000
# 5 0.000000 0.000000 0.000000 0.000000 -0.255332 0.000000
# 6 0.000000 0.000000 0.000000 0.000000 0.000000 0.023805
#
#
# Mechanical properties :
#
#
# Convention : Reuss Voigt Hill
#
# Bulk Modulus (GPa) = 40.07246 55.96032 48.01639
# Shear Modulus (GPa) = 354.57972 20.96521 187.77247
#
# Velocity S-wave (km/s) = 12.88263 3.13254 9.37483
# Velocity P-wave (km/s) = 15.49319 6.26707 11.81768
#
# Compressibility (1/GPa) = 0.02495479
#
# Stress axis : x y z
#
# Youngs Moduli (GPa) = 47.34370 39.24556 65.90228
#
# Poissons Ratio (x) = 0.57961 0.74153
# Poissons Ratio (y) = 0.69921 -0.50150
# Poissons Ratio (z) = 0.53271 -0.29865
#
# Static dielectric constant tensor:
#      x y z
#    x 1.851010 0.000000 0.000000 
#    y 0.000000 1.839380 0.000000 
#    z 0.000000 0.000000 1.780730 
# 
# From -- ./inp_files/28144.got.cif
#   From: 2010.05.17/outbox.cif.g08.bks.cpg/sg58_15_cif.got.tgz:28144.got - 2010.06.03 14:20:14.
