data_PCOD9445075
_publ_section_title
;
Structure prediction by ZEFSAII (Michael W. Deem and Ramdas Pophale) SiO2 
 PCOD9445075
Probable space group: P N N M
;
_chemical_formula_sum "Si O2"
_cell_formula_units_Z 48
_cell_length_a 9.211296
_cell_length_b 8.269969
_cell_length_c 27.866462
_cell_angle_alpha 90.000000
_cell_angle_beta 90.000000
_cell_angle_gamma 90.000000
_cell_volume 2122.787164
_symmetry_space_group_name_H-M "P N N M"
_symmetry_group_IT_number 58
_symmetry_cell_setting 'orthorhombic'
loop_
_space_group_symop_operation_xyz
x,y,z
-x,-y,z
1/2+x,1/2-y,1/2-z
1/2-x,1/2+y,1/2-z
-x,-y,-z
x,y,-z
1/2-x,1/2+y,1/2+z
1/2+x,1/2-y,1/2+z
loop_
_atom_site_type_symbol
_atom_site_label
_atom_site_fract_x
_atom_site_fract_y
_atom_site_fract_z
Si Si1 0.257734 0.713443 0.392886
Si Si2 0.110715 0.772769 0.700038
Si Si3 0.281775 0.642151 0.213395
Si Si4 0.481008 0.331131 0.943725
Si Si5 0.260341 0.369751 0.442548
Si Si6 0.448574 0.309578 0.358902
O O1 0.130410 0.709842 0.353802
O O2 0.280846 0.542013 0.417500
O O3 0.395635 0.775016 0.363810
O O4 0.189222 0.807541 0.436838
O O5 0.203974 0.660979 0.735411
O O6 0.941053 0.775855 0.713440
O O7 0.178165 0.954838 0.702844
O O8 0.168590 0.735019 0.177721
O O9 0.500000 0.500000 0.916899
O O10 0.600527 0.198312 0.930134
O O11 0.511372 0.344445 0.000000
O O12 0.279765 0.374184 0.500000
O O13 0.380784 0.277330 0.411820
O O14 0.500000 0.500000 0.348078
#
# Coordination Sequence:
#
# PCOD9445075 Si02
#       6
#     8   8   8   8   8   8
#     4  11  23  39  65  99 128 175 228 277 344 412
#     4  11  27  45  72 102 135 181 227 288 353 415
#     4  11  26  48  71  99 140 178 232 285 350 423
#     4  10  22  40  63  95 136 179 229 285 345 409
#     4  10  22  42  68  97 136 183 232 289 347 416
#     4  10  24  42  68  99 137 177 228 284 344 416
#
# _framework density 22.611781000000001
#
# number of rings (size 3 to 8) (size 9 to 14) (size 15 to 20)
#    0.000    1.500    0.000    3.000   11.667    9.000 
#    0.000    0.000    0.000    3.000    0.000    0.000 
#    0.000    0.000    0.000    0.000    0.000    0.000 
#
# Total GULP energy -267350.052079 kJ/mol
# GULP energy per Si atom -5569.792752 kJ/mol
# Density = 2.256032 g / cm^3
# Si number density = 22.611781 Si / 1000 Ang^3
#
#
#
# Elastic Constant Matrix: (Units=GPa)
#
#
# Indices 1 2 3 4 5 6 
#
# 1 123.0826 22.4183 6.9699 0.0000 0.0000 0.0000
# 2 22.4183 14.8555 1.9773 0.0000 0.0000 0.0000
# 3 6.9699 1.9773 70.6493 0.0000 0.0000 0.0000
# 4 0.0000 0.0000 0.0000 17.1418 0.0000 0.0000
# 5 0.0000 0.0000 0.0000 0.0000 49.2862 0.0000
# 6 0.0000 0.0000 0.0000 0.0000 0.0000 27.4683
#
#
#
# Elastic Compliance Matrix: (Units=1/GPa)
#
#
# Indices 1 2 3 4 5 6 
#
# 1 0.011233 -0.016866 -0.000636 0.000000 0.000000 0.000000
# 2 -0.016866 0.092892 -0.000936 0.000000 0.000000 0.000000
# 3 -0.000636 -0.000936 0.014243 0.000000 0.000000 0.000000
# 4 0.000000 0.000000 0.000000 0.058337 0.000000 0.000000
# 5 0.000000 0.000000 0.000000 0.000000 0.020290 0.000000
# 6 0.000000 0.000000 0.000000 0.000000 0.000000 0.036406
#
#
# Mechanical properties :
#
#
# Convention : Reuss Voigt Hill
#
# Bulk Modulus (GPa) = 12.27120 30.14649 21.20884
# Shear Modulus (GPa) = 16.81004 30.59405 23.70205
#
# Velocity S-wave (km/s) = 2.72953 3.68232 3.24113
# Velocity P-wave (km/s) = 3.92077 5.60718 4.83802
#
# Compressibility (1/GPa) = 0.08149164
#
# Stress axis : x y z
#
# Youngs Moduli (GPa) = 89.02577 10.76514 70.20811
#
# Poissons Ratio (x) = 0.18157 0.04466
# Poissons Ratio (y) = 1.50155 0.06571
# Poissons Ratio (z) = 0.05663 0.01007
#
# Static dielectric constant tensor:
#      x y z
#    x 1.595640 0.000000 0.000000 
#    y 0.000000 1.811670 0.000000 
#    z 0.000000 0.000000 1.873430 
# 
# From -- ./inp_files/34594.got.cif
#   From: 2010.05.17/outbox.cif.g08.bks.cpg/sg58_18_cif.got.tgz:34594.got - 2010.06.03 14:20:14.
