data_PCOD9445606
_publ_section_title
;
Structure prediction by ZEFSAII (Michael W. Deem and Ramdas Pophale) SiO2 
 PCOD9445606
Probable space group: P N N M
;
_chemical_formula_sum "Si O2"
_cell_formula_units_Z 54
_cell_length_a 11.720919
_cell_length_b 13.526231
_cell_length_c 14.500775
_cell_angle_alpha 90.000000
_cell_angle_beta 90.000000
_cell_angle_gamma 90.000000
_cell_volume 2298.950808
_symmetry_space_group_name_H-M "P N N M"
_symmetry_group_IT_number 58
_symmetry_cell_setting 'orthorhombic'
loop_
_space_group_symop_operation_xyz
x,y,z
-x,-y,z
1/2+x,1/2-y,1/2-z
1/2-x,1/2+y,1/2-z
-x,-y,-z
x,y,-z
1/2-x,1/2+y,1/2+z
1/2+x,1/2-y,1/2+z
loop_
_atom_site_type_symbol
_atom_site_label
_atom_site_fract_x
_atom_site_fract_y
_atom_site_fract_z
Si Si1 0.808176 0.121258 0.500000
Si Si2 0.298117 0.692075 0.756858
Si Si3 0.805591 0.481825 0.651006
Si Si4 0.414354 0.412851 0.636208
Si Si5 0.139151 0.401292 0.167661
Si Si6 0.500000 0.000000 0.000000
Si Si7 0.089728 0.691396 0.897433
Si Si8 0.524604 0.608527 0.845860
O O1 0.722870 0.079124 0.417863
O O2 0.896418 0.162125 0.581263
O O3 0.269647 0.614142 0.676218
O O4 0.323806 0.797200 0.713273
O O5 0.189804 0.692467 0.823470
O O6 0.407061 0.659399 0.817194
O O7 0.714965 0.561083 0.610331
O O8 0.850704 0.521458 0.749439
O O9 0.907491 0.467228 0.580801
O O10 0.500000 0.500000 0.608151
O O11 0.453455 0.305526 0.603533
O O12 0.414844 0.410758 0.748025
O O13 0.012402 0.380521 0.130431
O O14 0.131060 0.667989 0.000000
O O15 0.500000 0.500000 0.888282
#
# Coordination Sequence:
#
# PCOD9445606 Si02
#       8
#     4   8   8   8   8   2   8   8
#     4  12  23  41  71 116 139 197 242 303 374 459
#     4  12  25  47  75 105 150 199 242 321 378 432
#     4  12  25  52  73 106 151 193 248 312 373 445
#     4  11  21  45  75 101 140 193 236 313 369 420
#     4  12  25  47  73 102 156 197 243 310 375 446
#     4  12  32  50  76 112 142 210 258 296 380 476
#     4  12  26  44  66 108 145 192 251 290 370 453
#     4  11  21  42  74 108 141 181 247 305 371 439
#
# _framework density 23.488975
#
# number of rings (size 3 to 8) (size 9 to 14) (size 15 to 20)
#    0.000    0.296    8.148    1.111    2.074    0.889 
#    6.667    0.741    0.000    0.000    0.000    0.000 
#    0.000    0.000    0.000    0.000    0.000    0.000 
#
# Total GULP energy -300883.534410 kJ/mol
# GULP energy per Si atom -5571.917304 kJ/mol
# Density = 2.343551 g / cm^3
# Si number density = 23.488975 Si / 1000 Ang^3
#
#
#
# Elastic Constant Matrix: (Units=GPa)
#
#
# Indices 1 2 3 4 5 6 
#
# 1 80.1074 -12.4541 35.6719 0.0000 0.0000 0.0000
# 2 -12.4541 78.0184 14.0132 0.0000 0.0000 0.0000
# 3 35.6719 14.0132 159.2766 0.0000 0.0000 0.0000
# 4 0.0000 0.0000 0.0000 13.0076 0.0000 0.0000
# 5 0.0000 0.0000 0.0000 0.0000 64.9878 0.0000
# 6 0.0000 0.0000 0.0000 0.0000 0.0000 23.9014
#
#
#
# Elastic Compliance Matrix: (Units=1/GPa)
#
#
# Indices 1 2 3 4 5 6 
#
# 1 0.014503 0.002945 -0.003507 0.000000 0.000000 0.000000
# 2 0.002945 0.013621 -0.001858 0.000000 0.000000 0.000000
# 3 -0.003507 -0.001858 0.007227 0.000000 0.000000 0.000000
# 4 0.000000 0.000000 0.000000 0.076878 0.000000 0.000000
# 5 0.000000 0.000000 0.000000 0.000000 0.015388 0.000000
# 6 0.000000 0.000000 0.000000 0.000000 0.000000 0.041839
#
#
# Mechanical properties :
#
#
# Convention : Reuss Voigt Hill
#
# Bulk Modulus (GPa) = 32.77481 43.54049 38.15765
# Shear Modulus (GPa) = 27.10519 39.05744 33.08132
#
# Velocity S-wave (km/s) = 3.40067 4.08217 3.75691
# Velocity P-wave (km/s) = 5.42245 6.38714 5.92447
#
# Compressibility (1/GPa) = 0.03051124
#
# Stress axis : x y z
#
# Youngs Moduli (GPa) = 68.95190 73.41427 138.36368
#
# Poissons Ratio (x) = -0.21621 0.48527
# Poissons Ratio (y) = -0.20307 0.25708
# Poissons Ratio (z) = 0.24183 0.13640
#
# Static dielectric constant tensor:
#      x y z
#    x 1.919610 0.000000 0.000000 
#    y 0.000000 1.980360 0.000000 
#    z 0.000000 0.000000 1.806660 
# 
# From -- ./inp_files/21313.got.cif
#   From: 2010.05.17/outbox.cif.g08.bks.cpg/sg58_11_cif.got.tgz:21313.got - 2010.06.03 14:20:14.
