data_PCOD9445378
_publ_section_title
;
Structure prediction by ZEFSAII (Michael W. Deem and Ramdas Pophale) SiO2 
 PCOD9445378
Probable space group: P N N M
;
_chemical_formula_sum "Si O2"
_cell_formula_units_Z 40
_cell_length_a 8.533552
_cell_length_b 11.542061
_cell_length_c 21.837806
_cell_angle_alpha 90.000000
_cell_angle_beta 90.000000
_cell_angle_gamma 90.000000
_cell_volume 2150.909848
_symmetry_space_group_name_H-M "P N N M"
_symmetry_group_IT_number 58
_symmetry_cell_setting 'orthorhombic'
loop_
_space_group_symop_operation_xyz
x,y,z
-x,-y,z
1/2+x,1/2-y,1/2-z
1/2-x,1/2+y,1/2-z
-x,-y,-z
x,y,-z
1/2-x,1/2+y,1/2+z
1/2+x,1/2-y,1/2+z
loop_
_atom_site_type_symbol
_atom_site_label
_atom_site_fract_x
_atom_site_fract_y
_atom_site_fract_z
Si Si1 0.183609 0.769293 0.688367
Si Si2 0.606716 0.107577 0.786627
Si Si3 0.329476 0.542586 0.637045
Si Si4 0.753365 0.459327 0.500000
Si Si5 0.425060 0.811873 0.000000
Si Si6 0.425864 0.374715 0.932454
O O1 0.259540 0.847441 0.740848
O O2 0.288885 0.657112 0.674745
O O3 0.174346 0.840289 0.625333
O O4 0.012689 0.713574 0.701652
O O5 0.500000 0.000000 0.762337
O O6 0.695026 0.051514 0.845498
O O7 0.500000 0.500000 0.654453
O O8 0.326038 0.568702 0.564499
O O9 0.916895 0.389086 0.500000
O O10 0.786811 0.597186 0.500000
O O11 0.441195 0.724430 0.942786
O O12 0.500000 0.500000 0.924164
O O13 0.345393 0.373669 0.000000
#
# Coordination Sequence:
#
# PCOD9445378 Si02
#       6
#     8   8   8   4   4   8
#     4  11  21  40  61  83 122 155 202 249 298 365
#     4  10  24  39  59  89 116 163 203 246 307 364
#     4  11  22  37  58  90 123 154 199 248 308 360
#     4  11  19  32  62  87 123 151 192 253 312 350
#     4   9  17  32  56  89 114 152 191 250 299 357
#     4   9  18  33  56  86 112 150 199 242 290 353
#
# _framework density 18.596781
#
# number of rings (size 3 to 8) (size 9 to 14) (size 15 to 20)
#    0.600    1.200    2.000    2.700    5.600    4.000 
#    0.000    2.000    0.000    0.600    0.000    0.000 
#    0.000    0.000    0.000    0.000    0.000    0.000 
#
# Total GULP energy -222808.231156 kJ/mol
# GULP energy per Si atom -5570.205779 kJ/mol
# Density = 1.855445 g / cm^3
# Si number density = 18.596781 Si / 1000 Ang^3
#
#
#
# Elastic Constant Matrix: (Units=GPa)
#
#
# Indices 1 2 3 4 5 6 
#
# 1 55.7196 18.0931 17.7186 0.0000 0.0000 0.0000
# 2 18.0931 84.2997 21.7142 0.0000 0.0000 0.0000
# 3 17.7186 21.7142 86.8852 0.0000 0.0000 0.0000
# 4 0.0000 0.0000 0.0000 29.4839 0.0000 0.0000
# 5 0.0000 0.0000 0.0000 0.0000 -12.3914 0.0000
# 6 0.0000 0.0000 0.0000 0.0000 0.0000 27.1403
#
#
#
# Elastic Compliance Matrix: (Units=1/GPa)
#
#
# Indices 1 2 3 4 5 6 
#
# 1 0.020105 -0.003483 -0.003230 0.000000 0.000000 0.000000
# 2 -0.003483 0.013282 -0.002609 0.000000 0.000000 0.000000
# 3 -0.003230 -0.002609 0.012820 0.000000 0.000000 0.000000
# 4 0.000000 0.000000 0.000000 0.033917 0.000000 0.000000
# 5 0.000000 0.000000 0.000000 0.000000 -0.080701 0.000000
# 6 0.000000 0.000000 0.000000 0.000000 0.000000 0.036846
#
#
# Mechanical properties :
#
#
# Convention : Reuss Voigt Hill
#
# Bulk Modulus (GPa) = 36.27983 37.99516 37.13749
# Shear Modulus (GPa) = 78.00313 20.13846 49.07080
#
# Velocity S-wave (km/s) = 6.48348 3.29432 5.14237
# Velocity P-wave (km/s) = 8.69473 5.91146 7.43451
#
# Compressibility (1/GPa) = 0.02756353
#
# Stress axis : x y z
#
# Youngs Moduli (GPa) = 49.73870 75.28932 78.00247
#
# Poissons Ratio (x) = 0.26225 0.25191
# Poissons Ratio (y) = 0.17325 0.20352
# Poissons Ratio (z) = 0.16063 0.19644
#
# Static dielectric constant tensor:
#      x y z
#    x 1.645430 0.000000 0.000000 
#    y 0.000000 1.658410 0.000000 
#    z 0.000000 0.000000 1.663740 
# 
# From -- ./inp_files/28755.got.cif
#   From: 2010.05.17/outbox.cif.g08.bks.cpg/sg58_15_cif.got.tgz:28755.got - 2010.06.03 14:20:14.
