data_PCOD9445491
_publ_section_title
;
Structure prediction by ZEFSAII (Michael W. Deem and Ramdas Pophale) SiO2 
 PCOD9445491
Probable space group: P N N M
;
_chemical_formula_sum "Si O2"
_cell_formula_units_Z 56
_cell_length_a 15.421619
_cell_length_b 9.514178
_cell_length_c 20.337511
_cell_angle_alpha 90.000000
_cell_angle_beta 90.000000
_cell_angle_gamma 90.000000
_cell_volume 2984.001538
_symmetry_space_group_name_H-M "P N N M"
_symmetry_group_IT_number 58
_symmetry_cell_setting 'orthorhombic'
loop_
_space_group_symop_operation_xyz
x,y,z
-x,-y,z
1/2+x,1/2-y,1/2-z
1/2-x,1/2+y,1/2-z
-x,-y,-z
x,y,-z
1/2-x,1/2+y,1/2+z
1/2+x,1/2-y,1/2+z
loop_
_atom_site_type_symbol
_atom_site_label
_atom_site_fract_x
_atom_site_fract_y
_atom_site_fract_z
Si Si1 0.192949 0.676945 0.192335
Si Si2 0.598358 0.552398 0.712052
Si Si3 0.294376 0.705164 0.678984
Si Si4 0.128816 0.868301 0.637341
Si Si5 0.469624 0.843277 0.135756
Si Si6 0.919100 0.582399 0.784148
Si Si7 0.822503 0.847690 0.424215
O O1 0.116530 0.790140 0.188266
O O2 0.262964 0.729639 0.245558
O O3 0.155007 0.535201 0.223620
O O4 0.239887 0.653528 0.123870
O O5 0.500000 0.500000 0.702932
O O6 0.669775 0.452750 0.677194
O O7 0.617941 0.559455 0.790488
O O8 0.214260 0.768221 0.638226
O O9 0.378965 0.799923 0.670141
O O10 0.047832 0.766242 0.627406
O O11 0.135131 0.998537 0.588005
O O12 0.447973 0.856895 0.213632
O O13 0.387818 0.775364 0.099140
O O14 0.500000 0.000000 0.114938
O O15 0.000000 0.500000 0.813373
O O16 0.800700 0.829544 0.500000
#
# Coordination Sequence:
#
# PCOD9445491 Si02
#       7
#     8   8   8   8   8   8   8
#     4  11  21  36  57  87 121 151 190 238 296 359
#     4  11  20  32  58  93 123 146 179 244 318 364
#     4  11  18  32  56  87 118 147 184 239 307 351
#     4  11  22  37  59  90 123 158 192 241 296 368
#     4  11  23  37  61  89 121 151 196 249 300 354
#     4  11  19  33  56  90 119 146 179 239 307 358
#     4  12  25  42  60  80 118 172 209 236 280 353
#
# _framework density 18.766746999999999
#
# number of rings (size 3 to 8) (size 9 to 14) (size 15 to 20)
#    0.000    0.857    4.286    7.286    2.000    1.429 
#    0.000    0.000    0.000    0.857    0.000    0.000 
#    0.000    0.000    0.000    0.000    0.000    0.000 
#
# Total GULP energy -312634.093700 kJ/mol
# GULP energy per Si atom -5582.751673 kJ/mol
# Density = 1.872403 g / cm^3
# Si number density = 18.766747 Si / 1000 Ang^3
#
#
#
# Elastic Constant Matrix: (Units=GPa)
#
#
# Indices 1 2 3 4 5 6 
#
# 1 55.7414 2.5452 11.7976 0.0000 0.0000 0.0000
# 2 2.5452 75.1158 -2.6511 0.0000 0.0000 0.0000
# 3 11.7976 -2.6511 36.4916 0.0000 0.0000 0.0000
# 4 0.0000 0.0000 0.0000 13.1078 0.0000 0.0000
# 5 0.0000 0.0000 0.0000 0.0000 8.6482 0.0000
# 6 0.0000 0.0000 0.0000 0.0000 0.0000 49.4661
#
#
#
# Elastic Compliance Matrix: (Units=1/GPa)
#
#
# Indices 1 2 3 4 5 6 
#
# 1 0.019315 -0.000877 -0.006308 0.000000 0.000000 0.000000
# 2 -0.000877 0.013387 0.001256 0.000000 0.000000 0.000000
# 3 -0.006308 0.001256 0.029534 0.000000 0.000000 0.000000
# 4 0.000000 0.000000 0.000000 0.076290 0.000000 0.000000
# 5 0.000000 0.000000 0.000000 0.000000 0.115631 0.000000
# 6 0.000000 0.000000 0.000000 0.000000 0.000000 0.020216
#
#
# Mechanical properties :
#
#
# Convention : Reuss Voigt Hill
#
# Bulk Modulus (GPa) = 19.85002 21.19247 20.52124
# Shear Modulus (GPa) = 16.50031 24.62157 20.56094
#
# Velocity S-wave (km/s) = 2.96840 3.62605 3.31358
# Velocity P-wave (km/s) = 4.72744 5.37104 5.05949
#
# Compressibility (1/GPa) = 0.05037778
#
# Stress axis : x y z
#
# Youngs Moduli (GPa) = 51.77275 74.70027 33.85898
#
# Poissons Ratio (x) = 0.06552 0.21359
# Poissons Ratio (y) = 0.04541 -0.04253
# Poissons Ratio (z) = 0.32660 -0.09383
#
# Static dielectric constant tensor:
#      x y z
#    x 1.714600 0.000000 0.000000 
#    y 0.000000 1.727900 0.000000 
#    z 0.000000 0.000000 1.600190 
# 
# From -- ./inp_files/29996.got.cif
#   From: 2010.05.17/outbox.cif.g08.bks.cpg/sg58_15_cif.got.tgz:29996.got - 2010.06.03 14:20:14.
