data_PCOD9445865
_publ_section_title
;
Structure prediction by ZEFSAII (Michael W. Deem and Ramdas Pophale) SiO2 
 PCOD9445865
Probable space group: P N N M
;
_chemical_formula_sum "Si O2"
_cell_formula_units_Z 64
_cell_length_a 15.302735
_cell_length_b 22.828977
_cell_length_c 7.343112
_cell_angle_alpha 90.000000
_cell_angle_beta 90.000000
_cell_angle_gamma 90.000000
_cell_volume 2565.285229
_symmetry_space_group_name_H-M "P N N M"
_symmetry_group_IT_number 58
_symmetry_cell_setting 'orthorhombic'
loop_
_space_group_symop_operation_xyz
x,y,z
-x,-y,z
1/2+x,1/2-y,1/2-z
1/2-x,1/2+y,1/2-z
-x,-y,-z
x,y,-z
1/2-x,1/2+y,1/2+z
1/2+x,1/2-y,1/2+z
loop_
_atom_site_type_symbol
_atom_site_label
_atom_site_fract_x
_atom_site_fract_y
_atom_site_fract_z
Si Si1 0.219005 0.693955 0.785115
Si Si2 0.469759 0.313850 0.223385
Si Si3 0.767391 0.432509 0.717830
Si Si4 0.294876 0.440195 0.276640
Si Si5 0.985930 0.311971 0.707241
Si Si6 0.238721 0.817660 0.791815
Si Si7 0.531853 0.936397 0.223012
Si Si8 0.506319 0.563519 0.796017
O O1 0.267568 0.631897 0.765356
O O2 0.121164 0.687935 0.702966
O O3 0.262901 0.753894 0.713866
O O4 0.205483 0.702520 0.000000
O O5 0.508402 0.251614 0.285252
O O6 0.368217 0.314863 0.286372
O O7 0.518663 0.373332 0.283537
O O8 0.469121 0.314504 0.000000
O O9 0.765175 0.435321 0.500000
O O10 0.729283 0.494239 0.780908
O O11 0.867544 0.432938 0.778472
O O12 0.298162 0.439119 0.500000
O O13 0.239561 0.382718 0.219595
O O14 0.389898 0.429741 0.196750
O O15 0.017796 0.311441 0.500000
O O16 0.011255 0.375303 0.785760
O O17 0.269354 0.818358 0.000000
O O18 0.500000 0.000000 0.281485
O O19 0.527320 0.935639 0.000000
O O20 0.500000 0.500000 0.703439
O O21 0.467880 0.558390 0.000000
#
# Coordination Sequence:
#
# PCOD9445865 Si02
#       8
#     8   8   8   8   8   8   8   8
#     4   9  15  23  38  59  81 103 130 166 205 244
#     4   8  13  22  37  56  77 101 129 161 196 234
#     4   9  17  28  42  60  82 108 137 170 205 242
#     4   9  17  29  44  61  82 108 139 173 206 244
#     4   8  13  22  37  56  77 100 130 166 198 233
#     4   8  14  24  38  57  79 101 129 168 207 238
#     4   8  13  22  38  59  79  99 126 161 199 235
#     4   9  17  28  42  61  85 109 132 163 204 247
#
# _framework density 24.948494
#
# number of rings (size 3 to 8) (size 9 to 14) (size 15 to 20)
#    0.000    3.500    0.000    1.125    0.000    1.250 
#    0.000    0.000    0.000    7.500    0.000    7.000 
#    0.000    0.000    0.000    0.000    0.000    0.000 
#
# Total GULP energy -356287.486955 kJ/mol
# GULP energy per Si atom -5566.991984 kJ/mol
# Density = 2.489171 g / cm^3
# Si number density = 24.948494 Si / 1000 Ang^3
#
#
#
# Elastic Constant Matrix: (Units=GPa)
#
#
# Indices 1 2 3 4 5 6 
#
# 1 35.0581 21.0925 -0.5296 0.0000 0.0000 0.0000
# 2 21.0925 328.7446 11.1688 0.0000 0.0000 0.0000
# 3 -0.5296 11.1688 108.6728 0.0000 0.0000 0.0000
# 4 0.0000 0.0000 0.0000 67.0640 0.0000 0.0000
# 5 0.0000 0.0000 0.0000 0.0000 -9.6428 0.0000
# 6 0.0000 0.0000 0.0000 0.0000 0.0000 22.9711
#
#
#
# Elastic Compliance Matrix: (Units=1/GPa)
#
#
# Indices 1 2 3 4 5 6 
#
# 1 0.029682 -0.001916 0.000342 0.000000 0.000000 0.000000
# 2 -0.001916 0.003176 -0.000336 0.000000 0.000000 0.000000
# 3 0.000342 -0.000336 0.009238 0.000000 0.000000 0.000000
# 4 0.000000 0.000000 0.000000 0.014911 0.000000 0.000000
# 5 0.000000 0.000000 0.000000 0.000000 -0.103704 0.000000
# 6 0.000000 0.000000 0.000000 0.000000 0.000000 0.043533
#
#
# Mechanical properties :
#
#
# Convention : Reuss Voigt Hill
#
# Bulk Modulus (GPa) = 26.12615 59.54877 42.83746
# Shear Modulus (GPa) = 372.70492 45.46138 209.08315
#
# Velocity S-wave (km/s) = 12.23577 4.27337 9.16449
# Velocity P-wave (km/s) = 14.49529 6.94762 11.36624
#
# Compressibility (1/GPa) = 0.03827583
#
# Stress axis : x y z
#
# Youngs Moduli (GPa) = 33.69049 314.84001 108.24723
#
# Poissons Ratio (x) = 0.60324 -0.03697
# Poissons Ratio (y) = 0.06455 0.03635
# Poissons Ratio (z) = -0.01151 0.10571
#
# Static dielectric constant tensor:
#      x y z
#    x 1.954510 0.000000 0.000000 
#    y 0.000000 2.154900 0.000000 
#    z 0.000000 0.000000 1.986490 
# 
# From -- ./inp_files/9493.got.cif
#   From: 2010.05.17/outbox.cif.g08.bks.cpg/sg58_5_cif.got.tgz:9493.got - 2010.06.03 14:20:14.
