data_PCOD9445449
_publ_section_title
;
Structure prediction by ZEFSAII (Michael W. Deem and Ramdas Pophale) SiO2 
 PCOD9445449
Probable space group: P N N M
;
_chemical_formula_sum "Si O2"
_cell_formula_units_Z 40
_cell_length_a 9.762789
_cell_length_b 7.712215
_cell_length_c 23.670407
_cell_angle_alpha 90.000000
_cell_angle_beta 90.000000
_cell_angle_gamma 90.000000
_cell_volume 1782.209510
_symmetry_space_group_name_H-M "P N N M"
_symmetry_group_IT_number 58
_symmetry_cell_setting 'orthorhombic'
loop_
_space_group_symop_operation_xyz
x,y,z
-x,-y,z
1/2+x,1/2-y,1/2-z
1/2-x,1/2+y,1/2-z
-x,-y,-z
x,y,-z
1/2-x,1/2+y,1/2+z
1/2+x,1/2-y,1/2+z
loop_
_atom_site_type_symbol
_atom_site_label
_atom_site_fract_x
_atom_site_fract_y
_atom_site_fract_z
Si Si1 0.705187 0.140073 0.934958
Si Si2 0.273420 0.851095 0.661116
Si Si3 0.394980 0.256306 0.064184
Si Si4 0.866595 0.389022 0.745863
Si Si5 0.553139 0.692286 0.350856
O O1 0.554623 0.219362 0.925974
O O2 0.815254 0.210048 0.890618
O O3 0.681780 0.931064 0.930631
O O4 0.746917 0.174571 0.000000
O O5 0.169531 0.880909 0.610498
O O6 0.220783 0.679505 0.694089
O O7 0.425185 0.818525 0.637163
O O8 0.284112 0.995239 0.709275
O O9 0.377266 0.318019 0.000000
O O10 0.914660 0.229871 0.785209
O O11 0.000000 0.500000 0.727710
O O12 0.500000 0.500000 0.359465
#
# Coordination Sequence:
#
# PCOD9445449 Si02
#       5
#     8   8   8   8   8
#     4   9  19  35  59  91 122 158 208 259 312 379
#     4  11  22  39  62  87 124 162 206 260 309 381
#     4   9  19  36  62  89 119 162 207 259 318 374
#     4  10  25  41  60  93 127 166 212 258 319 378
#     4  11  21  37  61  89 121 155 203 256 312 373
#
# _framework density 22.444050000000001
#
# number of rings (size 3 to 8) (size 9 to 14) (size 15 to 20)
#    0.000    2.000    2.000    2.400    2.800    2.800 
#    0.000    6.000    0.000    6.000    0.000    0.000 
#    0.000    0.000    0.000    0.000    0.000    0.000 
#
# Total GULP energy -223739.106439 kJ/mol
# GULP energy per Si atom -5593.477661 kJ/mol
# Density = 2.239297 g / cm^3
# Si number density = 22.444050 Si / 1000 Ang^3
#
#
#
# Elastic Constant Matrix: (Units=GPa)
#
#
# Indices 1 2 3 4 5 6 
#
# 1 97.8497 17.8868 70.9888 0.0000 0.0000 0.0000
# 2 17.8868 47.2563 25.2149 0.0000 0.0000 0.0000
# 3 70.9888 25.2149 90.3073 0.0000 0.0000 0.0000
# 4 0.0000 0.0000 0.0000 -435.0137 0.0000 0.0000
# 5 0.0000 0.0000 0.0000 0.0000 41.6513 0.0000
# 6 0.0000 0.0000 0.0000 0.0000 0.0000 25.3002
#
#
#
# Elastic Compliance Matrix: (Units=1/GPa)
#
#
# Indices 1 2 3 4 5 6 
#
# 1 0.023836 0.001146 -0.019057 0.000000 0.000000 0.000000
# 2 0.001146 0.024921 -0.007859 0.000000 0.000000 0.000000
# 3 -0.019057 -0.007859 0.028248 0.000000 0.000000 0.000000
# 4 0.000000 0.000000 0.000000 -0.002299 0.000000 0.000000
# 5 0.000000 0.000000 0.000000 0.000000 0.024009 0.000000
# 6 0.000000 0.000000 0.000000 0.000000 0.000000 0.039525
#
#
# Mechanical properties :
#
#
# Convention : Reuss Voigt Hill
#
# Bulk Modulus (GPa) = 39.26984 51.51046 45.39015
# Shear Modulus (GPa) = 25.21840 -65.52425 -20.15292
#
# Velocity S-wave (km/s) = 3.35567 -5.40905 -2.99978
# Velocity P-wave (km/s) = 5.70515 4.00126 2.87565
#
# Compressibility (1/GPa) = 0.02546484
#
# Stress axis : x y z
#
# Youngs Moduli (GPa) = 41.95382 40.12705 35.40078
#
# Poissons Ratio (x) = -0.04600 0.67463
# Poissons Ratio (y) = -0.04809 0.27823
# Poissons Ratio (z) = 0.79951 0.31537
#
# Static dielectric constant tensor:
#      x y z
#    x 1.829130 0.000000 0.000000 
#    y 0.000000 1.888410 0.000000 
#    z 0.000000 0.000000 1.781830 
# 
# From -- ./inp_files/31278.got.cif
#   From: 2010.05.17/outbox.cif.g08.bks.cpg/sg58_16_cif.got.tgz:31278.got - 2010.06.03 14:20:14.
