data_PCOD9445677
_publ_section_title
;
Structure prediction by ZEFSAII (Michael W. Deem and Ramdas Pophale) SiO2 
 PCOD9445677
Probable space group: P N N M
;
_chemical_formula_sum "Si O2"
_cell_formula_units_Z 48
_cell_length_a 22.832937
_cell_length_b 12.205618
_cell_length_c 7.718829
_cell_angle_alpha 90.000000
_cell_angle_beta 90.000000
_cell_angle_gamma 90.000000
_cell_volume 2151.161279
_symmetry_space_group_name_H-M "P N N M"
_symmetry_group_IT_number 58
_symmetry_cell_setting 'orthorhombic'
loop_
_space_group_symop_operation_xyz
x,y,z
-x,-y,z
1/2+x,1/2-y,1/2-z
1/2-x,1/2+y,1/2-z
-x,-y,-z
x,y,-z
1/2-x,1/2+y,1/2+z
1/2+x,1/2-y,1/2+z
loop_
_atom_site_type_symbol
_atom_site_label
_atom_site_fract_x
_atom_site_fract_y
_atom_site_fract_z
Si Si1 0.660284 0.939985 0.698033
Si Si2 0.544327 0.086501 0.697798
Si Si3 0.880296 0.774980 0.204996
Si Si4 0.361896 0.295931 0.700881
Si Si5 0.268192 0.862134 0.712225
Si Si6 0.565287 0.497894 0.200446
O O1 0.678369 0.912823 0.500000
O O2 0.640535 0.826113 0.779555
O O3 0.604805 0.019680 0.688411
O O4 0.710704 0.017343 0.772187
O O5 0.521597 0.107053 0.500000
O O6 0.565043 0.202136 0.776192
O O7 0.500000 0.000000 0.782106
O O8 0.818001 0.726432 0.267236
O O9 0.893178 0.902369 0.226599
O O10 0.880352 0.751362 0.000000
O O11 0.380205 0.288626 0.500000
O O12 0.295239 0.336140 0.716662
O O13 0.404361 0.384534 0.784168
O O14 0.265695 0.862237 0.500000
O O15 0.500000 0.500000 0.279386
O O16 0.558974 0.468431 0.000000
#
# Coordination Sequence:
#
# PCOD9445677 Si02
#       6
#     8   8   8   8   8   8
#     4   8  17  33  52  81 115 145 181 229 285 345
#     4   8  14  27  53  85 112 140 176 227 288 336
#     4   9  19  36  61  90 117 149 194 242 287 350
#     4  11  23  37  60  90 115 149 199 244 288 352
#     4   9  19  38  60  87 122 153 184 234 301 357
#     4  11  26  44  59  80 118 165 204 245 307 360
#
# _framework density 22.313528999999999
#
# number of rings (size 3 to 8) (size 9 to 14) (size 15 to 20)
#    0.000    2.667    0.000    3.000    4.667    2.000 
#    0.000    0.833    0.000    2.500    0.000    0.000 
#    0.000    0.000    0.000    0.000    0.000    0.000 
#
# Total GULP energy -267637.737206 kJ/mol
# GULP energy per Si atom -5575.786192 kJ/mol
# Density = 2.226274 g / cm^3
# Si number density = 22.313529 Si / 1000 Ang^3
#
#
#
# Elastic Constant Matrix: (Units=GPa)
#
#
# Indices 1 2 3 4 5 6 
#
# 1 57.6489 20.6267 -2.0738 0.0000 0.0000 0.0000
# 2 20.6267 133.4861 -5.3143 0.0000 0.0000 0.0000
# 3 -2.0738 -5.3143 36.2080 0.0000 0.0000 0.0000
# 4 0.0000 0.0000 0.0000 0.3192 0.0000 0.0000
# 5 0.0000 0.0000 0.0000 0.0000 8.8791 0.0000
# 6 0.0000 0.0000 0.0000 0.0000 0.0000 17.7985
#
#
#
# Elastic Compliance Matrix: (Units=1/GPa)
#
#
# Indices 1 2 3 4 5 6 
#
# 1 0.018376 -0.002814 0.000639 0.000000 0.000000 0.000000
# 2 -0.002814 0.007966 0.001008 0.000000 0.000000 0.000000
# 3 0.000639 0.001008 0.027803 0.000000 0.000000 0.000000
# 4 0.000000 0.000000 0.000000 3.132751 0.000000 0.000000
# 5 0.000000 0.000000 0.000000 0.000000 0.112624 0.000000
# 6 0.000000 0.000000 0.000000 0.000000 0.000000 0.056185
#
#
# Mechanical properties :
#
#
# Convention : Reuss Voigt Hill
#
# Bulk Modulus (GPa) = 19.30041 28.20223 23.75132
# Shear Modulus (GPa) = 1.48135 19.67299 10.57717
#
# Velocity S-wave (km/s) = 0.81567 2.97250 2.17957
# Velocity P-wave (km/s) = 3.09120 4.94444 4.12329
#
# Compressibility (1/GPa) = 0.05181236
#
# Stress axis : x y z
#
# Youngs Moduli (GPa) = 54.41798 125.52735 35.96758
#
# Poissons Ratio (x) = 0.35325 -0.02300
# Poissons Ratio (y) = 0.15314 -0.03626
# Poissons Ratio (z) = -0.03480 -0.12654
#
# Static dielectric constant tensor:
#      x y z
#    x 1.817350 0.000000 0.000000 
#    y 0.000000 1.853880 0.000000 
#    z 0.000000 0.000000 1.829550 
# 
# From -- ./inp_files/9714.got.cif
#   From: 2010.05.17/outbox.cif.g08.bks.cpg/sg58_5_cif.got.tgz:9714.got - 2010.06.03 14:20:14.
