data_PCOD9445727
_publ_section_title
;
Structure prediction by ZEFSAII (Michael W. Deem and Ramdas Pophale) SiO2 
 PCOD9445727
Probable space group: P N N M
;
_chemical_formula_sum "Si O2"
_cell_formula_units_Z 40
_cell_length_a 9.498651
_cell_length_b 10.876060
_cell_length_c 17.135656
_cell_angle_alpha 90.000000
_cell_angle_beta 90.000000
_cell_angle_gamma 90.000000
_cell_volume 1770.248606
_symmetry_space_group_name_H-M "P N N M"
_symmetry_group_IT_number 58
_symmetry_cell_setting 'orthorhombic'
loop_
_space_group_symop_operation_xyz
x,y,z
-x,-y,z
1/2+x,1/2-y,1/2-z
1/2-x,1/2+y,1/2-z
-x,-y,-z
x,y,-z
1/2-x,1/2+y,1/2+z
1/2+x,1/2-y,1/2+z
loop_
_atom_site_type_symbol
_atom_site_label
_atom_site_fract_x
_atom_site_fract_y
_atom_site_fract_z
Si Si1 0.048649 0.860233 0.586099
Si Si2 0.818545 0.750689 0.687558
Si Si3 0.819517 0.762286 0.873264
Si Si4 0.087317 0.623207 0.089159
Si Si5 0.168944 0.481982 0.411288
O O1 0.008098 0.812529 0.500000
O O2 0.971044 0.784401 0.652837
O O3 0.214265 0.842703 0.595303
O O4 0.000000 0.000000 0.591307
O O5 0.820152 0.755389 0.779868
O O6 0.710547 0.847402 0.649419
O O7 0.782957 0.617595 0.652042
O O8 0.973996 0.733483 0.904654
O O9 0.750993 0.890508 0.899403
O O10 0.000000 0.500000 0.108404
O O11 0.139950 0.613476 0.000000
O O12 0.194948 0.438226 0.500000
O O13 0.000000 0.500000 0.403061
#
# Coordination Sequence:
#
# PCOD9445727 Si02
#       5
#     8   8   8   8   8
#     4  11  23  43  71  95 127 175 229 273 323 401
#     4  12  26  42  68 101 139 174 223 280 337 396
#     4  12  26  42  68 101 139 174 223 280 337 396
#     4  11  25  45  69  97 137 177 219 275 341 405
#     4  11  24  45  73  99 134 181 231 277 333 409
#
# _framework density 22.595696
#
# number of rings (size 3 to 8) (size 9 to 14) (size 15 to 20)
#    0.000    0.600    2.000    6.000    5.600    4.000 
#    0.000    2.000    0.000    0.000    0.000    0.000 
#    0.000    0.000    0.000    0.000    0.000    0.000 
#
# Total GULP energy -224124.915502 kJ/mol
# GULP energy per Si atom -5603.122888 kJ/mol
# Density = 2.254427 g / cm^3
# Si number density = 22.595696 Si / 1000 Ang^3
#
#
#
# Elastic Constant Matrix: (Units=GPa)
#
#
# Indices 1 2 3 4 5 6 
#
# 1 53.5177 -14.1440 -2.2743 0.0000 0.0000 0.0000
# 2 -14.1440 56.6621 15.2470 0.0000 0.0000 0.0000
# 3 -2.2743 15.2470 131.0036 0.0000 0.0000 0.0000
# 4 0.0000 0.0000 0.0000 16.4589 0.0000 0.0000
# 5 0.0000 0.0000 0.0000 0.0000 -183.2649 0.0000
# 6 0.0000 0.0000 0.0000 0.0000 0.0000 37.6844
#
#
#
# Elastic Compliance Matrix: (Units=1/GPa)
#
#
# Indices 1 2 3 4 5 6 
#
# 1 0.020013 0.005061 -0.000242 0.000000 0.000000 0.000000
# 2 0.005061 0.019499 -0.002182 0.000000 0.000000 0.000000
# 3 -0.000242 -0.002182 0.007883 0.000000 0.000000 0.000000
# 4 0.000000 0.000000 0.000000 0.060757 0.000000 0.000000
# 5 0.000000 0.000000 0.000000 0.000000 -0.005457 0.000000
# 6 0.000000 0.000000 0.000000 0.000000 0.000000 0.026536
#
#
# Mechanical properties :
#
#
# Convention : Reuss Voigt Hill
#
# Bulk Modulus (GPa) = 18.98640 26.53788 22.76214
# Shear Modulus (GPa) = 35.33248 -9.66733 12.83258
#
# Velocity S-wave (km/s) = 3.95863 -2.07067 2.38570
# Velocity P-wave (km/s) = 5.41436 2.46034 4.20526
#
# Compressibility (1/GPa) = 0.05266927
#
# Stress axis : x y z
#
# Youngs Moduli (GPa) = 49.96861 51.28544 126.85388
#
# Poissons Ratio (x) = -0.25953 0.03064
# Poissons Ratio (y) = -0.25287 0.27674
# Poissons Ratio (z) = 0.01207 0.11188
#
# Static dielectric constant tensor:
#      x y z
#    x 1.823420 0.000000 0.000000 
#    y 0.000000 1.858090 0.000000 
#    z 0.000000 0.000000 1.752990 
# 
# From -- ./inp_files/24962.got.cif
#   From: 2010.05.17/outbox.cif.g08.bks.cpg/sg58_13_cif.got.tgz:24962.got - 2010.06.03 14:20:14.
