data_PCOD9445403
_publ_section_title
;
Structure prediction by ZEFSAII (Michael W. Deem and Ramdas Pophale) SiO2 
 PCOD9445403
Probable space group: P N N M
;
_chemical_formula_sum "Si O2"
_cell_formula_units_Z 48
_cell_length_a 8.602657
_cell_length_b 18.621846
_cell_length_c 15.013885
_cell_angle_alpha 90.000000
_cell_angle_beta 90.000000
_cell_angle_gamma 90.000000
_cell_volume 2405.184648
_symmetry_space_group_name_H-M "P N N M"
_symmetry_group_IT_number 58
_symmetry_cell_setting 'orthorhombic'
loop_
_space_group_symop_operation_xyz
x,y,z
-x,-y,z
1/2+x,1/2-y,1/2-z
1/2-x,1/2+y,1/2-z
-x,-y,-z
x,y,-z
1/2-x,1/2+y,1/2+z
1/2+x,1/2-y,1/2+z
loop_
_atom_site_type_symbol
_atom_site_label
_atom_site_fract_x
_atom_site_fract_y
_atom_site_fract_z
Si Si1 0.146753 0.454663 0.328423
Si Si2 0.737339 0.336342 0.500000
Si Si3 0.605910 0.427420 0.000000
Si Si4 0.184471 0.997814 0.000000
Si Si5 0.067730 0.181644 0.813962
Si Si6 0.453198 0.737430 0.000000
Si Si7 0.803026 0.703991 0.320374
Si Si8 0.158874 0.044778 0.694958
O O1 0.265576 0.457848 0.410484
O O2 0.110569 0.372181 0.312151
O O3 0.216306 0.493926 0.242224
O O4 0.000000 0.500000 0.358058
O O5 0.760605 0.422738 0.500000
O O6 0.637268 0.321039 0.587745
O O7 0.891354 0.286734 0.500000
O O8 0.500000 0.500000 0.000000
O O9 0.519894 0.349287 0.000000
O O10 0.696965 0.431113 0.094073
O O11 0.000000 0.000000 0.000000
O O12 0.142841 0.247125 0.760613
O O13 0.121954 0.111230 0.759676
O O14 0.881383 0.189294 0.815908
O O15 0.355825 0.758657 0.087844
O O16 0.000000 0.000000 0.690162
#
# Coordination Sequence:
#
# PCOD9445403 Si02
#       8
#     8   4   4   4   8   4   8   8
#     4  12  25  41  67 101 137 176 226 285 343 403
#     4  12  25  41  70 102 136 181 218 285 345 419
#     4  10  24  42  75  96 125 176 243 282 329 407
#     4  12  22  41  69  97 138 180 223 270 335 418
#     4  12  25  43  67  97 139 177 232 275 348 413
#     4  12  24  44  68 102 144 179 230 287 357 408
#     4  12  26  43  67  99 138 184 226 285 343 416
#     4  11  22  46  70  95 128 180 230 279 341 411
#
# _framework density 19.956889
#
# number of rings (size 3 to 8) (size 9 to 14) (size 15 to 20)
#    0.000    0.333    5.000    4.750    2.333    0.000 
#    0.000    0.417    0.000    0.000    0.000    0.000 
#    0.000    0.000    0.000    0.000    0.000    0.000 
#
# Total GULP energy -268436.716066 kJ/mol
# GULP energy per Si atom -5592.431585 kJ/mol
# Density = 1.991147 g / cm^3
# Si number density = 19.956889 Si / 1000 Ang^3
#
#
#
# Elastic Constant Matrix: (Units=GPa)
#
#
# Indices 1 2 3 4 5 6 
#
# 1 28.3613 0.5784 22.7156 0.0000 0.0000 0.0000
# 2 0.5784 152.4099 49.6630 0.0000 0.0000 0.0000
# 3 22.7156 49.6630 175.0965 0.0000 0.0000 0.0000
# 4 0.0000 0.0000 0.0000 23.7268 0.0000 0.0000
# 5 0.0000 0.0000 0.0000 0.0000 50.6820 0.0000
# 6 0.0000 0.0000 0.0000 0.0000 0.0000 24.2263
#
#
#
# Elastic Compliance Matrix: (Units=1/GPa)
#
#
# Indices 1 2 3 4 5 6 
#
# 1 0.039737 0.001685 -0.005633 0.000000 0.000000 0.000000
# 2 0.001685 0.007301 -0.002289 0.000000 0.000000 0.000000
# 3 -0.005633 -0.002289 0.007091 0.000000 0.000000 0.000000
# 4 0.000000 0.000000 0.000000 0.042146 0.000000 0.000000
# 5 0.000000 0.000000 0.000000 0.000000 0.019731 0.000000
# 6 0.000000 0.000000 0.000000 0.000000 0.000000 0.041278
#
#
# Mechanical properties :
#
#
# Convention : Reuss Voigt Hill
#
# Bulk Modulus (GPa) = 24.00752 55.75353 39.88052
# Shear Modulus (GPa) = 27.22670 38.58772 32.90721
#
# Velocity S-wave (km/s) = 3.69762 4.40199 4.06509
# Velocity P-wave (km/s) = 5.50324 7.33719 6.48537
#
# Compressibility (1/GPa) = 0.04165362
#
# Stress axis : x y z
#
# Youngs Moduli (GPa) = 25.16567 136.97061 141.01911
#
# Poissons Ratio (x) = -0.23076 0.79436
# Poissons Ratio (y) = -0.04240 0.32284
# Poissons Ratio (z) = 0.14176 0.31357
#
# Static dielectric constant tensor:
#      x y z
#    x 1.675210 0.000000 0.000000 
#    y 0.000000 1.689640 0.000000 
#    z 0.000000 0.000000 1.737980 
# 
# From -- ./inp_files/19907.got.cif
#   From: 2010.05.17/outbox.cif.g08.bks.cpg/sg58_10_cif.got.tgz:19907.got - 2010.06.03 14:20:14.
