data_PCOD9445451
_publ_section_title
;
Structure prediction by ZEFSAII (Michael W. Deem and Ramdas Pophale) SiO2 
 PCOD9445451
Probable space group: P N N M
;
_chemical_formula_sum "Si O2"
_cell_formula_units_Z 64
_cell_length_a 15.042161
_cell_length_b 13.024629
_cell_length_c 15.925246
_cell_angle_alpha 90.000000
_cell_angle_beta 90.000000
_cell_angle_gamma 90.000000
_cell_volume 3120.051366
_symmetry_space_group_name_H-M "P N N M"
_symmetry_group_IT_number 58
_symmetry_cell_setting 'orthorhombic'
loop_
_space_group_symop_operation_xyz
x,y,z
-x,-y,z
1/2+x,1/2-y,1/2-z
1/2-x,1/2+y,1/2-z
-x,-y,-z
x,y,-z
1/2-x,1/2+y,1/2+z
1/2+x,1/2-y,1/2+z
loop_
_atom_site_type_symbol
_atom_site_label
_atom_site_fract_x
_atom_site_fract_y
_atom_site_fract_z
Si Si1 0.939065 0.905911 0.600257
Si Si2 0.666527 0.228734 0.333051
Si Si3 0.314785 0.346102 0.703777
Si Si4 0.411915 0.045024 0.824986
Si Si5 0.897846 0.523551 0.138799
Si Si6 0.743696 0.850949 0.402491
Si Si7 0.011581 0.760613 0.275175
Si Si8 0.724871 0.450333 0.402319
O O1 0.937523 0.911224 0.500000
O O2 0.836677 0.899559 0.630545
O O3 0.986720 0.804928 0.634284
O O4 0.000000 0.000000 0.631092
O O5 0.751316 0.180061 0.283642
O O6 0.633399 0.135076 0.391390
O O7 0.580740 0.249484 0.274116
O O8 0.690696 0.337806 0.374026
O O9 0.284284 0.253878 0.642209
O O10 0.417392 0.332253 0.728838
O O11 0.304511 0.455977 0.658509
O O12 0.437710 0.154146 0.786229
O O13 0.330581 0.051736 0.886966
O O14 0.500000 0.000000 0.866228
O O15 0.391247 0.978090 0.741369
O O16 0.833162 0.434631 0.108070
O O17 0.000000 0.500000 0.117735
O O18 0.757251 0.828235 0.500000
O O19 0.702935 0.469292 0.500000
#
# Coordination Sequence:
#
# PCOD9445451 Si02
#       8
#     8   8   8   8   8   8   8   8
#     4  10  25  42  61  99 138 169 219 282 344 406
#     4  12  24  43  72  98 139 180 234 286 342 416
#     4  12  24  43  69  98 134 184 236 274 337 431
#     4  11  21  42  68 101 131 171 229 289 340 415
#     4  11  21  42  70 102 131 169 237 284 328 401
#     4  11  23  41  67  97 136 178 218 275 343 406
#     4  12  23  40  71  99 126 178 232 275 335 411
#     4  12  28  46  66 105 149 183 225 292 364 416
#
# _framework density 20.512481999999999
#
# number of rings (size 3 to 8) (size 9 to 14) (size 15 to 20)
#    0.000    0.625    7.500    0.375    3.500    1.500 
#    0.000    3.125    0.000    0.000    0.000    0.000 
#    0.000    0.000    0.000    0.000    0.000    0.000 
#
# Total GULP energy -357390.059798 kJ/mol
# GULP energy per Si atom -5584.219684 kJ/mol
# Density = 2.046579 g / cm^3
# Si number density = 20.512482 Si / 1000 Ang^3
#
#
#
# Elastic Constant Matrix: (Units=GPa)
#
#
# Indices 1 2 3 4 5 6 
#
# 1 69.6722 37.3590 11.3663 0.0000 0.0000 0.0000
# 2 37.3590 133.1690 22.1668 0.0000 0.0000 0.0000
# 3 11.3663 22.1668 29.4149 0.0000 0.0000 0.0000
# 4 0.0000 0.0000 0.0000 8.4822 0.0000 0.0000
# 5 0.0000 0.0000 0.0000 0.0000 15.3539 0.0000
# 6 0.0000 0.0000 0.0000 0.0000 0.0000 35.6463
#
#
#
# Elastic Compliance Matrix: (Units=1/GPa)
#
#
# Indices 1 2 3 4 5 6 
#
# 1 0.017194 -0.004251 -0.003440 0.000000 0.000000 0.000000
# 2 -0.004251 0.009637 -0.005620 0.000000 0.000000 0.000000
# 3 -0.003440 -0.005620 0.039561 0.000000 0.000000 0.000000
# 4 0.000000 0.000000 0.000000 0.117894 0.000000 0.000000
# 5 0.000000 0.000000 0.000000 0.000000 0.065130 0.000000
# 6 0.000000 0.000000 0.000000 0.000000 0.000000 0.028053
#
#
# Mechanical properties :
#
#
# Convention : Reuss Voigt Hill
#
# Bulk Modulus (GPa) = 25.14501 41.56002 33.35251
# Shear Modulus (GPa) = 15.75557 22.65407 19.20482
#
# Velocity S-wave (km/s) = 2.77446 3.32686 3.06314
# Velocity P-wave (km/s) = 4.74853 5.92133 5.36706
#
# Compressibility (1/GPa) = 0.03976933
#
# Stress axis : x y z
#
# Youngs Moduli (GPa) = 58.16145 103.76418 25.27747
#
# Poissons Ratio (x) = 0.44108 0.08697
# Poissons Ratio (y) = 0.24723 0.14206
# Poissons Ratio (z) = 0.20010 0.58315
#
# Static dielectric constant tensor:
#      x y z
#    x 1.734920 0.000000 0.000000 
#    y 0.000000 1.773330 0.000000 
#    z 0.000000 0.000000 1.737450 
# 
# From -- ./inp_files/27014.got.cif
#   From: 2010.05.17/outbox.cif.g08.bks.cpg/sg58_14_cif.got.tgz:27014.got - 2010.06.03 14:20:14.
