data_PCOD9445890
_publ_section_title
;
Structure prediction by ZEFSAII (Michael W. Deem and Ramdas Pophale) SiO2 
 PCOD9445890
Probable space group: P N N M
;
_chemical_formula_sum "Si O2"
_cell_formula_units_Z 64
_cell_length_a 23.842931
_cell_length_b 16.364121
_cell_length_c 7.374416
_cell_angle_alpha 90.000000
_cell_angle_beta 90.000000
_cell_angle_gamma 90.000000
_cell_volume 2877.265625
_symmetry_space_group_name_H-M "P N N M"
_symmetry_group_IT_number 58
_symmetry_cell_setting 'orthorhombic'
loop_
_space_group_symop_operation_xyz
x,y,z
-x,-y,z
1/2+x,1/2-y,1/2-z
1/2-x,1/2+y,1/2-z
-x,-y,-z
x,y,-z
1/2-x,1/2+y,1/2+z
1/2+x,1/2-y,1/2+z
loop_
_atom_site_type_symbol
_atom_site_label
_atom_site_fract_x
_atom_site_fract_y
_atom_site_fract_z
Si Si1 0.509659 0.093624 0.722018
Si Si2 0.188843 0.193045 0.218486
Si Si3 0.845637 0.976697 0.779563
Si Si4 0.368875 0.855927 0.710605
Si Si5 0.256688 0.921344 0.781442
Si Si6 0.304169 0.256766 0.713684
Si Si7 0.955839 0.070549 0.220958
Si Si8 0.432376 0.245695 0.721558
O O1 0.508340 0.092620 0.500000
O O2 0.571589 0.119294 0.785412
O O3 0.466315 0.164794 0.778335
O O4 0.500000 0.000000 0.779118
O O5 0.151894 0.116619 0.278857
O O6 0.160910 0.275853 0.290448
O O7 0.254961 0.190158 0.264289
O O8 0.187470 0.194503 0.000000
O O9 0.784656 0.007659 0.724237
O O10 0.895156 0.036105 0.721623
O O11 0.847810 0.978508 0.000000
O O12 0.379240 0.837339 0.500000
O O13 0.320589 0.924034 0.720191
O O14 0.225697 0.838841 0.713832
O O15 0.257919 0.919257 0.000000
O O16 0.311545 0.270838 0.500000
O O17 0.367035 0.242175 0.782084
O O18 0.959157 0.166106 0.276504
O O19 0.958409 0.071837 0.000000
O O20 0.000000 0.000000 0.278147
O O21 0.433024 0.245656 0.500000
#
# Coordination Sequence:
#
# PCOD9445890 Si02
#       8
#     8   8   8   8   8   8   8   8
#     4   9  18  30  43  62  90 123 155 189 230 271
#     4   9  18  29  44  68  96 122 146 182 231 280
#     4   9  16  27  42  65  96 120 145 185 235 279
#     4   9  18  31  47  67  93 122 153 187 228 272
#     4   9  16  29  48  66  90 122 151 185 228 271
#     4   9  16  29  47  67  90 119 156 189 221 267
#     4   9  16  24  40  66  92 118 149 187 233 281
#     4   9  16  27  44  65  91 120 152 193 232 269
#
# _framework density 22.24334
#
# number of rings (size 3 to 8) (size 9 to 14) (size 15 to 20)
#    0.000    3.000    1.250    0.000    1.750    1.000 
#    0.000    1.875    0.000    1.125    0.000    0.000 
#    0.000    2.500    0.000    0.000    0.000    0.000 
#
# Total GULP energy -356799.234067 kJ/mol
# GULP energy per Si atom -5574.988032 kJ/mol
# Density = 2.219271 g / cm^3
# Si number density = 22.243340 Si / 1000 Ang^3
#
#
#
# Elastic Constant Matrix: (Units=GPa)
#
#
# Indices 1 2 3 4 5 6 
#
# 1 158.9292 79.5535 2.5166 0.0000 0.0000 0.0000
# 2 79.5535 140.4845 1.8183 0.0000 0.0000 0.0000
# 3 2.5166 1.8183 75.8201 0.0000 0.0000 0.0000
# 4 0.0000 0.0000 0.0000 -3.8119 0.0000 0.0000
# 5 0.0000 0.0000 0.0000 0.0000 7.4022 0.0000
# 6 0.0000 0.0000 0.0000 0.0000 0.0000 28.5711
#
#
#
# Elastic Compliance Matrix: (Units=1/GPa)
#
#
# Indices 1 2 3 4 5 6 
#
# 1 0.008783 -0.004972 -0.000172 0.000000 0.000000 0.000000
# 2 -0.004972 0.009935 -0.000073 0.000000 0.000000 0.000000
# 3 -0.000172 -0.000073 0.013197 0.000000 0.000000 0.000000
# 4 0.000000 0.000000 0.000000 -0.262340 0.000000 0.000000
# 5 0.000000 0.000000 0.000000 0.000000 0.135095 0.000000
# 6 0.000000 0.000000 0.000000 0.000000 0.000000 0.035000
#
#
# Mechanical properties :
#
#
# Convention : Reuss Voigt Hill
#
# Bulk Modulus (GPa) = 46.55458 60.33451 53.44455
# Shear Modulus (GPa) = -116.99940 25.85532 -45.57204
#
# Velocity S-wave (km/s) = -7.26044 3.41308 -4.53127
# Velocity P-wave (km/s) = 7.02212 6.53573 1.81582
#
# Compressibility (1/GPa) = 0.02148016
#
# Stress axis : x y z
#
# Youngs Moduli (GPa) = 113.85048 100.65913 75.77719
#
# Poissons Ratio (x) = 0.50044 0.01306
# Poissons Ratio (y) = 0.56603 0.00555
# Poissons Ratio (z) = 0.01962 0.00737
#
# Static dielectric constant tensor:
#      x y z
#    x 1.799000 0.000000 0.000000 
#    y 0.000000 1.817980 0.000000 
#    z 0.000000 0.000000 1.889350 
# 
# From -- ./inp_files/17194.got.cif
#   From: 2010.05.17/outbox.cif.g08.bks.cpg/sg58_9_cif.got.tgz:17194.got - 2010.06.03 14:20:14.
