data_PCOD9445081
_publ_section_title
;
Structure prediction by ZEFSAII (Michael W. Deem and Ramdas Pophale) SiO2 
 PCOD9445081
Probable space group: P N N M
;
_chemical_formula_sum "Si O2"
_cell_formula_units_Z 64
_cell_length_a 11.179962
_cell_length_b 32.668124
_cell_length_c 8.616870
_cell_angle_alpha 90.000000
_cell_angle_beta 90.000000
_cell_angle_gamma 90.000000
_cell_volume 3147.125513
_symmetry_space_group_name_H-M "P N N M"
_symmetry_group_IT_number 58
_symmetry_cell_setting 'orthorhombic'
loop_
_space_group_symop_operation_xyz
x,y,z
-x,-y,z
1/2+x,1/2-y,1/2-z
1/2-x,1/2+y,1/2-z
-x,-y,-z
x,y,-z
1/2-x,1/2+y,1/2+z
1/2+x,1/2-y,1/2+z
loop_
_atom_site_type_symbol
_atom_site_label
_atom_site_fract_x
_atom_site_fract_y
_atom_site_fract_z
Si Si1 0.715080 0.270883 0.320523
Si Si2 0.506070 0.320750 0.823904
Si Si3 0.765718 0.187623 0.175927
Si Si4 0.633143 0.486363 0.316397
Si Si5 0.119955 0.475538 0.187514
Si Si6 0.125385 0.665187 0.186004
Si Si7 0.619800 0.119317 0.314028
Si Si8 0.163466 0.102031 0.681104
O O1 0.688995 0.279014 0.500000
O O2 0.619798 0.292549 0.209039
O O3 0.714556 0.222986 0.285806
O O4 0.839252 0.293372 0.274397
O O5 0.407027 0.310351 0.699376
O O6 0.551403 0.367303 0.809359
O O7 0.461563 0.314435 0.000000
O O8 0.725985 0.142969 0.230693
O O9 0.729987 0.195497 0.000000
O O10 0.500000 0.500000 0.258252
O O11 0.635386 0.494167 0.500000
O O12 0.751736 0.507681 0.245204
O O13 0.647405 0.438302 0.280315
O O14 0.107079 0.427874 0.232049
O O15 0.000000 0.500000 0.239882
O O16 0.121396 0.478092 0.000000
O O17 0.223099 0.630124 0.225376
O O18 0.997658 0.645995 0.222636
O O19 0.132927 0.672338 0.000000
O O20 0.636883 0.120297 0.500000
O O21 0.179892 0.090190 0.500000
#
# Coordination Sequence:
#
# PCOD9445081 Si02
#       8
#     8   8   8   8   8   8   8   8
#     4  11  23  40  63  91 123 162 207 252 305 366
#     4  10  22  42  65  90 120 155 205 258 310 368
#     4  12  26  41  60  87 125 167 205 252 309 366
#     4  11  25  40  58  90 131 169 207 258 316 381
#     4  10  22  43  70  97 125 164 215 266 320 386
#     4   9  19  39  65  92 123 158 203 256 306 364
#     4  10  22  40  64  93 126 161 205 259 313 370
#     4   9  19  38  65  91 117 156 204 253 304 367
#
# _framework density 20.336017999999999
#
# number of rings (size 3 to 8) (size 9 to 14) (size 15 to 20)
#    0.000    1.750    0.000    4.500    3.500    6.750 
#    0.000    1.250    0.000    0.000    0.000    0.000 
#    0.000    0.000    0.000    0.000    0.000    0.000 
#
# Total GULP energy -357437.726476 kJ/mol
# GULP energy per Si atom -5584.964476 kJ/mol
# Density = 2.028973 g / cm^3
# Si number density = 20.336018 Si / 1000 Ang^3
#
#
#
# Elastic Constant Matrix: (Units=GPa)
#
#
# Indices 1 2 3 4 5 6 
#
# 1 72.4695 21.0941 9.8673 0.0000 0.0000 0.0000
# 2 21.0941 90.0094 23.3120 0.0000 0.0000 0.0000
# 3 9.8673 23.3120 30.5966 0.0000 0.0000 0.0000
# 4 0.0000 0.0000 0.0000 20.1993 0.0000 0.0000
# 5 0.0000 0.0000 0.0000 0.0000 29.1845 0.0000
# 6 0.0000 0.0000 0.0000 0.0000 0.0000 15.2700
#
#
#
# Elastic Compliance Matrix: (Units=1/GPa)
#
#
# Indices 1 2 3 4 5 6 
#
# 1 0.014984 -0.002816 -0.002687 0.000000 0.000000 0.000000
# 2 -0.002816 0.014370 -0.010041 0.000000 0.000000 0.000000
# 3 -0.002687 -0.010041 0.041200 0.000000 0.000000 0.000000
# 4 0.000000 0.000000 0.000000 0.049507 0.000000 0.000000
# 5 0.000000 0.000000 0.000000 0.000000 0.034265 0.000000
# 6 0.000000 0.000000 0.000000 0.000000 0.000000 0.065488
#
#
# Mechanical properties :
#
#
# Convention : Reuss Voigt Hill
#
# Bulk Modulus (GPa) = 25.33726 33.51359 29.42543
# Shear Modulus (GPa) = 18.93527 22.18425 20.55976
#
# Velocity S-wave (km/s) = 3.05474 3.30644 3.18308
# Velocity P-wave (km/s) = 4.99282 5.57606 5.29248
#
# Compressibility (1/GPa) = 0.03946757
#
# Stress axis : x y z
#
# Youngs Moduli (GPa) = 66.73619 69.58764 24.27167
#
# Poissons Ratio (x) = 0.19594 0.06522
# Poissons Ratio (y) = 0.18791 0.24371
# Poissons Ratio (z) = 0.17933 0.69872
#
# Static dielectric constant tensor:
#      x y z
#    x 1.737030 0.000000 0.000000 
#    y 0.000000 1.695840 0.000000 
#    z 0.000000 0.000000 1.686780 
# 
# From -- ./inp_files/4829.got.cif
#   From: 2010.05.17/outbox.cif.g08.bks.cpg/sg58_3_cif.got.tgz:4829.got - 2010.06.03 14:20:14.
