data_PCOD9445475
_publ_section_title
;
Structure prediction by ZEFSAII (Michael W. Deem and Ramdas Pophale) SiO2 
 PCOD9445475
Probable space group: P N N M
;
_chemical_formula_sum "Si O2"
_cell_formula_units_Z 34
_cell_length_a 11.182692
_cell_length_b 9.829945
_cell_length_c 13.803067
_cell_angle_alpha 90.000000
_cell_angle_beta 90.000000
_cell_angle_gamma 90.000000
_cell_volume 1517.305554
_symmetry_space_group_name_H-M "P N N M"
_symmetry_group_IT_number 58
_symmetry_cell_setting 'orthorhombic'
loop_
_space_group_symop_operation_xyz
x,y,z
-x,-y,z
1/2+x,1/2-y,1/2-z
1/2-x,1/2+y,1/2-z
-x,-y,-z
x,y,-z
1/2-x,1/2+y,1/2+z
1/2+x,1/2-y,1/2+z
loop_
_atom_site_type_symbol
_atom_site_label
_atom_site_fract_x
_atom_site_fract_y
_atom_site_fract_z
Si Si1 0.142850 0.310457 0.709928
Si Si2 0.805145 0.501809 0.000000
Si Si3 0.292101 0.558305 0.660092
Si Si4 0.500000 0.500000 0.500000
Si Si5 0.408343 0.709014 0.000000
Si Si6 0.673019 0.776386 0.000000
Si Si7 0.000000 0.500000 0.837901
O O1 0.247892 0.422156 0.712600
O O2 0.173201 0.169029 0.760123
O O3 0.118200 0.290849 0.597362
O O4 0.034116 0.374842 0.770073
O O5 0.683384 0.416897 0.000000
O O6 0.888012 0.468687 0.907616
O O7 0.778038 0.663015 0.000000
O O8 0.398179 0.527678 0.585054
O O9 0.189073 0.628704 0.593950
O O10 0.550705 0.691901 0.000000
#
# Coordination Sequence:
#
# PCOD9445475 Si02
#       7
#     8   4   8   2   4   4   4
#     4  12  26  47  72 113 149 207 249 325 386 472
#     4  11  24  48  75 110 144 200 260 329 384 471
#     4  11  26  48  77 109 158 201 266 319 399 461
#     4  10  26  48  78 116 154 214 266 328 378 490
#     4  12  27  42  73 108 160 194 249 313 396 473
#     4  11  23  49  71 105 149 197 247 326 389 465
#     4  11  24  45  76 104 146 199 266 313 394 456
#
# _framework density 22.408142999999999
#
# number of rings (size 3 to 8) (size 9 to 14) (size 15 to 20)
#    0.000    0.706    2.353    4.588    0.000    8.941 
#    0.000    0.000    0.000    0.000    0.000    0.000 
#    0.000    0.000    0.000    0.000    0.000    0.000 
#
# Total GULP energy -189790.658390 kJ/mol
# GULP energy per Si atom -5582.078188 kJ/mol
# Density = 2.235714 g / cm^3
# Si number density = 22.408143 Si / 1000 Ang^3
#
#
#
# Elastic Constant Matrix: (Units=GPa)
#
#
# Indices 1 2 3 4 5 6 
#
# 1 105.8619 46.0438 32.5253 0.0000 0.0000 0.0000
# 2 46.0438 82.3901 38.2203 0.0000 0.0000 0.0000
# 3 32.5253 38.2203 145.9708 0.0000 0.0000 0.0000
# 4 0.0000 0.0000 0.0000 8.5723 0.0000 0.0000
# 5 0.0000 0.0000 0.0000 0.0000 33.6967 0.0000
# 6 0.0000 0.0000 0.0000 0.0000 0.0000 39.6432
#
#
#
# Elastic Compliance Matrix: (Units=1/GPa)
#
#
# Indices 1 2 3 4 5 6 
#
# 1 0.012633 -0.006550 -0.001100 0.000000 0.000000 0.000000
# 2 -0.006550 0.017211 -0.003047 0.000000 0.000000 0.000000
# 3 -0.001100 -0.003047 0.007894 0.000000 0.000000 0.000000
# 4 0.000000 0.000000 0.000000 0.116655 0.000000 0.000000
# 5 0.000000 0.000000 0.000000 0.000000 0.029677 0.000000
# 6 0.000000 0.000000 0.000000 0.000000 0.000000 0.025225
#
#
# Mechanical properties :
#
#
# Convention : Reuss Voigt Hill
#
# Bulk Modulus (GPa) = 61.18331 63.08906 62.13619
# Shear Modulus (GPa) = 21.17428 30.87800 26.02614
#
# Velocity S-wave (km/s) = 3.07732 3.71614 3.41172
# Velocity P-wave (km/s) = 6.32375 6.82851 6.58097
#
# Compressibility (1/GPa) = 0.01634433
#
# Stress axis : x y z
#
# Youngs Moduli (GPa) = 79.15809 58.10171 126.68468
#
# Poissons Ratio (x) = 0.38055 0.13935
# Poissons Ratio (y) = 0.51846 0.38602
# Poissons Ratio (z) = 0.08707 0.17704
#
# Static dielectric constant tensor:
#      x y z
#    x 1.855150 0.000000 0.000000 
#    y 0.000000 1.858870 0.000000 
#    z 0.000000 0.000000 1.795600 
# 
# From -- ./inp_files/20696.got.cif
#   From: 2010.05.17/outbox.cif.g08.bks.cpg/sg58_11_cif.got.tgz:20696.got - 2010.06.03 14:20:14.
