data_PCOD9445242
_publ_section_title
;
Structure prediction by ZEFSAII (Michael W. Deem and Ramdas Pophale) SiO2 
 PCOD9445242
Probable space group: P N N M
;
_chemical_formula_sum "Si O2"
_cell_formula_units_Z 64
_cell_length_a 13.183338
_cell_length_b 15.751651
_cell_length_c 16.330887
_cell_angle_alpha 90.000000
_cell_angle_beta 90.000000
_cell_angle_gamma 90.000000
_cell_volume 3391.261203
_symmetry_space_group_name_H-M "P N N M"
_symmetry_group_IT_number 58
_symmetry_cell_setting 'orthorhombic'
loop_
_space_group_symop_operation_xyz
x,y,z
-x,-y,z
1/2+x,1/2-y,1/2-z
1/2-x,1/2+y,1/2-z
-x,-y,-z
x,y,-z
1/2-x,1/2+y,1/2+z
1/2+x,1/2-y,1/2+z
loop_
_atom_site_type_symbol
_atom_site_label
_atom_site_fract_x
_atom_site_fract_y
_atom_site_fract_z
Si Si1 0.108594 0.980250 0.854887
Si Si2 0.551533 0.584665 0.829467
Si Si3 0.030570 0.402238 0.091897
Si Si4 0.883180 0.310019 0.787476
Si Si5 0.748156 0.165656 0.403410
Si Si6 0.202903 0.162329 0.180933
Si Si7 0.933058 0.752640 0.314452
Si Si8 0.262180 0.320739 0.402814
O O1 0.075711 0.937869 0.766699
O O2 0.189107 0.914831 0.894067
O O3 0.158712 0.073330 0.847933
O O4 0.000000 0.000000 0.897199
O O5 0.500000 0.500000 0.863623
O O6 0.657899 0.618315 0.862572
O O7 0.470245 0.657963 0.850584
O O8 0.143620 0.381034 0.122194
O O9 0.000000 0.500000 0.088590
O O10 0.948312 0.360768 0.148647
O O11 0.024835 0.366158 0.000000
O O12 0.790801 0.358417 0.745764
O O13 0.832490 0.234431 0.840591
O O14 0.961674 0.288557 0.714731
O O15 0.757699 0.156609 0.500000
O O16 0.743377 0.265901 0.381390
O O17 0.120393 0.216483 0.231016
O O18 0.852193 0.698335 0.367414
O O19 0.266140 0.297352 0.500000
#
# Coordination Sequence:
#
# PCOD9445242 Si02
#       8
#     8   8   8   8   8   8   8   8
#     4  11  22  41  68  95 125 159 216 274 318 377
#     4  11  21  40  67  94 122 161 214 268 310 378
#     4  10  23  38  56  86 123 155 195 253 317 372
#     4  11  21  38  65  87 118 165 212 254 307 378
#     4  11  24  39  58  87 126 166 208 252 313 393
#     4  11  21  38  65  91 118 162 213 259 312 370
#     4  11  20  40  64  91 126 166 207 259 318 378
#     4  11  25  40  62  97 134 166 209 267 327 384
#
# _framework density 18.872033999999999
#
# number of rings (size 3 to 8) (size 9 to 14) (size 15 to 20)
#    0.000    1.125    6.250    1.125    1.750    1.500 
#    0.000    1.250    0.000    0.750    0.000    0.000 
#    0.000    0.000    0.000    0.000    0.000    0.000 
#
# Total GULP energy -356362.022446 kJ/mol
# GULP energy per Si atom -5568.156601 kJ/mol
# Density = 1.882908 g / cm^3
# Si number density = 18.872034 Si / 1000 Ang^3
#
#
#
# Elastic Constant Matrix: (Units=GPa)
#
#
# Indices 1 2 3 4 5 6 
#
# 1 102.4108 55.7262 34.9154 0.0000 0.0000 0.0000
# 2 55.7262 97.6747 31.6091 0.0000 0.0000 0.0000
# 3 34.9154 31.6091 42.8911 0.0000 0.0000 0.0000
# 4 0.0000 0.0000 0.0000 0.6432 0.0000 0.0000
# 5 0.0000 0.0000 0.0000 0.0000 19.8334 0.0000
# 6 0.0000 0.0000 0.0000 0.0000 0.0000 38.3890
#
#
#
# Elastic Compliance Matrix: (Units=1/GPa)
#
#
# Indices 1 2 3 4 5 6 
#
# 1 0.016157 -0.006516 -0.008351 0.000000 0.000000 0.000000
# 2 -0.006516 0.016072 -0.006540 0.000000 0.000000 0.000000
# 3 -0.008351 -0.006540 0.034933 0.000000 0.000000 0.000000
# 4 0.000000 0.000000 0.000000 1.554607 0.000000 0.000000
# 5 0.000000 0.000000 0.000000 0.000000 0.050420 0.000000
# 6 0.000000 0.000000 0.000000 0.000000 0.000000 0.026049
#
#
# Mechanical properties :
#
#
# Convention : Reuss Voigt Hill
#
# Bulk Modulus (GPa) = 41.07084 54.16422 47.61753
# Shear Modulus (GPa) = 2.85850 19.82152 11.34001
#
# Velocity S-wave (km/s) = 1.23206 3.24437 2.45396
# Velocity P-wave (km/s) = 4.88201 6.54199 5.77199
#
# Compressibility (1/GPa) = 0.02434818
#
# Stress axis : x y z
#
# Youngs Moduli (GPa) = 61.89208 62.21998 28.62624
#
# Poissons Ratio (x) = 0.40540 0.23906
# Poissons Ratio (y) = 0.40327 0.18723
# Poissons Ratio (z) = 0.51686 0.40694
#
# Static dielectric constant tensor:
#      x y z
#    x 1.706360 0.000000 0.000000 
#    y 0.000000 1.687190 0.000000 
#    z 0.000000 0.000000 1.678980 
# 
# From -- ./inp_files/26381.got.cif
#   From: 2010.05.17/outbox.cif.g08.bks.cpg/sg58_14_cif.got.tgz:26381.got - 2010.06.03 14:20:14.
