data_PCOD9445274
_publ_section_title
;
Structure prediction by ZEFSAII (Michael W. Deem and Ramdas Pophale) SiO2 
 PCOD9445274
Probable space group: P N N M
;
_chemical_formula_sum "Si O2"
_cell_formula_units_Z 56
_cell_length_a 21.156856
_cell_length_b 14.340434
_cell_length_c 9.066659
_cell_angle_alpha 90.000000
_cell_angle_beta 90.000000
_cell_angle_gamma 90.000000
_cell_volume 2750.810714
_symmetry_space_group_name_H-M "P N N M"
_symmetry_group_IT_number 58
_symmetry_cell_setting 'orthorhombic'
loop_
_space_group_symop_operation_xyz
x,y,z
-x,-y,z
1/2+x,1/2-y,1/2-z
1/2-x,1/2+y,1/2-z
-x,-y,-z
x,y,-z
1/2-x,1/2+y,1/2+z
1/2+x,1/2-y,1/2+z
loop_
_atom_site_type_symbol
_atom_site_label
_atom_site_fract_x
_atom_site_fract_y
_atom_site_fract_z
Si Si1 0.897718 0.297032 0.174834
Si Si2 0.229013 0.735892 0.669209
Si Si3 0.513360 0.655589 0.171663
Si Si4 0.575332 0.993043 0.171964
Si Si5 0.767625 0.979141 0.831965
Si Si6 0.101109 0.028339 0.672161
Si Si7 0.327540 0.885991 0.325325
O O1 0.833389 0.249080 0.234444
O O2 0.957064 0.236652 0.230893
O O3 0.902329 0.400137 0.244126
O O4 0.896375 0.302922 0.000000
O O5 0.215024 0.765586 0.500000
O O6 0.244213 0.626976 0.669555
O O7 0.291941 0.790653 0.716922
O O8 0.444569 0.615082 0.211512
O O9 0.559327 0.565533 0.181020
O O10 0.512154 0.685513 0.000000
O O11 0.500000 0.000000 0.184293
O O12 0.609795 0.083039 0.239995
O O13 0.592755 0.984338 0.000000
O O14 0.839121 0.980516 0.776180
O O15 0.724313 0.037325 0.721464
O O16 0.762037 0.014871 0.000000
O O17 0.120022 0.039023 0.500000
O O18 0.339421 0.886230 0.500000
#
# Coordination Sequence:
#
# PCOD9445274 Si02
#       7
#     8   8   8   8   8   8   8
#     4  12  24  38  62  93 122 160 210 258 307 374
#     4  10  23  41  61  86 123 164 201 249 314 374
#     4   9  19  37  59  83 118 162 202 246 305 366
#     4  11  25  45  67  90 122 165 208 258 320 379
#     4  11  22  37  59  87 122 161 197 248 307 363
#     4   9  19  36  58  85 118 159 204 251 304 362
#     4  11  23  41  65  93 124 163 209 261 314 370
#
# _framework density 20.357634000000001
#
# number of rings (size 3 to 8) (size 9 to 14) (size 15 to 20)
#    0.000    1.571    1.429    4.286    0.000    8.571 
#    0.000    4.286    0.000    0.000    0.000    0.000 
#    0.000    0.000    0.000    0.000    0.000    0.000 
#
# Total GULP energy -313066.948877 kJ/mol
# GULP energy per Si atom -5590.481230 kJ/mol
# Density = 2.031130 g / cm^3
# Si number density = 20.357634 Si / 1000 Ang^3
#
#
#
# Elastic Constant Matrix: (Units=GPa)
#
#
# Indices 1 2 3 4 5 6 
#
# 1 65.3074 -17.8550 23.3474 0.0000 0.0000 0.0000
# 2 -17.8550 19.0604 4.1107 0.0000 0.0000 0.0000
# 3 23.3474 4.1107 68.1385 0.0000 0.0000 0.0000
# 4 0.0000 0.0000 0.0000 -62.5618 0.0000 0.0000
# 5 0.0000 0.0000 0.0000 0.0000 -8.1082 0.0000
# 6 0.0000 0.0000 0.0000 0.0000 0.0000 29.2534
#
#
#
# Elastic Compliance Matrix: (Units=1/GPa)
#
#
# Indices 1 2 3 4 5 6 
#
# 1 0.026608 0.027247 -0.010761 0.000000 0.000000 0.000000
# 2 0.027247 0.081056 -0.014226 0.000000 0.000000 0.000000
# 3 -0.010761 -0.014226 0.019221 0.000000 0.000000 0.000000
# 4 0.000000 0.000000 0.000000 -0.015984 0.000000 0.000000
# 5 0.000000 0.000000 0.000000 0.000000 -0.123331 0.000000
# 6 0.000000 0.000000 0.000000 0.000000 0.000000 0.034184
#
#
# Mechanical properties :
#
#
# Convention : Reuss Voigt Hill
#
# Bulk Modulus (GPa) = 7.61004 19.07919 13.34461
# Shear Modulus (GPa) = 81.91663 1.24353 41.58008
#
# Velocity S-wave (km/s) = 6.35029 0.78241 4.52428
# Velocity P-wave (km/s) = 7.58383 3.19509 5.81907
#
# Compressibility (1/GPa) = 0.13140538
#
# Stress axis : x y z
#
# Youngs Moduli (GPa) = 37.58202 12.33708 52.02513
#
# Poissons Ratio (x) = -0.33614 0.55985
# Poissons Ratio (y) = -1.02398 0.74011
# Poissons Ratio (z) = 0.40442 0.17551
#
# Static dielectric constant tensor:
#      x y z
#    x 1.728970 0.000000 0.000000 
#    y 0.000000 1.724430 0.000000 
#    z 0.000000 0.000000 1.692660 
# 
# From -- ./inp_files/9020.got.cif
#   From: 2010.05.17/outbox.cif.g08.bks.cpg/sg58_5_cif.got.tgz:9020.got - 2010.06.03 14:20:14.
