data_PCOD9445812
_publ_section_title
;
Structure prediction by ZEFSAII (Michael W. Deem and Ramdas Pophale) SiO2 
 PCOD9445812
Probable space group: P N N M
;
_chemical_formula_sum "Si O2"
_cell_formula_units_Z 38
_cell_length_a 8.840731
_cell_length_b 8.408556
_cell_length_c 22.888263
_cell_angle_alpha 90.000000
_cell_angle_beta 90.000000
_cell_angle_gamma 90.000000
_cell_volume 1701.462698
_symmetry_space_group_name_H-M "P N N M"
_symmetry_group_IT_number 58
_symmetry_cell_setting 'orthorhombic'
loop_
_space_group_symop_operation_xyz
x,y,z
-x,-y,z
1/2+x,1/2-y,1/2-z
1/2-x,1/2+y,1/2-z
-x,-y,-z
x,y,-z
1/2-x,1/2+y,1/2+z
1/2+x,1/2-y,1/2+z
loop_
_atom_site_type_symbol
_atom_site_label
_atom_site_fract_x
_atom_site_fract_y
_atom_site_fract_z
Si Si1 0.464978 0.687333 0.937952
Si Si2 0.763269 0.792169 0.675814
Si Si3 0.500000 0.500000 0.500000
Si Si4 0.200760 0.218440 0.087758
Si Si5 0.332900 0.549115 0.705095
Si Si6 0.000000 0.500000 0.122303
O O1 0.500000 0.500000 0.937807
O O2 0.359662 0.716468 0.883043
O O3 0.627645 0.770438 0.934047
O O4 0.389879 0.730881 0.000000
O O5 0.757253 0.613522 0.699184
O O6 0.831985 0.891285 0.728941
O O7 0.604293 0.878236 0.659595
O O8 0.602247 0.407283 0.448770
O O9 0.216934 0.174856 0.156450
O O10 0.113574 0.388047 0.085504
O O11 0.500000 0.500000 0.687778
#
# Coordination Sequence:
#
# PCOD9445812 Si02
#       6
#     8   8   2   8   8   4
#     4  11  25  49  76 114 150 198 253 315 383 460
#     4  12  27  47  77 110 153 198 256 318 385 465
#     4  12  24  50  70 110 156 198 246 324 370 460
#     4  12  25  48  76 108 154 197 252 316 381 461
#     4  12  27  47  72 111 152 196 253 314 385 454
#     4  12  24  47  76 112 138 199 254 300 390 452
#
# _framework density 22.333727
#
# number of rings (size 3 to 8) (size 9 to 14) (size 15 to 20)
#    0.000    0.211    6.316    1.895    2.947    1.263 
#    7.579    1.053    0.000    0.000    0.000    0.000 
#    0.000    0.000    0.000    0.000    0.000    0.000 
#
# Total GULP energy -212030.727083 kJ/mol
# GULP energy per Si atom -5579.755976 kJ/mol
# Density = 2.228289 g / cm^3
# Si number density = 22.333727 Si / 1000 Ang^3
#
#
#
# Elastic Constant Matrix: (Units=GPa)
#
#
# Indices 1 2 3 4 5 6 
#
# 1 45.2716 28.7076 30.0951 0.0000 0.0000 0.0000
# 2 28.7076 84.7529 39.0291 0.0000 0.0000 0.0000
# 3 30.0951 39.0291 166.4574 0.0000 0.0000 0.0000
# 4 0.0000 0.0000 0.0000 -176.0006 0.0000 0.0000
# 5 0.0000 0.0000 0.0000 0.0000 30.4896 0.0000
# 6 0.0000 0.0000 0.0000 0.0000 0.0000 31.7945
#
#
#
# Elastic Compliance Matrix: (Units=1/GPa)
#
#
# Indices 1 2 3 4 5 6 
#
# 1 0.029735 -0.008516 -0.003379 0.000000 0.000000 0.000000
# 2 -0.008516 0.015666 -0.002134 0.000000 0.000000 0.000000
# 3 -0.003379 -0.002134 0.007119 0.000000 0.000000 0.000000
# 4 0.000000 0.000000 0.000000 -0.005682 0.000000 0.000000
# 5 0.000000 0.000000 0.000000 0.000000 0.032798 0.000000
# 6 0.000000 0.000000 0.000000 0.000000 0.000000 0.031452
#
#
# Mechanical properties :
#
#
# Convention : Reuss Voigt Hill
#
# Bulk Modulus (GPa) = 40.87852 54.68283 47.78067
# Shear Modulus (GPa) = 33.94430 -9.49994 12.22218
#
# Velocity S-wave (km/s) = 3.90278 -2.06467 2.34188
# Velocity P-wave (km/s) = 6.21708 4.34209 5.36218
#
# Compressibility (1/GPa) = 0.02446273
#
# Stress axis : x y z
#
# Youngs Moduli (GPa) = 33.62993 63.83260 140.47343
#
# Poissons Ratio (x) = 0.54358 0.47472
# Poissons Ratio (y) = 0.28638 0.29971
# Poissons Ratio (z) = 0.11365 0.13619
#
# Static dielectric constant tensor:
#      x y z
#    x 1.781350 0.000000 0.000000 
#    y 0.000000 1.550920 0.000000 
#    z 0.000000 0.000000 1.819220 
# 
# From -- ./inp_files/31296.got.cif
#   From: 2010.05.17/outbox.cif.g08.bks.cpg/sg58_16_cif.got.tgz:31296.got - 2010.06.03 14:20:14.
