data_PCOD9445030
_publ_section_title
;
Structure prediction by ZEFSAII (Michael W. Deem and Ramdas Pophale) SiO2 
 PCOD9445030
Probable space group: P N N M
;
_chemical_formula_sum "Si O2"
_cell_formula_units_Z 34
_cell_length_a 23.331293
_cell_length_b 8.398024
_cell_length_c 7.484165
_cell_angle_alpha 90.000000
_cell_angle_beta 90.000000
_cell_angle_gamma 90.000000
_cell_volume 1466.423031
_symmetry_space_group_name_H-M "P N N M"
_symmetry_group_IT_number 58
_symmetry_cell_setting 'orthorhombic'
loop_
_space_group_symop_operation_xyz
x,y,z
-x,-y,z
1/2+x,1/2-y,1/2-z
1/2-x,1/2+y,1/2-z
-x,-y,-z
x,y,-z
1/2-x,1/2+y,1/2+z
1/2+x,1/2-y,1/2+z
loop_
_atom_site_type_symbol
_atom_site_label
_atom_site_fract_x
_atom_site_fract_y
_atom_site_fract_z
Si Si1 0.914256 0.447368 0.704761
Si Si2 0.000000 0.500000 0.000000
Si Si3 0.941601 0.085054 0.782042
Si Si4 0.176433 0.066344 0.788442
Si Si5 0.794664 0.569968 0.286043
O O1 0.918976 0.503221 0.500000
O O2 0.935510 0.266118 0.719431
O O3 0.847665 0.456101 0.763292
O O4 0.952779 0.543303 0.843278
O O5 0.884929 0.991676 0.720228
O O6 0.943270 0.093402 0.000000
O O7 0.000000 0.000000 0.724808
O O8 0.187082 0.252573 0.762599
O O9 0.232506 0.977301 0.712923
O O10 0.174383 0.033937 0.000000
O O11 0.790350 0.560121 0.500000
#
# Coordination Sequence:
#
# PCOD9445030 Si02
#       5
#     8   2   8   8   8
#     4  11  25  43  68  98 134 175 225 272 332 399
#     4  12  26  44  70  98 136 180 210 284 328 398
#     4  10  22  40  64  96 135 179 223 271 333 397
#     4  10  22  39  65  94 131 178 222 269 333 397
#     4  10  23  41  62  97 131 168 225 277 327 393
#
# _framework density 23.185666999999999
#
# number of rings (size 3 to 8) (size 9 to 14) (size 15 to 20)
#    0.000    1.647    1.176    1.765    4.941    2.353 
#    0.000    0.000    0.000    0.000    0.000    0.000 
#    0.000    0.000    0.000    0.000    0.000    0.000 
#
# Total GULP energy -189656.284757 kJ/mol
# GULP energy per Si atom -5578.126022 kJ/mol
# Density = 2.313290 g / cm^3
# Si number density = 23.185667 Si / 1000 Ang^3
#
#
#
# Elastic Constant Matrix: (Units=GPa)
#
#
# Indices 1 2 3 4 5 6 
#
# 1 204.5872 38.4185 54.2355 0.0000 0.0000 0.0000
# 2 38.4185 73.4519 -3.0649 0.0000 0.0000 0.0000
# 3 54.2355 -3.0649 99.6615 0.0000 0.0000 0.0000
# 4 0.0000 0.0000 0.0000 38.8353 0.0000 0.0000
# 5 0.0000 0.0000 0.0000 0.0000 -31.6494 0.0000
# 6 0.0000 0.0000 0.0000 0.0000 0.0000 45.8223
#
#
#
# Elastic Compliance Matrix: (Units=1/GPa)
#
#
# Indices 1 2 3 4 5 6 
#
# 1 0.006529 -0.003568 -0.003663 0.000000 0.000000 0.000000
# 2 -0.003568 0.015581 0.002421 0.000000 0.000000 0.000000
# 3 -0.003663 0.002421 0.012102 0.000000 0.000000 0.000000
# 4 0.000000 0.000000 0.000000 0.025750 0.000000 0.000000
# 5 0.000000 0.000000 0.000000 0.000000 -0.031596 0.000000
# 6 0.000000 0.000000 0.000000 0.000000 0.000000 0.021823
#
#
# Mechanical properties :
#
#
# Convention : Reuss Voigt Hill
#
# Bulk Modulus (GPa) = 40.66276 61.87544 51.26910
# Shear Modulus (GPa) = 73.52318 29.80906 51.66612
#
# Velocity S-wave (km/s) = 5.63733 3.58951 4.72568
# Velocity P-wave (km/s) = 7.74265 6.62754 7.20669
#
# Compressibility (1/GPa) = 0.02459253
#
# Stress axis : x y z
#
# Youngs Moduli (GPa) = 153.16702 64.17898 82.63353
#
# Poissons Ratio (x) = 0.22897 0.30266
# Poissons Ratio (y) = 0.54645 -0.20003
# Poissons Ratio (z) = 0.56100 -0.15536
#
# Static dielectric constant tensor:
#      x y z
#    x 1.904760 0.000000 0.000000 
#    y 0.000000 1.845230 0.000000 
#    z 0.000000 0.000000 1.860750 
# 
# From -- ./inp_files/2265.got.cif
#   From: 2010.05.17/outbox.cif.g08.bks.cpg/sg58_2_cif.got.tgz:2265.got - 2010.06.03 14:20:14.
