data_PCOD9445582
_publ_section_title
;
Structure prediction by ZEFSAII (Michael W. Deem and Ramdas Pophale) SiO2 
 PCOD9445582
Probable space group: P N N M
;
_chemical_formula_sum "Si O2"
_cell_formula_units_Z 56
_cell_length_a 9.206675
_cell_length_b 21.151821
_cell_length_c 14.921630
_cell_angle_alpha 90.000000
_cell_angle_beta 90.000000
_cell_angle_gamma 90.000000
_cell_volume 2905.807512
_symmetry_space_group_name_H-M "P N N M"
_symmetry_group_IT_number 58
_symmetry_cell_setting 'orthorhombic'
loop_
_space_group_symop_operation_xyz
x,y,z
-x,-y,z
1/2+x,1/2-y,1/2-z
1/2-x,1/2+y,1/2-z
-x,-y,-z
x,y,-z
1/2-x,1/2+y,1/2+z
1/2+x,1/2-y,1/2+z
loop_
_atom_site_type_symbol
_atom_site_label
_atom_site_fract_x
_atom_site_fract_y
_atom_site_fract_z
Si Si1 0.896200 0.137597 0.335177
Si Si2 0.112084 0.056041 0.231734
Si Si3 0.326728 0.986223 0.106135
Si Si4 0.599331 0.940307 0.500000
Si Si5 0.141738 0.625494 0.177437
Si Si6 0.139143 0.356938 0.293023
Si Si7 0.644949 0.272281 0.104458
Si Si8 0.856084 0.039540 0.500000
O O1 0.747616 0.158066 0.288645
O O2 0.858490 0.084455 0.410934
O O3 0.002877 0.114080 0.253471
O O4 0.991370 0.192259 0.381032
O O5 0.242924 0.070282 0.299662
O O6 0.207783 0.036662 0.144165
O O7 0.000000 0.000000 0.249165
O O8 0.305341 0.920982 0.159838
O O9 0.500000 0.000000 0.119743
O O10 0.304863 0.979016 0.000000
O O11 0.572370 0.897196 0.414451
O O12 0.500000 0.000000 0.500000
O O13 0.748303 0.979437 0.500000
O O14 0.233946 0.688562 0.159529
O O15 0.021515 0.632623 0.253265
O O16 0.137592 0.298927 0.361242
O O17 0.682614 0.275967 0.000000
O O18 0.000000 0.000000 0.500000
#
# Coordination Sequence:
#
# PCOD9445582 Si02
#       8
#     8   8   8   4   8   8   8   4
#     4  11  23  40  64  95 127 167 213 261 321 395
#     4  11  21  38  64  93 130 161 203 259 323 388
#     4  11  24  42  63  93 127 166 210 269 324 381
#     4  12  24  34  60 100 140 162 194 253 328 390
#     4  11  24  41  63  96 131 169 210 268 321 392
#     4  12  24  41  68  89 124 172 224 263 320 385
#     4  11  23  46  64  88 124 170 221 271 323 378
#     4  12  22  36  62  96 132 168 196 249 321 400
#
# _framework density 19.271751999999999
#
# number of rings (size 3 to 8) (size 9 to 14) (size 15 to 20)
#    0.000    0.714    4.286    5.143    2.000    0.286 
#    0.000    0.000    0.000    0.000    0.000    0.000 
#    0.000    0.000    0.000    0.000    0.000    0.000 
#
# Total GULP energy -312040.239635 kJ/mol
# GULP energy per Si atom -5572.147136 kJ/mol
# Density = 1.922789 g / cm^3
# Si number density = 19.271752 Si / 1000 Ang^3
#
#
#
# Elastic Constant Matrix: (Units=GPa)
#
#
# Indices 1 2 3 4 5 6 
#
# 1 76.6417 5.0478 24.7800 0.0000 0.0000 0.0000
# 2 5.0478 34.2945 19.6379 0.0000 0.0000 0.0000
# 3 24.7800 19.6379 82.4680 0.0000 0.0000 0.0000
# 4 0.0000 0.0000 0.0000 39.6291 0.0000 0.0000
# 5 0.0000 0.0000 0.0000 0.0000 23.8864 0.0000
# 6 0.0000 0.0000 0.0000 0.0000 0.0000 23.1710
#
#
#
# Elastic Compliance Matrix: (Units=1/GPa)
#
#
# Indices 1 2 3 4 5 6 
#
# 1 0.014457 0.000416 -0.004443 0.000000 0.000000 0.000000
# 2 0.000416 0.033775 -0.008168 0.000000 0.000000 0.000000
# 3 -0.004443 -0.008168 0.015406 0.000000 0.000000 0.000000
# 4 0.000000 0.000000 0.000000 0.025234 0.000000 0.000000
# 5 0.000000 0.000000 0.000000 0.000000 0.041865 0.000000
# 6 0.000000 0.000000 0.000000 0.000000 0.000000 0.043157
#
#
# Mechanical properties :
#
#
# Convention : Reuss Voigt Hill
#
# Bulk Modulus (GPa) = 25.47864 32.48172 28.98018
# Shear Modulus (GPa) = 23.65563 26.93321 25.29442
#
# Velocity S-wave (km/s) = 3.50734 3.74244 3.62679
# Velocity P-wave (km/s) = 5.44530 5.96369 5.71038
#
# Compressibility (1/GPa) = 0.03924857
#
# Stress axis : x y z
#
# Youngs Moduli (GPa) = 69.17127 29.60769 64.90994
#
# Poissons Ratio (x) = -0.01233 0.28840
# Poissons Ratio (y) = -0.02880 0.53017
# Poissons Ratio (z) = 0.30734 0.24183
#
# Static dielectric constant tensor:
#      x y z
#    x 1.665750 0.000000 0.000000 
#    y 0.000000 1.666850 0.000000 
#    z 0.000000 0.000000 1.644970 
# 
# From -- ./inp_files/20162.got.cif
#   From: 2010.05.17/outbox.cif.g08.bks.cpg/sg58_11_cif.got.tgz:20162.got - 2010.06.03 14:20:14.
