data_PCOD9445736
_publ_section_title
;
Structure prediction by ZEFSAII (Michael W. Deem and Ramdas Pophale) SiO2 
 PCOD9445736
Probable space group: P N N M
;
_chemical_formula_sum "Si O2"
_cell_formula_units_Z 48
_cell_length_a 14.751541
_cell_length_b 5.199692
_cell_length_c 26.656876
_cell_angle_alpha 90.000000
_cell_angle_beta 90.000000
_cell_angle_gamma 90.000000
_cell_volume 2044.674881
_symmetry_space_group_name_H-M "P N N M"
_symmetry_group_IT_number 58
_symmetry_cell_setting 'orthorhombic'
loop_
_space_group_symop_operation_xyz
x,y,z
-x,-y,z
1/2+x,1/2-y,1/2-z
1/2-x,1/2+y,1/2-z
-x,-y,-z
x,y,-z
1/2-x,1/2+y,1/2+z
1/2+x,1/2-y,1/2+z
loop_
_atom_site_type_symbol
_atom_site_label
_atom_site_fract_x
_atom_site_fract_y
_atom_site_fract_z
Si Si1 0.894128 0.581359 0.225052
Si Si2 0.849653 0.097211 0.834891
Si Si3 0.060443 0.249295 0.669118
Si Si4 0.903491 0.360609 0.500000
Si Si5 0.919694 0.714233 0.000000
Si Si6 0.000000 0.000000 0.092142
Si Si7 0.766960 0.977198 0.500000
Si Si8 0.804887 0.646076 0.410944
O O1 0.840034 0.337584 0.203000
O O2 0.880759 0.660922 0.282980
O O3 0.000000 0.500000 0.222873
O O4 0.875514 0.836689 0.193544
O O5 0.763184 0.040320 0.869483
O O6 0.933661 0.161196 0.872091
O O7 0.121448 0.194884 0.620851
O O8 0.000000 0.500000 0.656863
O O9 0.000000 0.000000 0.682169
O O10 0.855329 0.453062 0.448544
O O11 0.000000 0.500000 0.500000
O O12 0.873071 0.061658 0.500000
O O13 0.937873 0.849132 0.946949
O O14 0.000000 0.500000 0.000000
O O15 0.812067 0.681152 0.000000
O O16 0.750326 0.820474 0.449624
#
# Coordination Sequence:
#
# PCOD9445736 Si02
#       8
#     8   8   8   4   4   4   4   8
#     4  11  23  45  70 107 144 193 240 289 364 446
#     4  12  25  41  73 105 148 190 240 297 363 444
#     4  11  26  48  76 104 144 191 246 307 369 446
#     4  11  26  49  74 100 143 198 254 319 378 443
#     4  11  24  41  68 101 147 195 243 301 361 451
#     4  11  24  40  66 100 140 196 246 279 366 434
#     4  11  26  47  70 103 150 183 252 312 377 449
#     4  11  28  43  71 110 139 190 247 312 376 441
#
# _framework density 23.475612999999999
#
# number of rings (size 3 to 8) (size 9 to 14) (size 15 to 20)
#    0.000    0.833    1.667    4.500   11.667    4.667 
#    0.000    0.000    0.000    0.000    0.000    0.000 
#    0.000    0.000    0.000    0.000    0.000    0.000 
#
# Total GULP energy -268214.293845 kJ/mol
# GULP energy per Si atom -5587.797788 kJ/mol
# Density = 2.342218 g / cm^3
# Si number density = 23.475613 Si / 1000 Ang^3
#
#
#
# Elastic Constant Matrix: (Units=GPa)
#
#
# Indices 1 2 3 4 5 6 
#
# 1 66.9729 10.7797 38.7654 0.0000 0.0000 0.0000
# 2 10.7797 95.8308 41.7761 0.0000 0.0000 0.0000
# 3 38.7654 41.7761 155.3057 0.0000 0.0000 0.0000
# 4 0.0000 0.0000 0.0000 47.2789 0.0000 0.0000
# 5 0.0000 0.0000 0.0000 0.0000 43.7106 0.0000
# 6 0.0000 0.0000 0.0000 0.0000 0.0000 20.3279
#
#
#
# Elastic Compliance Matrix: (Units=1/GPa)
#
#
# Indices 1 2 3 4 5 6 
#
# 1 0.017453 -0.000073 -0.004337 0.000000 0.000000 0.000000
# 2 -0.000073 0.011822 -0.003162 0.000000 0.000000 0.000000
# 3 -0.004337 -0.003162 0.008372 0.000000 0.000000 0.000000
# 4 0.000000 0.000000 0.000000 0.021151 0.000000 0.000000
# 5 0.000000 0.000000 0.000000 0.000000 0.022878 0.000000
# 6 0.000000 0.000000 0.000000 0.000000 0.000000 0.049193
#
#
# Mechanical properties :
#
#
# Convention : Reuss Voigt Hill
#
# Bulk Modulus (GPa) = 44.43618 55.63908 50.03763
# Shear Modulus (GPa) = 32.57046 37.38271 34.97658
#
# Velocity S-wave (km/s) = 3.72885 3.99483 3.86412
# Velocity P-wave (km/s) = 6.12444 6.71047 6.42414
#
# Compressibility (1/GPa) = 0.02250418
#
# Stress axis : x y z
#
# Youngs Moduli (GPa) = 57.29529 84.59116 119.44647
#
# Poissons Ratio (x) = 0.00614 0.51804
# Poissons Ratio (y) = 0.00416 0.37766
# Poissons Ratio (z) = 0.24849 0.26746
#
# Static dielectric constant tensor:
#      x y z
#    x 1.995790 0.000000 0.000000 
#    y 0.000000 1.964200 0.000000 
#    z 0.000000 0.000000 1.837600 
# 
# From -- ./inp_files/33727.got.cif
#   From: 2010.05.17/outbox.cif.g08.bks.cpg/sg58_17_cif.got.tgz:33727.got - 2010.06.03 14:20:14.
