data_PCOD9445499
_publ_section_title
;
Structure prediction by ZEFSAII (Michael W. Deem and Ramdas Pophale) SiO2 
 PCOD9445499
Probable space group: P N N M
;
_chemical_formula_sum "Si O2"
_cell_formula_units_Z 64
_cell_length_a 9.958357
_cell_length_b 12.615390
_cell_length_c 32.198927
_cell_angle_alpha 90.000000
_cell_angle_beta 90.000000
_cell_angle_gamma 90.000000
_cell_volume 4045.104746
_symmetry_space_group_name_H-M "P N N M"
_symmetry_group_IT_number 58
_symmetry_cell_setting 'orthorhombic'
loop_
_space_group_symop_operation_xyz
x,y,z
-x,-y,z
1/2+x,1/2-y,1/2-z
1/2-x,1/2+y,1/2-z
-x,-y,-z
x,y,-z
1/2-x,1/2+y,1/2+z
1/2+x,1/2-y,1/2+z
loop_
_atom_site_type_symbol
_atom_site_label
_atom_site_fract_x
_atom_site_fract_y
_atom_site_fract_z
Si Si1 0.088687 0.596348 0.227556
Si Si2 0.241894 0.917810 0.863670
Si Si3 0.400613 0.596084 0.232106
Si Si4 0.242256 0.673362 0.368055
Si Si5 0.982954 0.691915 0.686342
Si Si6 0.678637 0.105128 0.046254
Si Si7 0.130110 0.649159 0.454312
Si Si8 0.000578 0.805275 0.181798
O O1 0.244382 0.565633 0.231255
O O2 0.070541 0.699423 0.198947
O O3 0.000000 0.500000 0.211218
O O4 0.029368 0.628176 0.272665
O O5 0.372798 0.872458 0.840032
O O6 0.240922 0.876006 0.911340
O O7 0.111075 0.878538 0.839741
O O8 0.249242 0.045096 0.864079
O O9 0.500000 0.500000 0.221436
O O10 0.424182 0.696579 0.202180
O O11 0.437837 0.635669 0.278332
O O12 0.210329 0.697060 0.415995
O O13 0.379405 0.718347 0.349632
O O14 0.115233 0.709075 0.341050
O O15 0.530827 0.156446 0.051231
O O16 0.657338 0.977667 0.045591
O O17 0.730967 0.134222 0.000000
O O18 0.165929 0.690185 0.500000
#
# Coordination Sequence:
#
# PCOD9445499 Si02
#       8
#     8   8   8   8   8   8   8   8
#     4  11  24  38  54  71  98 134 168 212 257 295
#     4  11  19  33  49  73 105 136 170 206 242 293
#     4  11  24  38  53  72 100 132 166 215 257 289
#     4  11  19  31  51  75 100 141 167 202 245 294
#     4  11  22  34  51  74  99 131 174 205 241 299
#     4   8  14  25  44  69  98 133 166 201 242 289
#     4   8  14  25  43  70 100 130 167 202 239 290
#     4  11  24  36  49  74 104 131 172 211 245 298
#
# _framework density 15.821593
#
# number of rings (size 3 to 8) (size 9 to 14) (size 15 to 20)
#    0.000    1.750    3.750    3.000    3.500    0.000 
#    0.000    0.625    0.000    3.000    0.000    0.000 
#    0.000    6.000    0.000    0.000    0.000    0.000 
#
# Total GULP energy -357018.451671 kJ/mol
# GULP energy per Si atom -5578.413307 kJ/mol
# Density = 1.578558 g / cm^3
# Si number density = 15.821593 Si / 1000 Ang^3
#
#
#
# Elastic Constant Matrix: (Units=GPa)
#
#
# Indices 1 2 3 4 5 6 
#
# 1 92.1437 13.9298 26.8666 0.0000 0.0000 0.0000
# 2 13.9298 36.9536 10.2648 0.0000 0.0000 0.0000
# 3 26.8666 10.2648 99.7141 0.0000 0.0000 0.0000
# 4 0.0000 0.0000 0.0000 -0.8517 0.0000 0.0000
# 5 0.0000 0.0000 0.0000 0.0000 9.3934 0.0000
# 6 0.0000 0.0000 0.0000 0.0000 0.0000 23.6958
#
#
#
# Elastic Compliance Matrix: (Units=1/GPa)
#
#
# Indices 1 2 3 4 5 6 
#
# 1 0.012280 -0.003819 -0.002916 0.000000 0.000000 0.000000
# 2 -0.003819 0.029045 -0.001961 0.000000 0.000000 0.000000
# 3 -0.002916 -0.001961 0.011016 0.000000 0.000000 0.000000
# 4 0.000000 0.000000 0.000000 -1.174157 0.000000 0.000000
# 5 0.000000 0.000000 0.000000 0.000000 0.106458 0.000000
# 6 0.000000 0.000000 0.000000 0.000000 0.000000 0.042201
#
#
# Mechanical properties :
#
#
# Convention : Reuss Voigt Hill
#
# Bulk Modulus (GPa) = 28.61219 36.77041 32.69130
# Shear Modulus (GPa) = -5.29597 18.29753 6.50078
#
# Velocity S-wave (km/s) = -1.83155 3.40441 2.02922
# Velocity P-wave (km/s) = 3.69469 6.22450 5.11836
#
# Compressibility (1/GPa) = 0.03495014
#
# Stress axis : x y z
#
# Youngs Moduli (GPa) = 81.43284 34.42901 90.77632
#
# Poissons Ratio (x) = 0.13149 0.26466
# Poissons Ratio (y) = 0.31100 0.17801
# Poissons Ratio (z) = 0.23742 0.06751
#
# Static dielectric constant tensor:
#      x y z
#    x 1.525200 0.000000 0.000000 
#    y 0.000000 1.514960 0.000000 
#    z 0.000000 0.000000 1.550750 
# 
# From -- ./inp_files/34754.got.cif
#   From: 2010.05.17/outbox.cif.g08.bks.cpg/sg58_18_cif.got.tgz:34754.got - 2010.06.03 14:20:14.
