data_PCOD9445337
_publ_section_title
;
Structure prediction by ZEFSAII (Michael W. Deem and Ramdas Pophale) SiO2 
 PCOD9445337
Probable space group: P N N M
;
_chemical_formula_sum "Si O2"
_cell_formula_units_Z 64
_cell_length_a 11.741337
_cell_length_b 15.406102
_cell_length_c 18.994089
_cell_angle_alpha 90.000000
_cell_angle_beta 90.000000
_cell_angle_gamma 90.000000
_cell_volume 3435.807243
_symmetry_space_group_name_H-M "P N N M"
_symmetry_group_IT_number 58
_symmetry_cell_setting 'orthorhombic'
loop_
_space_group_symop_operation_xyz
x,y,z
-x,-y,z
1/2+x,1/2-y,1/2-z
1/2-x,1/2+y,1/2-z
-x,-y,-z
x,y,-z
1/2-x,1/2+y,1/2+z
1/2+x,1/2-y,1/2+z
loop_
_atom_site_type_symbol
_atom_site_label
_atom_site_fract_x
_atom_site_fract_y
_atom_site_fract_z
Si Si1 0.728040 0.835245 0.188332
Si Si2 0.013148 0.900266 0.614297
Si Si3 0.126376 0.741976 0.169764
Si Si4 0.990809 0.597501 0.081919
Si Si5 0.248217 0.314657 0.921928
Si Si6 0.853927 0.741385 0.581372
Si Si7 0.952881 0.402913 0.581832
Si Si8 0.976714 0.902190 0.218742
O O1 0.658288 0.798980 0.254706
O O2 0.763247 0.754761 0.139403
O O3 0.647835 0.891359 0.137446
O O4 0.842555 0.882467 0.212940
O O5 0.131984 0.862500 0.587026
O O6 0.913784 0.835230 0.589863
O O7 0.012219 0.898353 0.699245
O O8 0.000000 0.000000 0.591777
O O9 0.244665 0.764843 0.131050
O O10 0.060684 0.668853 0.124924
O O11 0.048379 0.827189 0.179774
O O12 0.858125 0.621604 0.083085
O O13 0.000000 0.500000 0.110138
O O14 0.029456 0.598219 0.000000
O O15 0.244446 0.274206 0.000000
O O16 0.820470 0.729172 0.500000
O O17 0.949884 0.668888 0.598083
O O18 0.918430 0.388111 0.500000
O O19 0.000000 0.500000 0.586444
O O20 0.000000 0.000000 0.192737
#
# Coordination Sequence:
#
# PCOD9445337 Si02
#       8
#     8   8   8   8   8   8   8   8
#     4  12  23  42  66  91 123 171 213 259 310 374
#     4  11  23  41  62  94 127 164 208 259 321 382
#     4  12  24  42  65  90 130 170 212 255 316 379
#     4  10  24  43  64  94 128 163 207 260 318 380
#     4  11  22  39  65  89 122 167 210 260 311 374
#     4  11  23  40  62  92 127 161 203 259 318 372
#     4  10  23  43  67  94 123 158 210 268 315 365
#     4  11  25  43  63  94 135 170 212 264 315 377
#
# _framework density 18.627355999999999
#
# number of rings (size 3 to 8) (size 9 to 14) (size 15 to 20)
#    0.000    1.000    5.000    1.125    3.500    1.500 
#    0.000    0.000    0.000    3.000    0.000    0.000 
#    0.000    0.000    0.000    0.000    0.000    0.000 
#
# Total GULP energy -357626.009521 kJ/mol
# GULP energy per Si atom -5587.906399 kJ/mol
# Density = 1.858496 g / cm^3
# Si number density = 18.627356 Si / 1000 Ang^3
#
#
#
# Elastic Constant Matrix: (Units=GPa)
#
#
# Indices 1 2 3 4 5 6 
#
# 1 95.6165 40.2344 35.5028 0.0000 0.0000 0.0000
# 2 40.2344 118.0255 32.6654 0.0000 0.0000 0.0000
# 3 35.5028 32.6654 80.6203 0.0000 0.0000 0.0000
# 4 0.0000 0.0000 0.0000 22.0581 0.0000 0.0000
# 5 0.0000 0.0000 0.0000 0.0000 48.0237 0.0000
# 6 0.0000 0.0000 0.0000 0.0000 0.0000 26.7430
#
#
#
# Elastic Compliance Matrix: (Units=1/GPa)
#
#
# Indices 1 2 3 4 5 6 
#
# 1 0.013586 -0.003351 -0.004625 0.000000 0.000000 0.000000
# 2 -0.003351 0.010370 -0.002726 0.000000 0.000000 0.000000
# 3 -0.004625 -0.002726 0.015545 0.000000 0.000000 0.000000
# 4 0.000000 0.000000 0.000000 0.045335 0.000000 0.000000
# 5 0.000000 0.000000 0.000000 0.000000 0.020823 0.000000
# 6 0.000000 0.000000 0.000000 0.000000 0.000000 0.037393
#
#
# Mechanical properties :
#
#
# Convention : Reuss Voigt Hill
#
# Bulk Modulus (GPa) = 55.25946 56.78527 56.02236
# Shear Modulus (GPa) = 29.32769 31.75560 30.54165
#
# Velocity S-wave (km/s) = 3.97223 4.13338 4.05361
# Velocity P-wave (km/s) = 7.12519 7.30280 7.21454
#
# Compressibility (1/GPa) = 0.01809645
#
# Stress axis : x y z
#
# Youngs Moduli (GPa) = 73.60552 96.43596 64.32976
#
# Poissons Ratio (x) = 0.32319 0.29752
# Poissons Ratio (y) = 0.24668 0.17534
# Poissons Ratio (z) = 0.34042 0.26285
#
# Static dielectric constant tensor:
#      x y z
#    x 1.623750 0.000000 0.000000 
#    y 0.000000 1.611370 0.000000 
#    z 0.000000 0.000000 1.639990 
# 
# From -- ./inp_files/26378.got.cif
#   From: 2010.05.17/outbox.cif.g08.bks.cpg/sg58_14_cif.got.tgz:26378.got - 2010.06.03 14:20:14.
