data_PCOD9445252
_publ_section_title
;
Structure prediction by ZEFSAII (Michael W. Deem and Ramdas Pophale) SiO2 
 PCOD9445252
Probable space group: P N N M
;
_chemical_formula_sum "Si O2"
_cell_formula_units_Z 40
_cell_length_a 8.439869
_cell_length_b 7.849658
_cell_length_c 27.405529
_cell_angle_alpha 90.000000
_cell_angle_beta 90.000000
_cell_angle_gamma 90.000000
_cell_volume 1815.618632
_symmetry_space_group_name_H-M "P N N M"
_symmetry_group_IT_number 58
_symmetry_cell_setting 'orthorhombic'
loop_
_space_group_symop_operation_xyz
x,y,z
-x,-y,z
1/2+x,1/2-y,1/2-z
1/2-x,1/2+y,1/2-z
-x,-y,-z
x,y,-z
1/2-x,1/2+y,1/2+z
1/2+x,1/2-y,1/2+z
loop_
_atom_site_type_symbol
_atom_site_label
_atom_site_fract_x
_atom_site_fract_y
_atom_site_fract_z
Si Si1 0.829247 0.579333 0.226935
Si Si2 0.687742 0.980516 0.622663
Si Si3 0.669222 0.449523 0.317363
Si Si4 0.805811 0.684160 0.555234
Si Si5 0.830704 0.333839 0.589576
O O1 0.755415 0.485226 0.179120
O O2 0.721442 0.574795 0.274592
O O3 0.854537 0.769821 0.208990
O O4 0.000000 0.500000 0.238932
O O5 0.755316 0.146553 0.594482
O O6 0.500000 0.000000 0.626296
O O7 0.724834 0.808946 0.593824
O O8 0.500000 0.500000 0.340011
O O9 0.805546 0.417143 0.356918
O O10 0.786579 0.746889 0.500000
O O11 0.754403 0.485790 0.557730
O O12 0.991243 0.686323 0.570482
#
# Coordination Sequence:
#
# PCOD9445252 Si02
#       5
#     8   8   8   8   8
#     4  10  23  39  61  94 133 174 219 263 327 411
#     4  10  24  43  67 101 139 174 222 284 341 404
#     4  11  24  39  64  96 132 176 217 274 337 398
#     4  11  25  45  72  96 131 182 233 284 338 404
#     4  10  24  42  67  97 132 174 227 280 338 402
#
# _framework density 22.031058000000002
#
# number of rings (size 3 to 8) (size 9 to 14) (size 15 to 20)
#    0.000    1.600    0.000    3.000   14.000    6.000 
#    0.000    1.000    0.000    0.000    0.000    0.000 
#    0.000    0.000    0.000    0.000    0.000    0.000 
#
# Total GULP energy -223425.325906 kJ/mol
# GULP energy per Si atom -5585.633148 kJ/mol
# Density = 2.198091 g / cm^3
# Si number density = 22.031058 Si / 1000 Ang^3
#
#
#
# Elastic Constant Matrix: (Units=GPa)
#
#
# Indices 1 2 3 4 5 6 
#
# 1 16.8456 -9.4097 4.4272 0.0000 0.0000 0.0000
# 2 -9.4097 61.6747 2.7428 0.0000 0.0000 0.0000
# 3 4.4272 2.7428 52.3987 0.0000 0.0000 0.0000
# 4 0.0000 0.0000 0.0000 28.5625 0.0000 0.0000
# 5 0.0000 0.0000 0.0000 0.0000 371.7488 0.0000
# 6 0.0000 0.0000 0.0000 0.0000 0.0000 35.4958
#
#
#
# Elastic Compliance Matrix: (Units=1/GPa)
#
#
# Indices 1 2 3 4 5 6 
#
# 1 0.066841 0.010473 -0.006196 0.000000 0.000000 0.000000
# 2 0.010473 0.017893 -0.001822 0.000000 0.000000 0.000000
# 3 -0.006196 -0.001822 0.019703 0.000000 0.000000 0.000000
# 4 0.000000 0.000000 0.000000 0.035011 0.000000 0.000000
# 5 0.000000 0.000000 0.000000 0.000000 0.002690 0.000000
# 6 0.000000 0.000000 0.000000 0.000000 0.000000 0.028172
#
#
# Mechanical properties :
#
#
# Convention : Reuss Voigt Hill
#
# Bulk Modulus (GPa) = 9.14494 14.04885 11.59689
# Shear Modulus (GPa) = 24.77109 96.03867 60.40488
#
# Velocity S-wave (km/s) = 3.35680 6.60962 5.24191
# Velocity P-wave (km/s) = 4.37997 8.03990 6.47395
#
# Compressibility (1/GPa) = 0.10935004
#
# Stress axis : x y z
#
# Youngs Moduli (GPa) = 14.96083 55.88767 50.75299
#
# Poissons Ratio (x) = -0.58534 0.31445
# Poissons Ratio (y) = -0.15669 0.09245
# Poissons Ratio (z) = 0.09269 0.10180
#
# Static dielectric constant tensor:
#      x y z
#    x 1.811230 0.000000 0.000000 
#    y 0.000000 1.844610 0.000000 
#    z 0.000000 0.000000 1.833540 
# 
# From -- ./inp_files/31283.got.cif
#   From: 2010.05.17/outbox.cif.g08.bks.cpg/sg58_16_cif.got.tgz:31283.got - 2010.06.03 14:20:14.
