data_PCOD9445442
_publ_section_title
;
Structure prediction by ZEFSAII (Michael W. Deem and Ramdas Pophale) SiO2 
 PCOD9445442
Probable space group: P N N M
;
_chemical_formula_sum "Si O2"
_cell_formula_units_Z 52
_cell_length_a 5.481082
_cell_length_b 15.558772
_cell_length_c 26.063511
_cell_angle_alpha 90.000000
_cell_angle_beta 90.000000
_cell_angle_gamma 90.000000
_cell_volume 2222.667682
_symmetry_space_group_name_H-M "P N N M"
_symmetry_group_IT_number 58
_symmetry_cell_setting 'orthorhombic'
loop_
_space_group_symop_operation_xyz
x,y,z
-x,-y,z
1/2+x,1/2-y,1/2-z
1/2-x,1/2+y,1/2-z
-x,-y,-z
x,y,-z
1/2-x,1/2+y,1/2+z
1/2+x,1/2-y,1/2+z
loop_
_atom_site_type_symbol
_atom_site_label
_atom_site_fract_x
_atom_site_fract_y
_atom_site_fract_z
Si Si1 0.000000 0.000000 0.874841
Si Si2 0.440525 0.585749 0.883414
Si Si3 0.737986 0.246800 0.061153
Si Si4 0.257099 0.644138 0.438160
Si Si5 0.683792 0.932875 0.712350
Si Si6 0.712553 0.196829 0.305704
Si Si7 0.965798 0.136574 0.794398
O O1 0.813731 0.945400 0.909524
O O2 0.124547 0.927942 0.837925
O O3 0.500000 0.500000 0.917100
O O4 0.299126 0.659377 0.914301
O O5 0.620840 0.644984 0.846548
O O6 0.277691 0.534525 0.841649
O O7 0.502046 0.188170 0.076316
O O8 0.002870 0.204520 0.072204
O O9 0.723416 0.255246 0.000000
O O10 0.251659 0.630564 0.500000
O O11 0.549812 0.847155 0.695447
O O12 0.887134 0.917722 0.753072
O O13 0.500000 0.000000 0.735598
O O14 0.662501 0.295980 0.316953
O O15 0.790240 0.186081 0.245535
#
# Coordination Sequence:
#
# PCOD9445442 Si02
#       7
#     4   8   8   8   8   8   8
#     4  12  25  40  68 104 136 172 241 288 324 414
#     4  11  24  38  66  95 126 175 224 272 338 403
#     4  10  24  47  74 102 138 176 222 282 349 413
#     4  10  24  49  73 101 141 179 217 282 355 409
#     4  11  22  40  61  85 131 172 218 272 335 395
#     4  11  22  41  59  86 127 180 215 271 335 401
#     4  11  24  40  60  92 129 173 230 277 335 386
#
# _framework density 23.395308
#
# number of rings (size 3 to 8) (size 9 to 14) (size 15 to 20)
#    0.000    1.231    3.077    2.077    6.462    0.923 
#   11.077    2.308    0.000    3.231    0.000    0.000 
#    0.000    0.000    0.000    0.000    0.000    0.000 
#
# Total GULP energy -289987.958376 kJ/mol
# GULP energy per Si atom -5576.691507 kJ/mol
# Density = 2.334206 g / cm^3
# Si number density = 23.395308 Si / 1000 Ang^3
#
#
#
# Elastic Constant Matrix: (Units=GPa)
#
#
# Indices 1 2 3 4 5 6 
#
# 1 71.5517 15.6135 17.7658 0.0000 0.0000 0.0000
# 2 15.6135 125.7228 34.0662 0.0000 0.0000 0.0000
# 3 17.7658 34.0662 84.3128 0.0000 0.0000 0.0000
# 4 0.0000 0.0000 0.0000 24.5008 0.0000 0.0000
# 5 0.0000 0.0000 0.0000 0.0000 94.9460 0.0000
# 6 0.0000 0.0000 0.0000 0.0000 0.0000 31.0971
#
#
#
# Elastic Compliance Matrix: (Units=1/GPa)
#
#
# Indices 1 2 3 4 5 6 
#
# 1 0.014887 -0.001122 -0.002684 0.000000 0.000000 0.000000
# 2 -0.001122 0.009016 -0.003407 0.000000 0.000000 0.000000
# 3 -0.002684 -0.003407 0.013803 0.000000 0.000000 0.000000
# 4 0.000000 0.000000 0.000000 0.040815 0.000000 0.000000
# 5 0.000000 0.000000 0.000000 0.000000 0.010532 0.000000
# 6 0.000000 0.000000 0.000000 0.000000 0.000000 0.032157
#
#
# Mechanical properties :
#
#
# Convention : Reuss Voigt Hill
#
# Bulk Modulus (GPa) = 42.95179 46.27534 44.61356
# Shear Modulus (GPa) = 34.86867 44.38492 39.62679
#
# Velocity S-wave (km/s) = 3.86478 4.36038 4.12004
# Velocity P-wave (km/s) = 6.18986 6.72110 6.46094
#
# Compressibility (1/GPa) = 0.02328192
#
# Stress axis : x y z
#
# Youngs Moduli (GPa) = 67.17268 110.90919 72.45043
#
# Poissons Ratio (x) = 0.12440 0.19443
# Poissons Ratio (y) = 0.07534 0.24682
# Poissons Ratio (z) = 0.18027 0.37783
#
# Static dielectric constant tensor:
#      x y z
#    x 2.021090 0.000000 0.000000 
#    y 0.000000 1.731510 0.000000 
#    z 0.000000 0.000000 1.910280 
# 
# From -- ./inp_files/32920.got.cif
#   From: 2010.05.17/outbox.cif.g08.bks.cpg/sg58_17_cif.got.tgz:32920.got - 2010.06.03 14:20:14.
