data_PCOD9445766
_publ_section_title
;
Structure prediction by ZEFSAII (Michael W. Deem and Ramdas Pophale) SiO2 
 PCOD9445766
Probable space group: P N N M
;
_chemical_formula_sum "Si O2"
_cell_formula_units_Z 34
_cell_length_a 13.233733
_cell_length_b 5.052241
_cell_length_c 22.522468
_cell_angle_alpha 90.000000
_cell_angle_beta 90.000000
_cell_angle_gamma 90.000000
_cell_volume 1505.852401
_symmetry_space_group_name_H-M "P N N M"
_symmetry_group_IT_number 58
_symmetry_cell_setting 'orthorhombic'
loop_
_space_group_symop_operation_xyz
x,y,z
-x,-y,z
1/2+x,1/2-y,1/2-z
1/2-x,1/2+y,1/2-z
-x,-y,-z
x,y,-z
1/2-x,1/2+y,1/2+z
1/2+x,1/2-y,1/2+z
loop_
_atom_site_type_symbol
_atom_site_label
_atom_site_fract_x
_atom_site_fract_y
_atom_site_fract_z
Si Si1 0.708409 0.936294 0.434401
Si Si2 0.230982 0.437206 0.712248
Si Si3 0.386161 0.574721 0.387392
Si Si4 0.090336 0.199713 0.618146
Si Si5 0.500000 0.000000 0.000000
O O1 0.739592 0.009563 0.500000
O O2 0.666418 0.640346 0.430322
O O3 0.807871 0.964851 0.394886
O O4 0.623060 0.135038 0.413515
O O5 0.225813 0.658722 0.763116
O O6 0.317586 0.553633 0.670211
O O7 0.129849 0.387189 0.672141
O O8 0.500000 0.500000 0.375808
O O9 0.062019 0.341130 0.554951
O O10 0.000000 0.000000 0.633747
#
# Coordination Sequence:
#
# PCOD9445766 Si02
#       5
#     8   8   8   8   2
#     4  11  24  42  69 102 145 183 228 294 366 440
#     4  11  26  50  72 101 145 192 248 304 365 442
#     4  11  25  45  68  97 135 183 242 297 354 424
#     4  11  27  44  74 112 150 195 246 312 388 462
#     4  12  26  44  80 114 158 194 254 310 406 472
#
# _framework density 22.578575000000001
#
# number of rings (size 3 to 8) (size 9 to 14) (size 15 to 20)
#    0.000    0.941    1.176    4.588    9.882    3.765 
#    0.000    2.353    0.000    0.000    0.000    0.000 
#    0.000    0.000    0.000    0.000    0.000    0.000 
#
# Total GULP energy -189433.668920 kJ/mol
# GULP energy per Si atom -5571.578498 kJ/mol
# Density = 2.252719 g / cm^3
# Si number density = 22.578575 Si / 1000 Ang^3
#
#
#
# Elastic Constant Matrix: (Units=GPa)
#
#
# Indices 1 2 3 4 5 6 
#
# 1 90.4606 14.3960 1.2933 0.0000 0.0000 0.0000
# 2 14.3960 70.8820 35.7371 0.0000 0.0000 0.0000
# 3 1.2933 35.7371 92.2146 0.0000 0.0000 0.0000
# 4 0.0000 0.0000 0.0000 41.6859 0.0000 0.0000
# 5 0.0000 0.0000 0.0000 0.0000 79.9060 0.0000
# 6 0.0000 0.0000 0.0000 0.0000 0.0000 32.5975
#
#
#
# Elastic Compliance Matrix: (Units=1/GPa)
#
#
# Indices 1 2 3 4 5 6 
#
# 1 0.011487 -0.002798 0.000923 0.000000 0.000000 0.000000
# 2 -0.002798 0.018216 -0.007020 0.000000 0.000000 0.000000
# 3 0.000923 -0.007020 0.013552 0.000000 0.000000 0.000000
# 4 0.000000 0.000000 0.000000 0.023989 0.000000 0.000000
# 5 0.000000 0.000000 0.000000 0.000000 0.012515 0.000000
# 6 0.000000 0.000000 0.000000 0.000000 0.000000 0.030677
#
#
# Mechanical properties :
#
#
# Convention : Reuss Voigt Hill
#
# Bulk Modulus (GPa) = 39.27119 39.60111 39.43615
# Shear Modulus (GPa) = 36.57284 44.31327 40.44306
#
# Velocity S-wave (km/s) = 4.02904 4.43496 4.23686
# Velocity P-wave (km/s) = 6.25101 6.61834 6.43730
#
# Compressibility (1/GPa) = 0.02546396
#
# Stress axis : x y z
#
# Youngs Moduli (GPa) = 87.05726 54.89770 73.79029
#
# Poissons Ratio (x) = 0.15363 -0.06814
# Poissons Ratio (y) = 0.24363 0.51802
# Poissons Ratio (z) = -0.08039 0.38539
#
# Static dielectric constant tensor:
#      x y z
#    x 1.818470 0.000000 0.000000 
#    y 0.000000 1.864030 0.000000 
#    z 0.000000 0.000000 1.903770 
# 
# From -- ./inp_files/30830.got.cif
#   From: 2010.05.17/outbox.cif.g08.bks.cpg/sg58_16_cif.got.tgz:30830.got - 2010.06.03 14:20:14.
