data_PCOD9445656
_publ_section_title
;
Structure prediction by ZEFSAII (Michael W. Deem and Ramdas Pophale) SiO2 
 PCOD9445656
Probable space group: P N N M
;
_chemical_formula_sum "Si O2"
_cell_formula_units_Z 32
_cell_length_a 11.359327
_cell_length_b 5.259099
_cell_length_c 23.098421
_cell_angle_alpha 90.000000
_cell_angle_beta 90.000000
_cell_angle_gamma 90.000000
_cell_volume 1379.895634
_symmetry_space_group_name_H-M "P N N M"
_symmetry_group_IT_number 58
_symmetry_cell_setting 'orthorhombic'
loop_
_space_group_symop_operation_xyz
x,y,z
-x,-y,z
1/2+x,1/2-y,1/2-z
1/2-x,1/2+y,1/2-z
-x,-y,-z
x,y,-z
1/2-x,1/2+y,1/2+z
1/2+x,1/2-y,1/2+z
loop_
_atom_site_type_symbol
_atom_site_label
_atom_site_fract_x
_atom_site_fract_y
_atom_site_fract_z
Si Si1 0.620999 0.125282 0.681584
Si Si2 0.368706 0.921924 0.896805
Si Si3 0.625360 0.384426 0.210269
Si Si4 0.772744 0.581877 0.066256
O O1 0.620871 0.377255 0.720195
O O2 0.623008 0.099397 0.612822
O O3 0.500000 0.000000 0.703048
O O4 0.750259 0.014705 0.696571
O O5 0.367264 0.877142 0.827056
O O6 0.314519 0.657972 0.921278
O O7 0.500000 0.000000 0.914051
O O8 0.292977 0.155110 0.919613
O O9 0.500000 0.500000 0.189688
O O10 0.809904 0.569643 0.000000
#
# Coordination Sequence:
#
# PCOD9445656 Si02
#       4
#     8   8   8   8
#     4  11  23  40  66  98 136 179 222 273 337 403
#     4  11  22  41  68  99 134 174 222 281 343 397
#     4  11  22  41  69 104 138 170 220 282 344 403
#     4  11  25  42  63  95 135 180 229 275 323 393
#
# _framework density 23.190159000000001
#
# number of rings (size 3 to 8) (size 9 to 14) (size 15 to 20)
#    0.000    1.000    0.000    8.250    0.000    5.500 
#    0.000    0.000    0.000    8.250    0.000    0.000 
#    0.000    0.000    0.000    0.000    0.000    0.000 
#
# Total GULP energy -178380.348841 kJ/mol
# GULP energy per Si atom -5574.385901 kJ/mol
# Density = 2.313738 g / cm^3
# Si number density = 23.190159 Si / 1000 Ang^3
#
#
#
# Elastic Constant Matrix: (Units=GPa)
#
#
# Indices 1 2 3 4 5 6 
#
# 1 114.2894 8.1432 39.6046 0.0000 0.0000 0.0000
# 2 8.1432 90.7143 32.8090 0.0000 0.0000 0.0000
# 3 39.6046 32.8090 159.2225 0.0000 0.0000 0.0000
# 4 0.0000 0.0000 0.0000 10.0160 0.0000 0.0000
# 5 0.0000 0.0000 0.0000 0.0000 42.5840 0.0000
# 6 0.0000 0.0000 0.0000 0.0000 0.0000 24.5060
#
#
#
# Elastic Compliance Matrix: (Units=1/GPa)
#
#
# Indices 1 2 3 4 5 6 
#
# 1 0.009575 0.000002 -0.002382 0.000000 0.000000 0.000000
# 2 0.000002 0.011911 -0.002455 0.000000 0.000000 0.000000
# 3 -0.002382 -0.002455 0.007379 0.000000 0.000000 0.000000
# 4 0.000000 0.000000 0.000000 0.099841 0.000000 0.000000
# 5 0.000000 0.000000 0.000000 0.000000 0.023483 0.000000
# 6 0.000000 0.000000 0.000000 0.000000 0.000000 0.040806
#
#
# Mechanical properties :
#
#
# Convention : Reuss Voigt Hill
#
# Bulk Modulus (GPa) = 52.09619 58.37109 55.23364
# Shear Modulus (GPa) = 23.91617 34.33248 29.12433
#
# Velocity S-wave (km/s) = 3.21488 3.85187 3.54770
# Velocity P-wave (km/s) = 6.02446 6.70879 6.37581
#
# Compressibility (1/GPa) = 0.01919526
#
# Stress axis : x y z
#
# Youngs Moduli (GPa) = 104.43828 83.95375 135.52181
#
# Poissons Ratio (x) = -0.00017 0.32282
# Poissons Ratio (y) = -0.00021 0.33270
# Poissons Ratio (z) = 0.24878 0.20610
#
# Static dielectric constant tensor:
#      x y z
#    x 1.893430 0.000000 0.000000 
#    y 0.000000 1.923920 0.000000 
#    z 0.000000 0.000000 1.971910 
# 
# From -- ./inp_files/31752.got.cif
#   From: 2010.05.17/outbox.cif.g08.bks.cpg/sg58_16_cif.got.tgz:31752.got - 2010.06.03 14:20:14.
