data_PCOD9445120
_publ_section_title
;
Structure prediction by ZEFSAII (Michael W. Deem and Ramdas Pophale) SiO2 
 PCOD9445120
Probable space group: P N N M
;
_chemical_formula_sum "Si O2"
_cell_formula_units_Z 64
_cell_length_a 31.408117
_cell_length_b 12.084821
_cell_length_c 8.375605
_cell_angle_alpha 90.000000
_cell_angle_beta 90.000000
_cell_angle_gamma 90.000000
_cell_volume 3179.056962
_symmetry_space_group_name_H-M "P N N M"
_symmetry_group_IT_number 58
_symmetry_cell_setting 'orthorhombic'
loop_
_space_group_symop_operation_xyz
x,y,z
-x,-y,z
1/2+x,1/2-y,1/2-z
1/2-x,1/2+y,1/2-z
-x,-y,-z
x,y,-z
1/2-x,1/2+y,1/2+z
1/2+x,1/2-y,1/2+z
loop_
_atom_site_type_symbol
_atom_site_label
_atom_site_fract_x
_atom_site_fract_y
_atom_site_fract_z
Si Si1 0.625358 0.591911 0.188038
Si Si2 0.877148 0.846108 0.188998
Si Si3 0.050581 0.758070 0.814674
Si Si4 0.706336 0.216289 0.306512
Si Si5 0.066819 0.514101 0.687968
Si Si6 0.339542 0.006301 0.690011
Si Si7 0.038898 0.275045 0.309964
Si Si8 0.697992 0.763214 0.806012
O O1 0.621534 0.476335 0.278218
O O2 0.584436 0.669353 0.217976
O O3 0.666949 0.661945 0.237900
O O4 0.628780 0.568216 0.000000
O O5 0.832153 0.795509 0.247474
O O6 0.917181 0.785601 0.268940
O O7 0.880019 0.824177 0.000000
O O8 0.057349 0.628519 0.775731
O O9 0.001760 0.781794 0.769897
O O10 0.058407 0.778378 0.000000
O O11 0.707705 0.223515 0.500000
O O12 0.692906 0.091374 0.266394
O O13 0.753564 0.245718 0.250891
O O14 0.058366 0.530568 0.500000
O O15 0.116492 0.489469 0.717096
O O16 0.042234 0.403893 0.742249
O O17 0.348129 0.999564 0.500000
O O18 0.320857 0.125009 0.733714
O O19 0.032796 0.275047 0.500000
O O20 0.696973 0.771790 0.000000
#
# Coordination Sequence:
#
# PCOD9445120 Si02
#       8
#     8   8   8   8   8   8   8   8
#     4  11  24  42  64  89 125 166 209 256 309 369
#     4  11  23  42  65  90 125 164 209 259 311 365
#     4  12  25  41  65  94 125 161 207 255 309 368
#     4   9  21  40  62  91 127 165 204 256 312 364
#     4  11  22  39  63  93 129 165 201 250 309 370
#     4  11  21  37  64  94 125 162 206 257 309 363
#     4  11  24  42  65  93 126 162 206 252 309 374
#     4  10  22  41  63  89 126 168 207 253 310 368
#
# _framework density 20.131755999999999
#
# number of rings (size 3 to 8) (size 9 to 14) (size 15 to 20)
#    0.000    1.250    2.500    3.375    1.750    4.000 
#    0.000    4.375    0.000    0.000    0.000    0.000 
#    0.000    0.000    0.000    0.000    0.000    0.000 
#
# Total GULP energy -357894.068374 kJ/mol
# GULP energy per Si atom -5592.094818 kJ/mol
# Density = 2.008593 g / cm^3
# Si number density = 20.131756 Si / 1000 Ang^3
#
#
#
# Elastic Constant Matrix: (Units=GPa)
#
#
# Indices 1 2 3 4 5 6 
#
# 1 95.8975 7.0621 -6.5229 0.0000 0.0000 0.0000
# 2 7.0621 73.7592 -5.7523 0.0000 0.0000 0.0000
# 3 -6.5229 -5.7523 20.9952 0.0000 0.0000 0.0000
# 4 0.0000 0.0000 0.0000 27.8551 0.0000 0.0000
# 5 0.0000 0.0000 0.0000 0.0000 17.3727 0.0000
# 6 0.0000 0.0000 0.0000 0.0000 0.0000 12.7593
#
#
#
# Elastic Compliance Matrix: (Units=1/GPa)
#
#
# Indices 1 2 3 4 5 6 
#
# 1 0.010697 -0.000782 0.003109 0.000000 0.000000 0.000000
# 2 -0.000782 0.013911 0.003568 0.000000 0.000000 0.000000
# 3 0.003109 0.003568 0.049574 0.000000 0.000000 0.000000
# 4 0.000000 0.000000 0.000000 0.035900 0.000000 0.000000
# 5 0.000000 0.000000 0.000000 0.000000 0.057562 0.000000
# 6 0.000000 0.000000 0.000000 0.000000 0.000000 0.078374
#
#
# Mechanical properties :
#
#
# Convention : Reuss Voigt Hill
#
# Bulk Modulus (GPa) = 11.63156 20.02507 15.82832
# Shear Modulus (GPa) = 19.01985 24.65507 21.83746
#
# Velocity S-wave (km/s) = 3.07704 3.50335 3.29709
# Velocity P-wave (km/s) = 4.29121 5.13159 4.73010
#
# Compressibility (1/GPa) = 0.08597299
#
# Stress axis : x y z
#
# Youngs Moduli (GPa) = 93.48543 71.88675 20.17204
#
# Poissons Ratio (x) = 0.05619 -0.06272
# Poissons Ratio (y) = 0.07308 -0.07198
# Poissons Ratio (z) = -0.29066 -0.25652
#
# Static dielectric constant tensor:
#      x y z
#    x 1.709530 0.000000 0.000000 
#    y 0.000000 1.681060 0.000000 
#    z 0.000000 0.000000 1.689530 
# 
# From -- ./inp_files/10943.got.cif
#   From: 2010.05.17/outbox.cif.g08.bks.cpg/sg58_6_cif.got.tgz:10943.got - 2010.06.03 14:20:14.
