data_PCOD9445140
_publ_section_title
;
Structure prediction by ZEFSAII (Michael W. Deem and Ramdas Pophale) SiO2 
 PCOD9445140
Probable space group: P N N M
;
_chemical_formula_sum "Si O2"
_cell_formula_units_Z 40
_cell_length_a 15.904551
_cell_length_b 8.570979
_cell_length_c 13.836818
_cell_angle_alpha 90.000000
_cell_angle_beta 90.000000
_cell_angle_gamma 90.000000
_cell_volume 1886.201443
_symmetry_space_group_name_H-M "P N N M"
_symmetry_group_IT_number 58
_symmetry_cell_setting 'orthorhombic'
loop_
_space_group_symop_operation_xyz
x,y,z
-x,-y,z
1/2+x,1/2-y,1/2-z
1/2-x,1/2+y,1/2-z
-x,-y,-z
x,y,-z
1/2-x,1/2+y,1/2+z
1/2+x,1/2-y,1/2+z
loop_
_atom_site_type_symbol
_atom_site_label
_atom_site_fract_x
_atom_site_fract_y
_atom_site_fract_z
Si Si1 0.005172 0.823827 0.609205
Si Si2 0.092318 0.071991 0.886347
Si Si3 0.752720 0.950832 0.762323
Si Si4 0.574960 0.114919 0.270802
Si Si5 0.798324 0.162851 0.389853
O O1 0.971264 0.822064 0.500000
O O2 0.957681 0.705779 0.676816
O O3 0.104126 0.791964 0.605808
O O4 0.000000 0.000000 0.646769
O O5 0.168866 0.989628 0.828293
O O6 0.088513 0.251400 0.850821
O O7 0.109094 0.061287 0.000000
O O8 0.000000 0.000000 0.868215
O O9 0.738976 0.780779 0.809577
O O10 0.660041 0.026061 0.758850
O O11 0.785522 0.989126 0.653929
O O12 0.500000 0.000000 0.301695
O O13 0.765271 0.176244 0.500000
#
# Coordination Sequence:
#
# PCOD9445140 Si02
#       5
#     8   8   8   8   8
#     4  10  22  41  65  95 131 171 217 277 340 402
#     4  11  26  48  71  96 136 185 234 281 337 411
#     4  12  24  42  70  97 136 182 220 284 344 400
#     4  12  24  40  69 100 135 173 226 284 344 404
#     4  11  24  44  68  98 135 176 225 279 339 402
#
# _framework density 21.206643
#
# number of rings (size 3 to 8) (size 9 to 14) (size 15 to 20)
#    0.000    0.800    4.000    3.600    0.000    2.400 
#    0.000    2.000    0.000    0.000    0.000    0.000 
#    0.000    0.000    0.000    0.000    0.000    0.000 
#
# Total GULP energy -223140.205376 kJ/mol
# GULP energy per Si atom -5578.505134 kJ/mol
# Density = 2.115838 g / cm^3
# Si number density = 21.206643 Si / 1000 Ang^3
#
#
#
# Elastic Constant Matrix: (Units=GPa)
#
#
# Indices 1 2 3 4 5 6 
#
# 1 141.7979 25.4860 17.6965 0.0000 0.0000 0.0000
# 2 25.4860 60.2447 23.7367 0.0000 0.0000 0.0000
# 3 17.6965 23.7367 105.6282 0.0000 0.0000 0.0000
# 4 0.0000 0.0000 0.0000 57.1364 0.0000 0.0000
# 5 0.0000 0.0000 0.0000 0.0000 18.5259 0.0000
# 6 0.0000 0.0000 0.0000 0.0000 0.0000 33.7900
#
#
#
# Elastic Compliance Matrix: (Units=1/GPa)
#
#
# Indices 1 2 3 4 5 6 
#
# 1 0.007668 -0.003004 -0.000610 0.000000 0.000000 0.000000
# 2 -0.003004 0.019388 -0.003854 0.000000 0.000000 0.000000
# 3 -0.000610 -0.003854 0.010435 0.000000 0.000000 0.000000
# 4 0.000000 0.000000 0.000000 0.017502 0.000000 0.000000
# 5 0.000000 0.000000 0.000000 0.000000 0.053978 0.000000
# 6 0.000000 0.000000 0.000000 0.000000 0.000000 0.029595
#
#
# Mechanical properties :
#
#
# Convention : Reuss Voigt Hill
#
# Bulk Modulus (GPa) = 44.33134 49.05658 46.69396
# Shear Modulus (GPa) = 31.05206 37.94056 34.49631
#
# Velocity S-wave (km/s) = 3.83072 4.23435 4.03758
# Velocity P-wave (km/s) = 6.36519 6.86215 6.61834
#
# Compressibility (1/GPa) = 0.02255740
#
# Stress axis : x y z
#
# Youngs Moduli (GPa) = 130.40769 51.57824 95.82856
#
# Poissons Ratio (x) = 0.15493 0.05843
# Poissons Ratio (y) = 0.39171 0.36929
# Poissons Ratio (z) = 0.07951 0.19876
#
# Static dielectric constant tensor:
#      x y z
#    x 1.820650 0.000000 0.000000 
#    y 0.000000 1.813170 0.000000 
#    z 0.000000 0.000000 1.748800 
# 
# From -- ./inp_files/21889.got.cif
#   From: 2010.05.17/outbox.cif.g08.bks.cpg/sg58_11_cif.got.tgz:21889.got - 2010.06.03 14:20:14.
