data_PCOD9445447
_publ_section_title
;
Structure prediction by ZEFSAII (Michael W. Deem and Ramdas Pophale) SiO2 
 PCOD9445447
Probable space group: P N N M
;
_chemical_formula_sum "Si O2"
_cell_formula_units_Z 28
_cell_length_a 11.511364
_cell_length_b 5.034070
_cell_length_c 24.781793
_cell_angle_alpha 90.000000
_cell_angle_beta 90.000000
_cell_angle_gamma 90.000000
_cell_volume 1436.080424
_symmetry_space_group_name_H-M "P N N M"
_symmetry_group_IT_number 58
_symmetry_cell_setting 'orthorhombic'
loop_
_space_group_symop_operation_xyz
x,y,z
-x,-y,z
1/2+x,1/2-y,1/2-z
1/2-x,1/2+y,1/2-z
-x,-y,-z
x,y,-z
1/2-x,1/2+y,1/2+z
1/2+x,1/2-y,1/2+z
loop_
_atom_site_type_symbol
_atom_site_label
_atom_site_fract_x
_atom_site_fract_y
_atom_site_fract_z
Si Si1 0.000000 0.500000 0.297983
Si Si2 0.422367 0.759187 0.305547
Si Si3 0.867567 0.890066 0.438065
Si Si4 0.192753 0.639419 0.627770
O O1 0.087540 0.349895 0.257087
O O2 0.920804 0.314010 0.334942
O O3 0.500000 0.500000 0.306077
O O4 0.695994 0.314675 0.334817
O O5 0.500000 0.000000 0.330322
O O6 0.848597 0.808941 0.500000
O O7 0.832940 0.648215 0.398671
O O8 0.796608 0.146977 0.419644
O O9 0.000000 0.000000 0.434634
#
# Coordination Sequence:
#
# PCOD9445447 Si02
#       4
#     4   8   8   8
#     4  10  26  36  63  98 125 170 212 254 322 390
#     4  10  25  40  61  91 134 170 214 251 309 388
#     4  11  23  41  64  96 125 159 214 272 328 378
#     4  12  23  41  67  91 132 167 207 265 323 379
#
# _framework density 19.497516000000001
#
# number of rings (size 3 to 8) (size 9 to 14) (size 15 to 20)
#    0.857    0.286    2.857    2.571    8.000    2.286 
#    0.000    0.000    0.000   17.143    0.000    0.000 
#    0.000    0.000    0.000    0.000    0.000    0.000 
#
# Total GULP energy -156037.815173 kJ/mol
# GULP energy per Si atom -5572.779113 kJ/mol
# Density = 1.945314 g / cm^3
# Si number density = 19.497516 Si / 1000 Ang^3
#
#
#
# Elastic Constant Matrix: (Units=GPa)
#
#
# Indices 1 2 3 4 5 6 
#
# 1 68.8173 13.3096 53.0499 0.0000 0.0000 0.0000
# 2 13.3096 110.7437 28.4919 0.0000 0.0000 0.0000
# 3 53.0499 28.4919 99.8526 0.0000 0.0000 0.0000
# 4 0.0000 0.0000 0.0000 46.7616 0.0000 0.0000
# 5 0.0000 0.0000 0.0000 0.0000 18.5131 0.0000
# 6 0.0000 0.0000 0.0000 0.0000 0.0000 23.0496
#
#
#
# Elastic Compliance Matrix: (Units=1/GPa)
#
#
# Indices 1 2 3 4 5 6 
#
# 1 0.024630 0.000439 -0.013211 0.000000 0.000000 0.000000
# 2 0.000439 0.009753 -0.003016 0.000000 0.000000 0.000000
# 3 -0.013211 -0.003016 0.017894 0.000000 0.000000 0.000000
# 4 0.000000 0.000000 0.000000 0.021385 0.000000 0.000000
# 5 0.000000 0.000000 0.000000 0.000000 0.054016 0.000000
# 6 0.000000 0.000000 0.000000 0.000000 0.000000 0.043385
#
#
# Mechanical properties :
#
#
# Convention : Reuss Voigt Hill
#
# Bulk Modulus (GPa) = 48.30649 52.12404 50.21526
# Shear Modulus (GPa) = 23.86181 29.96899 26.91540
#
# Velocity S-wave (km/s) = 3.50214 3.92480 3.71948
# Velocity P-wave (km/s) = 6.41738 6.87971 6.65256
#
# Compressibility (1/GPa) = 0.02070115
#
# Stress axis : x y z
#
# Youngs Moduli (GPa) = 40.60031 102.53159 55.88452
#
# Poissons Ratio (x) = -0.04498 0.73828
# Poissons Ratio (y) = -0.01781 0.16855
# Poissons Ratio (z) = 0.53636 0.30924
#
# Static dielectric constant tensor:
#      x y z
#    x 1.696140 0.000000 0.000000 
#    y 0.000000 1.638860 0.000000 
#    z 0.000000 0.000000 1.725340 
# 
# From -- ./inp_files/31728.got.cif
#   From: 2010.05.17/outbox.cif.g08.bks.cpg/sg58_16_cif.got.tgz:31728.got - 2010.06.03 14:20:14.
