data_PCOD9445360
_publ_section_title
;
Structure prediction by ZEFSAII (Michael W. Deem and Ramdas Pophale) SiO2 
 PCOD9445360
Probable space group: P N N M
;
_chemical_formula_sum "Si O2"
_cell_formula_units_Z 48
_cell_length_a 8.294586
_cell_length_b 9.483290
_cell_length_c 26.283084
_cell_angle_alpha 90.000000
_cell_angle_beta 90.000000
_cell_angle_gamma 90.000000
_cell_volume 2067.426454
_symmetry_space_group_name_H-M "P N N M"
_symmetry_group_IT_number 58
_symmetry_cell_setting 'orthorhombic'
loop_
_space_group_symop_operation_xyz
x,y,z
-x,-y,z
1/2+x,1/2-y,1/2-z
1/2-x,1/2+y,1/2-z
-x,-y,-z
x,y,-z
1/2-x,1/2+y,1/2+z
1/2+x,1/2-y,1/2+z
loop_
_atom_site_type_symbol
_atom_site_label
_atom_site_fract_x
_atom_site_fract_y
_atom_site_fract_z
Si Si1 0.847162 0.691384 0.297006
Si Si2 0.461534 0.163829 0.103499
Si Si3 0.655664 0.420282 0.285801
Si Si4 0.401243 0.637581 0.595325
Si Si5 0.105365 0.624228 0.863337
Si Si6 0.843492 0.903608 0.555361
O O1 0.803223 0.530042 0.284415
O O2 0.846679 0.776160 0.244739
O O3 0.697469 0.767648 0.326468
O O4 0.996042 0.707674 0.337230
O O5 0.281924 0.175061 0.080030
O O6 0.589634 0.249705 0.070193
O O7 0.500000 0.000000 0.102607
O O8 0.500000 0.500000 0.263909
O O9 0.628360 0.395433 0.345093
O O10 0.500000 0.500000 0.574655
O O11 0.509703 0.776613 0.596912
O O12 0.235918 0.545955 0.898078
O O13 0.000000 0.500000 0.838836
O O14 0.764624 0.904911 0.500000
O O15 0.000000 0.000000 0.553799
#
# Coordination Sequence:
#
# PCOD9445360 Si02
#       6
#     8   8   8   8   8   8
#     4  11  25  40  59  92 126 176 219 270 309 373
#     4  11  22  41  68  91 124 170 214 259 323 378
#     4  11  24  39  58  88 126 173 217 269 315 356
#     4  11  21  42  60  86 127 168 211 264 317 367
#     4  11  23  40  65  94 126 171 213 260 322 383
#     4  10  23  45  69  99 130 158 204 260 321 397
#
# _framework density 23.217272000000001
#
# number of rings (size 3 to 8) (size 9 to 14) (size 15 to 20)
#    0.000    1.167    5.000    2.000    4.667    3.333 
#    0.000    0.833    0.000    2.000    0.000    0.000 
#    0.000    0.000    0.000    0.000    0.000    0.000 
#
# Total GULP energy -267895.715467 kJ/mol
# GULP energy per Si atom -5581.160739 kJ/mol
# Density = 2.316443 g / cm^3
# Si number density = 23.217272 Si / 1000 Ang^3
#
#
#
# Elastic Constant Matrix: (Units=GPa)
#
#
# Indices 1 2 3 4 5 6 
#
# 1 76.1020 -6.6626 -17.4038 0.0000 0.0000 0.0000
# 2 -6.6626 71.1933 0.3133 0.0000 0.0000 0.0000
# 3 -17.4038 0.3133 26.8477 0.0000 0.0000 0.0000
# 4 0.0000 0.0000 0.0000 11.4097 0.0000 0.0000
# 5 0.0000 0.0000 0.0000 0.0000 1.7412 0.0000
# 6 0.0000 0.0000 0.0000 0.0000 0.0000 36.7039
#
#
#
# Elastic Compliance Matrix: (Units=1/GPa)
#
#
# Indices 1 2 3 4 5 6 
#
# 1 0.015568 0.001413 0.010075 0.000000 0.000000 0.000000
# 2 0.001413 0.014175 0.000750 0.000000 0.000000 0.000000
# 3 0.010075 0.000750 0.043770 0.000000 0.000000 0.000000
# 4 0.000000 0.000000 0.000000 0.087645 0.000000 0.000000
# 5 0.000000 0.000000 0.000000 0.000000 0.574315 0.000000
# 6 0.000000 0.000000 0.000000 0.000000 0.000000 0.027245
#
#
# Mechanical properties :
#
#
# Convention : Reuss Voigt Hill
#
# Bulk Modulus (GPa) = 10.20521 14.07078 12.13800
# Shear Modulus (GPa) = 6.48589 23.16403 14.82496
#
# Velocity S-wave (km/s) = 1.67321 3.16208 2.52966
# Velocity P-wave (km/s) = 2.85270 4.40514 3.71101
#
# Compressibility (1/GPa) = 0.09798919
#
# Stress axis : x y z
#
# Youngs Moduli (GPa) = 64.23409 70.54596 22.84692
#
# Poissons Ratio (x) = -0.09965 -0.23019
# Poissons Ratio (y) = -0.09074 -0.01714
# Poissons Ratio (z) = -0.64718 -0.05293
#
# Static dielectric constant tensor:
#      x y z
#    x 1.884620 0.000000 0.000000 
#    y 0.000000 1.858610 0.000000 
#    z 0.000000 0.000000 1.861960 
# 
# From -- ./inp_files/34573.got.cif
#   From: 2010.05.17/outbox.cif.g08.bks.cpg/sg58_18_cif.got.tgz:34573.got - 2010.06.03 14:20:14.
