data_PCOD9445876
_publ_section_title
;
Structure prediction by ZEFSAII (Michael W. Deem and Ramdas Pophale) SiO2 
 PCOD9445876
Probable space group: P N N M
;
_chemical_formula_sum "Si O2"
_cell_formula_units_Z 56
_cell_length_a 19.640340
_cell_length_b 19.048428
_cell_length_c 7.539222
_cell_angle_alpha 90.000000
_cell_angle_beta 90.000000
_cell_angle_gamma 90.000000
_cell_volume 2820.555658
_symmetry_space_group_name_H-M "P N N M"
_symmetry_group_IT_number 58
_symmetry_cell_setting 'orthorhombic'
loop_
_space_group_symop_operation_xyz
x,y,z
-x,-y,z
1/2+x,1/2-y,1/2-z
1/2-x,1/2+y,1/2-z
-x,-y,-z
x,y,-z
1/2-x,1/2+y,1/2+z
1/2+x,1/2-y,1/2+z
loop_
_atom_site_type_symbol
_atom_site_label
_atom_site_fract_x
_atom_site_fract_y
_atom_site_fract_z
Si Si1 0.564628 0.540198 0.293587
Si Si2 0.543301 0.836288 0.717293
Si Si3 0.110492 0.807020 0.783607
Si Si4 0.748557 0.143009 0.789704
Si Si5 0.792359 0.988098 0.299789
Si Si6 0.148053 0.542702 0.217528
Si Si7 0.103383 0.387537 0.212376
O O1 0.500000 0.500000 0.214227
O O2 0.548807 0.552609 0.500000
O O3 0.581901 0.617640 0.220344
O O4 0.633488 0.493944 0.285415
O O5 0.542498 0.835863 0.500000
O O6 0.568588 0.760091 0.776917
O O7 0.597575 0.895567 0.770354
O O8 0.467777 0.857036 0.778038
O O9 0.190829 0.804909 0.736380
O O10 0.107798 0.807000 0.000000
O O11 0.765420 0.068646 0.699356
O O12 0.670063 0.158832 0.753173
O O13 0.755704 0.130816 0.000000
O O14 0.802943 0.963257 0.500000
O O15 0.726499 0.948703 0.221924
O O16 0.119028 0.466888 0.276363
O O17 0.150393 0.541391 0.000000
O O18 0.098049 0.392374 0.000000
#
# Coordination Sequence:
#
# PCOD9445876 Si02
#       7
#     8   8   8   8   8   8   8
#     4   9  17  30  47  65  87 116 149 183 219 260
#     4   9  15  25  43  65  89 113 142 181 217 255
#     4   8  15  27  43  62  81 111 150 177 206 252
#     4   9  16  28  45  62  84 114 146 176 210 258
#     4   9  16  27  45  68  88 106 139 182 220 258
#     4   8  14  24  40  64  89 111 137 173 215 256
#     4   9  16  26  44  68  87 108 142 180 216 252
#
# _framework density 19.854243
#
# number of rings (size 3 to 8) (size 9 to 14) (size 15 to 20)
#    0.000    3.286    0.000    3.000    0.000    2.000 
#    0.000    1.429    0.000   12.000    0.000    0.000 
#    0.000    0.000    0.000    0.000    0.000    0.000 
#
# Total GULP energy -311876.404461 kJ/mol
# GULP energy per Si atom -5569.221508 kJ/mol
# Density = 1.980905 g / cm^3
# Si number density = 19.854243 Si / 1000 Ang^3
#
#
#
# Elastic Constant Matrix: (Units=GPa)
#
#
# Indices 1 2 3 4 5 6 
#
# 1 206.0686 92.5988 -0.8855 0.0000 0.0000 0.0000
# 2 92.5988 85.0748 5.0493 0.0000 0.0000 0.0000
# 3 -0.8855 5.0493 46.1264 0.0000 0.0000 0.0000
# 4 0.0000 0.0000 0.0000 3.0632 0.0000 0.0000
# 5 0.0000 0.0000 0.0000 0.0000 16.3655 0.0000
# 6 0.0000 0.0000 0.0000 0.0000 0.0000 20.2074
#
#
#
# Elastic Compliance Matrix: (Units=1/GPa)
#
#
# Indices 1 2 3 4 5 6 
#
# 1 0.009579 -0.010506 0.001334 0.000000 0.000000 0.000000
# 2 -0.010506 0.023353 -0.002758 0.000000 0.000000 0.000000
# 3 0.001334 -0.002758 0.022007 0.000000 0.000000 0.000000
# 4 0.000000 0.000000 0.000000 0.326451 0.000000 0.000000
# 5 0.000000 0.000000 0.000000 0.000000 0.061104 0.000000
# 6 0.000000 0.000000 0.000000 0.000000 0.000000 0.049487
#
#
# Mechanical properties :
#
#
# Convention : Reuss Voigt Hill
#
# Bulk Modulus (GPa) = 32.17537 58.97720 45.57628
# Shear Modulus (GPa) = 9.50208 23.96104 16.73156
#
# Velocity S-wave (km/s) = 2.19005 3.47774 2.90611
# Velocity P-wave (km/s) = 4.75774 6.77464 5.85371
#
# Compressibility (1/GPa) = 0.03107968
#
# Stress axis : x y z
#
# Youngs Moduli (GPa) = 104.39179 42.82135 45.43990
#
# Poissons Ratio (x) = 0.44987 -0.06061
# Poissons Ratio (y) = 1.09670 0.12532
# Poissons Ratio (z) = -0.13925 0.11810
#
# Static dielectric constant tensor:
#      x y z
#    x 1.730380 0.000000 0.000000 
#    y 0.000000 1.666260 0.000000 
#    z 0.000000 0.000000 1.771500 
# 
# From -- ./inp_files/8164.got.cif
#   From: 2010.05.17/outbox.cif.g08.bks.cpg/sg58_5_cif.got.tgz:8164.got - 2010.06.03 14:20:14.
