data_PCOD9445468
_publ_section_title
;
Structure prediction by ZEFSAII (Michael W. Deem and Ramdas Pophale) SiO2 
 PCOD9445468
Probable space group: P N N M
;
_chemical_formula_sum "Si O2"
_cell_formula_units_Z 20
_cell_length_a 13.842577
_cell_length_b 4.836170
_cell_length_c 11.374491
_cell_angle_alpha 90.000000
_cell_angle_beta 90.000000
_cell_angle_gamma 90.000000
_cell_volume 761.465933
_symmetry_space_group_name_H-M "P N N M"
_symmetry_group_IT_number 58
_symmetry_cell_setting 'orthorhombic'
loop_
_space_group_symop_operation_xyz
x,y,z
-x,-y,z
1/2+x,1/2-y,1/2-z
1/2-x,1/2+y,1/2-z
-x,-y,-z
x,y,-z
1/2-x,1/2+y,1/2+z
1/2+x,1/2-y,1/2+z
loop_
_atom_site_type_symbol
_atom_site_label
_atom_site_fract_x
_atom_site_fract_y
_atom_site_fract_z
Si Si1 0.388958 0.720581 0.000000
Si Si2 0.745839 0.291774 0.500000
Si Si3 0.000000 0.500000 0.693680
Si Si4 0.602090 0.653043 0.625848
O O1 0.302321 0.499402 0.000000
O O2 0.337289 0.012924 0.000000
O O3 0.455761 0.756171 0.114129
O O4 0.682176 0.411158 0.610836
O O5 0.912513 0.370447 0.770790
O O6 0.500000 0.500000 0.625789
O O7 0.609955 0.811369 0.500000
#
# Coordination Sequence:
#
# PCOD9445468 Si02
#       4
#     4   4   4   8
#     4  11  28  48  76 122 172 201 272 339 420 489
#     4  10  25  50  72 114 160 211 275 343 388 476
#     4  11  25  46  82 116 171 225 262 328 434 497
#     4   9  22  44  80 111 159 215 279 325 404 486
#
# _framework density 26.265129000000002
#
# number of rings (size 3 to 8) (size 9 to 14) (size 15 to 20)
#    1.200    0.800    0.000    0.600   11.200    1.600 
#    7.200    0.000    0.000    0.000   15.600    0.000 
#    0.000    0.000    0.000    0.000    0.000    0.000 
#
# Total GULP energy -111488.698323 kJ/mol
# GULP energy per Si atom -5574.434916 kJ/mol
# Density = 2.620535 g / cm^3
# Si number density = 26.265129 Si / 1000 Ang^3
#
#
#
# Elastic Constant Matrix: (Units=GPa)
#
#
# Indices 1 2 3 4 5 6 
#
# 1 134.2404 43.7887 58.5774 0.0000 0.0000 0.0000
# 2 43.7887 112.0330 83.0458 0.0000 0.0000 0.0000
# 3 58.5774 83.0458 171.8232 0.0000 0.0000 0.0000
# 4 0.0000 0.0000 0.0000 93.4997 0.0000 0.0000
# 5 0.0000 0.0000 0.0000 0.0000 -3.0011 0.0000
# 6 0.0000 0.0000 0.0000 0.0000 0.0000 60.6829
#
#
#
# Elastic Compliance Matrix: (Units=1/GPa)
#
#
# Indices 1 2 3 4 5 6 
#
# 1 0.009014 -0.001940 -0.002135 0.000000 0.000000 0.000000
# 2 -0.001940 0.014327 -0.006263 0.000000 0.000000 0.000000
# 3 -0.002135 -0.006263 0.009575 0.000000 0.000000 0.000000
# 4 0.000000 0.000000 0.000000 0.010695 0.000000 0.000000
# 5 0.000000 0.000000 0.000000 0.000000 -0.333216 0.000000
# 6 0.000000 0.000000 0.000000 0.000000 0.000000 0.016479
#
#
# Mechanical properties :
#
#
# Convention : Reuss Voigt Hill
#
# Bulk Modulus (GPa) = 81.70869 87.65785 84.68327
# Shear Modulus (GPa) = -20.13129 45.74861 12.80866
#
# Velocity S-wave (km/s) = -2.77151 4.17802 2.21072
# Velocity P-wave (km/s) = 4.57548 7.53134 6.23122
#
# Compressibility (1/GPa) = 0.01223860
#
# Stress axis : x y z
#
# Youngs Moduli (GPa) = 110.93864 69.79891 104.44014
#
# Poissons Ratio (x) = 0.13544 0.22300
# Poissons Ratio (y) = 0.21527 0.65410
# Poissons Ratio (z) = 0.23687 0.43715
#
# Static dielectric constant tensor:
#      x y z
#    x 2.020140 0.000000 0.000000 
#    y 0.000000 2.146730 0.000000 
#    z 0.000000 0.000000 2.195060 
# 
# From -- ./inp_files/15027.got.cif
#   From: 2010.05.17/outbox.cif.g08.bks.cpg/sg58_8_cif.got.tgz:15027.got - 2010.06.03 14:20:14.
