data_PCOD9445835
_publ_section_title
;
Structure prediction by ZEFSAII (Michael W. Deem and Ramdas Pophale) SiO2 
 PCOD9445835
Probable space group: P N N M
;
_chemical_formula_sum "Si O2"
_cell_formula_units_Z 40
_cell_length_a 7.600606
_cell_length_b 12.712631
_cell_length_c 17.673611
_cell_angle_alpha 90.000000
_cell_angle_beta 90.000000
_cell_angle_gamma 90.000000
_cell_volume 1707.689678
_symmetry_space_group_name_H-M "P N N M"
_symmetry_group_IT_number 58
_symmetry_cell_setting 'orthorhombic'
loop_
_space_group_symop_operation_xyz
x,y,z
-x,-y,z
1/2+x,1/2-y,1/2-z
1/2-x,1/2+y,1/2-z
-x,-y,-z
x,y,-z
1/2-x,1/2+y,1/2+z
1/2+x,1/2-y,1/2+z
loop_
_atom_site_type_symbol
_atom_site_label
_atom_site_fract_x
_atom_site_fract_y
_atom_site_fract_z
Si Si1 0.826286 0.960013 0.724204
Si Si2 0.343304 0.781592 0.816336
Si Si3 0.880997 0.605902 0.153318
Si Si4 0.863671 0.416083 0.625521
Si Si5 0.496320 0.313896 0.416033
O O1 0.826326 0.842681 0.693669
O O2 0.827495 0.884851 0.906307
O O3 0.803702 0.045838 0.657801
O O4 0.000000 0.000000 0.764277
O O5 0.515652 0.813262 0.863434
O O6 0.182435 0.539825 0.709128
O O7 0.165066 0.823082 0.856613
O O8 0.874705 0.671283 0.232458
O O9 0.935472 0.693273 0.093828
O O10 0.000000 0.500000 0.150284
O O11 0.000000 0.500000 0.589821
O O12 0.425474 0.332064 0.500000
#
# Coordination Sequence:
#
# PCOD9445835 Si02
#       5
#     8   8   8   8   8
#     4  12  23  38  71 114 141 183 249 318 367 425
#     4  12  23  45  74 104 147 191 252 309 362 440
#     4  12  22  43  72 109 138 186 251 309 364 435
#     4  12  25  42  73 104 146 193 251 307 364 438
#     4  12  29  48  72 109 158 201 239 307 390 456
#
# _framework density 23.423459999999999
#
# number of rings (size 3 to 8) (size 9 to 14) (size 15 to 20)
#    0.000    0.000    8.000    2.400    0.000    1.600 
#    0.000    1.000    0.000    3.000    0.000    0.000 
#    0.000    0.000    0.000    0.000    0.000    0.000 
#
# Total GULP energy -223183.572147 kJ/mol
# GULP energy per Si atom -5579.589304 kJ/mol
# Density = 2.337015 g / cm^3
# Si number density = 23.423460 Si / 1000 Ang^3
#
#
#
# Elastic Constant Matrix: (Units=GPa)
#
#
# Indices 1 2 3 4 5 6 
#
# 1 145.1929 18.2266 30.9291 0.0000 0.0000 0.0000
# 2 18.2266 48.0234 8.3062 0.0000 0.0000 0.0000
# 3 30.9291 8.3062 63.4814 0.0000 0.0000 0.0000
# 4 0.0000 0.0000 0.0000 5.0560 0.0000 0.0000
# 5 0.0000 0.0000 0.0000 0.0000 13.3727 0.0000
# 6 0.0000 0.0000 0.0000 0.0000 0.0000 54.2218
#
#
#
# Elastic Compliance Matrix: (Units=1/GPa)
#
#
# Indices 1 2 3 4 5 6 
#
# 1 0.007947 -0.002401 -0.003558 0.000000 0.000000 0.000000
# 2 -0.002401 0.022031 -0.001713 0.000000 0.000000 0.000000
# 3 -0.003558 -0.001713 0.017710 0.000000 0.000000 0.000000
# 4 0.000000 0.000000 0.000000 0.197784 0.000000 0.000000
# 5 0.000000 0.000000 0.000000 0.000000 0.074779 0.000000
# 6 0.000000 0.000000 0.000000 0.000000 0.000000 0.018443
#
#
# Mechanical properties :
#
#
# Convention : Reuss Voigt Hill
#
# Bulk Modulus (GPa) = 30.91682 41.29128 36.10405
# Shear Modulus (GPa) = 13.70548 27.81251 20.75899
#
# Velocity S-wave (km/s) = 2.42154 3.44957 2.98022
# Velocity P-wave (km/s) = 4.58762 5.79073 5.22392
#
# Compressibility (1/GPa) = 0.03234486
#
# Stress axis : x y z
#
# Youngs Moduli (GPa) = 125.84003 45.39146 56.46498
#
# Poissons Ratio (x) = 0.10897 0.20088
# Poissons Ratio (y) = 0.30210 0.09672
# Poissons Ratio (z) = 0.44769 0.07775
#
# Static dielectric constant tensor:
#      x y z
#    x 2.108790 0.000000 0.000000 
#    y 0.000000 1.958700 0.000000 
#    z 0.000000 0.000000 1.851760 
# 
# From -- ./inp_files/25108.got.cif
#   From: 2010.05.17/outbox.cif.g08.bks.cpg/sg58_13_cif.got.tgz:25108.got - 2010.06.03 14:20:14.
