data_PCOD9445651
_publ_section_title
;
Structure prediction by ZEFSAII (Michael W. Deem and Ramdas Pophale) SiO2 
 PCOD9445651
Probable space group: P N N M
;
_chemical_formula_sum "Si O2"
_cell_formula_units_Z 40
_cell_length_a 17.077964
_cell_length_b 7.146439
_cell_length_c 15.173382
_cell_angle_alpha 90.000000
_cell_angle_beta 90.000000
_cell_angle_gamma 90.000000
_cell_volume 1851.860108
_symmetry_space_group_name_H-M "P N N M"
_symmetry_group_IT_number 58
_symmetry_cell_setting 'orthorhombic'
loop_
_space_group_symop_operation_xyz
x,y,z
-x,-y,z
1/2+x,1/2-y,1/2-z
1/2-x,1/2+y,1/2-z
-x,-y,-z
x,y,-z
1/2-x,1/2+y,1/2+z
1/2+x,1/2-y,1/2+z
loop_
_atom_site_type_symbol
_atom_site_label
_atom_site_fract_x
_atom_site_fract_y
_atom_site_fract_z
Si Si1 0.562468 0.776824 0.094716
Si Si2 0.340497 0.188690 0.745902
Si Si3 0.168053 0.124854 0.215256
Si Si4 0.615147 0.341175 0.905616
Si Si5 0.410331 0.929946 0.395161
O O1 0.652025 0.595502 0.281980
O O2 0.469457 0.755875 0.096296
O O3 0.596524 0.564336 0.095610
O O4 0.585869 0.860588 0.000000
O O5 0.259728 0.161198 0.799130
O O6 0.351762 0.064566 0.659228
O O7 0.406790 0.134242 0.816327
O O8 0.157653 0.201678 0.315081
O O9 0.110046 0.230336 0.149033
O O10 0.654100 0.299834 0.000000
O O11 0.396104 0.928431 0.500000
O O12 0.500000 0.000000 0.381286
#
# Coordination Sequence:
#
# PCOD9445651 Si02
#       5
#     8   8   8   8   8
#     4   8  15  30  55  86 117 152 196 250 315 382
#     4  11  22  40  65  95 132 172 220 274 338 399
#     4  11  22  40  65  95 132 172 220 274 338 399
#     4   8  15  30  55  86 117 152 196 250 315 382
#     4  11  26  46  67  95 134 181 233 283 331 396
#
# _framework density 21.599903999999999
#
# number of rings (size 3 to 8) (size 9 to 14) (size 15 to 20)
#    0.000    2.200    2.000    2.400    0.000    4.800 
#    0.000    3.000    0.000    3.600    0.000    0.000 
#    0.000    0.000    0.000    0.000    0.000    0.000 
#
# Total GULP energy -223378.559500 kJ/mol
# GULP energy per Si atom -5584.463987 kJ/mol
# Density = 2.155074 g / cm^3
# Si number density = 21.599904 Si / 1000 Ang^3
#
#
#
# Elastic Constant Matrix: (Units=GPa)
#
#
# Indices 1 2 3 4 5 6 
#
# 1 22.8669 1.1976 4.5953 0.0000 0.0000 0.0000
# 2 1.1976 102.8372 17.0519 0.0000 0.0000 0.0000
# 3 4.5953 17.0519 109.1569 0.0000 0.0000 0.0000
# 4 0.0000 0.0000 0.0000 18.2410 0.0000 0.0000
# 5 0.0000 0.0000 0.0000 0.0000 9.0395 0.0000
# 6 0.0000 0.0000 0.0000 0.0000 0.0000 22.5526
#
#
#
# Elastic Compliance Matrix: (Units=1/GPa)
#
#
# Indices 1 2 3 4 5 6 
#
# 1 0.044109 -0.000211 -0.001824 0.000000 0.000000 0.000000
# 2 -0.000211 0.009984 -0.001551 0.000000 0.000000 0.000000
# 3 -0.001824 -0.001551 0.009480 0.000000 0.000000 0.000000
# 4 0.000000 0.000000 0.000000 0.054821 0.000000 0.000000
# 5 0.000000 0.000000 0.000000 0.000000 0.110626 0.000000
# 6 0.000000 0.000000 0.000000 0.000000 0.000000 0.044341
#
#
# Mechanical properties :
#
#
# Convention : Reuss Voigt Hill
#
# Bulk Modulus (GPa) = 17.73016 31.17230 24.45123
# Shear Modulus (GPa) = 16.70380 24.10103 20.40242
#
# Velocity S-wave (km/s) = 2.78389 3.34397 3.07670
# Velocity P-wave (km/s) = 4.30809 5.41965 4.89552
#
# Compressibility (1/GPa) = 0.05640107
#
# Stress axis : x y z
#
# Youngs Moduli (GPa) = 22.67114 100.16330 105.48353
#
# Poissons Ratio (x) = 0.02116 0.19239
# Poissons Ratio (y) = 0.00479 0.16357
# Poissons Ratio (z) = 0.04135 0.15532
#
# Static dielectric constant tensor:
#      x y z
#    x 1.764730 0.000000 0.000000 
#    y 0.000000 1.841710 0.000000 
#    z 0.000000 0.000000 1.796800 
# 
# From -- ./inp_files/22622.got.cif
#   From: 2010.05.17/outbox.cif.g08.bks.cpg/sg58_12_cif.got.tgz:22622.got - 2010.06.03 14:20:14.
