data_PCOD9445663
_publ_section_title
;
Structure prediction by ZEFSAII (Michael W. Deem and Ramdas Pophale) SiO2 
 PCOD9445663
Probable space group: P N N M
;
_chemical_formula_sum "Si O2"
_cell_formula_units_Z 48
_cell_length_a 12.927767
_cell_length_b 10.131140
_cell_length_c 16.481467
_cell_angle_alpha 90.000000
_cell_angle_beta 90.000000
_cell_angle_gamma 90.000000
_cell_volume 2158.627464
_symmetry_space_group_name_H-M "P N N M"
_symmetry_group_IT_number 58
_symmetry_cell_setting 'orthorhombic'
loop_
_space_group_symop_operation_xyz
x,y,z
-x,-y,z
1/2+x,1/2-y,1/2-z
1/2-x,1/2+y,1/2-z
-x,-y,-z
x,y,-z
1/2-x,1/2+y,1/2+z
1/2+x,1/2-y,1/2+z
loop_
_atom_site_type_symbol
_atom_site_label
_atom_site_fract_x
_atom_site_fract_y
_atom_site_fract_z
Si Si1 0.761893 0.452475 0.357846
Si Si2 0.070810 0.375625 0.806102
Si Si3 0.857104 0.723945 0.631744
Si Si4 0.777817 0.999293 0.667185
Si Si5 0.042790 0.136596 0.907166
Si Si6 0.590795 0.725126 0.093277
O O1 0.797634 0.592058 0.395348
O O2 0.729009 0.477829 0.264492
O O3 0.666005 0.383567 0.401733
O O4 0.856501 0.350710 0.363557
O O5 0.114468 0.306474 0.725727
O O6 0.170332 0.429355 0.854695
O O7 0.012273 0.264497 0.856792
O O8 0.000000 0.500000 0.785292
O O9 0.790702 0.856359 0.627588
O O10 0.968150 0.752705 0.593007
O O11 0.870945 0.095160 0.640710
O O12 0.008758 0.148232 0.000000
O O13 0.000000 0.000000 0.871832
O O14 0.626558 0.716711 0.000000
#
# Coordination Sequence:
#
# PCOD9445663 Si02
#       6
#     8   8   8   8   8   8
#     4  11  22  44  69  97 134 182 234 283 340 415
#     4  11  24  42  70  99 134 178 235 290 339 408
#     4  11  24  40  68 102 133 178 236 275 338 426
#     4  11  23  42  67 102 133 181 233 279 343 416
#     4  11  25  43  66  98 133 178 230 291 358 407
#     4  12  26  45  68 101 145 182 224 291 360 412
#
# _framework density 22.236352
#
# number of rings (size 3 to 8) (size 9 to 14) (size 15 to 20)
#    0.000    0.833    3.333    4.500    4.667    3.667 
#    0.000    0.000    0.000    0.000    0.000    0.000 
#    0.000    0.000    0.000    0.000    0.000    0.000 
#
# Total GULP energy -268524.861717 kJ/mol
# GULP energy per Si atom -5594.267952 kJ/mol
# Density = 2.218574 g / cm^3
# Si number density = 22.236352 Si / 1000 Ang^3
#
#
#
# Elastic Constant Matrix: (Units=GPa)
#
#
# Indices 1 2 3 4 5 6 
#
# 1 42.9935 9.1280 -2.2109 0.0000 0.0000 0.0000
# 2 9.1280 157.6284 32.2885 0.0000 0.0000 0.0000
# 3 -2.2109 32.2885 71.3224 0.0000 0.0000 0.0000
# 4 0.0000 0.0000 0.0000 14.6281 0.0000 0.0000
# 5 0.0000 0.0000 0.0000 0.0000 20.0070 0.0000
# 6 0.0000 0.0000 0.0000 0.0000 0.0000 50.7865
#
#
#
# Elastic Compliance Matrix: (Units=1/GPa)
#
#
# Indices 1 2 3 4 5 6 
#
# 1 0.023692 -0.001678 0.001494 0.000000 0.000000 0.000000
# 2 -0.001678 0.007111 -0.003271 0.000000 0.000000 0.000000
# 3 0.001494 -0.003271 0.015548 0.000000 0.000000 0.000000
# 4 0.000000 0.000000 0.000000 0.068361 0.000000 0.000000
# 5 0.000000 0.000000 0.000000 0.000000 0.049982 0.000000
# 6 0.000000 0.000000 0.000000 0.000000 0.000000 0.019690
#
#
# Mechanical properties :
#
#
# Convention : Reuss Voigt Hill
#
# Bulk Modulus (GPa) = 25.35420 38.92839 32.14130
# Shear Modulus (GPa) = 24.45659 32.60024 28.52842
#
# Velocity S-wave (km/s) = 3.31999 3.83309 3.58573
# Velocity P-wave (km/s) = 5.11110 6.09383 5.62397
#
# Compressibility (1/GPa) = 0.03944120
#
# Stress axis : x y z
#
# Youngs Moduli (GPa) = 42.20761 140.62098 64.31634
#
# Poissons Ratio (x) = 0.23597 -0.09609
# Poissons Ratio (y) = 0.07083 0.21040
# Poissons Ratio (z) = -0.06306 0.46003
#
# Static dielectric constant tensor:
#      x y z
#    x 1.842250 0.000000 0.000000 
#    y 0.000000 1.819210 0.000000 
#    z 0.000000 0.000000 1.834780 
# 
# From -- ./inp_files/25293.got.cif
#   From: 2010.05.17/outbox.cif.g08.bks.cpg/sg58_13_cif.got.tgz:25293.got - 2010.06.03 14:20:14.
