data_PCOD9445887
_publ_section_title
;
Structure prediction by ZEFSAII (Michael W. Deem and Ramdas Pophale) SiO2 
 PCOD9445887
Probable space group: P N N M
;
_chemical_formula_sum "Si O2"
_cell_formula_units_Z 48
_cell_length_a 17.171423
_cell_length_b 18.704961
_cell_length_c 7.461915
_cell_angle_alpha 90.000000
_cell_angle_beta 90.000000
_cell_angle_gamma 90.000000
_cell_volume 2396.698430
_symmetry_space_group_name_H-M "P N N M"
_symmetry_group_IT_number 58
_symmetry_cell_setting 'orthorhombic'
loop_
_space_group_symop_operation_xyz
x,y,z
-x,-y,z
1/2+x,1/2-y,1/2-z
1/2-x,1/2+y,1/2-z
-x,-y,-z
x,y,-z
1/2-x,1/2+y,1/2+z
1/2+x,1/2-y,1/2+z
loop_
_atom_site_type_symbol
_atom_site_label
_atom_site_fract_x
_atom_site_fract_y
_atom_site_fract_z
Si Si1 0.258725 0.051595 0.285016
Si Si2 0.143423 0.171565 0.280157
Si Si3 0.507542 0.582631 0.218541
Si Si4 0.819815 0.095875 0.716426
Si Si5 0.837827 0.668623 0.710321
Si Si6 0.415977 0.976481 0.213651
O O1 0.253388 0.051666 0.500000
O O2 0.217642 0.124074 0.222546
O O3 0.348097 0.034993 0.240324
O O4 0.209038 0.982636 0.222065
O O5 0.144330 0.172854 0.500000
O O6 0.144826 0.253046 0.215858
O O7 0.065454 0.129892 0.224433
O O8 0.500000 0.500000 0.273741
O O9 0.592341 0.610102 0.275835
O O10 0.506202 0.582585 0.000000
O O11 0.820051 0.094575 0.500000
O O12 0.753597 0.150879 0.773570
O O13 0.857265 0.671366 0.500000
O O14 0.883308 0.599379 0.785931
O O15 0.500000 0.000000 0.284870
O O16 0.424062 0.967729 0.000000
#
# Coordination Sequence:
#
# PCOD9445887 Si02
#       6
#     8   8   8   8   8   8
#     4   9  16  28  49  71  90 115 151 191 230 272
#     4   9  16  28  46  69  95 122 153 188 231 278
#     4   9  14  24  46  74  96 114 146 192 232 268
#     4   9  16  28  48  72  92 115 149 189 228 268
#     4   9  18  32  48  64  92 129 155 184 229 276
#     4   9  18  33  49  66  91 124 161 192 221 268
#
# _framework density 20.027550999999999
#
# number of rings (size 3 to 8) (size 9 to 14) (size 15 to 20)
#    0.000    3.000    1.667    0.000    0.000    0.333 
#    3.000    0.833    0.000    2.500    0.000    0.000 
#    0.000    0.000    0.000    0.000    0.000    0.000 
#
# Total GULP energy -267680.197817 kJ/mol
# GULP energy per Si atom -5576.670788 kJ/mol
# Density = 1.998197 g / cm^3
# Si number density = 20.027551 Si / 1000 Ang^3
#
#
#
# Elastic Constant Matrix: (Units=GPa)
#
#
# Indices 1 2 3 4 5 6 
#
# 1 187.2758 104.7611 -0.9376 0.0000 0.0000 0.0000
# 2 104.7611 148.8375 6.6262 0.0000 0.0000 0.0000
# 3 -0.9376 6.6262 57.0700 0.0000 0.0000 0.0000
# 4 0.0000 0.0000 0.0000 6.4200 0.0000 0.0000
# 5 0.0000 0.0000 0.0000 0.0000 11.5558 0.0000
# 6 0.0000 0.0000 0.0000 0.0000 0.0000 23.2138
#
#
#
# Elastic Compliance Matrix: (Units=1/GPa)
#
#
# Indices 1 2 3 4 5 6 
#
# 1 0.008851 -0.006269 0.000873 0.000000 0.000000 0.000000
# 2 -0.006269 0.011193 -0.001403 0.000000 0.000000 0.000000
# 3 0.000873 -0.001403 0.017700 0.000000 0.000000 0.000000
# 4 0.000000 0.000000 0.000000 0.155763 0.000000 0.000000
# 5 0.000000 0.000000 0.000000 0.000000 0.086536 0.000000
# 6 0.000000 0.000000 0.000000 0.000000 0.000000 0.043078
#
#
# Mechanical properties :
#
#
# Convention : Reuss Voigt Hill
#
# Bulk Modulus (GPa) = 41.41173 68.23141 54.82157
# Shear Modulus (GPa) = 14.50258 27.08683 20.79471
#
# Velocity S-wave (km/s) = 2.69389 3.68160 3.22577
# Velocity P-wave (km/s) = 5.51347 7.22599 6.42702
#
# Compressibility (1/GPa) = 0.02414775
#
# Stress axis : x y z
#
# Youngs Moduli (GPa) = 112.98572 89.33864 56.49863
#
# Poissons Ratio (x) = 0.56002 -0.04934
# Poissons Ratio (y) = 0.70825 0.07925
# Poissons Ratio (z) = -0.09866 0.12531
#
# Static dielectric constant tensor:
#      x y z
#    x 1.693580 0.000000 0.000000 
#    y 0.000000 1.689890 0.000000 
#    z 0.000000 0.000000 1.774910 
# 
# From -- ./inp_files/7846.got.cif
#   From: 2010.05.17/outbox.cif.g08.bks.cpg/sg58_4_cif.got.tgz:7846.got - 2010.06.03 14:20:14.
