data_PCOD9445955
_publ_section_title
;
Structure prediction by ZEFSAII (Michael W. Deem and Ramdas Pophale) SiO2 
 PCOD9445955
Probable space group: P N N M
;
_chemical_formula_sum "Si O2"
_cell_formula_units_Z 64
_cell_length_a 24.000000
_cell_length_b 15.000000
_cell_length_c 9.000000
_cell_angle_alpha 90.000000
_cell_angle_beta 90.000000
_cell_angle_gamma 90.000000
_cell_volume 3240.000000
_symmetry_space_group_name_H-M "P N N M"
_symmetry_group_IT_number 58
_symmetry_cell_setting 'orthorhombic'
loop_
_space_group_symop_operation_xyz
x,y,z
-x,-y,z
1/2+x,1/2-y,1/2-z
1/2-x,1/2+y,1/2-z
-x,-y,-z
x,y,-z
1/2-x,1/2+y,1/2+z
1/2+x,1/2-y,1/2+z
loop_
_atom_site_type_symbol
_atom_site_label
_atom_site_fract_x
_atom_site_fract_y
_atom_site_fract_z
Si Si1 0.537466 0.424269 0.326738
Si Si2 0.032233 0.746484 0.832199
Si Si3 0.161568 0.112370 0.819532
Si Si4 0.971017 0.590560 0.677628
Si Si5 0.740465 0.550476 0.680599
Si Si6 0.255517 0.745707 0.179956
Si Si7 0.640629 0.832250 0.324565
Si Si8 0.863549 0.509570 0.321631
O O1 0.500000 0.500000 0.252979
O O2 0.548091 0.451424 0.500000
O O3 0.498358 0.339020 0.326401
O O4 0.598160 0.400293 0.267683
O O5 0.098128 0.749219 0.802202
O O6 0.001571 0.677748 0.728336
O O7 0.026767 0.710688 0.000000
O O8 0.190974 0.199496 0.751588
O O9 0.195464 0.023003 0.773683
O O10 0.163361 0.119782 0.000000
O O11 0.972328 0.586928 0.500000
O O12 0.906559 0.585384 0.725442
O O13 0.000000 0.500000 0.733518
O O14 0.739288 0.549660 0.500000
O O15 0.738565 0.653980 0.723805
O O16 0.801376 0.521235 0.733822
O O17 0.202452 0.687472 0.227492
O O18 0.261039 0.744566 0.000000
O O19 0.643624 0.851191 0.500000
O O20 0.615825 0.915402 0.238020
O O21 0.861990 0.507673 0.500000
#
# Coordination Sequence:
#
# PCOD9445955 Si02
#       8
#     8   8   8   8   8   8   8   8
#     4   9  20  37  58  83 110 142 184 232 273 313
#     4  10  21  35  53  79 109 142 179 221 270 319
#     4  10  20  37  60  84 109 141 184 229 270 318
#     4  10  20  33  51  76 107 143 179 214 260 319
#     4   9  19  34  55  78 103 141 180 215 266 326
#     4  10  21  36  55  81 110 141 177 221 274 327
#     4  10  20  33  52  78 108 139 175 221 271 320
#     4  10  19  34  53  75 106 142 179 216 260 319
#
# _framework density 19.753086
#
# number of rings (size 3 to 8) (size 9 to 14) (size 15 to 20)
#    0.000    2.250    2.500    0.000    3.500    0.750 
#    0.000    1.250    0.000    1.500    0.000    0.000 
#    0.000    0.000    0.000    0.000    0.000    0.000 
#
# Total GULP energy -356322.927575 kJ/mol
# GULP energy per Si atom -5567.545743 kJ/mol
# Density = 1.970813 g / cm^3
# Si number density = 19.753086 Si / 1000 Ang^3
#
#
#
# Elastic Constant Matrix: (Units=GPa)
#
#
# Indices 1 2 3 4 5 6 
#
# 1 52.1004 -26.1627 -0.2271 0.0000 0.0000 0.0000
# 2 -26.1627 15.5280 -5.9192 0.0000 0.0000 0.0000
# 3 -0.2271 -5.9192 -14.3391 0.0000 0.0000 0.0000
# 4 0.0000 0.0000 0.0000 18.1450 0.0000 0.0000
# 5 0.0000 0.0000 0.0000 0.0000 1.9299 0.0000
# 6 0.0000 0.0000 0.0000 0.0000 0.0000 18.7278
#
#
#
# Elastic Compliance Matrix: (Units=1/GPa)
#
#
# Indices 1 2 3 4 5 6 
#
# 1 0.069984 0.101517 -0.043015 0.000000 0.000000 0.000000
# 2 0.101517 0.202902 -0.085366 0.000000 0.000000 0.000000
# 3 -0.043015 -0.085366 -0.033819 0.000000 0.000000 0.000000
# 4 0.000000 0.000000 0.000000 0.055111 0.000000 0.000000
# 5 0.000000 0.000000 0.000000 0.000000 0.518158 0.000000
# 6 0.000000 0.000000 0.000000 0.000000 0.000000 0.053396
#
#
# Mechanical properties :
#
#
# Convention : Reuss Voigt Hill
#
# Bulk Modulus (GPa) = 5.39554 -1.25875 2.06840
# Shear Modulus (GPa) = 5.09559 13.46711 9.28135
#
# Velocity S-wave (km/s) = 1.60787 2.61391 2.17000
# Velocity P-wave (km/s) = 2.48685 2.91057 2.70701
#
# Compressibility (1/GPa) = 0.18533815
#
# Stress axis : x y z
#
# Youngs Moduli (GPa) = 14.28902 4.92849 -29.56941
#
# Poissons Ratio (x) = -0.50032 -1.27192
# Poissons Ratio (y) = -1.45058 -2.52423
# Poissons Ratio (z) = 0.61464 0.42073
#
# Static dielectric constant tensor:
#      x y z
#    x 1.758700 0.000000 0.000000 
#    y 0.000000 1.701110 0.000000 
#    z 0.000000 0.000000 1.675170 
# 
# From -- ./inp_files/6927.got.cif
#   From: 2010.05.17/outbox.ucp.g08.bks.cvg/sg58_4_cif.got.tgz:6927.got - 2010.06.11 16:41:41.
