data_PCOD9445284
_publ_section_title
;
Structure prediction by ZEFSAII (Michael W. Deem and Ramdas Pophale) SiO2 
 PCOD9445284
Probable space group: P N N M
;
_chemical_formula_sum "Si O2"
_cell_formula_units_Z 40
_cell_length_a 24.018498
_cell_length_b 7.250909
_cell_length_c 8.751300
_cell_angle_alpha 90.000000
_cell_angle_beta 90.000000
_cell_angle_gamma 90.000000
_cell_volume 1524.090907
_symmetry_space_group_name_H-M "P N N M"
_symmetry_group_IT_number 58
_symmetry_cell_setting 'orthorhombic'
loop_
_space_group_symop_operation_xyz
x,y,z
-x,-y,z
1/2+x,1/2-y,1/2-z
1/2-x,1/2+y,1/2-z
-x,-y,-z
x,y,-z
1/2-x,1/2+y,1/2+z
1/2+x,1/2-y,1/2+z
loop_
_atom_site_type_symbol
_atom_site_label
_atom_site_fract_x
_atom_site_fract_y
_atom_site_fract_z
Si Si1 0.500000 0.500000 0.260207
Si Si2 0.403632 0.144626 0.500000
Si Si3 0.827936 0.502897 0.263658
Si Si4 0.445600 0.766477 0.500000
Si Si5 0.351162 0.508186 0.500000
Si Si6 0.205991 0.899016 0.329403
Si Si7 0.090610 0.376672 0.500000
Si Si8 0.535148 0.723818 0.000000
O O1 0.474428 0.666849 0.356587
O O2 0.544461 0.600045 0.149106
O O3 0.367943 0.088979 0.356821
O O4 0.448666 0.985491 0.500000
O O5 0.404672 0.365164 0.500000
O O6 0.807835 0.316484 0.345573
O O7 0.772375 0.588302 0.195160
O O8 0.867379 0.640074 0.358297
O O9 0.380749 0.705423 0.500000
O O10 0.319583 0.470832 0.336540
O O11 0.192350 0.983327 0.500000
O O12 0.069661 0.590408 0.500000
O O13 0.031707 0.271148 0.500000
#
# Coordination Sequence:
#
# PCOD9445284 Si02
#       8
#     4   4   8   4   4   8   4   4
#     4  10  24  46  66 100 140 170 234 310 378 448
#     4  10  23  41  63  98 135 172 244 281 342 446
#     4  11  23  41  65  98 140 185 242 291 361 433
#     4  11  24  45  71  99 139 186 229 314 368 446
#     4  10  26  43  71 104 140 197 245 283 379 433
#     4  11  24  44  64 101 147 190 242 308 345 449
#     4  11  23  43  73 100 137 194 238 311 376 438
#     4  10  24  46  70 103 139 176 250 310 370 458
#
# _framework density 26.245152999999998
#
# number of rings (size 3 to 8) (size 9 to 14) (size 15 to 20)
#    0.000    1.400    2.000    1.800    8.400    0.000 
#    1.800    1.000    0.000    0.000    0.000    0.000 
#    0.000    0.000    0.000    0.000    0.000    0.000 
#
# Total GULP energy -223507.617473 kJ/mol
# GULP energy per Si atom -5587.690437 kJ/mol
# Density = 2.618542 g / cm^3
# Si number density = 26.245153 Si / 1000 Ang^3
#
#
#
# Elastic Constant Matrix: (Units=GPa)
#
#
# Indices 1 2 3 4 5 6 
#
# 1 123.9733 29.1087 36.6071 0.0000 0.0000 0.0000
# 2 29.1087 88.1852 10.4093 0.0000 0.0000 0.0000
# 3 36.6071 10.4093 168.8715 0.0000 0.0000 0.0000
# 4 0.0000 0.0000 0.0000 57.7041 0.0000 0.0000
# 5 0.0000 0.0000 0.0000 0.0000 30.8602 0.0000
# 6 0.0000 0.0000 0.0000 0.0000 0.0000 44.0704
#
#
#
# Elastic Compliance Matrix: (Units=1/GPa)
#
#
# Indices 1 2 3 4 5 6 
#
# 1 0.009276 -0.002845 -0.001835 0.000000 0.000000 0.000000
# 2 -0.002845 0.012296 -0.000141 0.000000 0.000000 0.000000
# 3 -0.001835 -0.000141 0.006328 0.000000 0.000000 0.000000
# 4 0.000000 0.000000 0.000000 0.017330 0.000000 0.000000
# 5 0.000000 0.000000 0.000000 0.000000 0.032404 0.000000
# 6 0.000000 0.000000 0.000000 0.000000 0.000000 0.022691
#
#
# Mechanical properties :
#
#
# Convention : Reuss Voigt Hill
#
# Bulk Modulus (GPa) = 54.77547 59.25337 57.01442
# Shear Modulus (GPa) = 43.08322 46.85392 44.96857
#
# Velocity S-wave (km/s) = 4.05602 4.22979 4.14382
# Velocity P-wave (km/s) = 6.54608 6.81768 6.68326
#
# Compressibility (1/GPa) = 0.01825635
#
# Stress axis : x y z
#
# Youngs Moduli (GPa) = 107.80145 81.32968 158.02162
#
# Poissons Ratio (x) = 0.23141 0.29005
# Poissons Ratio (y) = 0.30673 0.02230
# Poissons Ratio (z) = 0.19787 0.01148
#
# Static dielectric constant tensor:
#      x y z
#    x 2.056240 0.000000 0.000000 
#    y 0.000000 2.054270 0.000000 
#    z 0.000000 0.000000 2.099720 
# 
# From -- ./inp_files/9653.got.cif
#   From: 2010.05.17/outbox.cif.g08.bks.cpg/sg58_5_cif.got.tgz:9653.got - 2010.06.03 14:20:14.
