data_PCOD9445313
_publ_section_title
;
Structure prediction by ZEFSAII (Michael W. Deem and Ramdas Pophale) SiO2 
 PCOD9445313
Probable space group: P N N M
;
_chemical_formula_sum "Si O2"
_cell_formula_units_Z 48
_cell_length_a 20.650569
_cell_length_b 15.120362
_cell_length_c 7.867374
_cell_angle_alpha 90.000000
_cell_angle_beta 90.000000
_cell_angle_gamma 90.000000
_cell_volume 2456.540947
_symmetry_space_group_name_H-M "P N N M"
_symmetry_group_IT_number 58
_symmetry_cell_setting 'orthorhombic'
loop_
_space_group_symop_operation_xyz
x,y,z
-x,-y,z
1/2+x,1/2-y,1/2-z
1/2-x,1/2+y,1/2-z
-x,-y,-z
x,y,-z
1/2-x,1/2+y,1/2+z
1/2+x,1/2-y,1/2+z
loop_
_atom_site_type_symbol
_atom_site_label
_atom_site_fract_x
_atom_site_fract_y
_atom_site_fract_z
Si Si1 0.729979 0.724170 0.694518
Si Si2 0.961912 0.141893 0.000000
Si Si3 0.297381 0.949971 0.696604
Si Si4 0.911773 0.259674 0.695496
Si Si5 0.069457 0.534734 0.704542
Si Si6 0.100110 0.046595 0.000000
Si Si7 0.806231 0.896904 0.299405
O O1 0.711006 0.744105 0.500000
O O2 0.764808 0.630105 0.703473
O O3 0.663612 0.731246 0.797619
O O4 0.780970 0.799396 0.745624
O O5 0.949055 0.199887 0.831952
O O6 0.032953 0.099746 0.000000
O O7 0.913363 0.058227 0.000000
O O8 0.292369 0.924642 0.500000
O O9 0.371047 0.974141 0.737396
O O10 0.254614 0.037541 0.723263
O O11 0.934940 0.250726 0.500000
O O12 0.917976 0.362651 0.748755
O O13 0.068712 0.531156 0.500000
O O14 0.000000 0.500000 0.767432
O O15 0.139393 0.072232 0.830913
O O16 0.825056 0.899563 0.500000
#
# Coordination Sequence:
#
# PCOD9445313 Si02
#       7
#     8   4   8   8   8   4   8
#     4  11  22  39  65  95 132 170 219 274 324 392
#     4  11  26  46  65  98 132 170 231 264 327 410
#     4  11  23  38  62  99 131 167 219 273 332 394
#     4  11  23  42  69  95 131 178 219 269 331 397
#     4  10  23  42  64  93 131 176 221 268 334 402
#     4  11  26  44  70  94 129 178 216 278 331 388
#     4  10  24  42  64  96 131 167 218 277 329 386
#
# _framework density 19.539670000000001
#
# number of rings (size 3 to 8) (size 9 to 14) (size 15 to 20)
#    0.000    1.333    2.500    2.000    5.833    4.333 
#    0.000    5.000    0.000    0.000    0.000    0.000 
#    0.000    0.000    0.000    0.000    0.000    0.000 
#
# Total GULP energy -268276.629321 kJ/mol
# GULP energy per Si atom -5589.096444 kJ/mol
# Density = 1.949520 g / cm^3
# Si number density = 19.539670 Si / 1000 Ang^3
#
#
#
# Elastic Constant Matrix: (Units=GPa)
#
#
# Indices 1 2 3 4 5 6 
#
# 1 88.1752 24.5331 30.3709 0.0000 0.0000 0.0000
# 2 24.5331 85.2465 24.2580 0.0000 0.0000 0.0000
# 3 30.3709 24.2580 62.0217 0.0000 0.0000 0.0000
# 4 0.0000 0.0000 0.0000 31.1613 0.0000 0.0000
# 5 0.0000 0.0000 0.0000 0.0000 -7.3991 0.0000
# 6 0.0000 0.0000 0.0000 0.0000 0.0000 31.0449
#
#
#
# Elastic Compliance Matrix: (Units=1/GPa)
#
#
# Indices 1 2 3 4 5 6 
#
# 1 0.014047 -0.002346 -0.005961 0.000000 0.000000 0.000000
# 2 -0.002346 0.013592 -0.004167 0.000000 0.000000 0.000000
# 3 -0.005961 -0.004167 0.020672 0.000000 0.000000 0.000000
# 4 0.000000 0.000000 0.000000 0.032091 0.000000 0.000000
# 5 0.000000 0.000000 0.000000 0.000000 -0.135152 0.000000
# 6 0.000000 0.000000 0.000000 0.000000 0.000000 0.032211
#
#
# Mechanical properties :
#
#
# Convention : Reuss Voigt Hill
#
# Bulk Modulus (GPa) = 42.80387 43.75192 43.27789
# Shear Modulus (GPa) = 490.31103 21.38018 255.84560
#
# Velocity S-wave (km/s) = 15.85799 3.31145 11.45516
# Velocity P-wave (km/s) = 18.90118 6.08776 14.04129
#
# Compressibility (1/GPa) = 0.02336237
#
# Stress axis : x y z
#
# Youngs Moduli (GPa) = 71.18942 73.57410 48.37425
#
# Poissons Ratio (x) = 0.17263 0.28835
# Poissons Ratio (y) = 0.16703 0.20158
# Poissons Ratio (z) = 0.42435 0.30659
#
# Static dielectric constant tensor:
#      x y z
#    x 1.660260 0.000000 0.000000 
#    y 0.000000 1.672530 0.000000 
#    z 0.000000 0.000000 1.689560 
# 
# From -- ./inp_files/7774.got.cif
#   From: 2010.05.17/outbox.cif.g08.bks.cpg/sg58_4_cif.got.tgz:7774.got - 2010.06.03 14:20:14.
