data_PCOD9445408
_publ_section_title
;
Structure prediction by ZEFSAII (Michael W. Deem and Ramdas Pophale) SiO2 
 PCOD9445408
Probable space group: P N N M
;
_chemical_formula_sum "Si O2"
_cell_formula_units_Z 48
_cell_length_a 12.586584
_cell_length_b 5.657511
_cell_length_c 27.703128
_cell_angle_alpha 90.000000
_cell_angle_beta 90.000000
_cell_angle_gamma 90.000000
_cell_volume 1972.704768
_symmetry_space_group_name_H-M "P N N M"
_symmetry_group_IT_number 58
_symmetry_cell_setting 'orthorhombic'
loop_
_space_group_symop_operation_xyz
x,y,z
-x,-y,z
1/2+x,1/2-y,1/2-z
1/2-x,1/2+y,1/2-z
-x,-y,-z
x,y,-z
1/2-x,1/2+y,1/2+z
1/2+x,1/2-y,1/2+z
loop_
_atom_site_type_symbol
_atom_site_label
_atom_site_fract_x
_atom_site_fract_y
_atom_site_fract_z
Si Si1 0.178329 0.963566 0.283554
Si Si2 0.590520 0.702981 0.448038
Si Si3 0.446857 0.255093 0.058134
Si Si4 0.257888 0.587106 0.598511
Si Si5 0.670617 0.050685 0.195354
Si Si6 0.886166 0.531428 0.852919
O O1 0.224149 0.955083 0.229434
O O2 0.114803 0.206344 0.289956
O O3 0.284712 0.994698 0.317497
O O4 0.126679 0.713447 0.296849
O O5 0.500000 0.500000 0.446860
O O6 0.583024 0.827658 0.500000
O O7 0.701602 0.566056 0.445274
O O8 0.598120 0.861075 0.399753
O O9 0.500000 0.500000 0.074320
O O10 0.328774 0.266711 0.079462
O O11 0.500000 0.000000 0.072317
O O12 0.444875 0.254809 0.000000
O O13 0.202401 0.435841 0.639860
O O14 0.357568 0.716117 0.623500
O O15 0.000000 0.500000 0.826794
#
# Coordination Sequence:
#
# PCOD9445408 Si02
#       6
#     8   8   8   8   8   8
#     4   9  18  34  55  85 118 160 200 250 295 365
#     4  11  23  37  56  88 130 172 217 259 306 379
#     4  10  24  44  64  88 117 155 209 266 318 374
#     4  11  22  39  64  89 122 168 206 262 323 377
#     4   9  18  33  59  86 115 151 206 250 307 359
#     4  11  22  37  58  89 131 171 210 253 312 383
#
# _framework density 24.332075
#
# number of rings (size 3 to 8) (size 9 to 14) (size 15 to 20)
#    0.000    1.833    3.333    0.500    2.333    1.667 
#    0.000    0.833    0.000    7.000    0.000    0.000 
#    0.000    0.000    0.000    0.000    0.000    0.000 
#
# Total GULP energy -267658.456750 kJ/mol
# GULP energy per Si atom -5576.217849 kJ/mol
# Density = 2.427669 g / cm^3
# Si number density = 24.332075 Si / 1000 Ang^3
#
#
#
# Elastic Constant Matrix: (Units=GPa)
#
#
# Indices 1 2 3 4 5 6 
#
# 1 61.2611 4.9783 17.9711 0.0000 0.0000 0.0000
# 2 4.9783 150.1029 18.0626 0.0000 0.0000 0.0000
# 3 17.9711 18.0626 101.0026 0.0000 0.0000 0.0000
# 4 0.0000 0.0000 0.0000 24.3102 0.0000 0.0000
# 5 0.0000 0.0000 0.0000 0.0000 106.0545 0.0000
# 6 0.0000 0.0000 0.0000 0.0000 0.0000 25.7373
#
#
#
# Elastic Compliance Matrix: (Units=1/GPa)
#
#
# Indices 1 2 3 4 5 6 
#
# 1 0.017229 -0.000207 -0.003028 0.000000 0.000000 0.000000
# 2 -0.000207 0.006811 -0.001181 0.000000 0.000000 0.000000
# 3 -0.003028 -0.001181 0.010651 0.000000 0.000000 0.000000
# 4 0.000000 0.000000 0.000000 0.041135 0.000000 0.000000
# 5 0.000000 0.000000 0.000000 0.000000 0.009429 0.000000
# 6 0.000000 0.000000 0.000000 0.000000 0.000000 0.038854
#
#
# Mechanical properties :
#
#
# Convention : Reuss Voigt Hill
#
# Bulk Modulus (GPa) = 38.67364 43.82118 41.24741
# Shear Modulus (GPa) = 35.32039 49.31071 42.31555
#
# Velocity S-wave (km/s) = 3.81412 4.50663 4.17476
# Velocity P-wave (km/s) = 5.94351 6.71776 6.34246
#
# Compressibility (1/GPa) = 0.02585740
#
# Stress axis : x y z
#
# Youngs Moduli (GPa) = 58.04234 146.81908 93.88953
#
# Poissons Ratio (x) = 0.03039 0.28434
# Poissons Ratio (y) = 0.01201 0.11090
# Poissons Ratio (z) = 0.17578 0.17343
#
# Static dielectric constant tensor:
#      x y z
#    x 2.178450 0.000000 0.000000 
#    y 0.000000 2.027540 0.000000 
#    z 0.000000 0.000000 1.909500 
# 
# From -- ./inp_files/32804.got.cif
#   From: 2010.05.17/outbox.cif.g08.bks.cpg/sg58_17_cif.got.tgz:32804.got - 2010.06.03 14:20:14.
