data_PCOD9445577
_publ_section_title
;
Structure prediction by ZEFSAII (Michael W. Deem and Ramdas Pophale) SiO2 
 PCOD9445577
Probable space group: P N N M
;
_chemical_formula_sum "Si O2"
_cell_formula_units_Z 40
_cell_length_a 10.690654
_cell_length_b 9.083264
_cell_length_c 17.363304
_cell_angle_alpha 90.000000
_cell_angle_beta 90.000000
_cell_angle_gamma 90.000000
_cell_volume 1686.081565
_symmetry_space_group_name_H-M "P N N M"
_symmetry_group_IT_number 58
_symmetry_cell_setting 'orthorhombic'
loop_
_space_group_symop_operation_xyz
x,y,z
-x,-y,z
1/2+x,1/2-y,1/2-z
1/2-x,1/2+y,1/2-z
-x,-y,-z
x,y,-z
1/2-x,1/2+y,1/2+z
1/2+x,1/2-y,1/2+z
loop_
_atom_site_type_symbol
_atom_site_label
_atom_site_fract_x
_atom_site_fract_y
_atom_site_fract_z
Si Si1 0.057157 0.789936 0.166597
Si Si2 0.950613 0.848989 0.666847
Si Si3 0.190629 0.505366 0.185994
Si Si4 0.704703 0.286039 0.409772
Si Si5 0.822634 0.572604 0.641333
O O1 0.088433 0.618507 0.154287
O O2 0.180677 0.868800 0.135821
O O3 0.036606 0.818401 0.258053
O O4 0.930267 0.833436 0.124350
O O5 0.918003 0.702957 0.617409
O O6 0.814001 0.895532 0.699511
O O7 0.000000 0.000000 0.628102
O O8 0.226498 0.369134 0.132452
O O9 0.148549 0.445893 0.268337
O O10 0.694658 0.264006 0.500000
O O11 0.809566 0.410038 0.393524
#
# Coordination Sequence:
#
# PCOD9445577 Si02
#       5
#     8   8   8   8   8
#     4  11  21  37  62  99 136 171 227 273 350 405
#     4  11  21  38  65  96 128 171 229 293 336 390
#     4  11  22  38  63 100 135 177 228 281 333 413
#     4  12  25  42  64  99 144 178 220 289 365 429
#     4  11  22  39  64  99 132 176 233 282 335 410
#
# _framework density 23.723645000000001
#
# number of rings (size 3 to 8) (size 9 to 14) (size 15 to 20)
#    0.000    0.800    6.000    2.400    0.000    3.200 
#    0.000    3.000    0.000    3.600    0.000    0.000 
#    0.000    0.000    0.000    0.000    0.000    0.000 
#
# Total GULP energy -223606.797058 kJ/mol
# GULP energy per Si atom -5590.169926 kJ/mol
# Density = 2.366965 g / cm^3
# Si number density = 23.723645 Si / 1000 Ang^3
#
#
#
# Elastic Constant Matrix: (Units=GPa)
#
#
# Indices 1 2 3 4 5 6 
#
# 1 107.4819 44.1938 2.8923 0.0000 0.0000 0.0000
# 2 44.1938 186.0079 33.3319 0.0000 0.0000 0.0000
# 3 2.8923 33.3319 80.9915 0.0000 0.0000 0.0000
# 4 0.0000 0.0000 0.0000 12.8102 0.0000 0.0000
# 5 0.0000 0.0000 0.0000 0.0000 6.7070 0.0000
# 6 0.0000 0.0000 0.0000 0.0000 0.0000 65.6603
#
#
#
# Elastic Compliance Matrix: (Units=1/GPa)
#
#
# Indices 1 2 3 4 5 6 
#
# 1 0.010347 -0.002583 0.000693 0.000000 0.000000 0.000000
# 2 -0.002583 0.006449 -0.002562 0.000000 0.000000 0.000000
# 3 0.000693 -0.002562 0.013376 0.000000 0.000000 0.000000
# 4 0.000000 0.000000 0.000000 0.078063 0.000000 0.000000
# 5 0.000000 0.000000 0.000000 0.000000 0.149097 0.000000
# 6 0.000000 0.000000 0.000000 0.000000 0.000000 0.015230
#
#
# Mechanical properties :
#
#
# Convention : Reuss Voigt Hill
#
# Bulk Modulus (GPa) = 47.01372 59.47971 53.24672
# Shear Modulus (GPa) = 17.32773 36.63973 26.98373
#
# Velocity S-wave (km/s) = 2.70552 3.93420 3.37622
# Velocity P-wave (km/s) = 5.44243 6.76488 6.13937
#
# Compressibility (1/GPa) = 0.02127039
#
# Stress axis : x y z
#
# Youngs Moduli (GPa) = 96.64498 155.06800 74.75799
#
# Poissons Ratio (x) = 0.40049 -0.05184
# Poissons Ratio (y) = 0.24960 0.19151
# Poissons Ratio (z) = -0.06701 0.39725
#
# Static dielectric constant tensor:
#      x y z
#    x 1.979320 0.000000 0.000000 
#    y 0.000000 2.031570 0.000000 
#    z 0.000000 0.000000 1.782400 
# 
# From -- ./inp_files/24963.got.cif
#   From: 2010.05.17/outbox.cif.g08.bks.cpg/sg58_13_cif.got.tgz:24963.got - 2010.06.03 14:20:14.
