data_PCOD9445864
_publ_section_title
;
Structure prediction by ZEFSAII (Michael W. Deem and Ramdas Pophale) SiO2 
 PCOD9445864
Probable space group: P N N M
;
_chemical_formula_sum "Si O2"
_cell_formula_units_Z 64
_cell_length_a 19.821245
_cell_length_b 17.865381
_cell_length_c 7.276873
_cell_angle_alpha 90.000000
_cell_angle_beta 90.000000
_cell_angle_gamma 90.000000
_cell_volume 2576.843288
_symmetry_space_group_name_H-M "P N N M"
_symmetry_group_IT_number 58
_symmetry_cell_setting 'orthorhombic'
loop_
_space_group_symop_operation_xyz
x,y,z
-x,-y,z
1/2+x,1/2-y,1/2-z
1/2-x,1/2+y,1/2-z
-x,-y,-z
x,y,-z
1/2-x,1/2+y,1/2+z
1/2+x,1/2-y,1/2+z
loop_
_atom_site_type_symbol
_atom_site_label
_atom_site_fract_x
_atom_site_fract_y
_atom_site_fract_z
Si Si1 0.311634 0.730585 0.278169
Si Si2 0.986413 0.621261 0.283257
Si Si3 0.941651 0.872614 0.285265
Si Si4 0.196186 0.830195 0.723274
Si Si5 0.147547 0.994159 0.276151
Si Si6 0.394581 0.999878 0.217822
Si Si7 0.057408 0.770106 0.274993
Si Si8 0.725255 0.905621 0.208044
O O1 0.314596 0.731120 0.500000
O O2 0.383934 0.693696 0.225811
O O3 0.272423 0.806745 0.219311
O O4 0.256285 0.669678 0.213767
O O5 0.973806 0.634216 0.500000
O O6 0.920061 0.579851 0.207843
O O7 0.017062 0.697257 0.209354
O O8 0.044640 0.559112 0.268829
O O9 0.953038 0.885158 0.500000
O O10 0.914164 0.952239 0.214217
O O11 0.011990 0.840315 0.213783
O O12 0.198611 0.830829 0.500000
O O13 0.135544 0.773886 0.777651
O O14 0.164923 0.909895 0.780365
O O15 0.145890 0.993995 0.500000
O O16 0.210870 0.040863 0.206406
O O17 0.332155 0.044551 0.297719
O O18 0.381146 0.987951 0.000000
O O19 0.057212 0.768722 0.500000
O O20 0.702046 0.886180 0.000000
#
# Coordination Sequence:
#
# PCOD9445864 Si02
#       8
#     8   8   8   8   8   8   8   8
#     4   9  17  30  48  67  88 118 153 185 219 263
#     4   8  13  21  34  57  88 112 133 170 220 265
#     4   9  18  31  47  68  93 119 146 183 231 272
#     4   9  17  29  46  66  88 118 155 189 218 258
#     4   9  18  31  44  62  89 117 146 180 221 265
#     4   8  13  21  35  58  87 113 134 167 218 266
#     4   9  16  26  42  64  87 113 149 189 223 257
#     4   9  16  27  45  66  86 111 145 181 216 259
#
# _framework density 24.836589
#
# number of rings (size 3 to 8) (size 9 to 14) (size 15 to 20)
#    0.000    3.250    0.000    1.500    0.000    4.500 
#    0.000    4.375    0.000    1.500    0.000    6.125 
#    0.000    0.000    0.000    1.250    0.000    0.000 
#
# Total GULP energy -356614.550757 kJ/mol
# GULP energy per Si atom -5572.102356 kJ/mol
# Density = 2.478006 g / cm^3
# Si number density = 24.836589 Si / 1000 Ang^3
#
#
#
# Elastic Constant Matrix: (Units=GPa)
#
#
# Indices 1 2 3 4 5 6 
#
# 1 43.1006 -11.6096 -15.3144 0.0000 0.0000 0.0000
# 2 -11.6096 56.1981 -6.1372 0.0000 0.0000 0.0000
# 3 -15.3144 -6.1372 102.0227 0.0000 0.0000 0.0000
# 4 0.0000 0.0000 0.0000 -95.1451 0.0000 0.0000
# 5 0.0000 0.0000 0.0000 0.0000 -8.3796 0.0000
# 6 0.0000 0.0000 0.0000 0.0000 0.0000 -298.3203
#
#
#
# Elastic Compliance Matrix: (Units=1/GPa)
#
#
# Indices 1 2 3 4 5 6 
#
# 1 0.026323 0.005908 0.004307 0.000000 0.000000 0.000000
# 2 0.005908 0.019238 0.002044 0.000000 0.000000 0.000000
# 3 0.004307 0.002044 0.010571 0.000000 0.000000 0.000000
# 4 0.000000 0.000000 0.000000 -0.010510 0.000000 0.000000
# 5 0.000000 0.000000 0.000000 0.000000 -0.119337 0.000000
# 6 0.000000 0.000000 0.000000 0.000000 0.000000 -0.003352
#
#
# Mechanical properties :
#
#
# Convention : Reuss Voigt Hill
#
# Bulk Modulus (GPa) = 12.39915 15.02212 13.71063
# Shear Modulus (GPa) = -66.93288 -64.74350 -65.83819
#
# Velocity S-wave (km/s) = -5.19690 -5.11120 -5.15423
# Velocity P-wave (km/s) = 5.56842 5.36386 5.46710
#
# Compressibility (1/GPa) = 0.08065072
#
# Stress axis : x y z
#
# Youngs Moduli (GPa) = 37.98921 51.98053 94.59684
#
# Poissons Ratio (x) = -0.30712 -0.40740
# Poissons Ratio (y) = -0.22445 -0.19337
# Poissons Ratio (z) = -0.16361 -0.10626
#
# Static dielectric constant tensor:
#      x y z
#    x 1.944040 0.000000 0.000000 
#    y 0.000000 2.046250 0.000000 
#    z 0.000000 0.000000 1.977030 
# 
# From -- ./inp_files/16662.got.cif
#   From: 2010.05.17/outbox.cif.g08.bks.cpg/sg58_9_cif.got.tgz:16662.got - 2010.06.03 14:20:14.
