data_PCOD9445398
_publ_section_title
;
Structure prediction by ZEFSAII (Michael W. Deem and Ramdas Pophale) SiO2 
 PCOD9445398
Probable space group: P N N M
;
_chemical_formula_sum "Si O2"
_cell_formula_units_Z 40
_cell_length_a 8.529537
_cell_length_b 10.448577
_cell_length_c 18.145287
_cell_angle_alpha 90.000000
_cell_angle_beta 90.000000
_cell_angle_gamma 90.000000
_cell_volume 1617.135633
_symmetry_space_group_name_H-M "P N N M"
_symmetry_group_IT_number 58
_symmetry_cell_setting 'orthorhombic'
loop_
_space_group_symop_operation_xyz
x,y,z
-x,-y,z
1/2+x,1/2-y,1/2-z
1/2-x,1/2+y,1/2-z
-x,-y,-z
x,y,-z
1/2-x,1/2+y,1/2+z
1/2+x,1/2-y,1/2+z
loop_
_atom_site_type_symbol
_atom_site_label
_atom_site_fract_x
_atom_site_fract_y
_atom_site_fract_z
Si Si1 0.184762 0.525950 0.917177
Si Si2 0.657435 0.692975 0.363196
Si Si3 0.858086 0.774128 0.237463
Si Si4 0.102423 0.823397 0.653655
Si Si5 0.236060 0.964939 0.000000
Si Si6 0.445229 0.198185 0.000000
O O1 0.205400 0.675451 0.902859
O O2 0.271870 0.434425 0.859926
O O3 0.000000 0.500000 0.913323
O O4 0.238870 0.494804 0.000000
O O5 0.785695 0.670339 0.297392
O O6 0.490506 0.729028 0.326082
O O7 0.653275 0.583594 0.425018
O O8 0.696031 0.794423 0.193435
O O9 0.957351 0.858831 0.294775
O O10 0.051161 0.779490 0.573809
O O11 0.402117 0.890594 0.000000
O O12 0.285893 0.112835 0.000000
#
# Coordination Sequence:
#
# PCOD9445398 Si02
#       6
#     8   8   8   8   4   4
#     4  11  22  39  73  97 131 170 215 280 328 387
#     4  11  22  46  66 100 131 172 224 265 331 384
#     4  10  24  42  64  96 140 166 210 276 320 394
#     4  11  22  46  66 100 131 172 224 265 331 384
#     4  11  24  46  71  92 128 179 222 265 324 397
#     4  11  24  46  71  92 128 179 222 265 324 397
#
# _framework density 24.735094
#
# number of rings (size 3 to 8) (size 9 to 14) (size 15 to 20)
#    0.000    1.200    6.000    0.000    0.000    1.600 
#   21.600    3.000    0.000    0.000    0.000    0.000 
#    0.000    0.000    0.000    0.000    0.000    0.000 
#
# Total GULP energy -223028.812398 kJ/mol
# GULP energy per Si atom -5575.720310 kJ/mol
# Density = 2.467880 g / cm^3
# Si number density = 24.735094 Si / 1000 Ang^3
#
#
#
# Elastic Constant Matrix: (Units=GPa)
#
#
# Indices 1 2 3 4 5 6 
#
# 1 123.0775 24.2750 51.3162 0.0000 0.0000 0.0000
# 2 24.2750 49.0093 15.2920 0.0000 0.0000 0.0000
# 3 51.3162 15.2920 155.2457 0.0000 0.0000 0.0000
# 4 0.0000 0.0000 0.0000 7.8333 0.0000 0.0000
# 5 0.0000 0.0000 0.0000 0.0000 -14.1573 0.0000
# 6 0.0000 0.0000 0.0000 0.0000 0.0000 31.4709
#
#
#
# Elastic Compliance Matrix: (Units=1/GPa)
#
#
# Indices 1 2 3 4 5 6 
#
# 1 0.010169 -0.004114 -0.002956 0.000000 0.000000 0.000000
# 2 -0.004114 0.022716 -0.000878 0.000000 0.000000 0.000000
# 3 -0.002956 -0.000878 0.007505 0.000000 0.000000 0.000000
# 4 0.000000 0.000000 0.000000 0.127661 0.000000 0.000000
# 5 0.000000 0.000000 0.000000 0.000000 -0.070635 0.000000
# 6 0.000000 0.000000 0.000000 0.000000 0.000000 0.031775
#
#
# Mechanical properties :
#
#
# Convention : Reuss Voigt Hill
#
# Bulk Modulus (GPa) = 40.82657 56.56653 48.69655
# Shear Modulus (GPa) = 32.62602 20.79268 26.70935
#
# Velocity S-wave (km/s) = 3.63577 2.90248 3.28962
# Velocity P-wave (km/s) = 5.84521 5.84389 5.84455
#
# Compressibility (1/GPa) = 0.02449386
#
# Stress axis : x y z
#
# Youngs Moduli (GPa) = 98.33833 44.02173 133.24527
#
# Poissons Ratio (x) = 0.18113 0.39388
# Poissons Ratio (y) = 0.40461 0.11693
# Poissons Ratio (z) = 0.29069 0.03863
#
# Static dielectric constant tensor:
#      x y z
#    x 2.001560 0.000000 0.000000 
#    y 0.000000 1.966220 0.000000 
#    z 0.000000 0.000000 1.979460 
# 
# From -- ./inp_files/24981.got.cif
#   From: 2010.05.17/outbox.cif.g08.bks.cpg/sg58_13_cif.got.tgz:24981.got - 2010.06.03 14:20:14.
