data_PCOD9445724
_publ_section_title
;
Structure prediction by ZEFSAII (Michael W. Deem and Ramdas Pophale) SiO2 
 PCOD9445724
Probable space group: P N N M
;
_chemical_formula_sum "Si O2"
_cell_formula_units_Z 48
_cell_length_a 13.575989
_cell_length_b 9.529391
_cell_length_c 17.483877
_cell_angle_alpha 90.000000
_cell_angle_beta 90.000000
_cell_angle_gamma 90.000000
_cell_volume 2261.905032
_symmetry_space_group_name_H-M "P N N M"
_symmetry_group_IT_number 58
_symmetry_cell_setting 'orthorhombic'
loop_
_space_group_symop_operation_xyz
x,y,z
-x,-y,z
1/2+x,1/2-y,1/2-z
1/2-x,1/2+y,1/2-z
-x,-y,-z
x,y,-z
1/2-x,1/2+y,1/2+z
1/2+x,1/2-y,1/2+z
loop_
_atom_site_type_symbol
_atom_site_label
_atom_site_fract_x
_atom_site_fract_y
_atom_site_fract_z
Si Si1 0.751306 0.939749 0.407873
Si Si2 0.087559 0.904724 0.312684
Si Si3 0.105296 0.065596 0.086721
Si Si4 0.068689 0.380398 0.129396
Si Si5 0.963114 0.648758 0.304822
Si Si6 0.229551 0.850732 0.173805
O O1 0.750983 0.948694 0.500000
O O2 0.716716 0.784967 0.380624
O O3 0.854388 0.995904 0.372330
O O4 0.673311 0.044062 0.369138
O O5 0.165490 0.844937 0.251223
O O6 0.026895 0.771040 0.343055
O O7 0.000000 0.000000 0.277186
O O8 0.088656 0.231383 0.091608
O O9 0.190352 0.995828 0.137305
O O10 0.127710 0.025218 0.000000
O O11 0.000000 0.000000 0.107195
O O12 0.022581 0.347149 0.212591
O O13 0.000000 0.500000 0.091912
O O14 0.846026 0.653810 0.313145
O O15 0.000000 0.500000 0.333649
#
# Coordination Sequence:
#
# PCOD9445724 Si02
#       6
#     8   8   8   8   8   8
#     4  12  27  46  70 105 149 190 233 290 364 439
#     4  12  25  45  71 104 136 188 241 297 349 426
#     4  11  24  41  64  98 140 179 221 282 357 421
#     4  11  23  43  69 102 137 180 233 299 352 412
#     4  11  24  41  68 102 135 171 239 298 346 406
#     4  12  24  44  72 100 137 183 241 293 352 416
#
# _framework density 21.221050000000002
#
# number of rings (size 3 to 8) (size 9 to 14) (size 15 to 20)
#    0.000    0.500    3.333    6.500    2.333    3.000 
#    0.000    0.000    0.000    2.500    0.000    0.000 
#    0.000    0.000    0.000    0.000    0.000    0.000 
#
# Total GULP energy -267996.179262 kJ/mol
# GULP energy per Si atom -5583.253735 kJ/mol
# Density = 2.117275 g / cm^3
# Si number density = 21.221050 Si / 1000 Ang^3
#
#
#
# Elastic Constant Matrix: (Units=GPa)
#
#
# Indices 1 2 3 4 5 6 
#
# 1 107.7238 42.3795 -0.2632 0.0000 0.0000 0.0000
# 2 42.3795 136.9264 10.7338 0.0000 0.0000 0.0000
# 3 -0.2632 10.7338 49.8042 0.0000 0.0000 0.0000
# 4 0.0000 0.0000 0.0000 21.9018 0.0000 0.0000
# 5 0.0000 0.0000 0.0000 0.0000 7.5545 0.0000
# 6 0.0000 0.0000 0.0000 0.0000 0.0000 48.1685
#
#
#
# Elastic Compliance Matrix: (Units=1/GPa)
#
#
# Indices 1 2 3 4 5 6 
#
# 1 0.010599 -0.003341 0.000776 0.000000 0.000000 0.000000
# 2 -0.003341 0.008482 -0.001846 0.000000 0.000000 0.000000
# 3 0.000776 -0.001846 0.020481 0.000000 0.000000 0.000000
# 4 0.000000 0.000000 0.000000 0.045658 0.000000 0.000000
# 5 0.000000 0.000000 0.000000 0.000000 0.132371 0.000000
# 6 0.000000 0.000000 0.000000 0.000000 0.000000 0.020760
#
#
# Mechanical properties :
#
#
# Convention : Reuss Voigt Hill
#
# Bulk Modulus (GPa) = 32.53085 44.46161 38.49623
# Shear Modulus (GPa) = 19.42349 31.63192 25.52771
#
# Velocity S-wave (km/s) = 3.02866 3.86501 3.47211
# Velocity P-wave (km/s) = 5.25292 6.39647 5.85269
#
# Compressibility (1/GPa) = 0.03074005
#
# Stress axis : x y z
#
# Youngs Moduli (GPa) = 94.34457 117.89573 48.82693
#
# Poissons Ratio (x) = 0.39394 -0.03790
# Poissons Ratio (y) = 0.31525 0.09012
# Poissons Ratio (z) = -0.07323 0.21760
#
# Static dielectric constant tensor:
#      x y z
#    x 1.729730 0.000000 0.000000 
#    y 0.000000 1.792820 0.000000 
#    z 0.000000 0.000000 1.747450 
# 
# From -- ./inp_files/26812.got.cif
#   From: 2010.05.17/outbox.cif.g08.bks.cpg/sg58_14_cif.got.tgz:26812.got - 2010.06.03 14:20:14.
