data_PCOD9445392
_publ_section_title
;
Structure prediction by ZEFSAII (Michael W. Deem and Ramdas Pophale) SiO2 
 PCOD9445392
Probable space group: P N N M
;
_chemical_formula_sum "Si O2"
_cell_formula_units_Z 40
_cell_length_a 9.084201
_cell_length_b 12.569953
_cell_length_c 16.844059
_cell_angle_alpha 90.000000
_cell_angle_beta 90.000000
_cell_angle_gamma 90.000000
_cell_volume 1923.389066
_symmetry_space_group_name_H-M "P N N M"
_symmetry_group_IT_number 58
_symmetry_cell_setting 'orthorhombic'
loop_
_space_group_symop_operation_xyz
x,y,z
-x,-y,z
1/2+x,1/2-y,1/2-z
1/2-x,1/2+y,1/2-z
-x,-y,-z
x,y,-z
1/2-x,1/2+y,1/2+z
1/2+x,1/2-y,1/2+z
loop_
_atom_site_type_symbol
_atom_site_label
_atom_site_fract_x
_atom_site_fract_y
_atom_site_fract_z
Si Si1 0.834948 0.453195 0.281645
Si Si2 0.420051 0.883478 0.588436
Si Si3 0.159924 0.944658 0.907595
Si Si4 0.122956 0.922710 0.659630
Si Si5 0.413408 0.261636 0.710256
O O1 0.775868 0.473847 0.369749
O O2 0.727075 0.516564 0.223057
O O3 0.825190 0.332620 0.252756
O O4 0.000000 0.500000 0.276450
O O5 0.462579 0.846386 0.500000
O O6 0.243831 0.888808 0.595852
O O7 0.470092 0.802873 0.657040
O O8 0.500000 0.000000 0.598404
O O9 0.164913 0.838469 0.853688
O O10 0.183540 0.923001 0.000000
O O11 0.000000 0.000000 0.897619
O O12 0.043298 0.834826 0.714853
O O13 0.000000 0.000000 0.625993
#
# Coordination Sequence:
#
# PCOD9445392 Si02
#       5
#     8   8   8   8   8
#     4  11  21  39  63  94 125 167 226 270 314 392
#     4  11  23  42  65  93 131 172 218 270 329 391
#     4  10  24  41  61  93 135 171 214 278 339 390
#     4  11  24  38  64  96 129 165 217 271 324 382
#     4  11  21  38  68  90 123 173 220 261 315 400
#
# _framework density 20.796624999999999
#
# number of rings (size 3 to 8) (size 9 to 14) (size 15 to 20)
#    0.000    1.200    4.000    3.000    5.600    0.800 
#    0.000    0.000    0.000    0.000    0.000    0.000 
#    0.000    0.000    0.000    0.000    0.000    0.000 
#
# Total GULP energy -223129.734180 kJ/mol
# GULP energy per Si atom -5578.243355 kJ/mol
# Density = 2.074929 g / cm^3
# Si number density = 20.796625 Si / 1000 Ang^3
#
#
#
# Elastic Constant Matrix: (Units=GPa)
#
#
# Indices 1 2 3 4 5 6 
#
# 1 90.9722 28.7143 25.5928 0.0000 0.0000 0.0000
# 2 28.7143 105.4923 54.2123 0.0000 0.0000 0.0000
# 3 25.5928 54.2123 98.6058 0.0000 0.0000 0.0000
# 4 0.0000 0.0000 0.0000 23.6524 0.0000 0.0000
# 5 0.0000 0.0000 0.0000 0.0000 14.4289 0.0000
# 6 0.0000 0.0000 0.0000 0.0000 0.0000 27.4701
#
#
#
# Elastic Compliance Matrix: (Units=1/GPa)
#
#
# Indices 1 2 3 4 5 6 
#
# 1 0.012270 -0.002374 -0.001880 0.000000 0.000000 0.000000
# 2 -0.002374 0.013672 -0.006900 0.000000 0.000000 0.000000
# 3 -0.001880 -0.006900 0.014423 0.000000 0.000000 0.000000
# 4 0.000000 0.000000 0.000000 0.042279 0.000000 0.000000
# 5 0.000000 0.000000 0.000000 0.000000 0.069305 0.000000
# 6 0.000000 0.000000 0.000000 0.000000 0.000000 0.036403
#
#
# Mechanical properties :
#
#
# Convention : Reuss Voigt Hill
#
# Bulk Modulus (GPa) = 55.37952 56.90101 56.14027
# Shear Modulus (GPa) = 23.07557 25.54701 24.31129
#
# Velocity S-wave (km/s) = 3.33465 3.50869 3.42278
# Velocity P-wave (km/s) = 6.44309 6.62077 6.53254
#
# Compressibility (1/GPa) = 0.01805722
#
# Stress axis : x y z
#
# Youngs Moduli (GPa) = 81.49646 73.14422 69.33408
#
# Poissons Ratio (x) = 0.17365 0.13032
# Poissons Ratio (y) = 0.19348 0.47843
# Poissons Ratio (z) = 0.15318 0.50472
#
# Static dielectric constant tensor:
#      x y z
#    x 1.781820 0.000000 0.000000 
#    y 0.000000 1.797220 0.000000 
#    z 0.000000 0.000000 1.739810 
# 
# From -- ./inp_files/24935.got.cif
#   From: 2010.05.17/outbox.cif.g08.bks.cpg/sg58_13_cif.got.tgz:24935.got - 2010.06.03 14:20:14.
