data_PCOD9445292
_publ_section_title
;
Structure prediction by ZEFSAII (Michael W. Deem and Ramdas Pophale) SiO2 
 PCOD9445292
Probable space group: P N N M
;
_chemical_formula_sum "Si O2"
_cell_formula_units_Z 40
_cell_length_a 7.912959
_cell_length_b 11.959756
_cell_length_c 18.852383
_cell_angle_alpha 90.000000
_cell_angle_beta 90.000000
_cell_angle_gamma 90.000000
_cell_volume 1784.134080
_symmetry_space_group_name_H-M "P N N M"
_symmetry_group_IT_number 58
_symmetry_cell_setting 'orthorhombic'
loop_
_space_group_symop_operation_xyz
x,y,z
-x,-y,z
1/2+x,1/2-y,1/2-z
1/2-x,1/2+y,1/2-z
-x,-y,-z
x,y,-z
1/2-x,1/2+y,1/2+z
1/2+x,1/2-y,1/2+z
loop_
_atom_site_type_symbol
_atom_site_label
_atom_site_fract_x
_atom_site_fract_y
_atom_site_fract_z
Si Si1 0.307480 0.150137 0.284387
Si Si2 0.383697 0.855039 0.813841
Si Si3 0.356961 0.260045 0.918782
Si Si4 0.672446 0.439848 0.643677
Si Si5 0.296889 0.004531 0.579197
O O1 0.495406 0.125705 0.254309
O O2 0.277795 0.282017 0.292160
O O3 0.179953 0.107646 0.223692
O O4 0.264039 0.088959 0.357141
O O5 0.497639 0.779225 0.865450
O O6 0.318755 0.965698 0.852935
O O7 0.215699 0.164335 0.906175
O O8 0.281622 0.382794 0.904826
O O9 0.413984 0.256940 0.000000
O O10 0.500000 0.500000 0.625592
O O11 0.235981 0.038270 0.500000
O O12 0.500000 0.000000 0.575530
#
# Coordination Sequence:
#
# PCOD9445292 Si02
#       5
#     8   8   8   8   8
#     4  11  24  40  67  93 141 168 225 279 331 406
#     4  11  25  42  66 101 130 184 218 280 345 396
#     4  10  24  46  67  96 137 177 224 276 338 407
#     4  11  25  41  67 101 127 177 227 276 346 398
#     4  10  23  41  67  97 131 178 221 276 341 397
#
# _framework density 22.419839
#
# number of rings (size 3 to 8) (size 9 to 14) (size 15 to 20)
#    0.000    1.400    0.000    4.800   16.800    2.800 
#    0.000    2.000    0.000    0.000    0.000    0.000 
#    0.000    0.000    0.000    0.000    0.000    0.000 
#
# Total GULP energy -223715.257096 kJ/mol
# GULP energy per Si atom -5592.881427 kJ/mol
# Density = 2.236881 g / cm^3
# Si number density = 22.419839 Si / 1000 Ang^3
#
#
#
# Elastic Constant Matrix: (Units=GPa)
#
#
# Indices 1 2 3 4 5 6 
#
# 1 69.8319 25.9380 12.5391 0.0000 0.0000 0.0000
# 2 25.9380 111.4425 52.3202 0.0000 0.0000 0.0000
# 3 12.5391 52.3202 110.4649 0.0000 0.0000 0.0000
# 4 0.0000 0.0000 0.0000 37.4298 0.0000 0.0000
# 5 0.0000 0.0000 0.0000 0.0000 -12.2768 0.0000
# 6 0.0000 0.0000 0.0000 0.0000 0.0000 47.7031
#
#
#
# Elastic Compliance Matrix: (Units=1/GPa)
#
#
# Indices 1 2 3 4 5 6 
#
# 1 0.015676 -0.003617 -0.000066 0.000000 0.000000 0.000000
# 2 -0.003617 0.012374 -0.005450 0.000000 0.000000 0.000000
# 3 -0.000066 -0.005450 0.011642 0.000000 0.000000 0.000000
# 4 0.000000 0.000000 0.000000 0.026717 0.000000 0.000000
# 5 0.000000 0.000000 0.000000 0.000000 -0.081454 0.000000
# 6 0.000000 0.000000 0.000000 0.000000 0.000000 0.020963
#
#
# Mechanical properties :
#
#
# Convention : Reuss Voigt Hill
#
# Bulk Modulus (GPa) = 46.67693 52.59265 49.63479
# Shear Modulus (GPa) = 159.61757 27.96734 93.79246
#
# Velocity S-wave (km/s) = 8.44685 3.53574 6.47498
# Velocity P-wave (km/s) = 10.77020 6.33858 8.83671
#
# Compressibility (1/GPa) = 0.02142386
#
# Stress axis : x y z
#
# Youngs Moduli (GPa) = 63.79343 80.81518 85.89949
#
# Poissons Ratio (x) = 0.29235 0.00567
# Poissons Ratio (y) = 0.23077 0.46816
# Poissons Ratio (z) = 0.00421 0.44045
#
# Static dielectric constant tensor:
#      x y z
#    x 1.871870 0.000000 0.000000 
#    y 0.000000 1.854840 0.000000 
#    z 0.000000 0.000000 1.805040 
# 
# From -- ./inp_files/24968.got.cif
#   From: 2010.05.17/outbox.cif.g08.bks.cpg/sg58_13_cif.got.tgz:24968.got - 2010.06.03 14:20:14.
