data_PCOD9445147
_publ_section_title
;
Structure prediction by ZEFSAII (Michael W. Deem and Ramdas Pophale) SiO2 
 PCOD9445147
Probable space group: P N N M
;
_chemical_formula_sum "Si O2"
_cell_formula_units_Z 64
_cell_length_a 8.939909
_cell_length_b 14.806441
_cell_length_c 23.473606
_cell_angle_alpha 90.000000
_cell_angle_beta 90.000000
_cell_angle_gamma 90.000000
_cell_volume 3107.159799
_symmetry_space_group_name_H-M "P N N M"
_symmetry_group_IT_number 58
_symmetry_cell_setting 'orthorhombic'
loop_
_space_group_symop_operation_xyz
x,y,z
-x,-y,z
1/2+x,1/2-y,1/2-z
1/2-x,1/2+y,1/2-z
-x,-y,-z
x,y,-z
1/2-x,1/2+y,1/2+z
1/2+x,1/2-y,1/2+z
loop_
_atom_site_type_symbol
_atom_site_label
_atom_site_fract_x
_atom_site_fract_y
_atom_site_fract_z
Si Si1 0.674506 0.003404 0.647146
Si Si2 0.835538 0.521062 0.377493
Si Si3 0.648658 0.317176 0.128157
Si Si4 0.898182 0.090888 0.436375
Si Si5 0.082847 0.097621 0.849330
Si Si6 0.649561 0.669012 0.433628
Si Si7 0.166427 0.380082 0.744377
Si Si8 0.479988 0.280115 0.753372
O O1 0.765232 0.074125 0.607830
O O2 0.687613 0.038499 0.711680
O O3 0.500000 0.000000 0.631690
O O4 0.756793 0.908248 0.638487
O O5 0.751574 0.428862 0.361784
O O6 0.742514 0.576809 0.423736
O O7 0.839310 0.580700 0.319326
O O8 0.000000 0.500000 0.397190
O O9 0.515028 0.333980 0.083456
O O10 0.760836 0.243809 0.102454
O O11 0.562542 0.293875 0.186402
O O12 0.841681 0.105778 0.500000
O O13 0.000000 0.000000 0.436214
O O14 0.057373 0.156677 0.793687
O O15 0.006153 0.148916 0.901932
O O16 0.000000 0.000000 0.841484
O O17 0.636345 0.691590 0.500000
O O18 0.308083 0.312434 0.752250
O O19 0.016880 0.324201 0.760112
#
# Coordination Sequence:
#
# PCOD9445147 Si02
#       8
#     8   8   8   8   8   8   8   8
#     4  11  25  38  63  94 134 172 216 263 330 399
#     4  11  24  43  65  98 137 171 220 286 346 400
#     4  11  22  41  67  94 130 174 217 276 333 404
#     4   9  19  38  62  86 116 166 218 260 314 382
#     4  10  22  41  67  94 132 174 223 274 340 409
#     4  11  24  45  70  98 131 178 233 279 333 404
#     4  12  25  41  63 101 135 174 216 277 341 412
#     4  12  23  39  67  94 133 168 217 275 341 398
#
# _framework density 20.597588999999999
#
# number of rings (size 3 to 8) (size 9 to 14) (size 15 to 20)
#    0.000    1.125    5.000    1.500    5.250    3.250 
#    0.000    0.000    0.000    0.000    0.000    0.000 
#    0.000    0.000    0.000    0.000    0.000    0.000 
#
# Total GULP energy -357754.286839 kJ/mol
# GULP energy per Si atom -5589.910732 kJ/mol
# Density = 2.055071 g / cm^3
# Si number density = 20.597589 Si / 1000 Ang^3
#
#
#
# Elastic Constant Matrix: (Units=GPa)
#
#
# Indices 1 2 3 4 5 6 
#
# 1 72.2225 7.8765 -14.8376 0.0000 0.0000 0.0000
# 2 7.8765 48.0290 18.6716 0.0000 0.0000 0.0000
# 3 -14.8376 18.6716 75.6577 0.0000 0.0000 0.0000
# 4 0.0000 0.0000 0.0000 17.3776 0.0000 0.0000
# 5 0.0000 0.0000 0.0000 0.0000 11.7525 0.0000
# 6 0.0000 0.0000 0.0000 0.0000 0.0000 26.9735
#
#
#
# Elastic Compliance Matrix: (Units=1/GPa)
#
#
# Indices 1 2 3 4 5 6 
#
# 1 0.015095 -0.004011 0.003950 0.000000 0.000000 0.000000
# 2 -0.004011 0.024096 -0.006733 0.000000 0.000000 0.000000
# 3 0.003950 -0.006733 0.015654 0.000000 0.000000 0.000000
# 4 0.000000 0.000000 0.000000 0.057545 0.000000 0.000000
# 5 0.000000 0.000000 0.000000 0.000000 0.085088 0.000000
# 6 0.000000 0.000000 0.000000 0.000000 0.000000 0.037073
#
#
# Mechanical properties :
#
#
# Convention : Reuss Voigt Hill
#
# Bulk Modulus (GPa) = 24.23852 24.37001 24.30426
# Shear Modulus (GPa) = 19.09176 23.50064 21.29620
#
# Velocity S-wave (km/s) = 3.04779 3.38145 3.21895
# Velocity P-wave (km/s) = 4.91717 5.20603 5.06366
#
# Compressibility (1/GPa) = 0.04125665
#
# Stress axis : x y z
#
# Youngs Moduli (GPa) = 66.24651 41.50033 63.88195
#
# Poissons Ratio (x) = 0.16647 -0.25235
# Poissons Ratio (y) = 0.26573 0.43014
# Poissons Ratio (z) = -0.26169 0.27944
#
# Static dielectric constant tensor:
#      x y z
#    x 1.742490 0.000000 0.000000 
#    y 0.000000 1.762870 0.000000 
#    z 0.000000 0.000000 1.712660 
# 
# From -- ./inp_files/31631.got.cif
#   From: 2010.05.17/outbox.cif.g08.bks.cpg/sg58_16_cif.got.tgz:31631.got - 2010.06.03 14:20:14.
