data_PCOD9445368
_publ_section_title
;
Structure prediction by ZEFSAII (Michael W. Deem and Ramdas Pophale) SiO2 
 PCOD9445368
Probable space group: P N N M
;
_chemical_formula_sum "Si O2"
_cell_formula_units_Z 34
_cell_length_a 9.770965
_cell_length_b 9.373734
_cell_length_c 14.149695
_cell_angle_alpha 90.000000
_cell_angle_beta 90.000000
_cell_angle_gamma 90.000000
_cell_volume 1295.976605
_symmetry_space_group_name_H-M "P N N M"
_symmetry_group_IT_number 58
_symmetry_cell_setting 'orthorhombic'
loop_
_space_group_symop_operation_xyz
x,y,z
-x,-y,z
1/2+x,1/2-y,1/2-z
1/2-x,1/2+y,1/2-z
-x,-y,-z
x,y,-z
1/2-x,1/2+y,1/2+z
1/2+x,1/2-y,1/2+z
loop_
_atom_site_type_symbol
_atom_site_label
_atom_site_fract_x
_atom_site_fract_y
_atom_site_fract_z
Si Si1 0.500000 0.500000 0.655454
Si Si2 0.000000 0.500000 0.000000
Si Si3 0.827957 0.735412 0.198749
Si Si4 0.228396 0.939996 0.000000
Si Si5 0.380759 0.640609 0.000000
Si Si6 0.186136 0.575976 0.837143
Si Si7 0.183111 0.743038 0.500000
O O1 0.556643 0.358392 0.707579
O O2 0.627045 0.544549 0.589065
O O3 0.071193 0.596521 0.083482
O O4 0.709380 0.799016 0.263987
O O5 0.846466 0.568814 0.220828
O O6 0.778138 0.725726 0.090228
O O7 0.332606 0.072916 0.000000
O O8 0.310079 0.795198 0.000000
O O9 0.321367 0.567500 0.095140
O O10 0.541859 0.671490 0.000000
#
# Coordination Sequence:
#
# PCOD9445368 Si02
#       7
#     4   2   8   4   4   8   4
#     4   9  22  42  74 101 152 192 260 311 398 457
#     4  10  26  52  74 108 158 216 262 330 370 526
#     4  11  26  48  73 116 146 210 252 334 391 484
#     4   9  20  41  73 106 141 204 250 319 384 474
#     4  11  25  44  71 105 152 209 249 320 384 480
#     4  11  28  45  76 111 154 203 273 314 410 457
#     4  10  23  46  74 107 158 188 255 316 405 464
#
# _framework density 26.235042
#
# number of rings (size 3 to 8) (size 9 to 14) (size 15 to 20)
#    0.000    1.647    0.000    2.471   13.176    5.647 
#    0.000    0.000    0.000    0.000    0.000    0.000 
#    0.000    0.000    0.000    0.000    0.000    0.000 
#
# Total GULP energy -189870.534071 kJ/mol
# GULP energy per Si atom -5584.427473 kJ/mol
# Density = 2.617533 g / cm^3
# Si number density = 26.235042 Si / 1000 Ang^3
#
#
#
# Elastic Constant Matrix: (Units=GPa)
#
#
# Indices 1 2 3 4 5 6 
#
# 1 139.7500 43.7785 28.5073 0.0000 0.0000 0.0000
# 2 43.7785 170.5429 20.3240 0.0000 0.0000 0.0000
# 3 28.5073 20.3240 113.2700 0.0000 0.0000 0.0000
# 4 0.0000 0.0000 0.0000 16.5549 0.0000 0.0000
# 5 0.0000 0.0000 0.0000 0.0000 21.3801 0.0000
# 6 0.0000 0.0000 0.0000 0.0000 0.0000 70.0790
#
#
#
# Elastic Compliance Matrix: (Units=1/GPa)
#
#
# Indices 1 2 3 4 5 6 
#
# 1 0.008089 -0.001874 -0.001700 0.000000 0.000000 0.000000
# 2 -0.001874 0.006426 -0.000681 0.000000 0.000000 0.000000
# 3 -0.001700 -0.000681 0.009378 0.000000 0.000000 0.000000
# 4 0.000000 0.000000 0.000000 0.060405 0.000000 0.000000
# 5 0.000000 0.000000 0.000000 0.000000 0.046773 0.000000
# 6 0.000000 0.000000 0.000000 0.000000 0.000000 0.014270
#
#
# Mechanical properties :
#
#
# Convention : Reuss Voigt Hill
#
# Bulk Modulus (GPa) = 65.00368 67.64249 66.32308
# Shear Modulus (GPa) = 31.45073 43.66634 37.55853
#
# Velocity S-wave (km/s) = 3.46613 4.08417 3.78778
# Velocity P-wave (km/s) = 6.39140 6.93396 6.66820
#
# Compressibility (1/GPa) = 0.01538375
#
# Stress axis : x y z
#
# Youngs Moduli (GPa) = 123.61863 155.62064 106.62707
#
# Poissons Ratio (x) = 0.29163 0.18123
# Poissons Ratio (y) = 0.23166 0.07265
# Poissons Ratio (z) = 0.21011 0.10603
#
# Static dielectric constant tensor:
#      x y z
#    x 2.141320 0.000000 0.000000 
#    y 0.000000 2.141670 0.000000 
#    z 0.000000 0.000000 2.860080 
# 
# From -- ./inp_files/19233.got.cif
#   From: 2010.05.17/outbox.cif.g08.bks.cpg/sg58_10_cif.got.tgz:19233.got - 2010.06.03 14:20:14.
