data_PCOD9445280
_publ_section_title
;
Structure prediction by ZEFSAII (Michael W. Deem and Ramdas Pophale) SiO2 
 PCOD9445280
Probable space group: P N N M
;
_chemical_formula_sum "Si O2"
_cell_formula_units_Z 64
_cell_length_a 12.067759
_cell_length_b 31.329272
_cell_length_c 8.777035
_cell_angle_alpha 90.000000
_cell_angle_beta 90.000000
_cell_angle_gamma 90.000000
_cell_volume 3318.369645
_symmetry_space_group_name_H-M "P N N M"
_symmetry_group_IT_number 58
_symmetry_cell_setting 'orthorhombic'
loop_
_space_group_symop_operation_xyz
x,y,z
-x,-y,z
1/2+x,1/2-y,1/2-z
1/2-x,1/2+y,1/2-z
-x,-y,-z
x,y,-z
1/2-x,1/2+y,1/2+z
1/2+x,1/2-y,1/2+z
loop_
_atom_site_type_symbol
_atom_site_label
_atom_site_fract_x
_atom_site_fract_y
_atom_site_fract_z
Si Si1 0.756465 0.694750 0.181192
Si Si2 0.656281 0.869455 0.682746
Si Si3 0.798469 0.792785 0.182800
Si Si4 0.258477 0.956630 0.183607
Si Si5 0.783871 0.956307 0.681865
Si Si6 0.490454 0.430461 0.682032
Si Si7 0.912027 0.623010 0.317667
Si Si8 0.993059 0.162962 0.319146
O O1 0.767880 0.744307 0.223535
O O2 0.839425 0.663900 0.270051
O O3 0.630941 0.679508 0.206804
O O4 0.779606 0.690845 0.000000
O O5 0.659729 0.865877 0.500000
O O6 0.712054 0.827580 0.754608
O O7 0.726186 0.911704 0.726936
O O8 0.531143 0.874801 0.739345
O O9 0.916582 0.804713 0.254369
O O10 0.802918 0.796073 0.000000
O O11 0.133343 0.943608 0.230566
O O12 0.343327 0.919371 0.228917
O O13 0.280714 0.002854 0.253710
O O14 0.260068 0.959522 0.000000
O O15 0.787625 0.958170 0.500000
O O16 0.908579 0.956753 0.746957
O O17 0.496541 0.434042 0.500000
O O18 0.507573 0.381932 0.735044
O O19 0.925189 0.622165 0.500000
O O20 0.010442 0.156889 0.500000
#
# Coordination Sequence:
#
# PCOD9445280 Si02
#       8
#     8   8   8   8   8   8   8   8
#     4  10  24  43  64  94 129 164 207 256 312 371
#     4  11  25  44  63  90 126 165 209 259 313 367
#     4  11  24  42  65  95 126 166 211 255 311 370
#     4  10  23  41  62  92 125 160 205 254 310 370
#     4  11  24  40  62  92 124 162 208 255 309 371
#     4  11  21  38  63  92 127 163 202 255 309 368
#     4  11  24  43  66  92 123 164 212 257 310 371
#     4  11  22  39  64  94 128 165 204 256 312 367
#
# _framework density 19.286577999999999
#
# number of rings (size 3 to 8) (size 9 to 14) (size 15 to 20)
#    0.000    1.250    2.500    2.625    1.750    7.000 
#    0.000    2.500    0.000    0.000    0.000    0.000 
#    0.000    0.000    0.000    0.000    0.000    0.000 
#
# Total GULP energy -357923.021852 kJ/mol
# GULP energy per Si atom -5592.547216 kJ/mol
# Density = 1.924268 g / cm^3
# Si number density = 19.286578 Si / 1000 Ang^3
#
#
#
# Elastic Constant Matrix: (Units=GPa)
#
#
# Indices 1 2 3 4 5 6 
#
# 1 67.2293 6.3237 19.3712 0.0000 0.0000 0.0000
# 2 6.3237 86.1986 12.9561 0.0000 0.0000 0.0000
# 3 19.3712 12.9561 20.7133 0.0000 0.0000 0.0000
# 4 0.0000 0.0000 0.0000 30.8250 0.0000 0.0000
# 5 0.0000 0.0000 0.0000 0.0000 28.0707 0.0000
# 6 0.0000 0.0000 0.0000 0.0000 0.0000 10.7820
#
#
#
# Elastic Compliance Matrix: (Units=1/GPa)
#
#
# Indices 1 2 3 4 5 6 
#
# 1 0.020541 0.001524 -0.020163 0.000000 0.000000 0.000000
# 2 0.001524 0.012918 -0.009505 0.000000 0.000000 0.000000
# 3 -0.020163 -0.009505 0.073080 0.000000 0.000000 0.000000
# 4 0.000000 0.000000 0.000000 0.032441 0.000000 0.000000
# 5 0.000000 0.000000 0.000000 0.000000 0.035624 0.000000
# 6 0.000000 0.000000 0.000000 0.000000 0.000000 0.092748
#
#
# Mechanical properties :
#
#
# Convention : Reuss Voigt Hill
#
# Bulk Modulus (GPa) = 19.90042 27.93814 23.91928
# Shear Modulus (GPa) = 14.68899 22.96820 18.82860
#
# Velocity S-wave (km/s) = 2.76274 3.45467 3.12790
# Velocity P-wave (km/s) = 4.52964 5.51636 5.04717
#
# Compressibility (1/GPa) = 0.05025020
#
# Stress axis : x y z
#
# Youngs Moduli (GPa) = 48.68359 77.41128 13.68360
#
# Poissons Ratio (x) = -0.11795 0.27590
# Poissons Ratio (y) = -0.07418 0.13006
# Poissons Ratio (z) = 0.98160 0.73581
#
# Static dielectric constant tensor:
#      x y z
#    x 1.648620 0.000000 0.000000 
#    y 0.000000 1.670100 0.000000 
#    z 0.000000 0.000000 1.647410 
# 
# From -- ./inp_files/4634.got.cif
#   From: 2010.05.17/outbox.cif.g08.bks.cpg/sg58_3_cif.got.tgz:4634.got - 2010.06.03 14:20:14.
