data_PCOD9445522
_publ_section_title
;
Structure prediction by ZEFSAII (Michael W. Deem and Ramdas Pophale) SiO2 
 PCOD9445522
Probable space group: P N N M
;
_chemical_formula_sum "Si O2"
_cell_formula_units_Z 32
_cell_length_a 13.941342
_cell_length_b 7.307894
_cell_length_c 17.743735
_cell_angle_alpha 90.000000
_cell_angle_beta 90.000000
_cell_angle_gamma 90.000000
_cell_volume 1807.764540
_symmetry_space_group_name_H-M "P N N M"
_symmetry_group_IT_number 58
_symmetry_cell_setting 'orthorhombic'
loop_
_space_group_symop_operation_xyz
x,y,z
-x,-y,z
1/2+x,1/2-y,1/2-z
1/2-x,1/2+y,1/2-z
-x,-y,-z
x,y,-z
1/2-x,1/2+y,1/2+z
1/2+x,1/2-y,1/2+z
loop_
_atom_site_type_symbol
_atom_site_label
_atom_site_fract_x
_atom_site_fract_y
_atom_site_fract_z
Si Si1 0.720214 0.265822 0.667152
Si Si2 0.107747 0.553969 0.741528
Si Si3 0.401993 0.397580 0.340891
Si Si4 0.418008 0.257339 0.500000
Si Si5 0.143789 0.337770 0.000000
O O1 0.831382 0.316852 0.683797
O O2 0.675060 0.461695 0.688810
O O3 0.694749 0.217728 0.579606
O O4 0.667655 0.116026 0.721538
O O5 0.092748 0.694836 0.809730
O O6 0.000000 0.500000 0.715109
O O7 0.500000 0.500000 0.326316
O O8 0.386344 0.371136 0.428613
O O9 0.533869 0.236766 0.500000
O O10 0.370933 0.057243 0.500000
#
# Coordination Sequence:
#
# PCOD9445522 Si02
#       5
#     8   8   8   4   4
#     4  12  24  39  61  91 124 164 202 256 315 367
#     4  12  24  40  61  92 123 164 213 251 302 373
#     4  12  21  35  60  92 126 156 195 254 323 370
#     4  11  20  33  60  92 125 154 191 260 326 368
#     4  11  21  36  58  90 125 160 204 250 309 380
#
# _framework density 17.701421
#
# number of rings (size 3 to 8) (size 9 to 14) (size 15 to 20)
#    0.000    0.250   10.000    1.125    0.000    0.000 
#    0.000    0.625    0.000    0.000    0.000    4.375 
#    0.000    0.000    0.000    0.000    0.000    0.000 
#
# Total GULP energy -178160.772996 kJ/mol
# GULP energy per Si atom -5567.524156 kJ/mol
# Density = 1.766113 g / cm^3
# Si number density = 17.701421 Si / 1000 Ang^3
#
#
#
# Elastic Constant Matrix: (Units=GPa)
#
#
# Indices 1 2 3 4 5 6 
#
# 1 110.9345 39.9876 47.7118 0.0000 0.0000 0.0000
# 2 39.9876 112.5029 12.4358 0.0000 0.0000 0.0000
# 3 47.7118 12.4358 61.0047 0.0000 0.0000 0.0000
# 4 0.0000 0.0000 0.0000 2.7270 0.0000 0.0000
# 5 0.0000 0.0000 0.0000 0.0000 16.0473 0.0000
# 6 0.0000 0.0000 0.0000 0.0000 0.0000 33.0438
#
#
#
# Elastic Compliance Matrix: (Units=1/GPa)
#
#
# Indices 1 2 3 4 5 6 
#
# 1 0.015316 -0.004215 -0.011119 0.000000 0.000000 0.000000
# 2 -0.004215 0.010253 0.001206 0.000000 0.000000 0.000000
# 3 -0.011119 0.001206 0.024843 0.000000 0.000000 0.000000
# 4 0.000000 0.000000 0.000000 0.366708 0.000000 0.000000
# 5 0.000000 0.000000 0.000000 0.000000 0.062316 0.000000
# 6 0.000000 0.000000 0.000000 0.000000 0.000000 0.030263
#
#
# Mechanical properties :
#
#
# Convention : Reuss Voigt Hill
#
# Bulk Modulus (GPa) = 45.13410 53.85694 49.49552
# Shear Modulus (GPa) = 9.16860 22.65074 15.90967
#
# Velocity S-wave (km/s) = 2.27834 3.58103 3.00122
# Velocity P-wave (km/s) = 5.69859 6.89852 6.32707
#
# Compressibility (1/GPa) = 0.02215620
#
# Stress axis : x y z
#
# Youngs Moduli (GPa) = 65.29160 97.52867 40.25318
#
# Poissons Ratio (x) = 0.41106 0.44759
# Poissons Ratio (y) = 0.27519 -0.04855
# Poissons Ratio (z) = 0.72600 -0.11764
#
# Static dielectric constant tensor:
#      x y z
#    x 1.694590 0.000000 0.000000 
#    y 0.000000 1.638820 0.000000 
#    z 0.000000 0.000000 1.624510 
# 
# From -- ./inp_files/21775.got.cif
#   From: 2010.05.17/outbox.cif.g08.bks.cpg/sg58_11_cif.got.tgz:21775.got - 2010.06.03 14:20:14.
