data_PCOD9445005
_publ_section_title
;
Structure prediction by ZEFSAII (Michael W. Deem and Ramdas Pophale) SiO2 
 PCOD9445005
Probable space group: P N N M
;
_chemical_formula_sum "Si O2"
_cell_formula_units_Z 64
_cell_length_a 12.154641
_cell_length_b 17.444708
_cell_length_c 12.867682
_cell_angle_alpha 90.000000
_cell_angle_beta 90.000000
_cell_angle_gamma 90.000000
_cell_volume 2728.388184
_symmetry_space_group_name_H-M "P N N M"
_symmetry_group_IT_number 58
_symmetry_cell_setting 'orthorhombic'
loop_
_space_group_symop_operation_xyz
x,y,z
-x,-y,z
1/2+x,1/2-y,1/2-z
1/2-x,1/2+y,1/2-z
-x,-y,-z
x,y,-z
1/2-x,1/2+y,1/2+z
1/2+x,1/2-y,1/2+z
loop_
_atom_site_type_symbol
_atom_site_label
_atom_site_fract_x
_atom_site_fract_y
_atom_site_fract_z
Si Si1 0.664884 0.670120 0.663114
Si Si2 0.970502 0.724616 0.836430
Si Si3 0.338398 0.556003 0.885676
Si Si4 0.085013 0.565410 0.835365
Si Si5 0.329971 0.099375 0.886119
Si Si6 0.783860 0.220976 0.613035
Si Si7 0.883559 0.762940 0.615151
Si Si8 0.374823 0.499227 0.660354
O O1 0.547195 0.704577 0.632008
O O2 0.672746 0.674527 0.788741
O O3 0.762984 0.724234 0.623614
O O4 0.676999 0.582569 0.631787
O O5 0.848646 0.722225 0.881726
O O6 0.951292 0.730452 0.711801
O O7 0.035642 0.647752 0.863172
O O8 0.205617 0.554043 0.881547
O O9 0.371694 0.645478 0.872219
O O10 0.377283 0.509584 0.785601
O O11 0.374514 0.530051 0.000000
O O12 0.103763 0.565703 0.710547
O O13 0.000000 0.500000 0.865486
O O14 0.319579 0.190754 0.874125
O O15 0.206450 0.065220 0.878492
O O16 0.375567 0.081680 0.000000
O O17 0.819064 0.191901 0.500000
O O18 0.928297 0.746533 0.500000
O O19 0.500000 0.500000 0.623300
#
# Coordination Sequence:
#
# PCOD9445005 Si02
#       8
#     8   8   8   8   8   8   8   8
#     4  11  21  39  61  86 122 153 193 248 293 353
#     4  11  21  39  63  90 119 153 200 245 296 351
#     4  10  22  43  62  86 126 160 194 244 301 355
#     4  11  23  39  62  88 120 162 202 240 298 357
#     4  10  22  43  62  86 126 160 194 244 301 355
#     4  10  22  39  62  89 116 153 197 244 297 352
#     4  10  22  39  62  89 116 153 197 244 297 352
#     4  11  23  39  62  89 119 159 201 241 299 352
#
# _framework density 23.457073000000001
#
# number of rings (size 3 to 8) (size 9 to 14) (size 15 to 20)
#    0.000    1.500    2.500    3.750    7.000    4.000 
#    0.000    0.000    0.000    0.000    0.000    0.000 
#    0.000    0.000    0.000    0.000    0.000    0.000 
#
# Total GULP energy -358370.091893 kJ/mol
# GULP energy per Si atom -5599.532686 kJ/mol
# Density = 2.340368 g / cm^3
# Si number density = 23.457073 Si / 1000 Ang^3
#
#
#
# Elastic Constant Matrix: (Units=GPa)
#
#
# Indices 1 2 3 4 5 6 
#
# 1 82.7659 6.4242 -6.1261 0.0000 0.0000 0.0000
# 2 6.4242 56.6189 11.1336 0.0000 0.0000 0.0000
# 3 -6.1261 11.1336 120.8586 0.0000 0.0000 0.0000
# 4 0.0000 0.0000 0.0000 -2.2283 0.0000 0.0000
# 5 0.0000 0.0000 0.0000 0.0000 -12.9504 0.0000
# 6 0.0000 0.0000 0.0000 0.0000 0.0000 25.3137
#
#
#
# Elastic Compliance Matrix: (Units=1/GPa)
#
#
# Indices 1 2 3 4 5 6 
#
# 1 0.012258 -0.001541 0.000763 0.000000 0.000000 0.000000
# 2 -0.001541 0.018182 -0.001753 0.000000 0.000000 0.000000
# 3 0.000763 -0.001753 0.008474 0.000000 0.000000 0.000000
# 4 0.000000 0.000000 0.000000 -0.448765 0.000000 0.000000
# 5 0.000000 0.000000 0.000000 0.000000 -0.077218 0.000000
# 6 0.000000 0.000000 0.000000 0.000000 0.000000 0.039504
#
#
# Mechanical properties :
#
#
# Convention : Reuss Voigt Hill
#
# Bulk Modulus (GPa) = 29.53961 31.45630 30.49795
# Shear Modulus (GPa) = -11.59503 18.61445 3.50971
#
# Velocity S-wave (km/s) = -2.22572 2.82006 1.22453
# Velocity P-wave (km/s) = 2.45261 4.90336 3.87674
#
# Compressibility (1/GPa) = 0.03385285
#
# Stress axis : x y z
#
# Youngs Moduli (GPa) = 81.57682 55.00096 118.00367
#
# Poissons Ratio (x) = 0.08476 -0.09007
# Poissons Ratio (y) = 0.12571 0.20686
# Poissons Ratio (z) = -0.06227 0.09642
#
# Static dielectric constant tensor:
#      x y z
#    x 1.855750 0.000000 0.000000 
#    y 0.000000 1.798090 0.000000 
#    z 0.000000 0.000000 1.960200 
# 
# From -- ./inp_files/21522.got.cif
#   From: 2010.05.17/outbox.cif.g08.bks.cpg/sg58_11_cif.got.tgz:21522.got - 2010.06.03 14:20:14.
