data_PCOD9445229
_publ_section_title
;
Structure prediction by ZEFSAII (Michael W. Deem and Ramdas Pophale) SiO2 
 PCOD9445229
Probable space group: P N N M
;
_chemical_formula_sum "Si O2"
_cell_formula_units_Z 58
_cell_length_a 7.527674
_cell_length_b 17.565360
_cell_length_c 18.199395
_cell_angle_alpha 90.000000
_cell_angle_beta 90.000000
_cell_angle_gamma 90.000000
_cell_volume 2406.438732
_symmetry_space_group_name_H-M "P N N M"
_symmetry_group_IT_number 58
_symmetry_cell_setting 'orthorhombic'
loop_
_space_group_symop_operation_xyz
x,y,z
-x,-y,z
1/2+x,1/2-y,1/2-z
1/2-x,1/2+y,1/2-z
-x,-y,-z
x,y,-z
1/2-x,1/2+y,1/2+z
1/2+x,1/2-y,1/2+z
loop_
_atom_site_type_symbol
_atom_site_label
_atom_site_fract_x
_atom_site_fract_y
_atom_site_fract_z
Si Si1 0.500000 0.000000 0.500000
Si Si2 0.253068 0.288874 0.084585
Si Si3 0.784594 0.987059 0.618751
Si Si4 0.033961 0.821249 0.278040
Si Si5 0.845322 0.317073 0.913959
Si Si6 0.347193 0.814008 0.825591
Si Si7 0.869698 0.388040 0.414286
Si Si8 0.318253 0.543193 0.278454
O O1 0.354067 0.972379 0.564139
O O2 0.385855 0.329952 0.140552
O O3 0.279728 0.196731 0.090428
O O4 0.052110 0.308702 0.105022
O O5 0.291248 0.307811 0.000000
O O6 0.735016 0.900214 0.597183
O O7 0.739300 0.996831 0.705356
O O8 0.000000 0.000000 0.610014
O O9 0.190375 0.844046 0.223474
O O10 0.987253 0.731447 0.274207
O O11 0.871247 0.873415 0.253945
O O12 0.733493 0.254632 0.872289
O O13 0.835710 0.300550 0.000000
O O14 0.435740 0.872325 0.880988
O O15 0.866536 0.411076 0.500000
O O16 0.783517 0.443525 0.354155
O O17 0.500000 0.500000 0.294979
#
# Coordination Sequence:
#
# PCOD9445229 Si02
#       8
#     2   8   8   8   8   8   8   8
#     4  12  26  52  72  90 138 208 234 292 334 388
#     4   9  21  37  62 102 132 174 225 269 347 423
#     4  11  26  47  64  97 140 189 244 283 335 406
#     4  11  21  38  65  94 137 176 215 286 342 412
#     4  11  21  37  60  93 131 170 222 279 330 413
#     4  11  21  36  64  97 129 167 215 274 362 410
#     4  10  22  44  68  98 132 165 219 288 352 428
#     4  11  25  46  65  95 131 178 233 284 336 408
#
# _framework density 24.102004999999998
#
# number of rings (size 3 to 8) (size 9 to 14) (size 15 to 20)
#    0.000    1.379    2.069    3.931    1.931    3.034 
#    1.241    0.690    0.000    0.828    0.000    0.000 
#    0.000    0.000    0.000    0.000    0.000    0.000 
#
# Total GULP energy -323892.233781 kJ/mol
# GULP energy per Si atom -5584.348858 kJ/mol
# Density = 2.404715 g / cm^3
# Si number density = 24.102005 Si / 1000 Ang^3
#
#
#
# Elastic Constant Matrix: (Units=GPa)
#
#
# Indices 1 2 3 4 5 6 
#
# 1 92.6378 14.4084 51.9439 0.0000 0.0000 0.0000
# 2 14.4084 48.1519 28.3066 0.0000 0.0000 0.0000
# 3 51.9439 28.3066 183.7538 0.0000 0.0000 0.0000
# 4 0.0000 0.0000 0.0000 2.6846 0.0000 0.0000
# 5 0.0000 0.0000 0.0000 0.0000 -41.1241 0.0000
# 6 0.0000 0.0000 0.0000 0.0000 0.0000 27.4982
#
#
#
# Elastic Compliance Matrix: (Units=1/GPa)
#
#
# Indices 1 2 3 4 5 6 
#
# 1 0.012984 -0.001900 -0.003378 0.000000 0.000000 0.000000
# 2 -0.001900 0.023113 -0.003024 0.000000 0.000000 0.000000
# 3 -0.003378 -0.003024 0.006863 0.000000 0.000000 0.000000
# 4 0.000000 0.000000 0.000000 0.372494 0.000000 0.000000
# 5 0.000000 0.000000 0.000000 0.000000 -0.024317 0.000000
# 6 0.000000 0.000000 0.000000 0.000000 0.000000 0.036366
#
#
# Mechanical properties :
#
#
# Convention : Reuss Voigt Hill
#
# Bulk Modulus (GPa) = 37.93846 57.09570 47.51708
# Shear Modulus (GPa) = 11.04018 13.13740 12.08879
#
# Velocity S-wave (km/s) = 2.14256 2.33722 2.24200
# Velocity P-wave (km/s) = 4.67928 5.56992 5.14392
#
# Compressibility (1/GPa) = 0.02635848
#
# Stress axis : x y z
#
# Youngs Moduli (GPa) = 77.01691 43.26483 145.71598
#
# Poissons Ratio (x) = 0.08218 0.49219
# Poissons Ratio (y) = 0.14630 0.44058
# Poissons Ratio (z) = 0.26015 0.13081
#
# Static dielectric constant tensor:
#      x y z
#    x 1.979750 0.000000 0.000000 
#    y 0.000000 2.078260 0.000000 
#    z 0.000000 0.000000 1.923790 
# 
# From -- ./inp_files/25514.got.cif
#   From: 2010.05.17/outbox.cif.g08.bks.cpg/sg58_13_cif.got.tgz:25514.got - 2010.06.03 14:20:14.
