data_PCOD9445130
_publ_section_title
;
Structure prediction by ZEFSAII (Michael W. Deem and Ramdas Pophale) SiO2 
 PCOD9445130
Probable space group: P N N M
;
_chemical_formula_sum "Si O2"
_cell_formula_units_Z 32
_cell_length_a 18.389609
_cell_length_b 7.360639
_cell_length_c 10.843177
_cell_angle_alpha 90.000000
_cell_angle_beta 90.000000
_cell_angle_gamma 90.000000
_cell_volume 1467.724558
_symmetry_space_group_name_H-M "P N N M"
_symmetry_group_IT_number 58
_symmetry_cell_setting 'orthorhombic'
loop_
_space_group_symop_operation_xyz
x,y,z
-x,-y,z
1/2+x,1/2-y,1/2-z
1/2-x,1/2+y,1/2-z
-x,-y,-z
x,y,-z
1/2-x,1/2+y,1/2+z
1/2+x,1/2-y,1/2+z
loop_
_atom_site_type_symbol
_atom_site_label
_atom_site_fract_x
_atom_site_fract_y
_atom_site_fract_z
Si Si1 0.339239 0.574792 0.717503
Si Si2 0.798013 0.545194 0.135785
Si Si3 0.931006 0.273108 0.141495
Si Si4 0.466871 0.702347 0.135404
O O1 0.265927 0.483745 0.766773
O O2 0.391370 0.422747 0.658248
O O3 0.383513 0.668712 0.829411
O O4 0.319456 0.744614 0.633855
O O5 0.868582 0.422881 0.162496
O O6 0.771652 0.489004 0.000000
O O7 0.991731 0.288233 0.247471
O O8 0.958263 0.288361 0.000000
O O9 0.500000 0.500000 0.127505
O O10 0.475984 0.787805 0.000000
#
# Coordination Sequence:
#
# PCOD9445130 Si02
#       4
#     8   8   8   8
#     4  11  21  40  63  90 123 166 206 255 309 366
#     4  11  23  39  61  92 126 163 208 256 309 371
#     4  10  22  41  64  92 124 159 206 257 310 368
#     4   9  20  39  64  90 122 163 206 254 309 366
#
# _framework density 21.802457
#
# number of rings (size 3 to 8) (size 9 to 14) (size 15 to 20)
#    0.000    1.750    2.500    1.500    0.000    7.500 
#    0.000    6.250    0.000    0.000    0.000    0.000 
#    0.000    0.000    0.000    0.000    0.000    0.000 
#
# Total GULP energy -178750.017307 kJ/mol
# GULP energy per Si atom -5585.938041 kJ/mol
# Density = 2.175283 g / cm^3
# Si number density = 21.802457 Si / 1000 Ang^3
#
#
#
# Elastic Constant Matrix: (Units=GPa)
#
#
# Indices 1 2 3 4 5 6 
#
# 1 68.3147 26.4041 49.4243 0.0000 0.0000 0.0000
# 2 26.4041 101.1810 23.4094 0.0000 0.0000 0.0000
# 3 49.4243 23.4094 132.9551 0.0000 0.0000 0.0000
# 4 0.0000 0.0000 0.0000 -23.0937 0.0000 0.0000
# 5 0.0000 0.0000 0.0000 0.0000 123.3358 0.0000
# 6 0.0000 0.0000 0.0000 0.0000 0.0000 28.6746
#
#
#
# Elastic Compliance Matrix: (Units=1/GPa)
#
#
# Indices 1 2 3 4 5 6 
#
# 1 0.021407 -0.003904 -0.007270 0.000000 0.000000 0.000000
# 2 -0.003904 0.011015 -0.000488 0.000000 0.000000 0.000000
# 3 -0.007270 -0.000488 0.010310 0.000000 0.000000 0.000000
# 4 0.000000 0.000000 0.000000 -0.043302 0.000000 0.000000
# 5 0.000000 0.000000 0.000000 0.000000 0.008108 0.000000
# 6 0.000000 0.000000 0.000000 0.000000 0.000000 0.034874
#
#
# Mechanical properties :
#
#
# Convention : Reuss Voigt Hill
#
# Bulk Modulus (GPa) = 51.52869 55.65849 53.59359
# Shear Modulus (GPa) = 69.24554 39.33086 54.28820
#
# Velocity S-wave (km/s) = 5.64175 4.25192 4.99541
# Velocity P-wave (km/s) = 8.13172 7.04905 7.60966
#
# Compressibility (1/GPa) = 0.01940667
#
# Stress axis : x y z
#
# Youngs Moduli (GPa) = 46.71330 90.78479 96.99375
#
# Poissons Ratio (x) = 0.35445 0.70518
# Poissons Ratio (y) = 0.18238 0.04734
# Poissons Ratio (z) = 0.33962 0.04431
#
# Static dielectric constant tensor:
#      x y z
#    x 1.775680 0.000000 0.000000 
#    y 0.000000 1.785560 0.000000 
#    z 0.000000 0.000000 1.814880 
# 
# From -- ./inp_files/8611.got.cif
#   From: 2010.05.17/outbox.cif.g08.bks.cpg/sg58_5_cif.got.tgz:8611.got - 2010.06.03 14:20:14.
