data_PCOD9445201
_publ_section_title
;
Structure prediction by ZEFSAII (Michael W. Deem and Ramdas Pophale) SiO2 
 PCOD9445201
Probable space group: P N N M
;
_chemical_formula_sum "Si O2"
_cell_formula_units_Z 44
_cell_length_a 12.866324
_cell_length_b 9.509431
_cell_length_c 16.875166
_cell_angle_alpha 90.000000
_cell_angle_beta 90.000000
_cell_angle_gamma 90.000000
_cell_volume 2064.700528
_symmetry_space_group_name_H-M "P N N M"
_symmetry_group_IT_number 58
_symmetry_cell_setting 'orthorhombic'
loop_
_space_group_symop_operation_xyz
x,y,z
-x,-y,z
1/2+x,1/2-y,1/2-z
1/2-x,1/2+y,1/2-z
-x,-y,-z
x,y,-z
1/2-x,1/2+y,1/2+z
1/2+x,1/2-y,1/2+z
loop_
_atom_site_type_symbol
_atom_site_label
_atom_site_fract_x
_atom_site_fract_y
_atom_site_fract_z
Si Si1 0.180253 0.292610 0.409571
Si Si2 0.394045 0.560556 0.193759
Si Si3 0.500000 0.000000 0.720134
Si Si4 0.207152 0.563459 0.681245
Si Si5 0.275823 0.355219 0.091540
Si Si6 0.884935 0.394662 0.910619
O O1 0.143198 0.274282 0.500000
O O2 0.205523 0.452802 0.390104
O O3 0.290076 0.212237 0.400573
O O4 0.106836 0.216775 0.344260
O O5 0.500000 0.500000 0.228197
O O6 0.301701 0.545096 0.257193
O O7 0.366255 0.460308 0.119569
O O8 0.398934 0.020647 0.773744
O O9 0.527202 0.877774 0.655435
O O10 0.217011 0.720631 0.647898
O O11 0.172941 0.453512 0.098553
O O12 0.286283 0.314948 0.000000
O O13 0.924631 0.380788 0.000000
#
# Coordination Sequence:
#
# PCOD9445201 Si02
#       6
#     8   8   4   8   8   8
#     4  10  22  43  63  88 124 162 203 248 300 364
#     4  11  24  41  67  87 120 161 208 250 292 358
#     4  12  23  36  65  90 132 150 200 252 309 356
#     4  12  25  39  62  95 125 157 198 253 313 353
#     4  10  22  43  63  88 124 162 203 248 300 364
#     4   9  20  40  67  88 117 162 206 251 296 357
#
# _framework density 21.310597000000001
#
# number of rings (size 3 to 8) (size 9 to 14) (size 15 to 20)
#    0.000    1.455    3.636    3.545    2.545    1.455 
#    0.000    0.909    0.000    1.091    0.000    0.000 
#    0.000    0.000    0.000    0.000    0.000    0.000 
#
# Total GULP energy -245350.381802 kJ/mol
# GULP energy per Si atom -5576.145041 kJ/mol
# Density = 2.126209 g / cm^3
# Si number density = 21.310597 Si / 1000 Ang^3
#
#
#
# Elastic Constant Matrix: (Units=GPa)
#
#
# Indices 1 2 3 4 5 6 
#
# 1 72.5890 -3.1443 27.3003 0.0000 0.0000 0.0000
# 2 -3.1443 83.0021 13.6054 0.0000 0.0000 0.0000
# 3 27.3003 13.6054 88.5040 0.0000 0.0000 0.0000
# 4 0.0000 0.0000 0.0000 32.4908 0.0000 0.0000
# 5 0.0000 0.0000 0.0000 0.0000 15.0885 0.0000
# 6 0.0000 0.0000 0.0000 0.0000 0.0000 -2.4547
#
#
#
# Elastic Compliance Matrix: (Units=1/GPa)
#
#
# Indices 1 2 3 4 5 6 
#
# 1 0.015748 0.001429 -0.005077 0.000000 0.000000 0.000000
# 2 0.001429 0.012489 -0.002361 0.000000 0.000000 0.000000
# 3 -0.005077 -0.002361 0.013228 0.000000 0.000000 0.000000
# 4 0.000000 0.000000 0.000000 0.030778 0.000000 0.000000
# 5 0.000000 0.000000 0.000000 0.000000 0.066276 0.000000
# 6 0.000000 0.000000 0.000000 0.000000 0.000000 -0.407380
#
#
# Mechanical properties :
#
#
# Convention : Reuss Voigt Hill
#
# Bulk Modulus (GPa) = 33.95998 35.51311 34.73654
# Shear Modulus (GPa) = -20.24059 22.78050 1.26996
#
# Velocity S-wave (km/s) = -3.08521 3.27307 0.77280
# Velocity P-wave (km/s) = 1.81079 5.56639 4.13906
#
# Compressibility (1/GPa) = 0.02944643
#
# Stress axis : x y z
#
# Youngs Moduli (GPa) = 63.50179 80.07074 75.59751
#
# Poissons Ratio (x) = -0.11440 0.38382
# Poissons Ratio (y) = -0.09073 0.17846
# Poissons Ratio (z) = 0.32241 0.18902
#
# Static dielectric constant tensor:
#      x y z
#    x 1.834750 0.000000 0.000000 
#    y 0.000000 1.773510 0.000000 
#    z 0.000000 0.000000 1.782840 
# 
# From -- ./inp_files/26754.got.cif
#   From: 2010.05.17/outbox.cif.g08.bks.cpg/sg58_14_cif.got.tgz:26754.got - 2010.06.03 14:20:14.
