data_PCOD9445028
_publ_section_title
;
Structure prediction by ZEFSAII (Michael W. Deem and Ramdas Pophale) SiO2 
 PCOD9445028
Probable space group: P N N M
;
_chemical_formula_sum "Si O2"
_cell_formula_units_Z 64
_cell_length_a 16.875753
_cell_length_b 6.080182
_cell_length_c 28.191341
_cell_angle_alpha 90.000000
_cell_angle_beta 90.000000
_cell_angle_gamma 90.000000
_cell_volume 2892.647240
_symmetry_space_group_name_H-M "P N N M"
_symmetry_group_IT_number 58
_symmetry_cell_setting 'orthorhombic'
loop_
_space_group_symop_operation_xyz
x,y,z
-x,-y,z
1/2+x,1/2-y,1/2-z
1/2-x,1/2+y,1/2-z
-x,-y,-z
x,y,-z
1/2-x,1/2+y,1/2+z
1/2+x,1/2-y,1/2+z
loop_
_atom_site_type_symbol
_atom_site_label
_atom_site_fract_x
_atom_site_fract_y
_atom_site_fract_z
Si Si1 0.852218 0.481692 0.883277
Si Si2 0.808154 0.833958 0.713789
Si Si3 0.868896 0.493115 0.225766
Si Si4 0.695226 0.172491 0.882056
Si Si5 0.287714 0.629853 0.446334
Si Si6 0.015184 0.251661 0.405137
Si Si7 0.060492 0.824793 0.947257
Si Si8 0.434380 0.319619 0.196217
O O1 0.884372 0.493712 0.830034
O O2 0.825641 0.697951 0.910483
O O3 0.770922 0.336260 0.884073
O O4 0.920617 0.376611 0.914657
O O5 0.858861 0.742574 0.757024
O O6 0.719578 0.888340 0.728615
O O7 0.809504 0.638117 0.674612
O O8 0.851808 0.045923 0.692105
O O9 0.923436 0.357504 0.262008
O O10 0.714911 0.975931 0.917860
O O11 0.609143 0.258540 0.895671
O O12 0.269289 0.711385 0.500000
O O13 0.355169 0.445816 0.451901
O O14 0.964907 0.261387 0.355404
O O15 0.000000 0.500000 0.427228
O O16 0.000000 0.000000 0.425398
O O17 0.031272 0.766189 0.000000
O O18 0.000000 0.000000 0.926231
O O19 0.500000 0.500000 0.210038
#
# Coordination Sequence:
#
# PCOD9445028 Si02
#       8
#     8   8   8   8   8   8   8   8
#     4  10  23  38  60  96 130 175 225 276 351 419
#     4  11  21  38  59  88 123 165 222 267 336 403
#     4  11  24  35  59  87 125 173 214 277 326 415
#     4  10  22  39  65  94 127 171 225 282 347 416
#     4  10  22  40  67  99 132 173 227 292 356 427
#     4  11  23  39  67  99 130 173 232 294 346 417
#     4   9  19  39  66  92 126 170 222 284 345 415
#     4  11  23  39  57  86 123 170 223 281 338 395
#
# _framework density 22.125063000000001
#
# number of rings (size 3 to 8) (size 9 to 14) (size 15 to 20)
#    0.000    1.625    3.750    1.125    3.500    2.500 
#    0.000    3.125    0.000    0.750    0.000    0.000 
#    0.000    0.000    0.000    0.000    0.000    0.000 
#
# Total GULP energy -356867.622300 kJ/mol
# GULP energy per Si atom -5576.056598 kJ/mol
# Density = 2.207471 g / cm^3
# Si number density = 22.125063 Si / 1000 Ang^3
#
#
#
# Elastic Constant Matrix: (Units=GPa)
#
#
# Indices 1 2 3 4 5 6 
#
# 1 73.3115 4.2249 -5.0490 0.0000 0.0000 0.0000
# 2 4.2249 68.1314 18.2869 0.0000 0.0000 0.0000
# 3 -5.0490 18.2869 47.7755 0.0000 0.0000 0.0000
# 4 0.0000 0.0000 0.0000 6.2623 0.0000 0.0000
# 5 0.0000 0.0000 0.0000 0.0000 23.5536 0.0000
# 6 0.0000 0.0000 0.0000 0.0000 0.0000 36.9450
#
#
#
# Elastic Compliance Matrix: (Units=1/GPa)
#
#
# Indices 1 2 3 4 5 6 
#
# 1 0.013859 -0.001396 0.001999 0.000000 0.000000 0.000000
# 2 -0.001396 0.016499 -0.006463 0.000000 0.000000 0.000000
# 3 0.001999 -0.006463 0.023616 0.000000 0.000000 0.000000
# 4 0.000000 0.000000 0.000000 0.159685 0.000000 0.000000
# 5 0.000000 0.000000 0.000000 0.000000 0.042456 0.000000
# 6 0.000000 0.000000 0.000000 0.000000 0.000000 0.027067
#
#
# Mechanical properties :
#
#
# Convention : Reuss Voigt Hill
#
# Bulk Modulus (GPa) = 23.66639 24.90491 24.28565
# Shear Modulus (GPa) = 16.18194 24.80255 20.49225
#
# Velocity S-wave (km/s) = 2.70735 3.35179 3.04666
# Velocity P-wave (km/s) = 4.52690 5.12447 4.83493
#
# Compressibility (1/GPa) = 0.04225401
#
# Stress axis : x y z
#
# Youngs Moduli (GPa) = 72.15766 60.61083 42.34388
#
# Poissons Ratio (x) = 0.08461 -0.08464
# Poissons Ratio (y) = 0.10073 0.27366
# Poissons Ratio (z) = -0.14424 0.39171
#
# Static dielectric constant tensor:
#      x y z
#    x 1.803830 0.000000 0.000000 
#    y 0.000000 1.783090 0.000000 
#    z 0.000000 0.000000 1.834050 
# 
# From -- ./inp_files/35132.got.cif
#   From: 2010.05.17/outbox.cif.g08.bks.cpg/sg58_18_cif.got.tgz:35132.got - 2010.06.03 14:20:14.
