data_PCOD9445821
_publ_section_title
;
Structure prediction by ZEFSAII (Michael W. Deem and Ramdas Pophale) SiO2 
 PCOD9445821
Probable space group: P N N M
;
_chemical_formula_sum "Si O2"
_cell_formula_units_Z 20
_cell_length_a 8.786310
_cell_length_b 9.793880
_cell_length_c 8.531846
_cell_angle_alpha 90.000000
_cell_angle_beta 90.000000
_cell_angle_gamma 90.000000
_cell_volume 734.182973
_symmetry_space_group_name_H-M "P N N M"
_symmetry_group_IT_number 58
_symmetry_cell_setting 'orthorhombic'
loop_
_space_group_symop_operation_xyz
x,y,z
-x,-y,z
1/2+x,1/2-y,1/2-z
1/2-x,1/2+y,1/2-z
-x,-y,-z
x,y,-z
1/2-x,1/2+y,1/2+z
1/2+x,1/2-y,1/2+z
loop_
_atom_site_type_symbol
_atom_site_label
_atom_site_fract_x
_atom_site_fract_y
_atom_site_fract_z
Si Si1 0.900527 0.166559 0.000000
Si Si2 0.401723 0.334799 0.165245
Si Si3 0.160978 0.574488 0.500000
Si Si4 0.818690 0.474095 0.000000
O O1 0.982047 0.157625 0.168337
O O2 0.813636 0.310780 0.000000
O O3 0.786496 0.040276 0.000000
O O4 0.337821 0.182439 0.143342
O O5 0.264494 0.443301 0.142777
O O6 0.491718 0.353799 0.000000
O O7 0.000000 0.500000 0.500000
O O8 0.000000 0.500000 0.000000
#
# Coordination Sequence:
#
# PCOD9445821 Si02
#       4
#     4   8   4   4
#     4  12  18  34  62  82 112 156 186 240 290 336
#     4   8  22  36  52  88 118 140 198 240 278 350
#     4   9  21  41  60  84 118 155 193 239 292 344
#     4   9  21  41  60  84 118 155 193 239 292 344
#
# _framework density 27.241164999999999
#
# number of rings (size 3 to 8) (size 9 to 14) (size 15 to 20)
#    2.400    0.000    0.000    2.400    0.000    6.400 
#    0.000    8.000    0.000   19.200    0.000    0.000 
#    0.000    0.000    0.000    0.000    0.000    0.000 
#
# Total GULP energy -111597.585119 kJ/mol
# GULP energy per Si atom -5579.879256 kJ/mol
# Density = 2.717916 g / cm^3
# Si number density = 27.241165 Si / 1000 Ang^3
#
#
#
# Elastic Constant Matrix: (Units=GPa)
#
#
# Indices 1 2 3 4 5 6 
#
# 1 106.0522 58.2556 31.8543 0.0000 0.0000 0.0000
# 2 58.2556 283.2879 20.5842 0.0000 0.0000 0.0000
# 3 31.8543 20.5842 273.9903 0.0000 0.0000 0.0000
# 4 0.0000 0.0000 0.0000 31.1866 0.0000 0.0000
# 5 0.0000 0.0000 0.0000 0.0000 -4.9773 0.0000
# 6 0.0000 0.0000 0.0000 0.0000 0.0000 40.0919
#
#
#
# Elastic Compliance Matrix: (Units=1/GPa)
#
#
# Indices 1 2 3 4 5 6 
#
# 1 0.010956 -0.002172 -0.001111 0.000000 0.000000 0.000000
# 2 -0.002172 0.003980 -0.000046 0.000000 0.000000 0.000000
# 3 -0.001111 -0.000046 0.003782 0.000000 0.000000 0.000000
# 4 0.000000 0.000000 0.000000 0.032065 0.000000 0.000000
# 5 0.000000 0.000000 0.000000 0.000000 -0.200912 0.000000
# 6 0.000000 0.000000 0.000000 0.000000 0.000000 0.024943
#
#
# Mechanical properties :
#
#
# Convention : Reuss Voigt Hill
#
# Bulk Modulus (GPa) = 82.91949 98.30207 90.61078
# Shear Modulus (GPa) = -43.66532 50.10265 3.21866
#
# Velocity S-wave (km/s) = -4.00799 4.29327 1.08817
# Velocity P-wave (km/s) = 3.01438 7.79362 5.90876
#
# Compressibility (1/GPa) = 0.01205989
#
# Stress axis : x y z
#
# Youngs Moduli (GPa) = 91.27264 251.25139 264.38452
#
# Poissons Ratio (x) = 0.54581 0.29362
# Poissons Ratio (y) = 0.19828 0.01228
# Poissons Ratio (z) = 0.10136 0.01167
#
# Static dielectric constant tensor:
#      x y z
#    x 1.997280 0.000000 0.000000 
#    y 0.000000 2.113680 0.000000 
#    z 0.000000 0.000000 2.245730 
# 
# From -- ./inp_files/1661.got.cif
#   From: 2010.05.17/outbox.cif.g08.bks.cpg/sg58_1_cif.got.tgz:1661.got - 2010.06.03 14:20:14.
