data_PCOD9445099
_publ_section_title
;
Structure prediction by ZEFSAII (Michael W. Deem and Ramdas Pophale) SiO2 
 PCOD9445099
Probable space group: P N N M
;
_chemical_formula_sum "Si O2"
_cell_formula_units_Z 48
_cell_length_a 29.128601
_cell_length_b 8.647431
_cell_length_c 8.179647
_cell_angle_alpha 90.000000
_cell_angle_beta 90.000000
_cell_angle_gamma 90.000000
_cell_volume 2060.351384
_symmetry_space_group_name_H-M "P N N M"
_symmetry_group_IT_number 58
_symmetry_cell_setting 'orthorhombic'
loop_
_space_group_symop_operation_xyz
x,y,z
-x,-y,z
1/2+x,1/2-y,1/2-z
1/2-x,1/2+y,1/2-z
-x,-y,-z
x,y,-z
1/2-x,1/2+y,1/2+z
1/2+x,1/2-y,1/2+z
loop_
_atom_site_type_symbol
_atom_site_label
_atom_site_fract_x
_atom_site_fract_y
_atom_site_fract_z
Si Si1 0.883239 0.487836 0.804637
Si Si2 0.489738 0.813633 0.000000
Si Si3 0.555054 0.468749 0.000000
Si Si4 0.398529 0.361900 0.693050
Si Si5 0.475394 0.836157 0.670837
Si Si6 0.304117 0.485441 0.193184
Si Si7 0.706126 0.164141 0.698333
O O1 0.897471 0.317498 0.748136
O O2 0.924015 0.611802 0.783627
O O3 0.835045 0.552567 0.742754
O O4 0.878715 0.469521 0.000000
O O5 0.441507 0.718143 0.000000
O O6 0.503614 0.764854 0.181504
O O7 0.500000 0.000000 0.000000
O O8 0.500000 0.500000 0.000000
O O9 0.576864 0.534907 0.167071
O O10 0.414001 0.372000 0.500000
O O11 0.345689 0.417158 0.702336
O O12 0.475602 0.749152 0.500000
O O13 0.500000 0.000000 0.649287
O O14 0.299968 0.667483 0.225983
O O15 0.255778 0.406071 0.236286
O O16 0.313176 0.458270 0.000000
O O17 0.702591 0.176865 0.500000
#
# Coordination Sequence:
#
# PCOD9445099 Si02
#       7
#     8   4   4   8   8   8   8
#     4   9  20  39  64  96 128 176 229 272 339 407
#     4  10  24  42  66  94 128 172 222 274 340 395
#     4  12  30  48  68 106 142 178 238 292 345 425
#     4  11  25  47  72  96 140 185 224 288 353 417
#     4   9  19  36  63  93 126 166 221 274 324 400
#     4  11  23  42  64 100 138 176 233 286 347 411
#     4  10  22  40  67  96 137 182 231 288 341 417
#
# _framework density 23.296996
#
# number of rings (size 3 to 8) (size 9 to 14) (size 15 to 20)
#    0.000    1.833    0.833    1.500    7.000    3.667 
#    1.500    0.000    0.000    0.000    0.000    0.000 
#    0.000    0.000    0.000    0.000    0.000    0.000 
#
# Total GULP energy -267563.481417 kJ/mol
# GULP energy per Si atom -5574.239196 kJ/mol
# Density = 2.324397 g / cm^3
# Si number density = 23.296996 Si / 1000 Ang^3
#
#
#
# Elastic Constant Matrix: (Units=GPa)
#
#
# Indices 1 2 3 4 5 6 
#
# 1 134.1378 20.4432 32.2091 0.0000 0.0000 0.0000
# 2 20.4432 75.4197 26.2194 0.0000 0.0000 0.0000
# 3 32.2091 26.2194 125.8876 0.0000 0.0000 0.0000
# 4 0.0000 0.0000 0.0000 25.7665 0.0000 0.0000
# 5 0.0000 0.0000 0.0000 0.0000 3.0476 0.0000
# 6 0.0000 0.0000 0.0000 0.0000 0.0000 41.7265
#
#
#
# Elastic Compliance Matrix: (Units=1/GPa)
#
#
# Indices 1 2 3 4 5 6 
#
# 1 0.008117 -0.001594 -0.001745 0.000000 0.000000 0.000000
# 2 -0.001594 0.014607 -0.002635 0.000000 0.000000 0.000000
# 3 -0.001745 -0.002635 0.008939 0.000000 0.000000 0.000000
# 4 0.000000 0.000000 0.000000 0.038810 0.000000 0.000000
# 5 0.000000 0.000000 0.000000 0.000000 0.328131 0.000000
# 6 0.000000 0.000000 0.000000 0.000000 0.000000 0.023966
#
#
# Mechanical properties :
#
#
# Convention : Reuss Voigt Hill
#
# Bulk Modulus (GPa) = 50.71857 54.79871 52.75864
# Shear Modulus (GPa) = 11.33563 31.21301 21.27432
#
# Velocity S-wave (km/s) = 2.20823 3.66428 3.02516
# Velocity P-wave (km/s) = 5.32160 6.44014 5.90740
#
# Compressibility (1/GPa) = 0.01971664
#
# Stress axis : x y z
#
# Youngs Moduli (GPa) = 123.20043 68.46047 111.87264
#
# Poissons Ratio (x) = 0.10910 0.19520
# Poissons Ratio (y) = 0.19633 0.29474
# Poissons Ratio (z) = 0.21497 0.18036
#
# Static dielectric constant tensor:
#      x y z
#    x 1.933360 0.000000 0.000000 
#    y 0.000000 0.821820 0.000000 
#    z 0.000000 0.000000 2.044900 
# 
# From -- ./inp_files/10801.got.cif
#   From: 2010.05.17/outbox.cif.g08.bks.cpg/sg58_6_cif.got.tgz:10801.got - 2010.06.03 14:20:14.
