data_PCOD9445119
_publ_section_title
;
Structure prediction by ZEFSAII (Michael W. Deem and Ramdas Pophale) SiO2 
 PCOD9445119
Probable space group: P N N M
;
_chemical_formula_sum "Si O2"
_cell_formula_units_Z 48
_cell_length_a 14.559598
_cell_length_b 9.034432
_cell_length_c 19.154002
_cell_angle_alpha 90.000000
_cell_angle_beta 90.000000
_cell_angle_gamma 90.000000
_cell_volume 2519.473332
_symmetry_space_group_name_H-M "P N N M"
_symmetry_group_IT_number 58
_symmetry_cell_setting 'orthorhombic'
loop_
_space_group_symop_operation_xyz
x,y,z
-x,-y,z
1/2+x,1/2-y,1/2-z
1/2-x,1/2+y,1/2-z
-x,-y,-z
x,y,-z
1/2-x,1/2+y,1/2+z
1/2+x,1/2-y,1/2+z
loop_
_atom_site_type_symbol
_atom_site_label
_atom_site_fract_x
_atom_site_fract_y
_atom_site_fract_z
Si Si1 0.435462 0.137032 0.309420
Si Si2 0.734192 0.368383 0.343488
Si Si3 0.934369 0.125107 0.686628
Si Si4 0.044191 0.162018 0.919933
Si Si5 0.258193 0.955426 0.293479
Si Si6 0.565907 0.861022 0.916816
O O1 0.420988 0.251736 0.246354
O O2 0.487525 0.224452 0.371042
O O3 0.500000 0.000000 0.286944
O O4 0.337060 0.060693 0.324285
O O5 0.648366 0.365250 0.395048
O O6 0.716896 0.216819 0.300012
O O7 0.738742 0.497033 0.286039
O O8 0.831248 0.373025 0.384327
O O9 0.839493 0.043580 0.668037
O O10 0.972377 0.213425 0.620243
O O11 0.000000 0.000000 0.715320
O O12 0.042162 0.214090 0.000000
O O13 0.000000 0.000000 0.915618
O O14 0.500000 0.000000 0.899740
O O15 0.571218 0.848735 0.000000
#
# Coordination Sequence:
#
# PCOD9445119 Si02
#       6
#     8   8   8   8   8   8
#     4  12  22  39  64  93 126 163 212 267 315 381
#     4  11  22  40  63  93 125 165 209 265 316 379
#     4  11  24  39  63  92 124 165 204 267 319 372
#     4  11  25  43  63  90 130 176 214 259 323 387
#     4  11  22  37  60  94 121 156 205 258 319 367
#     4  10  22  41  63  89 123 167 214 260 315 379
#
# _framework density 19.051601000000002
#
# number of rings (size 3 to 8) (size 9 to 14) (size 15 to 20)
#    0.000    1.000    5.000    3.500    0.000    0.667 
#    0.000    0.833    0.000    0.000    0.000    0.000 
#    0.000    0.000    0.000    0.000    0.000    0.000 
#
# Total GULP energy -267769.934499 kJ/mol
# GULP energy per Si atom -5578.540302 kJ/mol
# Density = 1.900824 g / cm^3
# Si number density = 19.051601 Si / 1000 Ang^3
#
#
#
# Elastic Constant Matrix: (Units=GPa)
#
#
# Indices 1 2 3 4 5 6 
#
# 1 112.5773 58.9821 40.9330 0.0000 0.0000 0.0000
# 2 58.9821 93.9167 43.4341 0.0000 0.0000 0.0000
# 3 40.9330 43.4341 102.3813 0.0000 0.0000 0.0000
# 4 0.0000 0.0000 0.0000 24.0722 0.0000 0.0000
# 5 0.0000 0.0000 0.0000 0.0000 132.3837 0.0000
# 6 0.0000 0.0000 0.0000 0.0000 0.0000 43.5122
#
#
#
# Elastic Compliance Matrix: (Units=1/GPa)
#
#
# Indices 1 2 3 4 5 6 
#
# 1 0.013648 -0.007524 -0.002265 0.000000 0.000000 0.000000
# 2 -0.007524 0.017395 -0.004371 0.000000 0.000000 0.000000
# 3 -0.002265 -0.004371 0.012527 0.000000 0.000000 0.000000
# 4 0.000000 0.000000 0.000000 0.041542 0.000000 0.000000
# 5 0.000000 0.000000 0.000000 0.000000 0.007554 0.000000
# 6 0.000000 0.000000 0.000000 0.000000 0.000000 0.022982
#
#
# Mechanical properties :
#
#
# Convention : Reuss Voigt Hill
#
# Bulk Modulus (GPa) = 65.57330 66.17486 65.87408
# Shear Modulus (GPa) = 33.54549 51.02871 42.28710
#
# Velocity S-wave (km/s) = 4.20071 5.18099 4.71638
# Velocity P-wave (km/s) = 7.61718 8.40239 8.01940
#
# Compressibility (1/GPa) = 0.01525011
#
# Stress axis : x y z
#
# Youngs Moduli (GPa) = 73.26921 57.48890 79.82549
#
# Poissons Ratio (x) = 0.43255 0.18078
# Poissons Ratio (y) = 0.55129 0.34894
# Poissons Ratio (z) = 0.16593 0.25130
#
# Static dielectric constant tensor:
#      x y z
#    x 1.710910 0.000000 0.000000 
#    y 0.000000 1.681140 0.000000 
#    z 0.000000 0.000000 1.645140 
# 
# From -- ./inp_files/26821.got.cif
#   From: 2010.05.17/outbox.cif.g08.bks.cpg/sg58_14_cif.got.tgz:26821.got - 2010.06.03 14:20:14.
