data_PCOD9445524
_publ_section_title
;
Structure prediction by ZEFSAII (Michael W. Deem and Ramdas Pophale) SiO2 
 PCOD9445524
Probable space group: P N N M
;
_chemical_formula_sum "Si O2"
_cell_formula_units_Z 56
_cell_length_a 9.421638
_cell_length_b 16.283212
_cell_length_c 18.357161
_cell_angle_alpha 90.000000
_cell_angle_beta 90.000000
_cell_angle_gamma 90.000000
_cell_volume 2816.255208
_symmetry_space_group_name_H-M "P N N M"
_symmetry_group_IT_number 58
_symmetry_cell_setting 'orthorhombic'
loop_
_space_group_symop_operation_xyz
x,y,z
-x,-y,z
1/2+x,1/2-y,1/2-z
1/2-x,1/2+y,1/2-z
-x,-y,-z
x,y,-z
1/2-x,1/2+y,1/2+z
1/2+x,1/2-y,1/2+z
loop_
_atom_site_type_symbol
_atom_site_label
_atom_site_fract_x
_atom_site_fract_y
_atom_site_fract_z
Si Si1 0.662522 0.489126 0.653065
Si Si2 0.113209 0.643300 0.343149
Si Si3 0.699507 0.167148 0.869101
Si Si4 0.203101 0.814474 0.711378
Si Si5 0.072796 0.079337 0.310473
Si Si6 0.982042 0.595939 0.183737
Si Si7 0.792780 0.332583 0.081841
O O1 0.500000 0.500000 0.626143
O O2 0.774948 0.421679 0.624914
O O3 0.732401 0.577554 0.640120
O O4 0.645402 0.458665 0.737592
O O5 0.188011 0.730839 0.332896
O O6 0.966258 0.655742 0.385719
O O7 0.053149 0.615233 0.262938
O O8 0.731845 0.207340 0.789904
O O9 0.767158 0.234959 0.920291
O O10 0.317979 0.878723 0.682297
O O11 0.049540 0.857375 0.715393
O O12 0.175698 0.124319 0.366378
O O13 0.000000 0.000000 0.346605
O O14 0.000000 0.500000 0.170653
O O15 0.061577 0.647732 0.122644
O O16 0.788510 0.365521 0.000000
#
# Coordination Sequence:
#
# PCOD9445524 Si02
#       7
#     8   8   8   8   8   8   8
#     4  11  21  33  63  97 126 146 192 266 323 366
#     4  11  21  34  59  98 124 153 194 263 326 365
#     4  11  21  38  59  92 126 159 196 253 326 361
#     4  11  20  34  62  93 123 151 197 273 318 359
#     4  11  20  39  60  95 121 157 205 254 319 359
#     4  11  23  38  58  88 126 161 205 253 317 364
#     4  12  26  42  60  86 129 176 213 242 291 385
#
# _framework density 19.884563
#
# number of rings (size 3 to 8) (size 9 to 14) (size 15 to 20)
#    0.000    0.857    7.143    3.000    4.000    0.571 
#    0.000    0.714    0.000    2.143    0.000    0.000 
#    0.000    0.000    0.000    0.000    0.000    0.000 
#
# Total GULP energy -312502.540970 kJ/mol
# GULP energy per Si atom -5580.402517 kJ/mol
# Density = 1.983930 g / cm^3
# Si number density = 19.884563 Si / 1000 Ang^3
#
#
#
# Elastic Constant Matrix: (Units=GPa)
#
#
# Indices 1 2 3 4 5 6 
#
# 1 82.7970 12.2915 2.8283 0.0000 0.0000 0.0000
# 2 12.2915 111.7430 -5.8735 0.0000 0.0000 0.0000
# 3 2.8283 -5.8735 27.3578 0.0000 0.0000 0.0000
# 4 0.0000 0.0000 0.0000 25.1283 0.0000 0.0000
# 5 0.0000 0.0000 0.0000 0.0000 -6.9460 0.0000
# 6 0.0000 0.0000 0.0000 0.0000 0.0000 40.3372
#
#
#
# Elastic Compliance Matrix: (Units=1/GPa)
#
#
# Indices 1 2 3 4 5 6 
#
# 1 0.012346 -0.001441 -0.001586 0.000000 0.000000 0.000000
# 2 -0.001441 0.009220 0.002128 0.000000 0.000000 0.000000
# 3 -0.001586 0.002128 0.037173 0.000000 0.000000 0.000000
# 4 0.000000 0.000000 0.000000 0.039796 0.000000 0.000000
# 5 0.000000 0.000000 0.000000 0.000000 -0.143968 0.000000
# 6 0.000000 0.000000 0.000000 0.000000 0.000000 0.024791
#
#
# Mechanical properties :
#
#
# Convention : Reuss Voigt Hill
#
# Bulk Modulus (GPa) = 17.56196 26.71007 22.13602
# Shear Modulus (GPa) = 36946.52787 25.88067 18486.20427
#
# Velocity S-wave (km/s) = 136.45822 3.61161 96.52432
# Velocity P-wave (km/s) = 157.59646 5.55458 111.50672
#
# Compressibility (1/GPa) = 0.05694124
#
# Stress axis : x y z
#
# Youngs Moduli (GPa) = 80.99872 108.46548 26.90091
#
# Poissons Ratio (x) = 0.15634 0.04266
# Poissons Ratio (y) = 0.11675 -0.05725
# Poissons Ratio (z) = 0.12845 -0.23085
#
# Static dielectric constant tensor:
#      x y z
#    x 1.740210 0.000000 0.000000 
#    y 0.000000 1.719560 0.000000 
#    z 0.000000 0.000000 1.699690 
# 
# From -- ./inp_files/28945.got.cif
#   From: 2010.05.17/outbox.cif.g08.bks.cpg/sg58_15_cif.got.tgz:28945.got - 2010.06.03 14:20:14.
