data_PCOD9445202
_publ_section_title
;
Structure prediction by ZEFSAII (Michael W. Deem and Ramdas Pophale) SiO2 
 PCOD9445202
Probable space group: P N N M
;
_chemical_formula_sum "Si O2"
_cell_formula_units_Z 48
_cell_length_a 7.346457
_cell_length_b 14.400495
_cell_length_c 16.716275
_cell_angle_alpha 90.000000
_cell_angle_beta 90.000000
_cell_angle_gamma 90.000000
_cell_volume 1768.458484
_symmetry_space_group_name_H-M "P N N M"
_symmetry_group_IT_number 58
_symmetry_cell_setting 'orthorhombic'
loop_
_space_group_symop_operation_xyz
x,y,z
-x,-y,z
1/2+x,1/2-y,1/2-z
1/2-x,1/2+y,1/2-z
-x,-y,-z
x,y,-z
1/2-x,1/2+y,1/2+z
1/2+x,1/2-y,1/2+z
loop_
_atom_site_type_symbol
_atom_site_label
_atom_site_fract_x
_atom_site_fract_y
_atom_site_fract_z
Si Si1 0.305116 0.945569 0.914315
Si Si2 0.506394 0.855869 0.593682
Si Si3 0.122410 0.212927 0.794545
Si Si4 0.841622 0.577676 0.245844
Si Si5 0.571443 0.787707 0.084597
Si Si6 0.418987 0.601821 0.137698
O O1 0.224523 0.953998 0.824675
O O2 0.382561 0.841383 0.917543
O O3 0.500000 0.000000 0.916332
O O4 0.212012 0.966229 0.000000
O O5 0.469903 0.859797 0.500000
O O6 0.497842 0.752099 0.632299
O O7 0.358535 0.911788 0.647914
O O8 0.709259 0.891118 0.612119
O O9 0.149648 0.309300 0.744897
O O10 0.305957 0.183635 0.840186
O O11 0.066840 0.137505 0.729783
O O12 0.000000 0.500000 0.254490
O O13 0.529062 0.679509 0.090153
O O14 0.666680 0.808416 0.000000
O O15 0.500000 0.500000 0.131638
#
# Coordination Sequence:
#
# PCOD9445202 Si02
#       6
#     8   8   8   8   8   8
#     4   9  17  34  60  91 122 157 208 272 328 381
#     4  10  23  42  63  91 132 170 211 265 328 394
#     4  10  22  43  64  93 122 171 222 264 322 385
#     4   9  19  36  62  90 120 161 212 267 319 383
#     4  11  22  39  64  94 126 165 219 271 322 389
#     4  12  25  41  62  93 134 175 213 269 329 396
#
# _framework density 27.142282999999999
#
# number of rings (size 3 to 8) (size 9 to 14) (size 15 to 20)
#    1.000    0.833    1.667    3.000    2.333    1.667 
#    0.000    0.000    0.000    2.000    0.000    0.000 
#    0.000    0.000    0.000    0.000    0.000    0.000 
#
# Total GULP energy -267243.549333 kJ/mol
# GULP energy per Si atom -5567.573944 kJ/mol
# Density = 2.708051 g / cm^3
# Si number density = 27.142283 Si / 1000 Ang^3
#
#
#
# Elastic Constant Matrix: (Units=GPa)
#
#
# Indices 1 2 3 4 5 6 
#
# 1 63.9633 0.9945 37.5223 0.0000 0.0000 0.0000
# 2 0.9945 107.0213 19.3074 0.0000 0.0000 0.0000
# 3 37.5223 19.3074 284.1373 0.0000 0.0000 0.0000
# 4 0.0000 0.0000 0.0000 9.6056 0.0000 0.0000
# 5 0.0000 0.0000 0.0000 0.0000 19.6393 0.0000
# 6 0.0000 0.0000 0.0000 0.0000 0.0000 24.4668
#
#
#
# Elastic Compliance Matrix: (Units=1/GPa)
#
#
# Indices 1 2 3 4 5 6 
#
# 1 0.016953 0.000249 -0.002256 0.000000 0.000000 0.000000
# 2 0.000249 0.009464 -0.000676 0.000000 0.000000 0.000000
# 3 -0.002256 -0.000676 0.003863 0.000000 0.000000 0.000000
# 4 0.000000 0.000000 0.000000 0.104106 0.000000 0.000000
# 5 0.000000 0.000000 0.000000 0.000000 0.050918 0.000000
# 6 0.000000 0.000000 0.000000 0.000000 0.000000 0.040872
#
#
# Mechanical properties :
#
#
# Convention : Reuss Voigt Hill
#
# Bulk Modulus (GPa) = 40.13564 63.41891 51.77728
# Shear Modulus (GPa) = 20.84672 37.22887 29.03780
#
# Velocity S-wave (km/s) = 2.77438 3.70756 3.27438
# Velocity P-wave (km/s) = 5.00821 6.46096 5.78041
#
# Compressibility (1/GPa) = 0.02491551
#
# Stress axis : x y z
#
# Youngs Moduli (GPa) = 58.98537 105.66840 258.84956
#
# Poissons Ratio (x) = -0.02636 0.58390
# Poissons Ratio (y) = -0.01471 0.17498
# Poissons Ratio (z) = 0.13306 0.07143
#
# Static dielectric constant tensor:
#      x y z
#    x 2.237810 0.000000 0.000000 
#    y 0.000000 2.183220 0.000000 
#    z 0.000000 0.000000 2.144180 
# 
# From -- ./inp_files/25309.got.cif
#   From: 2010.05.17/outbox.cif.g08.bks.cpg/sg58_13_cif.got.tgz:25309.got - 2010.06.03 14:20:14.
