data_PCOD9445396
_publ_section_title
;
Structure prediction by ZEFSAII (Michael W. Deem and Ramdas Pophale) SiO2 
 PCOD9445396
Probable space group: P N N M
;
_chemical_formula_sum "Si O2"
_cell_formula_units_Z 36
_cell_length_a 14.305338
_cell_length_b 13.138219
_cell_length_c 7.460693
_cell_angle_alpha 90.000000
_cell_angle_beta 90.000000
_cell_angle_gamma 90.000000
_cell_volume 1402.212357
_symmetry_space_group_name_H-M "P N N M"
_symmetry_group_IT_number 58
_symmetry_cell_setting 'orthorhombic'
loop_
_space_group_symop_operation_xyz
x,y,z
-x,-y,z
1/2+x,1/2-y,1/2-z
1/2-x,1/2+y,1/2-z
-x,-y,-z
x,y,-z
1/2-x,1/2+y,1/2+z
1/2+x,1/2-y,1/2+z
loop_
_atom_site_type_symbol
_atom_site_label
_atom_site_fract_x
_atom_site_fract_y
_atom_site_fract_z
Si Si1 0.644598 0.041548 0.000000
Si Si2 0.801209 0.050116 0.305631
Si Si3 0.606720 0.359024 0.297068
Si Si4 0.687341 0.780204 0.284310
Si Si5 0.990730 0.650743 0.781736
O O1 0.726979 0.028070 0.846789
O O2 0.570924 0.078996 0.841068
O O3 0.755423 0.040358 0.500000
O O4 0.832708 0.165787 0.278435
O O5 0.883647 0.967424 0.296400
O O6 0.578395 0.379088 0.500000
O O7 0.712377 0.313562 0.287680
O O8 0.543860 0.265441 0.234586
O O9 0.694006 0.779218 0.500000
O O10 0.600366 0.850805 0.232191
O O11 0.980891 0.636854 0.000000
#
# Coordination Sequence:
#
# PCOD9445396 Si02
#       5
#     4   8   8   8   8
#     4  12  22  44  65  96 130 173 214 262 326 376
#     4  12  24  40  67  96 129 173 216 265 318 381
#     4  11  22  42  65  95 130 170 215 265 322 380
#     4  11  22  43  67  97 131 169 214 266 325 383
#     4  10  24  41  69  97 129 170 214 266 322 383
#
# _framework density 25.673712999999999
#
# number of rings (size 3 to 8) (size 9 to 14) (size 15 to 20)
#    0.000    0.889    4.444    2.000    4.667    0.889 
#    0.000    6.667    0.000    4.000    0.000    0.000 
#    0.000    0.000    0.000    0.000    0.000    0.000 
#
# Total GULP energy -200731.550480 kJ/mol
# GULP energy per Si atom -5575.876402 kJ/mol
# Density = 2.561528 g / cm^3
# Si number density = 25.673713 Si / 1000 Ang^3
#
#
#
# Elastic Constant Matrix: (Units=GPa)
#
#
# Indices 1 2 3 4 5 6 
#
# 1 96.5341 8.3081 19.5197 0.0000 0.0000 0.0000
# 2 8.3081 120.0515 -8.0297 0.0000 0.0000 0.0000
# 3 19.5197 -8.0297 142.8874 0.0000 0.0000 0.0000
# 4 0.0000 0.0000 0.0000 14.7165 0.0000 0.0000
# 5 0.0000 0.0000 0.0000 0.0000 17.4340 0.0000
# 6 0.0000 0.0000 0.0000 0.0000 0.0000 38.8569
#
#
#
# Elastic Compliance Matrix: (Units=1/GPa)
#
#
# Indices 1 2 3 4 5 6 
#
# 1 0.010738 -0.000844 -0.001514 0.000000 0.000000 0.000000
# 2 -0.000844 0.008428 0.000589 0.000000 0.000000 0.000000
# 3 -0.001514 0.000589 0.007238 0.000000 0.000000 0.000000
# 4 0.000000 0.000000 0.000000 0.067951 0.000000 0.000000
# 5 0.000000 0.000000 0.000000 0.000000 0.057359 0.000000
# 6 0.000000 0.000000 0.000000 0.000000 0.000000 0.025735
#
#
# Mechanical properties :
#
#
# Convention : Reuss Voigt Hill
#
# Bulk Modulus (GPa) = 43.73614 44.34104 44.03859
# Shear Modulus (GPa) = 26.50963 36.84646 31.67804
#
# Velocity S-wave (km/s) = 3.21683 3.79249 3.51646
# Velocity P-wave (km/s) = 5.55605 6.04035 5.80325
#
# Compressibility (1/GPa) = 0.02286439
#
# Stress axis : x y z
#
# Youngs Moduli (GPa) = 93.12796 118.65793 138.15036
#
# Poissons Ratio (x) = 0.10019 0.20921
# Poissons Ratio (y) = 0.07864 -0.08136
# Poissons Ratio (z) = 0.14103 -0.06988
#
# Static dielectric constant tensor:
#      x y z
#    x 1.952010 0.000000 0.000000 
#    y 0.000000 2.105560 0.000000 
#    z 0.000000 0.000000 1.963310 
# 
# From -- ./inp_files/5275.got.cif
#   From: 2010.05.17/outbox.cif.g08.bks.cpg/sg58_3_cif.got.tgz:5275.got - 2010.06.03 14:20:14.
