data_PCOD9445924
_publ_section_title
;
Structure prediction by ZEFSAII (Michael W. Deem and Ramdas Pophale) SiO2 
 PCOD9445924
Probable space group: P N N M
;
_chemical_formula_sum "Si O2"
_cell_formula_units_Z 64
_cell_length_a 15.000000
_cell_length_b 12.000000
_cell_length_c 18.000000
_cell_angle_alpha 90.000000
_cell_angle_beta 90.000000
_cell_angle_gamma 90.000000
_cell_volume 3240.000000
_symmetry_space_group_name_H-M "P N N M"
_symmetry_group_IT_number 58
_symmetry_cell_setting 'orthorhombic'
loop_
_space_group_symop_operation_xyz
x,y,z
-x,-y,z
1/2+x,1/2-y,1/2-z
1/2-x,1/2+y,1/2-z
-x,-y,-z
x,y,-z
1/2-x,1/2+y,1/2+z
1/2+x,1/2-y,1/2+z
loop_
_atom_site_type_symbol
_atom_site_label
_atom_site_fract_x
_atom_site_fract_y
_atom_site_fract_z
Si Si1 0.241694 0.090236 0.367979
Si Si2 0.545512 0.814957 0.180730
Si Si3 0.829250 0.957631 0.207021
Si Si4 0.881317 0.717673 0.771464
Si Si5 0.038856 0.118047 0.587450
Si Si6 0.804763 0.366000 0.586144
Si Si7 0.817802 0.211502 0.797868
Si Si8 0.697302 0.145585 0.418690
O O1 0.228957 0.047386 0.282787
O O2 0.143984 0.122813 0.396946
O O3 0.304113 0.199661 0.364743
O O4 0.273419 0.982053 0.411926
O O5 0.457456 0.846142 0.226510
O O6 0.510773 0.714475 0.130198
O O7 0.601173 0.892198 0.125044
O O8 0.618348 0.771695 0.239286
O O9 0.896311 0.852707 0.221663
O O10 0.770977 0.922292 0.136091
O O11 0.854871 0.086056 0.193343
O O12 0.783818 0.702702 0.733897
O O13 0.871365 0.671914 0.853914
O O14 0.022033 0.127489 0.500000
O O15 0.000000 0.000000 0.613576
O O16 0.802971 0.397436 0.500000
O O17 0.779962 0.232995 0.590428
O O18 0.660111 0.168472 0.500000
#
# Coordination Sequence:
#
# PCOD9445924 Si02
#       8
#     8   8   8   8   8   8   8   8
#     4  11  19  36  57  85 122 158 198 239 300 360
#     4  12  20  35  60  88 120 155 194 254 293 354
#     4  10  18  37  58  81 123 155 203 240 284 361
#     4  10  21  35  59  91 113 157 204 243 302 350
#     4  11  22  32  53  94 130 151 184 246 320 369
#     4  10  20  36  60  91 119 154 194 242 301 356
#     4  11  21  37  57  83 119 156 207 242 286 354
#     4  10  19  37  63  88 117 149 197 255 301 348
#
# _framework density 19.753086
#
# number of rings (size 3 to 8) (size 9 to 14) (size 15 to 20)
#    0.000    1.375    7.500    2.250    0.000    2.000 
#    0.000    3.750    0.000    3.750    0.000    3.500 
#    0.000    0.000    0.000    0.000    0.000    0.000 
#
# Total GULP energy -356849.668621 kJ/mol
# GULP energy per Si atom -5575.776072 kJ/mol
# Density = 1.970813 g / cm^3
# Si number density = 19.753086 Si / 1000 Ang^3
#
#
#
# Elastic Constant Matrix: (Units=GPa)
#
#
# Indices 1 2 3 4 5 6 
#
# 1 33.6632 -17.8494 23.4002 0.0000 0.0000 0.0000
# 2 -17.8494 31.7265 -16.7701 0.0000 0.0000 0.0000
# 3 23.4002 -16.7701 83.9796 0.0000 0.0000 0.0000
# 4 0.0000 0.0000 0.0000 -8.1517 0.0000 0.0000
# 5 0.0000 0.0000 0.0000 0.0000 5.6581 0.0000
# 6 0.0000 0.0000 0.0000 0.0000 0.0000 9.3810
#
#
#
# Elastic Compliance Matrix: (Units=1/GPa)
#
#
# Indices 1 2 3 4 5 6 
#
# 1 0.047563 0.022085 -0.008843 0.000000 0.000000 0.000000
# 2 0.022085 0.045494 0.002931 0.000000 0.000000 0.000000
# 3 -0.008843 0.002931 0.014957 0.000000 0.000000 0.000000
# 4 0.000000 0.000000 0.000000 -0.122674 0.000000 0.000000
# 5 0.000000 0.000000 0.000000 0.000000 0.176737 0.000000
# 6 0.000000 0.000000 0.000000 0.000000 0.000000 0.106598
#
#
# Mechanical properties :
#
#
# Convention : Reuss Voigt Hill
#
# Bulk Modulus (GPa) = 7.12453 14.10339 10.61396
# Shear Modulus (GPa) = 17.66059 12.08339 14.87199
#
# Velocity S-wave (km/s) = 2.99334 2.47598 2.74687
# Velocity P-wave (km/s) = 3.94479 3.91527 3.93006
#
# Compressibility (1/GPa) = 0.14036016
#
# Stress axis : x y z
#
# Youngs Moduli (GPa) = 21.02464 21.98105 66.85864
#
# Poissons Ratio (x) = -0.48545 0.59122
# Poissons Ratio (y) = -0.46433 -0.19596
# Poissons Ratio (z) = 0.18592 -0.06443
#
# Static dielectric constant tensor:
#      x y z
#    x 1.727150 0.000000 0.000000 
#    y 0.000000 1.746390 0.000000 
#    z 0.000000 0.000000 1.709460 
# 
# From -- ./inp_files/26996.got.cif
#   From: 2010.05.17/outbox.ucp.g08.bks.cvg/sg58_14_cif.got.tgz:26996.got - 2010.06.11 16:41:41.
