data_PCOD9445107
_publ_section_title
;
Structure prediction by ZEFSAII (Michael W. Deem and Ramdas Pophale) SiO2 
 PCOD9445107
Probable space group: P N N M
;
_chemical_formula_sum "Si O2"
_cell_formula_units_Z 32
_cell_length_a 8.934238
_cell_length_b 5.166446
_cell_length_c 32.806237
_cell_angle_alpha 90.000000
_cell_angle_beta 90.000000
_cell_angle_gamma 90.000000
_cell_volume 1514.278757
_symmetry_space_group_name_H-M "P N N M"
_symmetry_group_IT_number 58
_symmetry_cell_setting 'orthorhombic'
loop_
_space_group_symop_operation_xyz
x,y,z
-x,-y,z
1/2+x,1/2-y,1/2-z
1/2-x,1/2+y,1/2-z
-x,-y,-z
x,y,-z
1/2-x,1/2+y,1/2+z
1/2+x,1/2-y,1/2+z
loop_
_atom_site_type_symbol
_atom_site_label
_atom_site_fract_x
_atom_site_fract_y
_atom_site_fract_z
Si Si1 0.892522 0.251229 0.897787
Si Si2 0.097649 0.250973 0.549026
Si Si3 0.672810 0.577279 0.687792
Si Si4 0.604123 0.748758 0.225613
O O1 0.760554 0.254737 0.930717
O O2 0.810024 0.231599 0.853773
O O3 0.000000 0.500000 0.899303
O O4 0.000000 0.000000 0.902432
O O5 0.114756 0.257074 0.500000
O O6 0.000000 0.500000 0.561463
O O7 0.000000 0.000000 0.559921
O O8 0.500000 0.500000 0.688182
O O9 0.688587 0.722904 0.730926
O O10 0.776279 0.324460 0.691176
O O11 0.500000 0.500000 0.217998
O O12 0.500000 0.000000 0.228467
#
# Coordination Sequence:
#
# PCOD9445107 Si02
#       4
#     8   8   8   8
#     4  11  24  41  64  95 130 166 206 258 315 373
#     4  10  22  43  69  96 129 166 204 252 310 373
#     4  10  22  41  61  86 124 165 208 260 315 363
#     4  11  23  39  61  87 117 162 217 262 305 363
#
# _framework density 21.132173000000002
#
# number of rings (size 3 to 8) (size 9 to 14) (size 15 to 20)
#    0.000    1.500    0.000    5.250    0.000    8.000 
#    0.000    6.250    0.000    0.000    0.000    0.000 
#    0.000    0.000    0.000    0.000    0.000    0.000 
#
# Total GULP energy -178881.618342 kJ/mol
# GULP energy per Si atom -5590.050573 kJ/mol
# Density = 2.108407 g / cm^3
# Si number density = 21.132173 Si / 1000 Ang^3
#
#
#
# Elastic Constant Matrix: (Units=GPa)
#
#
# Indices 1 2 3 4 5 6 
#
# 1 148.3071 89.8321 62.4832 0.0000 0.0000 0.0000
# 2 89.8321 197.5667 52.3927 0.0000 0.0000 0.0000
# 3 62.4832 52.3927 62.4460 0.0000 0.0000 0.0000
# 4 0.0000 0.0000 0.0000 7.4761 0.0000 0.0000
# 5 0.0000 0.0000 0.0000 0.0000 19.7436 0.0000
# 6 0.0000 0.0000 0.0000 0.0000 0.0000 46.5098
#
#
#
# Elastic Compliance Matrix: (Units=1/GPa)
#
#
# Indices 1 2 3 4 5 6 
#
# 1 0.013042 -0.003176 -0.010385 0.000000 0.000000 0.000000
# 2 -0.003176 0.007284 -0.002933 0.000000 0.000000 0.000000
# 3 -0.010385 -0.002933 0.028866 0.000000 0.000000 0.000000
# 4 0.000000 0.000000 0.000000 0.133760 0.000000 0.000000
# 5 0.000000 0.000000 0.000000 0.000000 0.050649 0.000000
# 6 0.000000 0.000000 0.000000 0.000000 0.000000 0.021501
#
#
# Mechanical properties :
#
#
# Convention : Reuss Voigt Hill
#
# Bulk Modulus (GPa) = 61.71612 90.85954 76.28783
# Shear Modulus (GPa) = 17.03638 28.32002 22.67820
#
# Velocity S-wave (km/s) = 2.84242 3.66476 3.27947
# Velocity P-wave (km/s) = 6.32777 7.81002 7.10764
#
# Compressibility (1/GPa) = 0.01620322
#
# Stress axis : x y z
#
# Youngs Moduli (GPa) = 76.67664 137.29655 34.64328
#
# Poissons Ratio (x) = 0.43606 0.35976
# Poissons Ratio (y) = 0.24353 0.10161
# Poissons Ratio (z) = 0.79627 0.40269
#
# Static dielectric constant tensor:
#      x y z
#    x 1.747780 0.000000 0.000000 
#    y 0.000000 1.820070 0.000000 
#    z 0.000000 0.000000 1.790060 
# 
# From -- ./inp_files/34333.got.cif
#   From: 2010.05.17/outbox.cif.g08.bks.cpg/sg58_18_cif.got.tgz:34333.got - 2010.06.03 14:20:14.
