data_PCOD9445164
_publ_section_title
;
Structure prediction by ZEFSAII (Michael W. Deem and Ramdas Pophale) SiO2 
 PCOD9445164
Probable space group: P N N M
;
_chemical_formula_sum "Si O2"
_cell_formula_units_Z 58
_cell_length_a 9.198684
_cell_length_b 11.813363
_cell_length_c 24.015931
_cell_angle_alpha 90.000000
_cell_angle_beta 90.000000
_cell_angle_gamma 90.000000
_cell_volume 2609.748617
_symmetry_space_group_name_H-M "P N N M"
_symmetry_group_IT_number 58
_symmetry_cell_setting 'orthorhombic'
loop_
_space_group_symop_operation_xyz
x,y,z
-x,-y,z
1/2+x,1/2-y,1/2-z
1/2-x,1/2+y,1/2-z
-x,-y,-z
x,y,-z
1/2-x,1/2+y,1/2+z
1/2+x,1/2-y,1/2+z
loop_
_atom_site_type_symbol
_atom_site_label
_atom_site_fract_x
_atom_site_fract_y
_atom_site_fract_z
Si Si1 0.500000 0.500000 0.000000
Si Si2 0.956383 0.261241 0.637713
Si Si3 0.374733 0.416147 0.344982
Si Si4 0.496591 0.769900 0.585453
Si Si5 0.210876 0.421953 0.853396
Si Si6 0.743341 0.415515 0.563773
Si Si7 0.291158 0.632309 0.914220
Si Si8 0.404103 0.889751 0.768741
O O1 0.611658 0.448561 0.047531
O O2 0.856859 0.150479 0.640199
O O3 0.865617 0.355431 0.602795
O O4 0.103117 0.232412 0.605036
O O5 0.002025 0.294307 0.700181
O O6 0.500000 0.500000 0.323411
O O7 0.446515 0.296839 0.359889
O O8 0.314704 0.476381 0.401749
O O9 0.245180 0.402405 0.302386
O O10 0.396347 0.876925 0.598731
O O11 0.389652 0.675152 0.560073
O O12 0.645677 0.814961 0.559892
O O13 0.240794 0.553907 0.862224
O O14 0.136668 0.386922 0.795690
O O15 0.790127 0.439395 0.500000
O O16 0.500000 0.000000 0.777889
#
# Coordination Sequence:
#
# PCOD9445164 Si02
#       8
#     2   8   8   8   8   8   8   8
#     4  12  28  44  74 100 144 182 234 294 344 388
#     4  11  24  44  68 102 136 174 234 279 344 415
#     4  10  22  42  64 100 139 169 225 281 341 414
#     4  10  23  42  67  97 132 177 233 275 330 418
#     4  11  26  45  67  99 137 182 231 284 341 410
#     4  10  23  44  69  99 141 178 221 285 345 411
#     4  12  24  47  67 101 138 180 234 283 340 411
#     4  12  24  42  70  98 134 178 225 285 347 408
#
# _framework density 22.224361999999999
#
# number of rings (size 3 to 8) (size 9 to 14) (size 15 to 20)
#    0.000    1.103    4.138    1.241    3.862    4.690 
#    0.000    2.069    0.000    0.000    0.000    0.000 
#    0.000    0.000    0.000    0.000    0.000    0.000 
#
# Total GULP energy -323468.358205 kJ/mol
# GULP energy per Si atom -5577.040659 kJ/mol
# Density = 2.217378 g / cm^3
# Si number density = 22.224362 Si / 1000 Ang^3
#
#
#
# Elastic Constant Matrix: (Units=GPa)
#
#
# Indices 1 2 3 4 5 6 
#
# 1 105.2165 28.4337 5.3007 0.0000 0.0000 0.0000
# 2 28.4337 57.9058 7.6570 0.0000 0.0000 0.0000
# 3 5.3007 7.6570 58.6636 0.0000 0.0000 0.0000
# 4 0.0000 0.0000 0.0000 -39.4236 0.0000 0.0000
# 5 0.0000 0.0000 0.0000 0.0000 77.9416 0.0000
# 6 0.0000 0.0000 0.0000 0.0000 0.0000 40.6860
#
#
#
# Elastic Compliance Matrix: (Units=1/GPa)
#
#
# Indices 1 2 3 4 5 6 
#
# 1 0.010963 -0.005345 -0.000293 0.000000 0.000000 0.000000
# 2 -0.005345 0.020178 -0.002151 0.000000 0.000000 0.000000
# 3 -0.000293 -0.002151 0.017354 0.000000 0.000000 0.000000
# 4 0.000000 0.000000 0.000000 -0.025366 0.000000 0.000000
# 5 0.000000 0.000000 0.000000 0.000000 0.012830 0.000000
# 6 0.000000 0.000000 0.000000 0.000000 0.000000 0.024578
#
#
# Mechanical properties :
#
#
# Convention : Reuss Voigt Hill
#
# Bulk Modulus (GPa) = 30.37833 33.84097 32.10965
# Shear Modulus (GPa) = 57.41335 27.86709 42.64022
#
# Velocity S-wave (km/s) = 5.08818 3.54488 4.38496
# Velocity P-wave (km/s) = 6.94392 5.65818 6.33376
#
# Compressibility (1/GPa) = 0.03291821
#
# Stress axis : x y z
#
# Youngs Moduli (GPa) = 91.21337 49.55840 57.62507
#
# Poissons Ratio (x) = 0.26487 0.01689
# Poissons Ratio (y) = 0.48750 0.12394
# Poissons Ratio (z) = 0.02673 0.10659
#
# Static dielectric constant tensor:
#      x y z
#    x 1.811780 0.000000 0.000000 
#    y 0.000000 1.793200 0.000000 
#    z 0.000000 0.000000 1.846370 
# 
# From -- ./inp_files/33331.got.cif
#   From: 2010.05.17/outbox.cif.g08.bks.cpg/sg58_17_cif.got.tgz:33331.got - 2010.06.03 14:20:14.
