data_PCOD9445935
_publ_section_title
;
Structure prediction by ZEFSAII (Michael W. Deem and Ramdas Pophale) SiO2 
 PCOD9445935
Probable space group: P N N M
;
_chemical_formula_sum "Si O2"
_cell_formula_units_Z 64
_cell_length_a 18.000000
_cell_length_b 21.000000
_cell_length_c 9.000000
_cell_angle_alpha 90.000000
_cell_angle_beta 90.000000
_cell_angle_gamma 90.000000
_cell_volume 3402.000000
_symmetry_space_group_name_H-M "P N N M"
_symmetry_group_IT_number 58
_symmetry_cell_setting 'orthorhombic'
loop_
_space_group_symop_operation_xyz
x,y,z
-x,-y,z
1/2+x,1/2-y,1/2-z
1/2-x,1/2+y,1/2-z
-x,-y,-z
x,y,-z
1/2-x,1/2+y,1/2+z
1/2+x,1/2-y,1/2+z
loop_
_atom_site_type_symbol
_atom_site_label
_atom_site_fract_x
_atom_site_fract_y
_atom_site_fract_z
Si Si1 0.144309 0.903880 0.820972
Si Si2 0.273033 0.532245 0.680121
Si Si3 0.997491 0.156621 0.675948
Si Si4 0.766907 0.220131 0.172724
Si Si5 0.511498 0.897773 0.173736
Si Si6 0.430339 0.224192 0.329230
Si Si7 0.329590 0.662020 0.819595
Si Si8 0.118160 0.479540 0.327289
O O1 0.167935 0.976135 0.787500
O O2 0.204867 0.849513 0.768843
O O3 0.063540 0.887654 0.755648
O O4 0.141066 0.896744 0.000000
O O5 0.269286 0.540198 0.500000
O O6 0.287999 0.600708 0.752022
O O7 0.195816 0.501748 0.737000
O O8 0.992456 0.146806 0.500000
O O9 0.083759 0.152001 0.719749
O O10 0.971295 0.226885 0.721543
O O11 0.842669 0.261546 0.179552
O O12 0.703997 0.269198 0.232077
O O13 0.746786 0.208443 0.000000
O O14 0.547972 0.845078 0.275159
O O15 0.564697 0.959214 0.174074
O O16 0.430880 0.921067 0.231056
O O17 0.505460 0.877439 0.000000
O O18 0.452292 0.235777 0.500000
O O19 0.322813 0.661122 0.000000
O O20 0.132849 0.463035 0.500000
#
# Coordination Sequence:
#
# PCOD9445935 Si02
#       8
#     8   8   8   8   8   8   8   8
#     4   9  19  36  56  76 102 137 173 211 255 304
#     4  10  20  34  54  78 104 138 176 214 258 307
#     4  10  21  36  54  75  99 131 171 214 260 308
#     4   8  16  33  54  74  99 133 170 207 251 303
#     4   9  16  29  50  74 104 139 170 205 250 303
#     4  10  19  32  52  76 102 131 165 208 256 307
#     4  10  21  36  55  79 104 132 169 214 260 304
#     4   8  16  30  48  74 105 136 172 209 248 301
#
# _framework density 18.812463000000001
#
# number of rings (size 3 to 8) (size 9 to 14) (size 15 to 20)
#    0.000    2.750    0.000    3.000    0.000    3.000 
#    0.000   10.625    0.000    3.000    0.000    0.000 
#    0.000    0.000    0.000    0.000    0.000    0.000 
#
# Total GULP energy -356388.846892 kJ/mol
# GULP energy per Si atom -5568.575733 kJ/mol
# Density = 1.876965 g / cm^3
# Si number density = 18.812463 Si / 1000 Ang^3
#
#
#
# Elastic Constant Matrix: (Units=GPa)
#
#
# Indices 1 2 3 4 5 6 
#
# 1 47.7078 -10.3279 10.5912 0.0000 0.0000 0.0000
# 2 -10.3279 22.5782 -0.3284 0.0000 0.0000 0.0000
# 3 10.5912 -0.3284 3.0671 0.0000 0.0000 0.0000
# 4 0.0000 0.0000 0.0000 27.4634 0.0000 0.0000
# 5 0.0000 0.0000 0.0000 0.0000 13.4928 0.0000
# 6 0.0000 0.0000 0.0000 0.0000 0.0000 3.6962
#
#
#
# Elastic Compliance Matrix: (Units=1/GPa)
#
#
# Indices 1 2 3 4 5 6 
#
# 1 0.135408 0.055225 -0.461673 0.000000 0.000000 0.000000
# 2 0.055225 0.066882 -0.183540 0.000000 0.000000 0.000000
# 3 -0.461673 -0.183540 1.900614 0.000000 0.000000 0.000000
# 4 0.000000 0.000000 0.000000 0.036412 0.000000 0.000000
# 5 0.000000 0.000000 0.000000 0.000000 0.074114 0.000000
# 6 0.000000 0.000000 0.000000 0.000000 0.000000 0.270550
#
#
# Mechanical properties :
#
#
# Convention : Reuss Voigt Hill
#
# Bulk Modulus (GPa) = 1.08351 8.13590 4.60970
# Shear Modulus (GPa) = 1.25894 13.82501 7.54197
#
# Velocity S-wave (km/s) = 0.81894 2.71382 2.00443
# Velocity P-wave (km/s) = 1.21302 3.76216 2.79511
#
# Compressibility (1/GPa) = 0.92293026
#
# Stress axis : x y z
#
# Youngs Moduli (GPa) = 7.38507 14.95161 0.52615
#
# Poissons Ratio (x) = -0.82570 0.24291
# Poissons Ratio (y) = -0.40784 0.09657
# Poissons Ratio (z) = 3.40949 2.74421
#
# Static dielectric constant tensor:
#      x y z
#    x 1.687090 0.000000 0.000000 
#    y 0.000000 1.661870 0.000000 
#    z 0.000000 0.000000 1.640500 
# 
# From -- ./inp_files/8274.got.cif
#   From: 2010.05.17/outbox.ucp.g08.bks.cvg/sg58_5_cif.got.tgz:8274.got - 2010.06.11 16:41:41.
