data_PCOD9445383
_publ_section_title
;
Structure prediction by ZEFSAII (Michael W. Deem and Ramdas Pophale) SiO2 
 PCOD9445383
Probable space group: P N N M
;
_chemical_formula_sum "Si O2"
_cell_formula_units_Z 52
_cell_length_a 13.533514
_cell_length_b 8.977157
_cell_length_c 21.410343
_cell_angle_alpha 90.000000
_cell_angle_beta 90.000000
_cell_angle_gamma 90.000000
_cell_volume 2601.195667
_symmetry_space_group_name_H-M "P N N M"
_symmetry_group_IT_number 58
_symmetry_cell_setting 'orthorhombic'
loop_
_space_group_symop_operation_xyz
x,y,z
-x,-y,z
1/2+x,1/2-y,1/2-z
1/2-x,1/2+y,1/2-z
-x,-y,-z
x,y,-z
1/2-x,1/2+y,1/2+z
1/2+x,1/2-y,1/2+z
loop_
_atom_site_type_symbol
_atom_site_label
_atom_site_fract_x
_atom_site_fract_y
_atom_site_fract_z
Si Si1 0.023265 0.326781 0.788778
Si Si2 0.343437 0.652840 0.808039
Si Si3 0.043870 0.755962 0.500000
Si Si4 0.500000 0.500000 0.899394
Si Si5 0.001232 0.321050 0.931689
Si Si6 0.154848 0.445676 0.500000
Si Si7 0.891275 0.071097 0.218633
Si Si8 0.800796 0.168260 0.895779
O O1 0.044701 0.285836 0.862164
O O2 0.921065 0.241704 0.771029
O O3 0.000000 0.500000 0.784878
O O4 0.106154 0.269647 0.740330
O O5 0.423374 0.588359 0.856499
O O6 0.318503 0.508488 0.766247
O O7 0.258060 0.724845 0.848409
O O8 0.119367 0.617314 0.500000
O O9 0.049061 0.871033 0.557950
O O10 0.938315 0.668549 0.500000
O O11 0.889497 0.257477 0.928363
O O12 0.000000 0.500000 0.933306
O O13 0.043699 0.270988 0.000000
O O14 0.222722 0.405980 0.558824
O O15 0.853059 0.049778 0.149148
O O16 0.000000 0.000000 0.225461
#
# Coordination Sequence:
#
# PCOD9445383 Si02
#       8
#     8   8   4   4   8   4   8   8
#     4   9  18  33  60  90 125 161 212 256 313 382
#     4  11  21  38  63  91 128 164 204 266 316 388
#     4  10  24  40  68  86 131 166 209 258 318 386
#     4  11  20  42  64  88 119 176 202 254 323 372
#     4   9  18  35  60  87 125 169 211 258 312 378
#     4  11  22  42  62 102 123 164 218 256 315 384
#     4   9  20  40  58  83 129 166 202 258 322 375
#     4  11  22  37  66  93 129 163 214 272 311 375
#
# _framework density 19.990808000000001
#
# number of rings (size 3 to 8) (size 9 to 14) (size 15 to 20)
#    0.000    2.000    4.615    0.000    0.000    4.923 
#    2.769    0.385    5.077    0.000    0.000    0.000 
#    0.000    0.000    0.000    0.000    0.000    0.000 
#
# Total GULP energy -289558.487549 kJ/mol
# GULP energy per Si atom -5568.432453 kJ/mol
# Density = 1.994531 g / cm^3
# Si number density = 19.990808 Si / 1000 Ang^3
#
#
#
# Elastic Constant Matrix: (Units=GPa)
#
#
# Indices 1 2 3 4 5 6 
#
# 1 34.4776 25.5470 18.0602 0.0000 0.0000 0.0000
# 2 25.5470 119.9748 49.3032 0.0000 0.0000 0.0000
# 3 18.0602 49.3032 124.1493 0.0000 0.0000 0.0000
# 4 0.0000 0.0000 0.0000 38.3808 0.0000 0.0000
# 5 0.0000 0.0000 0.0000 0.0000 25.5379 0.0000
# 6 0.0000 0.0000 0.0000 0.0000 0.0000 22.0722
#
#
#
# Elastic Compliance Matrix: (Units=1/GPa)
#
#
# Indices 1 2 3 4 5 6 
#
# 1 0.035103 -0.006425 -0.002555 0.000000 0.000000 0.000000
# 2 -0.006425 0.011137 -0.003488 0.000000 0.000000 0.000000
# 3 -0.002555 -0.003488 0.009812 0.000000 0.000000 0.000000
# 4 0.000000 0.000000 0.000000 0.026055 0.000000 0.000000
# 5 0.000000 0.000000 0.000000 0.000000 0.039157 0.000000
# 6 0.000000 0.000000 0.000000 0.000000 0.000000 0.045306
#
#
# Mechanical properties :
#
#
# Convention : Reuss Voigt Hill
#
# Bulk Modulus (GPa) = 32.13796 51.60251 41.87023
# Shear Modulus (GPa) = 24.76751 29.57759 27.17255
#
# Velocity S-wave (km/s) = 3.52368 3.85068 3.69080
# Velocity P-wave (km/s) = 5.71545 6.75570 6.25723
#
# Compressibility (1/GPa) = 0.03111585
#
# Stress axis : x y z
#
# Youngs Moduli (GPa) = 28.48728 89.79454 101.91914
#
# Poissons Ratio (x) = 0.57691 0.26041
# Poissons Ratio (y) = 0.18302 0.35549
# Poissons Ratio (z) = 0.07279 0.31320
#
# Static dielectric constant tensor:
#      x y z
#    x 1.727360 0.000000 0.000000 
#    y 0.000000 1.641190 0.000000 
#    z 0.000000 0.000000 1.769900 
# 
# From -- ./inp_files/29977.got.cif
#   From: 2010.05.17/outbox.cif.g08.bks.cpg/sg58_15_cif.got.tgz:29977.got - 2010.06.03 14:20:14.
