data_PCOD9445635
_publ_section_title
;
Structure prediction by ZEFSAII (Michael W. Deem and Ramdas Pophale) SiO2 
 PCOD9445635
Probable space group: P N N M
;
_chemical_formula_sum "Si O2"
_cell_formula_units_Z 56
_cell_length_a 16.658892
_cell_length_b 20.142624
_cell_length_c 8.413785
_cell_angle_alpha 90.000000
_cell_angle_beta 90.000000
_cell_angle_gamma 90.000000
_cell_volume 2823.277511
_symmetry_space_group_name_H-M "P N N M"
_symmetry_group_IT_number 58
_symmetry_cell_setting 'orthorhombic'
loop_
_space_group_symop_operation_xyz
x,y,z
-x,-y,z
1/2+x,1/2-y,1/2-z
1/2-x,1/2+y,1/2-z
-x,-y,-z
x,y,-z
1/2-x,1/2+y,1/2+z
1/2+x,1/2-y,1/2+z
loop_
_atom_site_type_symbol
_atom_site_label
_atom_site_fract_x
_atom_site_fract_y
_atom_site_fract_z
Si Si1 0.118103 0.025063 0.180188
Si Si2 0.280803 0.111121 0.186708
Si Si3 0.093306 0.504713 0.305325
Si Si4 0.810478 0.625987 0.315845
Si Si5 0.013749 0.155523 0.186395
Si Si6 0.357560 0.391520 0.177240
Si Si7 0.671554 0.272198 0.690588
O O1 0.204426 0.061261 0.194064
O O2 0.051947 0.081957 0.196122
O O3 0.111512 0.966665 0.305027
O O4 0.111414 0.997856 0.000000
O O5 0.357071 0.069906 0.251569
O O6 0.244575 0.180669 0.252229
O O7 0.298641 0.122922 0.000000
O O8 0.096270 0.506209 0.500000
O O9 0.140152 0.437795 0.255166
O O10 0.000000 0.500000 0.258853
O O11 0.831734 0.634854 0.500000
O O12 0.716438 0.611629 0.296616
O O13 0.822782 0.695344 0.228293
O O14 0.930383 0.156384 0.277663
O O15 0.085421 0.201428 0.249747
O O16 0.999536 0.169841 0.000000
O O17 0.328438 0.377891 0.000000
O O18 0.670500 0.282817 0.500000
#
# Coordination Sequence:
#
# PCOD9445635 Si02
#       7
#     8   8   8   8   8   8   8
#     4   9  16  31  55  80 107 144 182 216 269 340
#     4   8  14  30  56  81 108 145 186 224 271 341
#     4   9  17  32  58  88 110 139 191 245 282 330
#     4  11  22  38  59  81 114 152 191 238 290 349
#     4   9  19  35  56  79 109 150 188 222 275 349
#     4  12  23  33  51  81 114 145 185 234 283 331
#     4   9  19  37  59  82 112 150 189 234 290 349
#
# _framework density 19.835103
#
# number of rings (size 3 to 8) (size 9 to 14) (size 15 to 20)
#    0.000    2.429    1.429    3.857    0.000    2.857 
#    2.571    2.143    0.000    1.714    0.000    0.000 
#    0.000    0.000    0.000    0.000    0.000    0.000 
#
# Total GULP energy -312193.383104 kJ/mol
# GULP energy per Si atom -5574.881841 kJ/mol
# Density = 1.978996 g / cm^3
# Si number density = 19.835103 Si / 1000 Ang^3
#
#
#
# Elastic Constant Matrix: (Units=GPa)
#
#
# Indices 1 2 3 4 5 6 
#
# 1 108.3417 33.4664 0.3827 0.0000 0.0000 0.0000
# 2 33.4664 80.5163 5.7168 0.0000 0.0000 0.0000
# 3 0.3827 5.7168 9.3017 0.0000 0.0000 0.0000
# 4 0.0000 0.0000 0.0000 24.4803 0.0000 0.0000
# 5 0.0000 0.0000 0.0000 0.0000 13.9124 0.0000
# 6 0.0000 0.0000 0.0000 0.0000 0.0000 -0.6386
#
#
#
# Elastic Compliance Matrix: (Units=1/GPa)
#
#
# Indices 1 2 3 4 5 6 
#
# 1 0.010640 -0.004592 0.002384 0.000000 0.000000 0.000000
# 2 -0.004592 0.014968 -0.009011 0.000000 0.000000 0.000000
# 3 0.002384 -0.009011 0.112946 0.000000 0.000000 0.000000
# 4 0.000000 0.000000 0.000000 0.040849 0.000000 0.000000
# 5 0.000000 0.000000 0.000000 0.000000 0.071878 0.000000
# 6 0.000000 0.000000 0.000000 0.000000 0.000000 -1.565951
#
#
# Mechanical properties :
#
#
# Convention : Reuss Voigt Hill
#
# Bulk Modulus (GPa) = 8.61187 30.81018 19.71103
# Shear Modulus (GPa) = -3.98875 18.12374 7.06750
#
# Velocity S-wave (km/s) = -1.41962 3.02606 1.88967
# Velocity P-wave (km/s) = 1.28999 5.27032 3.83669
#
# Compressibility (1/GPa) = 0.11611876
#
# Stress axis : x y z
#
# Youngs Moduli (GPa) = 93.98474 66.80841 8.85375
#
# Poissons Ratio (x) = 0.30677 -0.02111
# Poissons Ratio (y) = 0.43156 0.07978
# Poissons Ratio (z) = -0.22409 0.60198
#
# Static dielectric constant tensor:
#      x y z
#    x 1.721140 0.000000 0.000000 
#    y 0.000000 1.717000 0.000000 
#    z 0.000000 0.000000 1.686640 
# 
# From -- ./inp_files/6329.got.cif
#   From: 2010.05.17/outbox.cif.g08.bks.cpg/sg58_4_cif.got.tgz:6329.got - 2010.06.03 14:20:14.
