data_PCOD9445908
_publ_section_title
;
Structure prediction by ZEFSAII (Michael W. Deem and Ramdas Pophale) SiO2 
 PCOD9445908
Probable space group: P N N M
;
_chemical_formula_sum "Si O2"
_cell_formula_units_Z 64
_cell_length_a 18.000000
_cell_length_b 24.000000
_cell_length_c 9.000000
_cell_angle_alpha 90.000000
_cell_angle_beta 90.000000
_cell_angle_gamma 90.000000
_cell_volume 3888.000000
_symmetry_space_group_name_H-M "P N N M"
_symmetry_group_IT_number 58
_symmetry_cell_setting 'orthorhombic'
loop_
_space_group_symop_operation_xyz
x,y,z
-x,-y,z
1/2+x,1/2-y,1/2-z
1/2-x,1/2+y,1/2-z
-x,-y,-z
x,y,-z
1/2-x,1/2+y,1/2+z
1/2+x,1/2-y,1/2+z
loop_
_atom_site_type_symbol
_atom_site_label
_atom_site_fract_x
_atom_site_fract_y
_atom_site_fract_z
Si Si1 0.876188 0.564443 0.179924
Si Si2 0.691187 0.755668 0.674089
Si Si3 0.224075 0.141498 0.824838
Si Si4 0.586988 0.285726 0.668212
Si Si5 0.816706 0.447532 0.822282
Si Si6 0.472323 0.113725 0.322292
Si Si7 0.538276 0.768490 0.172551
Si Si8 0.301544 0.819679 0.328667
O O1 0.835044 0.509424 0.234087
O O2 0.837116 0.622335 0.220089
O O3 0.962792 0.570524 0.219323
O O4 0.874846 0.560970 0.000000
O O5 0.693809 0.764351 0.500000
O O6 0.727125 0.809654 0.751621
O O7 0.608823 0.750960 0.733010
O O8 0.737061 0.701933 0.723729
O O9 0.139743 0.161694 0.803506
O O10 0.248855 0.083707 0.754290
O O11 0.238793 0.141317 0.000000
O O12 0.556141 0.289218 0.500000
O O13 0.526153 0.274933 0.791236
O O14 0.638584 0.230353 0.670714
O O15 0.891343 0.411438 0.795177
O O16 0.805264 0.448707 0.000000
O O17 0.478906 0.125212 0.500000
O O18 0.483676 0.170593 0.233748
O O19 0.555825 0.771727 0.000000
O O20 0.275823 0.825196 0.500000
#
# Coordination Sequence:
#
# PCOD9445908 Si02
#       8
#     8   8   8   8   8   8   8   8
#     4   9  17  31  50  72  99 135 174 204 238 284
#     4  11  21  33  50  70  96 128 165 204 247 299
#     4  10  20  34  50  70  98 130 163 205 250 290
#     4   9  18  33  51  69  94 129 164 198 246 298
#     4  10  19  30  50  74  98 135 176 206 233 283
#     4  10  18  31  47  68 100 137 174 203 232 278
#     4  12  22  31  48  74 101 128 162 203 251 296
#     4   9  17  32  51  71  98 129 164 205 245 287
#
# _framework density 16.460905
#
# number of rings (size 3 to 8) (size 9 to 14) (size 15 to 20)
#    0.000    2.000    2.500    3.750    0.000    4.000 
#    0.000    1.250    0.000    1.500    0.000    0.875 
#    0.000    7.000    0.000    0.000    0.000    0.000 
#
# Total GULP energy -356792.259963 kJ/mol
# GULP energy per Si atom -5574.879062 kJ/mol
# Density = 1.642344 g / cm^3
# Si number density = 16.460905 Si / 1000 Ang^3
#
#
#
# Elastic Constant Matrix: (Units=GPa)
#
#
# Indices 1 2 3 4 5 6 
#
# 1 14.4201 -3.1721 0.6866 0.0000 0.0000 0.0000
# 2 -3.1721 1.9496 -10.7320 0.0000 0.0000 0.0000
# 3 0.6866 -10.7320 -13.6791 0.0000 0.0000 0.0000
# 4 0.0000 0.0000 0.0000 20.0196 0.0000 0.0000
# 5 0.0000 0.0000 0.0000 0.0000 22.6724 0.0000
# 6 0.0000 0.0000 0.0000 0.0000 0.0000 9.0947
#
#
#
# Elastic Compliance Matrix: (Units=1/GPa)
#
#
# Indices 1 2 3 4 5 6 
#
# 1 0.076181 0.027262 -0.017565 0.000000 0.000000 0.000000
# 2 0.027262 0.106194 -0.081946 0.000000 0.000000 0.000000
# 3 -0.017565 -0.081946 -0.009695 0.000000 0.000000 0.000000
# 4 0.000000 0.000000 0.000000 0.049951 0.000000 0.000000
# 5 0.000000 0.000000 0.000000 0.000000 0.044106 0.000000
# 6 0.000000 0.000000 0.000000 0.000000 0.000000 0.109954
#
#
# Mechanical properties :
#
#
# Convention : Reuss Voigt Hill
#
# Bulk Modulus (GPa) = 35.48313 -2.63826 16.42244
# Shear Modulus (GPa) = 9.42359 11.41789 10.42074
#
# Velocity S-wave (km/s) = 2.39526 2.63656 2.51880
# Velocity P-wave (km/s) = 5.40856 2.76809 4.29621
#
# Compressibility (1/GPa) = 0.02818240
#
# Stress axis : x y z
#
# Youngs Moduli (GPa) = 13.12663 9.41673 -103.14878
#
# Poissons Ratio (x) = -0.25672 -1.81178
# Poissons Ratio (y) = -0.35786 -8.45265
# Poissons Ratio (z) = 0.23057 0.77167
#
# Static dielectric constant tensor:
#      x y z
#    x 1.590570 0.000000 0.000000 
#    y 0.000000 1.557260 0.000000 
#    z 0.000000 0.000000 1.547810 
# 
# From -- ./inp_files/8508.got.cif
#   From: 2010.05.17/outbox.ucp.g08.bks.cvg/sg58_5_cif.got.tgz:8508.got - 2010.06.11 16:41:41.
