data_PCOD9445872
_publ_section_title
;
Structure prediction by ZEFSAII (Michael W. Deem and Ramdas Pophale) SiO2 
 PCOD9445872
Probable space group: P N N M
;
_chemical_formula_sum "Si O2"
_cell_formula_units_Z 48
_cell_length_a 9.533403
_cell_length_b 33.271380
_cell_length_c 7.493577
_cell_angle_alpha 90.000000
_cell_angle_beta 90.000000
_cell_angle_gamma 90.000000
_cell_volume 2376.883746
_symmetry_space_group_name_H-M "P N N M"
_symmetry_group_IT_number 58
_symmetry_cell_setting 'orthorhombic'
loop_
_space_group_symop_operation_xyz
x,y,z
-x,-y,z
1/2+x,1/2-y,1/2-z
1/2-x,1/2+y,1/2-z
-x,-y,-z
x,y,-z
1/2-x,1/2+y,1/2+z
1/2+x,1/2-y,1/2+z
loop_
_atom_site_type_symbol
_atom_site_label
_atom_site_fract_x
_atom_site_fract_y
_atom_site_fract_z
Si Si1 0.086106 0.960973 0.280997
Si Si2 0.606187 0.124521 0.787829
Si Si3 0.408409 0.963043 0.285898
Si Si4 0.068881 0.874333 0.702879
Si Si5 0.066811 0.289229 0.289165
Si Si6 0.897450 0.212790 0.716690
O O1 0.085392 0.959645 0.500000
O O2 0.247606 0.964902 0.222137
O O3 0.027332 0.917603 0.218789
O O4 0.000000 0.000000 0.226354
O O5 0.535454 0.081635 0.755181
O O6 0.760570 0.123113 0.700629
O O7 0.533432 0.165568 0.723452
O O8 0.629418 0.128424 0.000000
O O9 0.403502 0.966350 0.500000
O O10 0.500000 0.000000 0.217318
O O11 0.015420 0.873451 0.500000
O O12 0.043015 0.830273 0.783328
O O13 0.037019 0.289259 0.500000
O O14 0.233518 0.283940 0.263662
O O15 0.981816 0.251418 0.215648
O O16 0.905210 0.211144 0.500000
#
# Coordination Sequence:
#
# PCOD9445872 Si02
#       6
#     8   8   8   8   8   8
#     4   8  13  23  41  62  81 103 133 169 209 249
#     4   9  16  27  44  63  85 114 145 175 212 261
#     4   9  17  29  44  63  86 110 140 177 212 251
#     4   8  14  26  44  62  81 110 146 178 211 256
#     4   9  18  31  46  67  92 117 150 190 228 268
#     4   9  17  30  47  66  89 117 150 187 224 264
#
# _framework density 20.194509
#
# number of rings (size 3 to 8) (size 9 to 14) (size 15 to 20)
#    0.000    3.333    0.000    1.500    0.000    1.667 
#    0.000    1.667    0.000   12.000    0.000    0.000 
#    0.000    0.000    0.000    0.000    0.000    0.000 
#
# Total GULP energy -267228.339520 kJ/mol
# GULP energy per Si atom -5567.257073 kJ/mol
# Density = 2.014855 g / cm^3
# Si number density = 20.194509 Si / 1000 Ang^3
#
#
#
# Elastic Constant Matrix: (Units=GPa)
#
#
# Indices 1 2 3 4 5 6 
#
# 1 34.2681 68.7801 -4.5776 0.0000 0.0000 0.0000
# 2 68.7801 266.1426 -0.8112 0.0000 0.0000 0.0000
# 3 -4.5776 -0.8112 58.7483 0.0000 0.0000 0.0000
# 4 0.0000 0.0000 0.0000 9.0518 0.0000 0.0000
# 5 0.0000 0.0000 0.0000 0.0000 6.9618 0.0000
# 6 0.0000 0.0000 0.0000 0.0000 0.0000 36.1467
#
#
#
# Elastic Compliance Matrix: (Units=1/GPa)
#
#
# Indices 1 2 3 4 5 6 
#
# 1 0.061849 -0.015970 0.004599 0.000000 0.000000 0.000000
# 2 -0.015970 0.007881 -0.001136 0.000000 0.000000 0.000000
# 3 0.004599 -0.001136 0.017364 0.000000 0.000000 0.000000
# 4 0.000000 0.000000 0.000000 0.110475 0.000000 0.000000
# 5 0.000000 0.000000 0.000000 0.000000 0.143640 0.000000
# 6 0.000000 0.000000 0.000000 0.000000 0.000000 0.027665
#
#
# Mechanical properties :
#
#
# Convention : Reuss Voigt Hill
#
# Bulk Modulus (GPa) = 16.10786 53.99351 35.05069
# Shear Modulus (GPa) = 12.06034 30.14993 21.10514
#
# Velocity S-wave (km/s) = 2.44644 3.86810 3.23630
# Velocity P-wave (km/s) = 3.99672 6.83698 5.59991
#
# Compressibility (1/GPa) = 0.06208150
#
# Stress axis : x y z
#
# Youngs Moduli (GPa) = 16.16831 126.88618 57.58903
#
# Poissons Ratio (x) = 2.02636 -0.26484
# Poissons Ratio (y) = 0.25821 0.06540
# Poissons Ratio (z) = -0.07435 0.14409
#
# Static dielectric constant tensor:
#      x y z
#    x 1.657910 0.000000 0.000000 
#    y 0.000000 1.802440 0.000000 
#    z 0.000000 0.000000 1.752060 
# 
# From -- ./inp_files/4495.got.cif
#   From: 2010.05.17/outbox.cif.g08.bks.cpg/sg58_3_cif.got.tgz:4495.got - 2010.06.03 14:20:14.
