data_PCOD9445255
_publ_section_title
;
Structure prediction by ZEFSAII (Michael W. Deem and Ramdas Pophale) SiO2 
 PCOD9445255
Probable space group: P N N M
;
_chemical_formula_sum "Si O2"
_cell_formula_units_Z 28
_cell_length_a 10.801880
_cell_length_b 5.043421
_cell_length_c 22.981803
_cell_angle_alpha 90.000000
_cell_angle_beta 90.000000
_cell_angle_gamma 90.000000
_cell_volume 1252.012510
_symmetry_space_group_name_H-M "P N N M"
_symmetry_group_IT_number 58
_symmetry_cell_setting 'orthorhombic'
loop_
_space_group_symop_operation_xyz
x,y,z
-x,-y,z
1/2+x,1/2-y,1/2-z
1/2-x,1/2+y,1/2-z
-x,-y,-z
x,y,-z
1/2-x,1/2+y,1/2+z
1/2+x,1/2-y,1/2+z
loop_
_atom_site_type_symbol
_atom_site_label
_atom_site_fract_x
_atom_site_fract_y
_atom_site_fract_z
Si Si1 0.626129 0.171558 0.431627
Si Si2 0.919734 0.256070 0.772953
Si Si3 0.000000 0.500000 0.340954
Si Si4 0.252567 0.311764 0.624378
O O1 0.629418 0.234354 0.500000
O O2 0.660674 0.445878 0.398692
O O3 0.500000 0.000000 0.421918
O O4 0.724644 0.953572 0.411566
O O5 0.924350 0.307683 0.703879
O O6 0.792760 0.239876 0.808027
O O7 0.000000 0.500000 0.796999
O O8 0.000000 0.000000 0.784270
O O9 0.108458 0.374344 0.377586
#
# Coordination Sequence:
#
# PCOD9445255 Si02
#       4
#     8   8   4   8
#     4  11  25  46  72  99 126 168 230 288 331 382
#     4  10  23  39  63  92 131 175 214 265 310 388
#     4  10  30  38  67  98 145 172 224 256 328 416
#     4  12  24  43  68  99 136 178 215 273 337 389
#
# _framework density 22.363992
#
# number of rings (size 3 to 8) (size 9 to 14) (size 15 to 20)
#    0.857    0.286    0.000    6.000    8.000    2.286 
#    0.000    4.286    0.000    0.000    0.000    0.000 
#    0.000    0.000    0.000    0.000    0.000    0.000 
#
# Total GULP energy -156344.922752 kJ/mol
# GULP energy per Si atom -5583.747241 kJ/mol
# Density = 2.231309 g / cm^3
# Si number density = 22.363992 Si / 1000 Ang^3
#
#
#
# Elastic Constant Matrix: (Units=GPa)
#
#
# Indices 1 2 3 4 5 6 
#
# 1 70.0089 -9.8469 -6.4571 0.0000 0.0000 0.0000
# 2 -9.8469 121.8201 1.9579 0.0000 0.0000 0.0000
# 3 -6.4571 1.9579 65.3150 0.0000 0.0000 0.0000
# 4 0.0000 0.0000 0.0000 36.2859 0.0000 0.0000
# 5 0.0000 0.0000 0.0000 0.0000 -28.6314 0.0000
# 6 0.0000 0.0000 0.0000 0.0000 0.0000 27.3440
#
#
#
# Elastic Compliance Matrix: (Units=1/GPa)
#
#
# Indices 1 2 3 4 5 6 
#
# 1 0.014576 0.001156 0.001406 0.000000 0.000000 0.000000
# 2 0.001156 0.008304 -0.000135 0.000000 0.000000 0.000000
# 3 0.001406 -0.000135 0.015453 0.000000 0.000000 0.000000
# 4 0.000000 0.000000 0.000000 0.027559 0.000000 0.000000
# 5 0.000000 0.000000 0.000000 0.000000 -0.034927 0.000000
# 6 0.000000 0.000000 0.000000 0.000000 0.000000 0.036571
#
#
# Mechanical properties :
#
#
# Convention : Reuss Voigt Hill
#
# Bulk Modulus (GPa) = 23.15424 25.38352 24.26888
# Shear Modulus (GPa) = 64.86847 25.09904 44.98375
#
# Velocity S-wave (km/s) = 5.39154 3.35370 4.48977
# Velocity P-wave (km/s) = 7.00958 5.13530 6.14432
#
# Compressibility (1/GPa) = 0.04318864
#
# Stress axis : x y z
#
# Youngs Moduli (GPa) = 68.60526 120.41809 64.71029
#
# Poissons Ratio (x) = -0.13916 -0.09101
# Poissons Ratio (y) = -0.07928 0.00872
# Poissons Ratio (z) = -0.09648 0.01622
#
# Static dielectric constant tensor:
#      x y z
#    x 1.837790 0.000000 0.000000 
#    y 0.000000 1.819420 0.000000 
#    z 0.000000 0.000000 1.875540 
# 
# From -- ./inp_files/34322.got.cif
#   From: 2010.05.17/outbox.cif.g08.bks.cpg/sg58_18_cif.got.tgz:34322.got - 2010.06.03 14:20:14.
