data_PCOD9445054
_publ_section_title
;
Structure prediction by ZEFSAII (Michael W. Deem and Ramdas Pophale) SiO2 
 PCOD9445054
Probable space group: P N N M
;
_chemical_formula_sum "Si O2"
_cell_formula_units_Z 48
_cell_length_a 20.212153
_cell_length_b 14.435585
_cell_length_c 8.877535
_cell_angle_alpha 90.000000
_cell_angle_beta 90.000000
_cell_angle_gamma 90.000000
_cell_volume 2590.236140
_symmetry_space_group_name_H-M "P N N M"
_symmetry_group_IT_number 58
_symmetry_cell_setting 'orthorhombic'
loop_
_space_group_symop_operation_xyz
x,y,z
-x,-y,z
1/2+x,1/2-y,1/2-z
1/2-x,1/2+y,1/2-z
-x,-y,-z
x,y,-z
1/2-x,1/2+y,1/2+z
1/2+x,1/2-y,1/2+z
loop_
_atom_site_type_symbol
_atom_site_label
_atom_site_fract_x
_atom_site_fract_y
_atom_site_fract_z
Si Si1 0.075599 0.840546 0.821250
Si Si2 0.375521 0.523955 0.820071
Si Si3 0.701664 0.755137 0.821719
Si Si4 0.269790 0.029771 0.820678
Si Si5 0.058756 0.222462 0.680049
Si Si6 0.663586 0.142714 0.679779
O O1 0.080272 0.943667 0.752565
O O2 0.143304 0.790065 0.773376
O O3 0.013700 0.787244 0.749957
O O4 0.069381 0.845195 0.000000
O O5 0.301564 0.514776 0.755728
O O6 0.403420 0.625787 0.785247
O O7 0.374552 0.511865 0.000000
O O8 0.771450 0.705713 0.788522
O O9 0.708693 0.864417 0.793914
O O10 0.687850 0.740666 0.000000
O O11 0.320748 0.956496 0.751840
O O12 0.263439 0.015759 0.000000
O O13 0.054899 0.231558 0.500000
O O14 0.101005 0.305662 0.749601
O O15 0.656606 0.135472 0.500000
#
# Coordination Sequence:
#
# PCOD9445054 Si02
#       6
#     8   8   8   8   8   8
#     4  12  25  39  61  90 124 162 204 250 303 364
#     4  11  22  37  60  90 124 160 198 247 303 360
#     4  10  22  40  62  88 123 161 200 248 301 356
#     4  11  22  38  62  92 122 157 202 249 297 354
#     4  11  24  41  62  88 124 164 204 249 304 363
#     4  11  22  39  63  91 124 159 200 250 301 357
#
# _framework density 18.531127999999999
#
# number of rings (size 3 to 8) (size 9 to 14) (size 15 to 20)
#    0.000    1.000    3.333    4.000    0.000    6.000 
#    0.000    0.833    0.000    5.000    0.000    0.000 
#    0.000    0.000    0.000    0.000    0.000    0.000 
#
# Total GULP energy -268535.875521 kJ/mol
# GULP energy per Si atom -5594.497407 kJ/mol
# Density = 1.848895 g / cm^3
# Si number density = 18.531128 Si / 1000 Ang^3
#
#
#
# Elastic Constant Matrix: (Units=GPa)
#
#
# Indices 1 2 3 4 5 6 
#
# 1 37.7161 -15.5259 13.3860 0.0000 0.0000 0.0000
# 2 -15.5259 55.5398 19.4550 0.0000 0.0000 0.0000
# 3 13.3860 19.4550 54.0426 0.0000 0.0000 0.0000
# 4 0.0000 0.0000 0.0000 28.9075 0.0000 0.0000
# 5 0.0000 0.0000 0.0000 0.0000 27.9978 0.0000
# 6 0.0000 0.0000 0.0000 0.0000 0.0000 27.2813
#
#
#
# Elastic Compliance Matrix: (Units=1/GPa)
#
#
# Indices 1 2 3 4 5 6 
#
# 1 0.038651 0.016201 -0.015406 0.000000 0.000000 0.000000
# 2 0.016201 0.027394 -0.013875 0.000000 0.000000 0.000000
# 3 -0.015406 -0.013875 0.027315 0.000000 0.000000 0.000000
# 4 0.000000 0.000000 0.000000 0.034593 0.000000 0.000000
# 5 0.000000 0.000000 0.000000 0.000000 0.035717 0.000000
# 6 0.000000 0.000000 0.000000 0.000000 0.000000 0.036655
#
#
# Mechanical properties :
#
#
# Convention : Reuss Voigt Hill
#
# Bulk Modulus (GPa) = 14.88072 20.21430 17.54751
# Shear Modulus (GPa) = 20.08964 25.50287 22.79626
#
# Velocity S-wave (km/s) = 3.29614 3.71377 3.51117
# Velocity P-wave (km/s) = 4.74696 5.41492 5.09191
#
# Compressibility (1/GPa) = 0.06720106
#
# Stress axis : x y z
#
# Youngs Moduli (GPa) = 25.87259 36.50399 36.61031
#
# Poissons Ratio (x) = -0.59141 0.56402
# Poissons Ratio (y) = -0.41917 0.50796
# Poissons Ratio (z) = 0.39859 0.50648
#
# Static dielectric constant tensor:
#      x y z
#    x 1.614100 0.000000 0.000000 
#    y 0.000000 1.627500 0.000000 
#    z 0.000000 0.000000 1.614340 
# 
# From -- ./inp_files/5741.got.cif
#   From: 2010.05.17/outbox.cif.g08.bks.cpg/sg58_3_cif.got.tgz:5741.got - 2010.06.03 14:20:14.
