data_PCOD9445991
_publ_section_title
;
Structure prediction by ZEFSAII (Michael W. Deem and Ramdas Pophale) SiO2 
 PCOD9445991
Probable space group: P N N M
;
_chemical_formula_sum "Si O2"
_cell_formula_units_Z 48
_cell_length_a 18.000000
_cell_length_b 15.000000
_cell_length_c 9.000000
_cell_angle_alpha 90.000000
_cell_angle_beta 90.000000
_cell_angle_gamma 90.000000
_cell_volume 2430.000000
_symmetry_space_group_name_H-M "P N N M"
_symmetry_group_IT_number 58
_symmetry_cell_setting 'orthorhombic'
loop_
_space_group_symop_operation_xyz
x,y,z
-x,-y,z
1/2+x,1/2-y,1/2-z
1/2-x,1/2+y,1/2-z
-x,-y,-z
x,y,-z
1/2-x,1/2+y,1/2+z
1/2+x,1/2-y,1/2+z
loop_
_atom_site_type_symbol
_atom_site_label
_atom_site_fract_x
_atom_site_fract_y
_atom_site_fract_z
Si Si1 0.310034 0.863900 0.675286
Si Si2 0.003507 0.106064 0.671540
Si Si3 0.154031 0.855357 0.330217
Si Si4 0.578986 0.972697 0.672554
Si Si5 0.692175 0.853439 0.832603
Si Si6 0.840677 0.822519 0.677477
O O1 0.302260 0.837823 0.500000
O O2 0.229397 0.898199 0.730416
O O3 0.335401 0.779478 0.769426
O O4 0.368836 0.941610 0.680091
O O5 0.003481 0.140485 0.500000
O O6 0.081740 0.137668 0.735364
O O7 0.925939 0.135620 0.743842
O O8 0.000000 0.000000 0.667732
O O9 0.145369 0.890537 0.500000
O O10 0.176133 0.751999 0.334441
O O11 0.569195 0.946355 0.500000
O O12 0.621088 0.896849 0.759101
O O13 0.500000 0.000000 0.735977
O O14 0.767465 0.869038 0.742162
O O15 0.701714 0.885193 0.000000
O O16 0.838066 0.829676 0.500000
#
# Coordination Sequence:
#
# PCOD9445991 Si02
#       6
#     8   8   8   8   8   8
#     4   9  19  36  57  77 109 150 181 221 278 336
#     4   9  18  30  51  82 108 135 178 228 269 318
#     4   8  16  32  52  75 103 140 181 218 266 323
#     4  10  22  37  56  85 115 145 186 233 284 337
#     4  10  21  37  57  79 111 150 187 227 277 336
#     4  10  20  34  57  84 110 140 184 233 275 328
#
# _framework density 19.753086
#
# number of rings (size 3 to 8) (size 9 to 14) (size 15 to 20)
#    0.000    2.667    0.000    2.000    4.667    1.000 
#    0.000    0.000    0.000    3.000    0.000    0.000 
#    0.000    0.000    0.000    0.000    0.000    0.000 
#
# Total GULP energy -267292.485687 kJ/mol
# GULP energy per Si atom -5568.593452 kJ/mol
# Density = 1.970813 g / cm^3
# Si number density = 19.753086 Si / 1000 Ang^3
#
#
#
# Elastic Constant Matrix: (Units=GPa)
#
#
# Indices 1 2 3 4 5 6 
#
# 1 168.7925 23.1638 22.1958 0.0000 0.0000 0.0000
# 2 23.1638 25.9858 6.9612 0.0000 0.0000 0.0000
# 3 22.1958 6.9612 32.7235 0.0000 0.0000 0.0000
# 4 0.0000 0.0000 0.0000 12.8710 0.0000 0.0000
# 5 0.0000 0.0000 0.0000 0.0000 -10.1245 0.0000
# 6 0.0000 0.0000 0.0000 0.0000 0.0000 26.3811
#
#
#
# Elastic Compliance Matrix: (Units=1/GPa)
#
#
# Indices 1 2 3 4 5 6 
#
# 1 0.007150 -0.005381 -0.003705 0.000000 0.000000 0.000000
# 2 -0.005381 0.044858 -0.005893 0.000000 0.000000 0.000000
# 3 -0.003705 -0.005893 0.034326 0.000000 0.000000 0.000000
# 4 0.000000 0.000000 0.000000 0.077694 0.000000 0.000000
# 5 0.000000 0.000000 0.000000 0.000000 -0.098770 0.000000
# 6 0.000000 0.000000 0.000000 0.000000 0.000000 0.037906
#
#
# Mechanical properties :
#
#
# Convention : Reuss Voigt Hill
#
# Bulk Modulus (GPa) = 17.73807 36.90486 27.32146
# Shear Modulus (GPa) = 32.91360 17.50425 25.20892
#
# Velocity S-wave (km/s) = 4.08640 2.98006 3.57627
# Velocity P-wave (km/s) = 5.59145 5.52853 5.56008
#
# Compressibility (1/GPa) = 0.05637593
#
# Stress axis : x y z
#
# Youngs Moduli (GPa) = 139.85815 22.29268 29.13270
#
# Poissons Ratio (x) = 0.11996 0.10794
# Poissons Ratio (y) = 0.75259 0.17167
# Poissons Ratio (z) = 0.51819 0.13136
#
# Static dielectric constant tensor:
#      x y z
#    x 1.798740 0.000000 0.000000 
#    y 0.000000 1.692740 0.000000 
#    z 0.000000 0.000000 1.673230 
# 
# From -- ./inp_files/5772.got.cif
#   From: 2010.05.17/outbox.ucp.g08.bks.cvg/sg58_3_cif.got.tgz:5772.got - 2010.06.11 16:41:41.
