data_PCOD9445829
_publ_section_title
;
Structure prediction by ZEFSAII (Michael W. Deem and Ramdas Pophale) SiO2 
 PCOD9445829
Probable space group: P N N M
;
_chemical_formula_sum "Si O2"
_cell_formula_units_Z 60
_cell_length_a 6.706571
_cell_length_b 13.792392
_cell_length_c 25.977999
_cell_angle_alpha 90.000000
_cell_angle_beta 90.000000
_cell_angle_gamma 90.000000
_cell_volume 2402.955976
_symmetry_space_group_name_H-M "P N N M"
_symmetry_group_IT_number 58
_symmetry_cell_setting 'orthorhombic'
loop_
_space_group_symop_operation_xyz
x,y,z
-x,-y,z
1/2+x,1/2-y,1/2-z
1/2-x,1/2+y,1/2-z
-x,-y,-z
x,y,-z
1/2-x,1/2+y,1/2+z
1/2+x,1/2-y,1/2+z
loop_
_atom_site_type_symbol
_atom_site_label
_atom_site_fract_x
_atom_site_fract_y
_atom_site_fract_z
Si Si1 0.141659 0.066658 0.796178
Si Si2 0.474208 0.104385 0.878471
Si Si3 0.332116 0.575295 0.924798
Si Si4 0.680499 0.684390 0.690721
Si Si5 0.329085 0.286578 0.084010
Si Si6 0.132938 0.310692 0.805936
Si Si7 0.335394 0.058440 0.687161
Si Si8 0.471412 0.879649 0.500000
O O1 0.345309 0.078359 0.828277
O O2 0.073608 0.187080 0.807044
O O3 0.193446 0.065160 0.736020
O O4 0.111071 0.942188 0.806364
O O5 0.664417 0.164001 0.856362
O O6 0.342981 0.171247 0.915683
O O7 0.500000 0.000000 0.904102
O O8 0.500000 0.500000 0.942850
O O9 0.452101 0.674625 0.928923
O O10 0.272155 0.548881 0.867266
O O11 0.132437 0.579590 0.956893
O O12 0.778161 0.691539 0.747630
O O13 0.623147 0.810726 0.682764
O O14 0.274580 0.310647 0.143341
O O15 0.170904 0.333319 0.045635
O O16 0.086942 0.434386 0.806927
#
# Coordination Sequence:
#
# PCOD9445829 Si02
#       8
#     8   8   8   8   8   8   8   4
#     4  12  22  40  64 101 148 198 240 290 347 423
#     4  12  25  45  71 105 145 194 251 299 360 440
#     4  12  27  49  78 109 141 190 237 304 383 451
#     4  12  23  39  65 101 148 190 244 288 348 429
#     4  12  27  50  74 107 143 188 246 312 377 441
#     4  12  22  40  65  98 144 191 234 292 353 427
#     4  12  23  41  64 101 149 193 236 291 348 431
#     4  12  29  53  80 106 144 179 251 315 387 451
#
# _framework density 24.969245000000001
#
# number of rings (size 3 to 8) (size 9 to 14) (size 15 to 20)
#    0.000    0.000    5.333    6.200    0.000    0.533 
#    0.000    0.333    0.000    0.800    0.000    0.000 
#    0.000    0.000    0.000    0.000    0.000    0.000 
#
# Total GULP energy -334417.497639 kJ/mol
# GULP energy per Si atom -5573.624961 kJ/mol
# Density = 2.491241 g / cm^3
# Si number density = 24.969245 Si / 1000 Ang^3
#
#
#
# Elastic Constant Matrix: (Units=GPa)
#
#
# Indices 1 2 3 4 5 6 
#
# 1 145.3539 74.6368 48.0194 0.0000 0.0000 0.0000
# 2 74.6368 207.9525 31.1553 0.0000 0.0000 0.0000
# 3 48.0194 31.1553 105.0798 0.0000 0.0000 0.0000
# 4 0.0000 0.0000 0.0000 31.2833 0.0000 0.0000
# 5 0.0000 0.0000 0.0000 0.0000 154.9209 0.0000
# 6 0.0000 0.0000 0.0000 0.0000 0.0000 76.6919
#
#
#
# Elastic Compliance Matrix: (Units=1/GPa)
#
#
# Indices 1 2 3 4 5 6 
#
# 1 0.009519 -0.002893 -0.003492 0.000000 0.000000 0.000000
# 2 -0.002893 0.005912 -0.000431 0.000000 0.000000 0.000000
# 3 -0.003492 -0.000431 0.011240 0.000000 0.000000 0.000000
# 4 0.000000 0.000000 0.000000 0.031966 0.000000 0.000000
# 5 0.000000 0.000000 0.000000 0.000000 0.006455 0.000000
# 6 0.000000 0.000000 0.000000 0.000000 0.000000 0.013039
#
#
# Mechanical properties :
#
#
# Convention : Reuss Voigt Hill
#
# Bulk Modulus (GPa) = 76.69457 85.11215 80.90336
# Shear Modulus (GPa) = 52.02398 72.88422 62.45410
#
# Velocity S-wave (km/s) = 4.56951 5.40860 5.00667
# Velocity P-wave (km/s) = 7.65656 8.55364 8.11750
#
# Compressibility (1/GPa) = 0.01303873
#
# Stress axis : x y z
#
# Youngs Moduli (GPa) = 105.05161 169.15446 88.96708
#
# Poissons Ratio (x) = 0.48942 0.31069
# Poissons Ratio (y) = 0.30395 0.03831
# Poissons Ratio (z) = 0.36686 0.07284
#
# Static dielectric constant tensor:
#      x y z
#    x 1.946570 0.000000 0.000000 
#    y 0.000000 2.557440 0.000000 
#    z 0.000000 0.000000 1.771570 
# 
# From -- ./inp_files/32267.got.cif
#   From: 2010.05.17/outbox.cif.g08.bks.cpg/sg58_17_cif.got.tgz:32267.got - 2010.06.03 14:20:14.
