data_PCOD9445295
_publ_section_title
;
Structure prediction by ZEFSAII (Michael W. Deem and Ramdas Pophale) SiO2 
 PCOD9445295
Probable space group: P N N M
;
_chemical_formula_sum "Si O2"
_cell_formula_units_Z 58
_cell_length_a 11.898701
_cell_length_b 8.782028
_cell_length_c 29.329607
_cell_angle_alpha 90.000000
_cell_angle_beta 90.000000
_cell_angle_gamma 90.000000
_cell_volume 3064.789228
_symmetry_space_group_name_H-M "P N N M"
_symmetry_group_IT_number 58
_symmetry_cell_setting 'orthorhombic'
loop_
_space_group_symop_operation_xyz
x,y,z
-x,-y,z
1/2+x,1/2-y,1/2-z
1/2-x,1/2+y,1/2-z
-x,-y,-z
x,y,-z
1/2-x,1/2+y,1/2+z
1/2+x,1/2-y,1/2+z
loop_
_atom_site_type_symbol
_atom_site_label
_atom_site_fract_x
_atom_site_fract_y
_atom_site_fract_z
Si Si1 0.671208 0.401588 0.420878
Si Si2 0.500000 0.500000 0.500000
Si Si3 0.858943 0.675316 0.836715
Si Si4 0.765367 0.633646 0.646876
Si Si5 0.108645 0.653048 0.196306
Si Si6 0.143548 0.651595 0.699083
Si Si7 0.978949 0.823208 0.635889
Si Si8 0.926066 0.347468 0.551487
O O1 0.579654 0.422767 0.459703
O O2 0.646985 0.263260 0.385277
O O3 0.686781 0.556987 0.391352
O O4 0.794481 0.379953 0.442661
O O5 0.855264 0.490967 0.835234
O O6 0.755117 0.745010 0.808179
O O7 0.981116 0.701314 0.814390
O O8 0.688011 0.706309 0.685281
O O9 0.836536 0.495432 0.667789
O O10 0.852165 0.762732 0.631072
O O11 0.123665 0.608568 0.248804
O O12 0.037845 0.740090 0.678434
O O13 0.041158 0.771075 0.590066
O O14 0.000000 0.000000 0.642254
O O15 0.949944 0.296252 0.500000
O O16 0.000000 0.500000 0.559560
#
# Coordination Sequence:
#
# PCOD9445295 Si02
#       8
#     8   2   8   8   8   8   8   8
#     4  11  22  42  66  95 127 165 214 266 321 383
#     4  12  24  40  74 102 120 168 224 266 310 408
#     4  10  23  42  59  88 133 167 210 269 322 375
#     4  11  23  40  66  92 129 167 213 266 318 387
#     4  11  24  39  63  91 125 178 214 264 317 385
#     4  11  23  40  63  92 128 170 223 265 316 376
#     4  12  24  40  65  96 133 167 208 268 331 378
#     4  11  21  42  70  97 123 166 208 266 331 393
#
# _framework density 18.924630000000001
#
# number of rings (size 3 to 8) (size 9 to 14) (size 15 to 20)
#    0.000    0.966    4.828    2.897    5.793    1.931 
#    2.483    0.000    0.000    6.621    0.000    0.000 
#    0.000    0.000    0.000    0.000    0.000    0.000 
#
# Total GULP energy -323330.673378 kJ/mol
# GULP energy per Si atom -5574.666782 kJ/mol
# Density = 1.888156 g / cm^3
# Si number density = 18.924630 Si / 1000 Ang^3
#
#
#
# Elastic Constant Matrix: (Units=GPa)
#
#
# Indices 1 2 3 4 5 6 
#
# 1 68.1626 12.3156 24.0075 0.0000 0.0000 0.0000
# 2 12.3156 66.1788 27.7642 0.0000 0.0000 0.0000
# 3 24.0075 27.7642 108.8538 0.0000 0.0000 0.0000
# 4 0.0000 0.0000 0.0000 56.0324 0.0000 0.0000
# 5 0.0000 0.0000 0.0000 0.0000 -17.8927 0.0000
# 6 0.0000 0.0000 0.0000 0.0000 0.0000 32.5971
#
#
#
# Elastic Compliance Matrix: (Units=1/GPa)
#
#
# Indices 1 2 3 4 5 6 
#
# 1 0.016072 -0.001684 -0.003115 0.000000 0.000000 0.000000
# 2 -0.001684 0.017098 -0.003990 0.000000 0.000000 0.000000
# 3 -0.003115 -0.003990 0.010891 0.000000 0.000000 0.000000
# 4 0.000000 0.000000 0.000000 0.017847 0.000000 0.000000
# 5 0.000000 0.000000 0.000000 0.000000 -0.055889 0.000000
# 6 0.000000 0.000000 0.000000 0.000000 0.000000 0.030678
#
#
# Mechanical properties :
#
#
# Convention : Reuss Voigt Hill
#
# Bulk Modulus (GPa) = 37.75904 41.26331 39.51118
# Shear Modulus (GPa) = 79.23643 26.08789 52.66216
#
# Velocity S-wave (km/s) = 6.47768 3.71686 5.28088
# Velocity P-wave (km/s) = 8.71452 6.34598 7.62280
#
# Compressibility (1/GPa) = 0.02648372
#
# Stress axis : x y z
#
# Youngs Moduli (GPa) = 62.21901 58.48731 91.81690
#
# Poissons Ratio (x) = 0.09850 0.28602
# Poissons Ratio (y) = 0.10478 0.36631
# Poissons Ratio (z) = 0.19382 0.23334
#
# Static dielectric constant tensor:
#      x y z
#    x 1.677780 0.000000 0.000000 
#    y 0.000000 1.662460 0.000000 
#    z 0.000000 0.000000 1.635820 
# 
# From -- ./inp_files/33598.got.cif
#   From: 2010.05.17/outbox.cif.g08.bks.cpg/sg58_17_cif.got.tgz:33598.got - 2010.06.03 14:20:14.
