data_PCOD9445400
_publ_section_title
;
Structure prediction by ZEFSAII (Michael W. Deem and Ramdas Pophale) SiO2 
 PCOD9445400
Probable space group: P N N M
;
_chemical_formula_sum "Si O2"
_cell_formula_units_Z 52
_cell_length_a 6.121122
_cell_length_b 27.512410
_cell_length_c 15.667849
_cell_angle_alpha 90.000000
_cell_angle_beta 90.000000
_cell_angle_gamma 90.000000
_cell_volume 2638.572597
_symmetry_space_group_name_H-M "P N N M"
_symmetry_group_IT_number 58
_symmetry_cell_setting 'orthorhombic'
loop_
_space_group_symop_operation_xyz
x,y,z
-x,-y,z
1/2+x,1/2-y,1/2-z
1/2-x,1/2+y,1/2-z
-x,-y,-z
x,y,-z
1/2-x,1/2+y,1/2+z
1/2+x,1/2-y,1/2+z
loop_
_atom_site_type_symbol
_atom_site_label
_atom_site_fract_x
_atom_site_fract_y
_atom_site_fract_z
Si Si1 0.644782 0.130739 0.748479
Si Si2 0.992832 0.204363 0.185215
Si Si3 0.856967 0.766900 0.637324
Si Si4 0.255662 0.976057 0.500000
Si Si5 0.113402 0.669302 0.402914
Si Si6 0.070327 0.945335 0.331605
Si Si7 0.288319 0.129208 0.599108
O O1 0.814353 0.174590 0.761095
O O2 0.506455 0.135328 0.834712
O O3 0.793575 0.083268 0.738953
O O4 0.486313 0.136524 0.666402
O O5 0.879254 0.242933 0.123612
O O6 0.134286 0.227848 0.260009
O O7 0.137486 0.170056 0.126904
O O8 0.854985 0.820956 0.600636
O O9 0.026216 0.725485 0.607927
O O10 0.235247 0.947873 0.411994
O O11 0.500000 0.000000 0.500000
O O12 0.000000 0.000000 0.500000
O O13 0.079967 0.655089 0.500000
O O14 0.861873 0.914210 0.363670
O O15 0.000000 0.000000 0.308869
O O16 0.348552 0.119482 0.500000
#
# Coordination Sequence:
#
# PCOD9445400 Si02
#       7
#     8   8   8   4   8   8   8
#     4  11  24  41  64  90 126 171 220 279 335 397
#     4  11  20  39  61  86 126 169 210 272 326 389
#     4  11  20  38  59  89 126 166 215 263 322 391
#     4  10  24  42  66 100 142 190 236 286 346 426
#     4  11  24  41  65  90 126 171 222 273 337 403
#     4  11  25  41  65  95 135 179 225 276 341 413
#     4  12  25  40  60  96 134 176 223 269 332 406
#
# _framework density 19.707626000000001
#
# number of rings (size 3 to 8) (size 9 to 14) (size 15 to 20)
#    0.000    0.923    5.385    1.385    5.385    3.077 
#    0.000    0.000    0.000    0.462    0.000    4.308 
#    0.000    0.000    0.000    0.000    0.000    0.000 
#
# Total GULP energy -289943.201054 kJ/mol
# GULP energy per Si atom -5575.830790 kJ/mol
# Density = 1.966277 g / cm^3
# Si number density = 19.707626 Si / 1000 Ang^3
#
#
#
# Elastic Constant Matrix: (Units=GPa)
#
#
# Indices 1 2 3 4 5 6 
#
# 1 75.1069 38.6906 45.5239 0.0000 0.0000 0.0000
# 2 38.6906 117.6997 33.7775 0.0000 0.0000 0.0000
# 3 45.5239 33.7775 117.4498 0.0000 0.0000 0.0000
# 4 0.0000 0.0000 0.0000 18.9317 0.0000 0.0000
# 5 0.0000 0.0000 0.0000 0.0000 19.8143 0.0000
# 6 0.0000 0.0000 0.0000 0.0000 0.0000 28.3758
#
#
#
# Elastic Compliance Matrix: (Units=1/GPa)
#
#
# Indices 1 2 3 4 5 6 
#
# 1 0.019458 -0.004613 -0.006215 0.000000 0.000000 0.000000
# 2 -0.004613 0.010354 -0.001190 0.000000 0.000000 0.000000
# 3 -0.006215 -0.001190 0.011266 0.000000 0.000000 0.000000
# 4 0.000000 0.000000 0.000000 0.052822 0.000000 0.000000
# 5 0.000000 0.000000 0.000000 0.000000 0.050469 0.000000
# 6 0.000000 0.000000 0.000000 0.000000 0.000000 0.035241
#
#
# Mechanical properties :
#
#
# Convention : Reuss Voigt Hill
#
# Bulk Modulus (GPa) = 58.67955 60.69338 59.68647
# Shear Modulus (GPa) = 23.88634 26.24197 25.06416
#
# Velocity S-wave (km/s) = 3.48521 3.65302 3.57010
# Velocity P-wave (km/s) = 6.78493 6.97542 6.88083
#
# Compressibility (1/GPa) = 0.01704171
#
# Stress axis : x y z
#
# Youngs Moduli (GPa) = 51.39358 96.58190 88.76614
#
# Poissons Ratio (x) = 0.44548 0.55171
# Poissons Ratio (y) = 0.23705 0.10562
# Poissons Ratio (z) = 0.31943 0.11492
#
# Static dielectric constant tensor:
#      x y z
#    x 1.815430 0.000000 0.000000 
#    y 0.000000 1.735360 0.000000 
#    z 0.000000 0.000000 1.699570 
# 
# From -- ./inp_files/24402.got.cif
#   From: 2010.05.17/outbox.cif.g08.bks.cpg/sg58_13_cif.got.tgz:24402.got - 2010.06.03 14:20:14.
