data_PCOD9445623
_publ_section_title
;
Structure prediction by ZEFSAII (Michael W. Deem and Ramdas Pophale) SiO2 
 PCOD9445623
Probable space group: P N N M
;
_chemical_formula_sum "Si O2"
_cell_formula_units_Z 48
_cell_length_a 12.671972
_cell_length_b 22.195581
_cell_length_c 8.292092
_cell_angle_alpha 90.000000
_cell_angle_beta 90.000000
_cell_angle_gamma 90.000000
_cell_volume 2332.248564
_symmetry_space_group_name_H-M "P N N M"
_symmetry_group_IT_number 58
_symmetry_cell_setting 'orthorhombic'
loop_
_space_group_symop_operation_xyz
x,y,z
-x,-y,z
1/2+x,1/2-y,1/2-z
1/2-x,1/2+y,1/2-z
-x,-y,-z
x,y,-z
1/2-x,1/2+y,1/2+z
1/2+x,1/2-y,1/2+z
loop_
_atom_site_type_symbol
_atom_site_label
_atom_site_fract_x
_atom_site_fract_y
_atom_site_fract_z
Si Si1 0.357034 0.174413 0.302898
Si Si2 0.378385 0.517532 0.313232
Si Si3 0.871600 0.854373 0.313321
Si Si4 0.248638 0.404777 0.191161
Si Si5 0.011239 0.430558 0.196544
Si Si6 0.408545 0.306955 0.690546
O O1 0.355509 0.171527 0.500000
O O2 0.235448 0.175403 0.249370
O O3 0.420665 0.115459 0.247055
O O4 0.410101 0.237404 0.256164
O O5 0.500000 0.500000 0.285090
O O6 0.367454 0.535568 0.500000
O O7 0.352281 0.574321 0.203275
O O8 0.306768 0.460228 0.277016
O O9 0.886042 0.838076 0.500000
O O10 0.978829 0.837304 0.224208
O O11 0.126208 0.404538 0.240543
O O12 0.315312 0.345063 0.228092
O O13 0.252253 0.416069 0.000000
O O14 0.000000 0.500000 0.250971
O O15 0.005926 0.431751 0.000000
O O16 0.388327 0.308412 0.500000
#
# Coordination Sequence:
#
# PCOD9445623 Si02
#       6
#     8   8   8   8   8   8
#     4   9  21  39  60  87 121 161 198 244 302 357
#     4  11  22  37  58  86 122 159 192 238 306 361
#     4  11  22  39  64  90 116 152 206 252 289 348
#     4  11  22  36  62  92 119 155 203 251 292 355
#     4   9  18  36  62  91 118 150 198 251 302 354
#     4  11  23  39  58  85 125 164 196 242 307 359
#
# _framework density 20.580998000000001
#
# number of rings (size 3 to 8) (size 9 to 14) (size 15 to 20)
#    0.000    1.667    1.667    3.000    2.333    3.333 
#    0.000    2.500    0.000   11.000    0.000    0.000 
#    0.000    0.000    0.000    0.000    0.000    0.000 
#
# Total GULP energy -268190.318582 kJ/mol
# GULP energy per Si atom -5587.298304 kJ/mol
# Density = 2.053415 g / cm^3
# Si number density = 20.580998 Si / 1000 Ang^3
#
#
#
# Elastic Constant Matrix: (Units=GPa)
#
#
# Indices 1 2 3 4 5 6 
#
# 1 108.4147 31.3987 6.6876 0.0000 0.0000 0.0000
# 2 31.3987 103.7683 -8.4589 0.0000 0.0000 0.0000
# 3 6.6876 -8.4589 7.1016 0.0000 0.0000 0.0000
# 4 0.0000 0.0000 0.0000 -11.9124 0.0000 0.0000
# 5 0.0000 0.0000 0.0000 0.0000 -7.0362 0.0000
# 6 0.0000 0.0000 0.0000 0.0000 0.0000 13.8453
#
#
#
# Elastic Compliance Matrix: (Units=1/GPa)
#
#
# Indices 1 2 3 4 5 6 
#
# 1 0.011685 -0.004909 -0.016852 0.000000 0.000000 0.000000
# 2 -0.004909 0.012736 0.019793 0.000000 0.000000 0.000000
# 3 -0.016852 0.019793 0.180259 0.000000 0.000000 0.000000
# 4 0.000000 0.000000 0.000000 -0.083946 0.000000 0.000000
# 5 0.000000 0.000000 0.000000 0.000000 -0.142122 0.000000
# 6 0.000000 0.000000 0.000000 0.000000 0.000000 0.072227
#
#
# Mechanical properties :
#
#
# Convention : Reuss Voigt Hill
#
# Bulk Modulus (GPa) = 4.98147 30.94884 17.96515
# Shear Modulus (GPa) = 41.08811 11.62315 26.35563
#
# Velocity S-wave (km/s) = 4.47297 2.37903 3.58240
# Velocity P-wave (km/s) = 5.39465 4.75569 5.08522
#
# Compressibility (1/GPa) = 0.20074414
#
# Stress axis : x y z
#
# Youngs Moduli (GPa) = 85.57803 78.51829 5.54757
#
# Poissons Ratio (x) = 0.38549 0.09349
# Poissons Ratio (y) = 0.42015 -0.10980
# Poissons Ratio (z) = 1.44215 -1.55414
#
# Static dielectric constant tensor:
#      x y z
#    x 1.723980 0.000000 0.000000 
#    y 0.000000 1.723540 0.000000 
#    z 0.000000 0.000000 1.703540 
# 
# From -- ./inp_files/4196.got.cif
#   From: 2010.05.17/outbox.cif.g08.bks.cpg/sg58_3_cif.got.tgz:4196.got - 2010.06.03 14:20:14.
