data_PCOD9445915
_publ_section_title
;
Structure prediction by ZEFSAII (Michael W. Deem and Ramdas Pophale) SiO2 
 PCOD9445915
Probable space group: P N N M
;
_chemical_formula_sum "Si O2"
_cell_formula_units_Z 48
_cell_length_a 15.000000
_cell_length_b 21.000000
_cell_length_c 9.000000
_cell_angle_alpha 90.000000
_cell_angle_beta 90.000000
_cell_angle_gamma 90.000000
_cell_volume 2835.000000
_symmetry_space_group_name_H-M "P N N M"
_symmetry_group_IT_number 58
_symmetry_cell_setting 'orthorhombic'
loop_
_space_group_symop_operation_xyz
x,y,z
-x,-y,z
1/2+x,1/2-y,1/2-z
1/2-x,1/2+y,1/2-z
-x,-y,-z
x,y,-z
1/2-x,1/2+y,1/2+z
1/2+x,1/2-y,1/2+z
loop_
_atom_site_type_symbol
_atom_site_label
_atom_site_fract_x
_atom_site_fract_y
_atom_site_fract_z
Si Si1 0.805387 0.662671 0.678815
Si Si2 0.419875 0.451413 0.177279
Si Si3 0.001221 0.302204 0.680892
Si Si4 0.104482 0.815204 0.820380
Si Si5 0.934772 0.442864 0.680472
Si Si6 0.764867 0.518152 0.678832
O O1 0.806213 0.666609 0.500000
O O2 0.894969 0.697096 0.729332
O O3 0.709058 0.688213 0.726823
O O4 0.808282 0.587280 0.713131
O O5 0.500000 0.500000 0.208332
O O6 0.429552 0.383114 0.257933
O O7 0.328621 0.482204 0.237934
O O8 0.414503 0.441253 0.000000
O O9 0.996749 0.297503 0.500000
O O10 0.948782 0.244017 0.753570
O O11 0.962371 0.371740 0.724783
O O12 0.100234 0.815702 0.000000
O O13 0.939764 0.443591 0.500000
O O14 0.834681 0.463590 0.720932
O O15 0.000000 0.500000 0.731842
O O16 0.750600 0.516352 0.500000
#
# Coordination Sequence:
#
# PCOD9445915 Si02
#       6
#     8   8   8   8   8   8
#     4   8  15  30  53  74  97 138 178 208 254 310
#     4  10  21  38  58  78 102 137 179 218 264 321
#     4  10  18  32  55  79 107 143 179 216 259 313
#     4  10  21  37  55  78 106 138 178 222 265 310
#     4   9  15  27  53  84 109 136 175 213 254 315
#     4   9  16  30  54  82 108 134 170 217 261 306
#
# _framework density 16.931217
#
# number of rings (size 3 to 8) (size 9 to 14) (size 15 to 20)
#    0.000    2.667    1.667    2.000    0.000    1.333 
#    3.000    5.000    0.000    1.000    0.000    0.000 
#    0.000    0.000    0.000    0.000    0.000    0.000 
#
# Total GULP energy -267463.820586 kJ/mol
# GULP energy per Si atom -5572.162929 kJ/mol
# Density = 1.689268 g / cm^3
# Si number density = 16.931217 Si / 1000 Ang^3
#
#
#
# Elastic Constant Matrix: (Units=GPa)
#
#
# Indices 1 2 3 4 5 6 
#
# 1 141.9807 102.1930 43.3351 0.0000 0.0000 0.0000
# 2 102.1930 129.8562 43.6561 0.0000 0.0000 0.0000
# 3 43.3351 43.6561 39.5563 0.0000 0.0000 0.0000
# 4 0.0000 0.0000 0.0000 23.7884 0.0000 0.0000
# 5 0.0000 0.0000 0.0000 0.0000 20.1220 0.0000
# 6 0.0000 0.0000 0.0000 0.0000 0.0000 33.7644
#
#
#
# Elastic Compliance Matrix: (Units=1/GPa)
#
#
# Indices 1 2 3 4 5 6 
#
# 1 0.017148 -0.011414 -0.006189 0.000000 0.000000 0.000000
# 2 -0.011414 0.019841 -0.009393 0.000000 0.000000 0.000000
# 3 -0.006189 -0.009393 0.042427 0.000000 0.000000 0.000000
# 4 0.000000 0.000000 0.000000 0.042037 0.000000 0.000000
# 5 0.000000 0.000000 0.000000 0.000000 0.049697 0.000000
# 6 0.000000 0.000000 0.000000 0.000000 0.000000 0.029617
#
#
# Mechanical properties :
#
#
# Convention : Reuss Voigt Hill
#
# Bulk Modulus (GPa) = 39.33293 76.64018 57.98655
# Shear Modulus (GPa) = 18.99457 23.68223 21.33840
#
# Velocity S-wave (km/s) = 3.35306 3.74402 3.55392
# Velocity P-wave (km/s) = 6.18645 8.00338 7.15284
#
# Compressibility (1/GPa) = 0.02542399
#
# Stress axis : x y z
#
# Youngs Moduli (GPa) = 58.31738 50.40000 23.56999
#
# Poissons Ratio (x) = 0.57527 0.14586
# Poissons Ratio (y) = 0.66564 0.22140
# Poissons Ratio (z) = 0.36090 0.47342
#
# Static dielectric constant tensor:
#      x y z
#    x 1.595690 0.000000 0.000000 
#    y 0.000000 1.546120 0.000000 
#    z 0.000000 0.000000 1.565920 
# 
# From -- ./inp_files/6051.got.cif
#   From: 2010.05.17/outbox.ucp.g08.bks.cvg/sg58_4_cif.got.tgz:6051.got - 2010.06.11 16:41:41.
