data_PCOD9445276
_publ_section_title
;
Structure prediction by ZEFSAII (Michael W. Deem and Ramdas Pophale) SiO2 
 PCOD9445276
Probable space group: P N N M
;
_chemical_formula_sum "Si O2"
_cell_formula_units_Z 64
_cell_length_a 14.720939
_cell_length_b 25.450698
_cell_length_c 8.884541
_cell_angle_alpha 90.000000
_cell_angle_beta 90.000000
_cell_angle_gamma 90.000000
_cell_volume 3328.665897
_symmetry_space_group_name_H-M "P N N M"
_symmetry_group_IT_number 58
_symmetry_cell_setting 'orthorhombic'
loop_
_space_group_symop_operation_xyz
x,y,z
-x,-y,z
1/2+x,1/2-y,1/2-z
1/2-x,1/2+y,1/2-z
-x,-y,-z
x,y,-z
1/2-x,1/2+y,1/2+z
1/2+x,1/2-y,1/2+z
loop_
_atom_site_type_symbol
_atom_site_label
_atom_site_fract_x
_atom_site_fract_y
_atom_site_fract_z
Si Si1 0.467386 0.832246 0.678165
Si Si2 0.637293 0.874258 0.821790
Si Si3 0.437509 0.715868 0.320403
Si Si4 0.739529 0.775584 0.678390
Si Si5 0.145460 0.939645 0.319530
Si Si6 0.284383 0.553702 0.819824
Si Si7 0.252298 0.834134 0.320135
Si Si8 0.966481 0.900825 0.178659
O O1 0.482489 0.840286 0.500000
O O2 0.533251 0.869818 0.769826
O O3 0.487587 0.770605 0.712351
O O4 0.360397 0.839341 0.709086
O O5 0.683515 0.820991 0.759847
O O6 0.693717 0.921721 0.749047
O O7 0.645281 0.876483 0.000000
O O8 0.415034 0.717389 0.500000
O O9 0.344285 0.716257 0.227446
O O10 0.486763 0.660898 0.290740
O O11 0.728363 0.780169 0.500000
O O12 0.716319 0.716978 0.733974
O O13 0.132412 0.939659 0.500000
O O14 0.201716 0.887620 0.278598
O O15 0.047623 0.935753 0.242556
O O16 0.198286 0.992852 0.280460
O O17 0.371350 0.584847 0.755592
O O18 0.282124 0.559095 0.000000
O O19 0.242280 0.825484 0.500000
O O20 0.957946 0.907668 0.000000
#
# Coordination Sequence:
#
# PCOD9445276 Si02
#       8
#     8   8   8   8   8   8   8   8
#     4   9  19  37  60  85 118 154 193 239 290 349
#     4  12  24  38  58  86 119 155 197 244 297 352
#     4   9  19  36  56  83 121 157 191 233 285 348
#     4  11  21  34  57  86 117 153 192 237 290 348
#     4  10  23  41  62  87 117 156 202 247 295 351
#     4  11  23  41  62  86 117 156 203 249 292 349
#     4   9  20  41  63  86 119 155 193 244 296 347
#     4  11  22  36  58  89 123 159 196 239 295 352
#
# _framework density 19.226922999999999
#
# number of rings (size 3 to 8) (size 9 to 14) (size 15 to 20)
#    0.000    1.750    1.250    4.125    1.750    5.500 
#    0.000    0.625    0.000    3.750    0.000    0.000 
#    0.000    0.000    0.000    0.000    0.000    0.000 
#
# Total GULP energy -357648.941239 kJ/mol
# GULP energy per Si atom -5588.264707 kJ/mol
# Density = 1.918316 g / cm^3
# Si number density = 19.226923 Si / 1000 Ang^3
#
#
#
# Elastic Constant Matrix: (Units=GPa)
#
#
# Indices 1 2 3 4 5 6 
#
# 1 24.0449 2.3692 9.2626 0.0000 0.0000 0.0000
# 2 2.3692 72.1035 20.3677 0.0000 0.0000 0.0000
# 3 9.2626 20.3677 41.8891 0.0000 0.0000 0.0000
# 4 0.0000 0.0000 0.0000 19.7868 0.0000 0.0000
# 5 0.0000 0.0000 0.0000 0.0000 23.7900 0.0000
# 6 0.0000 0.0000 0.0000 0.0000 0.0000 31.0644
#
#
#
# Elastic Compliance Matrix: (Units=1/GPa)
#
#
# Indices 1 2 3 4 5 6 
#
# 1 0.045613 0.001565 -0.010847 0.000000 0.000000 0.000000
# 2 0.001565 0.016131 -0.008189 0.000000 0.000000 0.000000
# 3 -0.010847 -0.008189 0.030253 0.000000 0.000000 0.000000
# 4 0.000000 0.000000 0.000000 0.050539 0.000000 0.000000
# 5 0.000000 0.000000 0.000000 0.000000 0.042034 0.000000
# 6 0.000000 0.000000 0.000000 0.000000 0.000000 0.032191
#
#
# Mechanical properties :
#
#
# Convention : Reuss Voigt Hill
#
# Bulk Modulus (GPa) = 17.52712 22.44852 19.98782
# Shear Modulus (GPa) = 18.46911 21.99743 20.23327
#
# Velocity S-wave (km/s) = 3.10269 3.38612 3.24750
# Velocity P-wave (km/s) = 4.68736 5.19506 4.94773
#
# Compressibility (1/GPa) = 0.05705443
#
# Stress axis : x y z
#
# Youngs Moduli (GPa) = 21.92351 61.99302 33.05452
#
# Poissons Ratio (x) = -0.09704 0.35855
# Poissons Ratio (y) = -0.03432 0.27070
# Poissons Ratio (z) = 0.23781 0.50769
#
# Static dielectric constant tensor:
#      x y z
#    x 1.666410 0.000000 0.000000 
#    y 0.000000 1.680550 0.000000 
#    z 0.000000 0.000000 1.638520 
# 
# From -- ./inp_files/6855.got.cif
#   From: 2010.05.17/outbox.cif.g08.bks.cpg/sg58_4_cif.got.tgz:6855.got - 2010.06.03 14:20:14.
