data_PCOD9445029
_publ_section_title
;
Structure prediction by ZEFSAII (Michael W. Deem and Ramdas Pophale) SiO2 
 PCOD9445029
Probable space group: P N N M
;
_chemical_formula_sum "Si O2"
_cell_formula_units_Z 32
_cell_length_a 28.971083
_cell_length_b 5.197150
_cell_length_c 9.772418
_cell_angle_alpha 90.000000
_cell_angle_beta 90.000000
_cell_angle_gamma 90.000000
_cell_volume 1471.404287
_symmetry_space_group_name_H-M "P N N M"
_symmetry_group_IT_number 58
_symmetry_cell_setting 'orthorhombic'
loop_
_space_group_symop_operation_xyz
x,y,z
-x,-y,z
1/2+x,1/2-y,1/2-z
1/2-x,1/2+y,1/2-z
-x,-y,-z
x,y,-z
1/2-x,1/2+y,1/2+z
1/2+x,1/2-y,1/2+z
loop_
_atom_site_type_symbol
_atom_site_label
_atom_site_fract_x
_atom_site_fract_y
_atom_site_fract_z
Si Si1 0.402373 0.522055 0.651221
Si Si2 0.133722 0.514812 0.266598
Si Si3 0.539163 0.185315 0.153692
Si Si4 0.263875 0.923157 0.160402
O O1 0.418962 0.463682 0.500000
O O2 0.369741 0.295674 0.703088
O O3 0.445143 0.576545 0.752918
O O4 0.373598 0.787369 0.656389
O O5 0.086906 0.476095 0.352102
O O6 0.180956 0.465944 0.342960
O O7 0.500000 0.000000 0.213582
O O8 0.525974 0.256389 0.000000
O O9 0.245567 0.161041 0.253838
O O10 0.247430 0.915792 0.000000
#
# Coordination Sequence:
#
# PCOD9445029 Si02
#       4
#     8   8   8   8
#     4  10  22  39  65  94 128 169 211 264 318 381
#     4  10  23  42  66  93 130 167 215 263 327 388
#     4   9  21  41  65  94 130 171 216 263 319 391
#     4  12  27  46  71 101 136 176 227 283 341 406
#
# _framework density 21.747934000000001
#
# number of rings (size 3 to 8) (size 9 to 14) (size 15 to 20)
#    1.500    0.250    0.000    3.750    0.000    9.500 
#    0.000    3.750    0.000    0.000    0.000    0.000 
#    0.000    0.000    0.000    0.000    0.000    0.000 
#
# Total GULP energy -178292.059526 kJ/mol
# GULP energy per Si atom -5571.626860 kJ/mol
# Density = 2.169843 g / cm^3
# Si number density = 21.747934 Si / 1000 Ang^3
#
#
#
# Elastic Constant Matrix: (Units=GPa)
#
#
# Indices 1 2 3 4 5 6 
#
# 1 81.8272 -2.4179 -8.0615 0.0000 0.0000 0.0000
# 2 -2.4179 82.3715 30.6232 0.0000 0.0000 0.0000
# 3 -8.0615 30.6232 119.0355 0.0000 0.0000 0.0000
# 4 0.0000 0.0000 0.0000 1.4381 0.0000 0.0000
# 5 0.0000 0.0000 0.0000 0.0000 -48.7507 0.0000
# 6 0.0000 0.0000 0.0000 0.0000 0.0000 36.1007
#
#
#
# Elastic Compliance Matrix: (Units=1/GPa)
#
#
# Indices 1 2 3 4 5 6 
#
# 1 0.012303 0.000057 0.000819 0.000000 0.000000 0.000000
# 2 0.000057 0.013424 -0.003450 0.000000 0.000000 0.000000
# 3 0.000819 -0.003450 0.009344 0.000000 0.000000 0.000000
# 4 0.000000 0.000000 0.000000 0.695357 0.000000 0.000000
# 5 0.000000 0.000000 0.000000 0.000000 -0.020513 0.000000
# 6 0.000000 0.000000 0.000000 0.000000 0.000000 0.027700
#
#
# Mechanical properties :
#
#
# Convention : Reuss Voigt Hill
#
# Bulk Modulus (GPa) = 33.41948 35.94688 34.68318
# Shear Modulus (GPa) = 6.64241 15.29698 10.96970
#
# Velocity S-wave (km/s) = 1.74954 2.65500 2.24833
# Velocity P-wave (km/s) = 4.41376 5.09544 4.76680
#
# Compressibility (1/GPa) = 0.02992267
#
# Stress axis : x y z
#
# Youngs Moduli (GPa) = 81.27964 74.49190 107.02325
#
# Poissons Ratio (x) = -0.00423 -0.08761
# Poissons Ratio (y) = -0.00462 0.36920
# Poissons Ratio (z) = -0.06654 0.25697
#
# Static dielectric constant tensor:
#      x y z
#    x 1.810070 0.000000 0.000000 
#    y 0.000000 1.811940 0.000000 
#    z 0.000000 0.000000 1.788940 
# 
# From -- ./inp_files/1387.got.cif
#   From: 2010.05.17/outbox.cif.g08.bks.cpg/sg58_1_cif.got.tgz:1387.got - 2010.06.03 14:20:14.
