data_PCOD9445809
_publ_section_title
;
Structure prediction by ZEFSAII (Michael W. Deem and Ramdas Pophale) SiO2 
 PCOD9445809
Probable space group: P N N M
;
_chemical_formula_sum "Si O2"
_cell_formula_units_Z 40
_cell_length_a 12.352823
_cell_length_b 16.907168
_cell_length_c 8.834035
_cell_angle_alpha 90.000000
_cell_angle_beta 90.000000
_cell_angle_gamma 90.000000
_cell_volume 1844.999285
_symmetry_space_group_name_H-M "P N N M"
_symmetry_group_IT_number 58
_symmetry_cell_setting 'orthorhombic'
loop_
_space_group_symop_operation_xyz
x,y,z
-x,-y,z
1/2+x,1/2-y,1/2-z
1/2-x,1/2+y,1/2-z
-x,-y,-z
x,y,-z
1/2-x,1/2+y,1/2+z
1/2+x,1/2-y,1/2+z
loop_
_atom_site_type_symbol
_atom_site_label
_atom_site_fract_x
_atom_site_fract_y
_atom_site_fract_z
Si Si1 0.275284 0.310146 0.324036
Si Si2 0.845328 0.433448 0.169637
Si Si3 0.182473 0.158028 0.175408
Si Si4 0.417866 0.884972 0.329286
Si Si5 0.528712 0.591506 0.818711
O O1 0.299279 0.298490 0.500000
O O2 0.260555 0.227000 0.238051
O O3 0.155654 0.345228 0.295539
O O4 0.363289 0.369980 0.252774
O O5 0.753439 0.419616 0.291187
O O6 0.882747 0.523709 0.167309
O O7 0.954241 0.383471 0.197163
O O8 0.803270 0.414419 0.000000
O O9 0.071323 0.146462 0.266080
O O10 0.159141 0.168197 0.000000
O O11 0.396420 0.853038 0.500000
O O12 0.500000 0.500000 0.774072
O O13 0.540098 0.592057 0.000000
#
# Coordination Sequence:
#
# PCOD9445809 Si02
#       5
#     8   8   8   8   8
#     4  12  26  42  64  94 132 173 217 271 327 387
#     4   9  19  38  64  92 125 165 208 257 316 381
#     4  12  26  42  64  94 132 173 217 271 327 387
#     4   9  19  38  64  92 125 165 208 257 316 381
#     4  11  25  47  73  99 132 175 224 277 337 403
#
# _framework density 21.680226999999999
#
# number of rings (size 3 to 8) (size 9 to 14) (size 15 to 20)
#    0.000    1.400    0.000    6.600    2.800    8.000 
#    0.000    2.000    0.000    0.000    0.000    0.000 
#    0.000    0.000    0.000    0.000    0.000    0.000 
#
# Total GULP energy -223483.785164 kJ/mol
# GULP energy per Si atom -5587.094629 kJ/mol
# Density = 2.163088 g / cm^3
# Si number density = 21.680227 Si / 1000 Ang^3
#
#
#
# Elastic Constant Matrix: (Units=GPa)
#
#
# Indices 1 2 3 4 5 6 
#
# 1 48.6607 14.4509 16.5146 0.0000 0.0000 0.0000
# 2 14.4509 57.0651 16.3666 0.0000 0.0000 0.0000
# 3 16.5146 16.3666 72.8063 0.0000 0.0000 0.0000
# 4 0.0000 0.0000 0.0000 -46.0462 0.0000 0.0000
# 5 0.0000 0.0000 0.0000 0.0000 34.7760 0.0000
# 6 0.0000 0.0000 0.0000 0.0000 0.0000 38.4657
#
#
#
# Elastic Compliance Matrix: (Units=1/GPa)
#
#
# Indices 1 2 3 4 5 6 
#
# 1 0.023389 -0.004705 -0.004248 0.000000 0.000000 0.000000
# 2 -0.004705 0.019678 -0.003356 0.000000 0.000000 0.000000
# 3 -0.004248 -0.003356 0.015453 0.000000 0.000000 0.000000
# 4 0.000000 0.000000 0.000000 -0.021717 0.000000 0.000000
# 5 0.000000 0.000000 0.000000 0.000000 0.028755 0.000000
# 6 0.000000 0.000000 0.000000 0.000000 0.000000 0.025997
#
#
# Mechanical properties :
#
#
# Convention : Reuss Voigt Hill
#
# Bulk Modulus (GPa) = 29.49627 30.35513 29.92570
# Shear Modulus (GPa) = 39.22368 14.18576 26.70472
#
# Velocity S-wave (km/s) = 4.25807 2.56074 3.51344
# Velocity P-wave (km/s) = 6.14895 4.77230 5.50384
#
# Compressibility (1/GPa) = 0.03390259
#
# Stress axis : x y z
#
# Youngs Moduli (GPa) = 42.75468 50.81856 64.71203
#
# Poissons Ratio (x) = 0.23909 0.27488
# Poissons Ratio (y) = 0.20115 0.21720
# Poissons Ratio (z) = 0.18161 0.17056
#
# Static dielectric constant tensor:
#      x y z
#    x 1.779560 0.000000 0.000000 
#    y 0.000000 1.869910 0.000000 
#    z 0.000000 0.000000 1.760990 
# 
# From -- ./inp_files/3818.got.cif
#   From: 2010.05.17/outbox.cif.g08.bks.cpg/sg58_2_cif.got.tgz:3818.got - 2010.06.03 14:20:14.
