data_PCOD9445793
_publ_section_title
;
Structure prediction by ZEFSAII (Michael W. Deem and Ramdas Pophale) SiO2 
 PCOD9445793
Probable space group: P N N M
;
_chemical_formula_sum "Si O2"
_cell_formula_units_Z 40
_cell_length_a 10.676719
_cell_length_b 10.159433
_cell_length_c 15.606975
_cell_angle_alpha 90.000000
_cell_angle_beta 90.000000
_cell_angle_gamma 90.000000
_cell_volume 1692.879391
_symmetry_space_group_name_H-M "P N N M"
_symmetry_group_IT_number 58
_symmetry_cell_setting 'orthorhombic'
loop_
_space_group_symop_operation_xyz
x,y,z
-x,-y,z
1/2+x,1/2-y,1/2-z
1/2-x,1/2+y,1/2-z
-x,-y,-z
x,y,-z
1/2-x,1/2+y,1/2+z
1/2+x,1/2-y,1/2+z
loop_
_atom_site_type_symbol
_atom_site_label
_atom_site_fract_x
_atom_site_fract_y
_atom_site_fract_z
Si Si1 0.412825 0.892864 0.850355
Si Si2 0.900838 0.883865 0.396610
Si Si3 0.855825 0.523646 0.160820
Si Si4 0.603968 0.300399 0.602933
Si Si5 0.855888 0.095130 0.098848
O O1 0.458598 0.743093 0.846099
O O2 0.374488 0.966223 0.762725
O O3 0.284237 0.861794 0.897263
O O4 0.500000 0.000000 0.895705
O O5 0.899769 0.861538 0.500000
O O6 0.760190 0.932042 0.367798
O O7 0.000000 0.000000 0.380289
O O8 0.824634 0.674780 0.136884
O O9 0.000000 0.500000 0.125293
O O10 0.617496 0.292855 0.500000
O O11 0.640788 0.446305 0.633832
O O12 0.457710 0.301782 0.632067
O O13 0.891307 0.081228 0.000000
#
# Coordination Sequence:
#
# PCOD9445793 Si02
#       5
#     8   8   8   8   8
#     4  11  26  43  65  97 137 182 231 275 340 413
#     4  11  27  47  69 102 143 184 229 287 353 416
#     4  11  25  42  66  97 133 178 228 279 342 406
#     4   9  19  37  64  94 121 160 215 275 330 391
#     4   9  19  37  64  94 122 161 218 272 325 389
#
# _framework density 23.62838
#
# number of rings (size 3 to 8) (size 9 to 14) (size 15 to 20)
#    0.000    1.800    0.000    3.600    5.600    8.000 
#    0.000    0.000    0.000    0.000    0.000    0.000 
#    0.000    0.000    0.000    0.000    0.000    0.000 
#
# Total GULP energy -222833.223593 kJ/mol
# GULP energy per Si atom -5570.830590 kJ/mol
# Density = 2.357460 g / cm^3
# Si number density = 23.628380 Si / 1000 Ang^3
#
#
#
# Elastic Constant Matrix: (Units=GPa)
#
#
# Indices 1 2 3 4 5 6 
#
# 1 81.4185 48.0586 16.4449 0.0000 0.0000 0.0000
# 2 48.0586 134.5450 -7.1816 0.0000 0.0000 0.0000
# 3 16.4449 -7.1816 42.1301 0.0000 0.0000 0.0000
# 4 0.0000 0.0000 0.0000 29.1785 0.0000 0.0000
# 5 0.0000 0.0000 0.0000 0.0000 18.8471 0.0000
# 6 0.0000 0.0000 0.0000 0.0000 0.0000 44.3401
#
#
#
# Elastic Compliance Matrix: (Units=1/GPa)
#
#
# Indices 1 2 3 4 5 6 
#
# 1 0.017987 -0.006862 -0.008191 0.000000 0.000000 0.000000
# 2 -0.006862 0.010119 0.004403 0.000000 0.000000 0.000000
# 3 -0.008191 0.004403 0.027684 0.000000 0.000000 0.000000
# 4 0.000000 0.000000 0.000000 0.034272 0.000000 0.000000
# 5 0.000000 0.000000 0.000000 0.000000 0.053059 0.000000
# 6 0.000000 0.000000 0.000000 0.000000 0.000000 0.022553
#
#
# Mechanical properties :
#
#
# Convention : Reuss Voigt Hill
#
# Bulk Modulus (GPa) = 28.99347 41.41526 35.20436
# Shear Modulus (GPa) = 25.19294 31.85790 28.52542
#
# Velocity S-wave (km/s) = 3.26884 3.67589 3.47832
# Velocity P-wave (km/s) = 5.15212 5.96507 5.57343
#
# Compressibility (1/GPa) = 0.03449053
#
# Stress axis : x y z
#
# Youngs Moduli (GPa) = 55.59573 98.82819 36.12229
#
# Poissons Ratio (x) = 0.67816 0.29587
# Poissons Ratio (y) = 0.38150 -0.15906
# Poissons Ratio (z) = 0.45537 -0.43517
#
# Static dielectric constant tensor:
#      x y z
#    x 1.996500 0.000000 0.000000 
#    y 0.000000 2.073930 0.000000 
#    z 0.000000 0.000000 1.907110 
# 
# From -- ./inp_files/25929.got.cif
#   From: 2010.05.17/outbox.cif.g08.bks.cpg/sg58_13_cif.got.tgz:25929.got - 2010.06.03 14:20:14.
