data_PCOD9445584
_publ_section_title
;
Structure prediction by ZEFSAII (Michael W. Deem and Ramdas Pophale) SiO2 
 PCOD9445584
Probable space group: P N N M
;
_chemical_formula_sum "Si O2"
_cell_formula_units_Z 52
_cell_length_a 5.503659
_cell_length_b 19.195537
_cell_length_c 24.663908
_cell_angle_alpha 90.000000
_cell_angle_beta 90.000000
_cell_angle_gamma 90.000000
_cell_volume 2605.635578
_symmetry_space_group_name_H-M "P N N M"
_symmetry_group_IT_number 58
_symmetry_cell_setting 'orthorhombic'
loop_
_space_group_symop_operation_xyz
x,y,z
-x,-y,z
1/2+x,1/2-y,1/2-z
1/2-x,1/2+y,1/2-z
-x,-y,-z
x,y,-z
1/2-x,1/2+y,1/2+z
1/2+x,1/2-y,1/2+z
loop_
_atom_site_type_symbol
_atom_site_label
_atom_site_fract_x
_atom_site_fract_y
_atom_site_fract_z
Si Si1 0.379773 0.067014 0.813651
Si Si2 0.809427 0.727697 0.565191
Si Si3 0.883999 0.933746 0.711089
Si Si4 0.751879 0.459497 0.500000
Si Si5 0.361006 0.195486 0.668514
Si Si6 0.688988 0.350080 0.408148
Si Si7 0.229397 0.323651 0.746776
O O1 0.250190 0.032342 0.762280
O O2 0.199909 0.113032 0.850030
O O3 0.554848 0.125143 0.787505
O O4 0.500000 0.000000 0.843093
O O5 0.815946 0.741661 0.500000
O O6 0.718861 0.785996 0.607887
O O7 0.582351 0.674670 0.576124
O O8 0.080836 0.702797 0.583681
O O9 0.707784 0.885039 0.676867
O O10 0.050916 0.874126 0.737916
O O11 0.000000 0.000000 0.681575
O O12 0.500000 0.500000 0.500000
O O13 0.755015 0.410777 0.448556
O O14 0.000000 0.500000 0.500000
O O15 0.250362 0.254769 0.709370
O O16 0.632288 0.199080 0.693426
#
# Coordination Sequence:
#
# PCOD9445584 Si02
#       7
#     8   8   8   4   8   8   8
#     4  11  23  37  59  92 131 179 216 265 327 401
#     4  12  25  46  67  93 129 173 229 288 341 387
#     4  11  23  40  62  93 138 170 211 271 344 412
#     4  12  24  42  60  84 124 176 231 275 323 377
#     4  11  24  36  68  94 125 174 217 281 332 402
#     4  12  25  42  64  91 127 176 229 279 327 384
#     4  11  21  39  59  96 130 162 220 264 333 402
#
# _framework density 19.956744
#
# number of rings (size 3 to 8) (size 9 to 14) (size 15 to 20)
#    0.000    0.615    6.154    2.308    4.308    0.615 
#    0.000    0.000    0.000    0.462    0.000    1.077 
#    0.000    0.000    0.000    0.000    0.000    0.000 
#
# Total GULP energy -289479.321710 kJ/mol
# GULP energy per Si atom -5566.910033 kJ/mol
# Density = 1.991132 g / cm^3
# Si number density = 19.956744 Si / 1000 Ang^3
#
#
#
# Elastic Constant Matrix: (Units=GPa)
#
#
# Indices 1 2 3 4 5 6 
#
# 1 43.2405 13.5379 -7.6255 0.0000 0.0000 0.0000
# 2 13.5379 84.4383 16.0799 0.0000 0.0000 0.0000
# 3 -7.6255 16.0799 71.6388 0.0000 0.0000 0.0000
# 4 0.0000 0.0000 0.0000 27.8749 0.0000 0.0000
# 5 0.0000 0.0000 0.0000 0.0000 19.2797 0.0000
# 6 0.0000 0.0000 0.0000 0.0000 0.0000 39.3545
#
#
#
# Elastic Compliance Matrix: (Units=1/GPa)
#
#
# Indices 1 2 3 4 5 6 
#
# 1 0.025283 -0.004770 0.003762 0.000000 0.000000 0.000000
# 2 -0.004770 0.013272 -0.003487 0.000000 0.000000 0.000000
# 3 0.003762 -0.003487 0.015142 0.000000 0.000000 0.000000
# 4 0.000000 0.000000 0.000000 0.035875 0.000000 0.000000
# 5 0.000000 0.000000 0.000000 0.000000 0.051868 0.000000
# 6 0.000000 0.000000 0.000000 0.000000 0.000000 0.025410
#
#
# Mechanical properties :
#
#
# Convention : Reuss Voigt Hill
#
# Bulk Modulus (GPa) = 22.36765 27.03355 24.70060
# Shear Modulus (GPa) = 26.21347 29.12351 27.66849
#
# Velocity S-wave (km/s) = 3.62818 3.82426 3.72751
# Velocity P-wave (km/s) = 5.36507 5.75113 5.56145
#
# Compressibility (1/GPa) = 0.04470742
#
# Stress axis : x y z
#
# Youngs Moduli (GPa) = 39.55179 75.34819 66.04167
#
# Poissons Ratio (x) = 0.35941 -0.24844
# Poissons Ratio (y) = 0.18866 0.23027
# Poissons Ratio (z) = -0.14879 0.26271
#
# Static dielectric constant tensor:
#      x y z
#    x 1.866170 0.000000 0.000000 
#    y 0.000000 1.718010 0.000000 
#    z 0.000000 0.000000 1.707440 
# 
# From -- ./inp_files/32905.got.cif
#   From: 2010.05.17/outbox.cif.g08.bks.cpg/sg58_17_cif.got.tgz:32905.got - 2010.06.03 14:20:14.
