data_PCOD9445563
_publ_section_title
;
Structure prediction by ZEFSAII (Michael W. Deem and Ramdas Pophale) SiO2 
 PCOD9445563
Probable space group: P N N M
;
_chemical_formula_sum "Si O2"
_cell_formula_units_Z 48
_cell_length_a 15.483569
_cell_length_b 20.429055
_cell_length_c 7.860081
_cell_angle_alpha 90.000000
_cell_angle_beta 90.000000
_cell_angle_gamma 90.000000
_cell_volume 2486.259027
_symmetry_space_group_name_H-M "P N N M"
_symmetry_group_IT_number 58
_symmetry_cell_setting 'orthorhombic'
loop_
_space_group_symop_operation_xyz
x,y,z
-x,-y,z
1/2+x,1/2-y,1/2-z
1/2-x,1/2+y,1/2-z
-x,-y,-z
x,y,-z
1/2-x,1/2+y,1/2+z
1/2+x,1/2-y,1/2+z
loop_
_atom_site_type_symbol
_atom_site_label
_atom_site_fract_x
_atom_site_fract_y
_atom_site_fract_z
Si Si1 0.877854 0.315468 0.798374
Si Si2 0.083758 0.539188 0.208183
Si Si3 0.504309 0.298762 0.197431
Si Si4 0.723403 0.486507 0.794693
Si Si5 0.688542 0.336497 0.792044
Si Si6 0.941865 0.060362 0.199589
O O1 0.914193 0.385072 0.734007
O O2 0.940920 0.255195 0.772215
O O3 0.779677 0.306302 0.733840
O O4 0.868179 0.324770 0.000000
O O5 0.176388 0.508488 0.257202
O O6 0.000000 0.500000 0.267804
O O7 0.081758 0.538704 0.000000
O O8 0.601214 0.302975 0.271751
O O9 0.465080 0.371358 0.214701
O O10 0.512040 0.282042 0.000000
O O11 0.691690 0.413424 0.745267
O O12 0.657146 0.539088 0.722804
O O13 0.719975 0.489998 0.000000
O O14 0.685051 0.334772 0.000000
O O15 0.961331 0.067866 0.000000
O O16 0.000000 0.000000 0.267112
#
# Coordination Sequence:
#
# PCOD9445563 Si02
#       6
#     8   8   8   8   8   8
#     4   9  18  35  55  76 106 141 174 215 266 313
#     4   8  15  31  57  83 106 135 174 217 262 314
#     4  11  21  35  55  77 104 140 180 219 259 313
#     4   9  16  31  55  78 102 137 176 212 255 312
#     4   8  16  32  54  73  97 140 177 207 258 315
#     4  11  22  34  51  79 110 138 171 217 270 312
#
# _framework density 19.306113
#
# number of rings (size 3 to 8) (size 9 to 14) (size 15 to 20)
#    0.000    2.667    1.667    3.000    0.000    0.667 
#    3.000    5.000    0.000    1.000    0.000    0.000 
#    0.000    0.000    0.000    0.000    0.000    0.000 
#
# Total GULP energy -267671.016735 kJ/mol
# GULP energy per Si atom -5576.479515 kJ/mol
# Density = 1.926217 g / cm^3
# Si number density = 19.306113 Si / 1000 Ang^3
#
#
#
# Elastic Constant Matrix: (Units=GPa)
#
#
# Indices 1 2 3 4 5 6 
#
# 1 173.4322 81.5471 -5.5743 0.0000 0.0000 0.0000
# 2 81.5471 82.3334 -6.5177 0.0000 0.0000 0.0000
# 3 -5.5743 -6.5177 14.5062 0.0000 0.0000 0.0000
# 4 0.0000 0.0000 0.0000 -2.1385 0.0000 0.0000
# 5 0.0000 0.0000 0.0000 0.0000 19.7440 0.0000
# 6 0.0000 0.0000 0.0000 0.0000 0.0000 34.4876
#
#
#
# Elastic Compliance Matrix: (Units=1/GPa)
#
#
# Indices 1 2 3 4 5 6 
#
# 1 0.010798 -0.010749 -0.000680 0.000000 0.000000 0.000000
# 2 -0.010749 0.023294 0.006335 0.000000 0.000000 0.000000
# 3 -0.000680 0.006335 0.071521 0.000000 0.000000 0.000000
# 4 0.000000 0.000000 0.000000 -0.467617 0.000000 0.000000
# 5 0.000000 0.000000 0.000000 0.000000 0.050648 0.000000
# 6 0.000000 0.000000 0.000000 0.000000 0.000000 0.028996
#
#
# Mechanical properties :
#
#
# Convention : Reuss Voigt Hill
#
# Bulk Modulus (GPa) = 10.47937 45.46467 27.97202
# Shear Modulus (GPa) = -20.80174 23.80640 1.50233
#
# Velocity S-wave (km/s) = -3.28604 3.51536 0.88309
# Velocity P-wave (km/s) = 2.99293 6.33068 3.94461
#
# Compressibility (1/GPa) = 0.09542560
#
# Stress axis : x y z
#
# Youngs Moduli (GPa) = 92.60833 42.93041 13.98189
#
# Poissons Ratio (x) = 0.46145 0.00951
# Poissons Ratio (y) = 0.99544 -0.08858
# Poissons Ratio (z) = 0.06299 -0.27198
#
# Static dielectric constant tensor:
#      x y z
#    x 1.706420 0.000000 0.000000 
#    y 0.000000 1.633440 0.000000 
#    z 0.000000 0.000000 1.696860 
# 
# From -- ./inp_files/5807.got.cif
#   From: 2010.05.17/outbox.cif.g08.bks.cpg/sg58_3_cif.got.tgz:5807.got - 2010.06.03 14:20:14.
