data_PCOD9445565
_publ_section_title
;
Structure prediction by ZEFSAII (Michael W. Deem and Ramdas Pophale) SiO2 
 PCOD9445565
Probable space group: P N N M
;
_chemical_formula_sum "Si O2"
_cell_formula_units_Z 64
_cell_length_a 35.392634
_cell_length_b 11.481075
_cell_length_c 8.284194
_cell_angle_alpha 90.000000
_cell_angle_beta 90.000000
_cell_angle_gamma 90.000000
_cell_volume 3366.244832
_symmetry_space_group_name_H-M "P N N M"
_symmetry_group_IT_number 58
_symmetry_cell_setting 'orthorhombic'
loop_
_space_group_symop_operation_xyz
x,y,z
-x,-y,z
1/2+x,1/2-y,1/2-z
1/2-x,1/2+y,1/2-z
-x,-y,-z
x,y,-z
1/2-x,1/2+y,1/2+z
1/2+x,1/2-y,1/2+z
loop_
_atom_site_type_symbol
_atom_site_label
_atom_site_fract_x
_atom_site_fract_y
_atom_site_fract_z
Si Si1 0.081329 0.257686 0.812247
Si Si2 0.722565 0.663359 0.194253
Si Si3 0.649328 0.368935 0.807702
Si Si4 0.634696 0.624629 0.195041
Si Si5 0.492111 0.629833 0.302979
Si Si6 0.565519 0.777669 0.308625
Si Si7 0.456601 0.982832 0.187912
Si Si8 0.265306 0.602266 0.804571
O O1 0.121668 0.235357 0.734070
O O2 0.064744 0.385144 0.787576
O O3 0.048077 0.175812 0.743086
O O4 0.085731 0.231484 0.000000
O O5 0.677883 0.658791 0.236146
O O6 0.740121 0.535522 0.246822
O O7 0.739929 0.786571 0.253049
O O8 0.725251 0.663549 0.000000
O O9 0.630537 0.490103 0.752115
O O10 0.692181 0.365416 0.747324
O O11 0.652399 0.377371 0.000000
O O12 0.602510 0.702484 0.273315
O O13 0.631059 0.631582 0.000000
O O14 0.500000 0.500000 0.248224
O O15 0.490752 0.630798 0.500000
O O16 0.527444 0.709881 0.257820
O O17 0.562841 0.801288 0.500000
O O18 0.565143 0.897089 0.211832
O O19 0.500000 0.000000 0.243315
O O20 0.457712 0.948466 0.000000
O O21 0.264169 0.599455 0.000000
#
# Coordination Sequence:
#
# PCOD9445565 Si02
#       8
#     8   8   8   8   8   8   8   8
#     4  11  21  35  56  80 109 142 184 230 275 327
#     4   9  19  37  60  86 117 152 190 233 282 339
#     4   9  19  37  58  81 113 149 184 226 278 332
#     4   9  19  37  58  81 113 149 184 226 278 332
#     4   9  18  31  49  76 108 137 168 217 274 321
#     4  11  21  35  56  80 109 142 184 230 275 327
#     4  11  23  39  57  75 105 147 189 229 277 333
#     4   9  19  37  60  86 117 152 190 233 282 339
#
# _framework density 19.012284000000001
#
# number of rings (size 3 to 8) (size 9 to 14) (size 15 to 20)
#    0.000    2.250    1.250    3.375    0.000    3.500 
#    2.250    2.500    0.000    3.000    0.000    0.000 
#    0.000    0.000    0.000    0.000    0.000    0.000 
#
# Total GULP energy -356789.579246 kJ/mol
# GULP energy per Si atom -5574.837176 kJ/mol
# Density = 1.896901 g / cm^3
# Si number density = 19.012284 Si / 1000 Ang^3
#
#
#
# Elastic Constant Matrix: (Units=GPa)
#
#
# Indices 1 2 3 4 5 6 
#
# 1 49.1707 4.9464 4.7955 0.0000 0.0000 0.0000
# 2 4.9464 40.0159 -2.6099 0.0000 0.0000 0.0000
# 3 4.7955 -2.6099 12.8049 0.0000 0.0000 0.0000
# 4 0.0000 0.0000 0.0000 15.2049 0.0000 0.0000
# 5 0.0000 0.0000 0.0000 0.0000 16.6371 0.0000
# 6 0.0000 0.0000 0.0000 0.0000 0.0000 35.7086
#
#
#
# Elastic Compliance Matrix: (Units=1/GPa)
#
#
# Indices 1 2 3 4 5 6 
#
# 1 0.021512 -0.003227 -0.008714 0.000000 0.000000 0.000000
# 2 -0.003227 0.025811 0.006469 0.000000 0.000000 0.000000
# 3 -0.008714 0.006469 0.082677 0.000000 0.000000 0.000000
# 4 0.000000 0.000000 0.000000 0.065768 0.000000 0.000000
# 5 0.000000 0.000000 0.000000 0.000000 0.060107 0.000000
# 6 0.000000 0.000000 0.000000 0.000000 0.000000 0.028004
#
#
# Mechanical properties :
#
#
# Convention : Reuss Voigt Hill
#
# Bulk Modulus (GPa) = 8.39943 12.91729 10.65836
# Shear Modulus (GPa) = 14.94730 19.83409 17.39070
#
# Velocity S-wave (km/s) = 2.80695 3.23340 3.02770
# Velocity P-wave (km/s) = 3.86430 4.55508 4.22384
#
# Compressibility (1/GPa) = 0.11905564
#
# Stress axis : x y z
#
# Youngs Moduli (GPa) = 46.48601 38.74326 12.09526
#
# Poissons Ratio (x) = 0.12504 0.10540
# Poissons Ratio (y) = 0.15003 -0.07825
# Poissons Ratio (z) = 0.40508 -0.25065
#
# Static dielectric constant tensor:
#      x y z
#    x 1.647040 0.000000 0.000000 
#    y 0.000000 1.693500 0.000000 
#    z 0.000000 0.000000 1.657180 
# 
# From -- ./inp_files/10931.got.cif
#   From: 2010.05.17/outbox.cif.g08.bks.cpg/sg58_6_cif.got.tgz:10931.got - 2010.06.03 14:20:14.
