data_PCOD9445976
_publ_section_title
;
Structure prediction by ZEFSAII (Michael W. Deem and Ramdas Pophale) SiO2 
 PCOD9445976
Probable space group: P N N M
;
_chemical_formula_sum "Si O2"
_cell_formula_units_Z 64
_cell_length_a 9.000000
_cell_length_b 12.000000
_cell_length_c 30.000000
_cell_angle_alpha 90.000000
_cell_angle_beta 90.000000
_cell_angle_gamma 90.000000
_cell_volume 3240.000000
_symmetry_space_group_name_H-M "P N N M"
_symmetry_group_IT_number 58
_symmetry_cell_setting 'orthorhombic'
loop_
_space_group_symop_operation_xyz
x,y,z
-x,-y,z
1/2+x,1/2-y,1/2-z
1/2-x,1/2+y,1/2-z
-x,-y,-z
x,y,-z
1/2-x,1/2+y,1/2+z
1/2+x,1/2-y,1/2+z
loop_
_atom_site_type_symbol
_atom_site_label
_atom_site_fract_x
_atom_site_fract_y
_atom_site_fract_z
Si Si1 0.850295 0.812366 0.893114
Si Si2 0.617244 0.409654 0.859983
Si Si3 0.654737 0.339121 0.233785
Si Si4 0.329866 0.518202 0.320411
Si Si5 0.788469 0.180737 0.881462
Si Si6 0.877071 0.576374 0.873308
Si Si7 0.323966 0.002615 0.947076
Si Si8 0.505260 0.870212 0.722297
O O1 0.783293 0.872887 0.848867
O O2 0.808838 0.682706 0.897968
O O3 0.775739 0.892332 0.930106
O O4 0.031881 0.805113 0.888353
O O5 0.500000 0.500000 0.880643
O O6 0.565744 0.374403 0.810431
O O7 0.688318 0.293647 0.879601
O O8 0.757355 0.490087 0.856060
O O9 0.662452 0.439907 0.269838
O O10 0.590067 0.223982 0.252829
O O11 0.827252 0.325340 0.221620
O O12 0.500000 0.500000 0.334122
O O13 0.258419 0.402929 0.338549
O O14 0.741635 0.105593 0.923146
O O15 0.949633 0.624078 0.828272
O O16 0.000000 0.500000 0.897937
O O17 0.500000 0.000000 0.934880
O O18 0.313870 0.997068 0.000000
O O19 0.500000 0.000000 0.739437
#
# Coordination Sequence:
#
# PCOD9445976 Si02
#       8
#     8   8   8   8   8   8   8   8
#     4  10  19  39  68  92 120 169 208 259 321 384
#     4  12  27  38  61  92 127 173 224 268 326 381
#     4  12  24  39  57  81 124 170 225 276 328 375
#     4   9  20  34  60  83 114 160 215 270 320 360
#     4  10  22  42  63  95 127 163 218 268 313 390
#     4  11  20  43  61  81 122 170 215 260 318 390
#     4  10  23  43  70 103 134 160 194 259 335 395
#     4  11  25  40  57  81 117 167 220 278 331 377
#
# _framework density 19.753086
#
# number of rings (size 3 to 8) (size 9 to 14) (size 15 to 20)
#    0.000    1.375    5.000    1.500    7.000    1.000 
#    2.250    0.000    0.000    1.500    0.000    0.000 
#    0.000    0.000    0.000    0.000    0.000    0.000 
#
# Total GULP energy -356372.578971 kJ/mol
# GULP energy per Si atom -5568.321546 kJ/mol
# Density = 1.970813 g / cm^3
# Si number density = 19.753086 Si / 1000 Ang^3
#
#
#
# Elastic Constant Matrix: (Units=GPa)
#
#
# Indices 1 2 3 4 5 6 
#
# 1 49.4095 49.7836 2.1618 0.0000 0.0000 0.0000
# 2 49.7836 176.9382 36.8689 0.0000 0.0000 0.0000
# 3 2.1618 36.8689 40.9588 0.0000 0.0000 0.0000
# 4 0.0000 0.0000 0.0000 14.7397 0.0000 0.0000
# 5 0.0000 0.0000 0.0000 0.0000 20.9899 0.0000
# 6 0.0000 0.0000 0.0000 0.0000 0.0000 43.5682
#
#
#
# Elastic Compliance Matrix: (Units=1/GPa)
#
#
# Indices 1 2 3 4 5 6 
#
# 1 0.029962 -0.009971 0.007394 0.000000 0.000000 0.000000
# 2 -0.009971 0.010275 -0.008722 0.000000 0.000000 0.000000
# 3 0.007394 -0.008722 0.031876 0.000000 0.000000 0.000000
# 4 0.000000 0.000000 0.000000 0.067844 0.000000 0.000000
# 5 0.000000 0.000000 0.000000 0.000000 0.047642 0.000000
# 6 0.000000 0.000000 0.000000 0.000000 0.000000 0.022953
#
#
# Mechanical properties :
#
#
# Convention : Reuss Voigt Hill
#
# Bulk Modulus (GPa) = 20.19647 49.43723 34.81685
# Shear Modulus (GPa) = 20.02770 27.75903 23.89337
#
# Velocity S-wave (km/s) = 3.18764 3.75280 3.48171
# Velocity P-wave (km/s) = 4.87798 6.62268 5.81613
#
# Compressibility (1/GPa) = 0.04951361
#
# Stress axis : x y z
#
# Youngs Moduli (GPa) = 33.37585 97.32773 31.37163
#
# Poissons Ratio (x) = 0.97043 -0.23195
# Poissons Ratio (y) = 0.33278 0.27363
# Poissons Ratio (z) = -0.24677 0.84893
#
# Static dielectric constant tensor:
#      x y z
#    x 1.780520 0.000000 0.000000 
#    y 0.000000 1.756420 0.000000 
#    z 0.000000 0.000000 1.714390 
# 
# From -- ./inp_files/34781.got.cif
#   From: 2010.05.17/outbox.ucp.g08.bks.cvg/sg58_18_cif.got.tgz:34781.got - 2010.06.11 16:41:41.
