data_PCOD9445387
_publ_section_title
;
Structure prediction by ZEFSAII (Michael W. Deem and Ramdas Pophale) SiO2 
 PCOD9445387
Probable space group: P N N M
;
_chemical_formula_sum "Si O2"
_cell_formula_units_Z 28
_cell_length_a 17.992438
_cell_length_b 9.083373
_cell_length_c 8.448655
_cell_angle_alpha 90.000000
_cell_angle_beta 90.000000
_cell_angle_gamma 90.000000
_cell_volume 1380.780800
_symmetry_space_group_name_H-M "P N N M"
_symmetry_group_IT_number 58
_symmetry_cell_setting 'orthorhombic'
loop_
_space_group_symop_operation_xyz
x,y,z
-x,-y,z
1/2+x,1/2-y,1/2-z
1/2-x,1/2+y,1/2-z
-x,-y,-z
x,y,-z
1/2-x,1/2+y,1/2+z
1/2+x,1/2-y,1/2+z
loop_
_atom_site_type_symbol
_atom_site_label
_atom_site_fract_x
_atom_site_fract_y
_atom_site_fract_z
Si Si1 0.982317 0.742827 0.000000
Si Si2 0.877018 0.475935 0.000000
Si Si3 0.831580 0.031804 0.674385
Si Si4 0.205514 0.625267 0.680604
Si Si5 0.500000 0.500000 0.252701
O O1 0.910866 0.639137 0.000000
O O2 0.986572 0.852896 0.146507
O O3 0.054342 0.638572 0.000000
O O4 0.835877 0.448547 0.168661
O O5 0.806705 0.983471 0.500000
O O6 0.790545 0.928017 0.799587
O O7 0.805315 0.199740 0.699413
O O8 0.920453 0.026188 0.673904
O O9 0.180258 0.587903 0.500000
#
# Coordination Sequence:
#
# PCOD9445387 Si02
#       5
#     4   4   8   8   4
#     4  10  24  40  74  96 134 178 219 271 341 408
#     4  11  22  50  66 101 136 171 224 278 334 398
#     4  11  25  44  66  98 136 175 225 279 333 401
#     4  11  26  43  68  99 133 176 228 274 333 397
#     4  11  23  42  68 100 132 180 222 274 338 398
#
# _framework density 20.278381
#
# number of rings (size 3 to 8) (size 9 to 14) (size 15 to 20)
#    0.000    1.143    4.286    0.429   10.000    0.000 
#    0.000    4.286    0.000    0.000    0.000    0.000 
#    0.000    0.000    0.000    0.000    0.000    0.000 
#
# Total GULP energy -156149.787291 kJ/mol
# GULP energy per Si atom -5576.778118 kJ/mol
# Density = 2.023223 g / cm^3
# Si number density = 20.278381 Si / 1000 Ang^3
#
#
#
# Elastic Constant Matrix: (Units=GPa)
#
#
# Indices 1 2 3 4 5 6 
#
# 1 110.9169 54.5713 58.6675 0.0000 0.0000 0.0000
# 2 54.5713 97.1167 52.3741 0.0000 0.0000 0.0000
# 3 58.6675 52.3741 134.3380 0.0000 0.0000 0.0000
# 4 0.0000 0.0000 0.0000 -30.9915 0.0000 0.0000
# 5 0.0000 0.0000 0.0000 0.0000 29.2045 0.0000
# 6 0.0000 0.0000 0.0000 0.0000 0.0000 35.7773
#
#
#
# Elastic Compliance Matrix: (Units=1/GPa)
#
#
# Indices 1 2 3 4 5 6 
#
# 1 0.013851 -0.005725 -0.003817 0.000000 0.000000 0.000000
# 2 -0.005725 0.015404 -0.003506 0.000000 0.000000 0.000000
# 3 -0.003817 -0.003506 0.010478 0.000000 0.000000 0.000000
# 4 0.000000 0.000000 0.000000 -0.032267 0.000000 0.000000
# 5 0.000000 0.000000 0.000000 0.000000 0.034241 0.000000
# 6 0.000000 0.000000 0.000000 0.000000 0.000000 0.027951
#
#
# Mechanical properties :
#
#
# Convention : Reuss Voigt Hill
#
# Bulk Modulus (GPa) = 73.32302 74.84415 74.08358
# Shear Modulus (GPa) = 49.85077 18.58196 34.21637
#
# Velocity S-wave (km/s) = 4.96352 3.03040 4.11217
# Velocity P-wave (km/s) = 8.31177 7.01662 7.69150
#
# Compressibility (1/GPa) = 0.01363828
#
# Stress axis : x y z
#
# Youngs Moduli (GPa) = 72.19497 64.91743 95.44125
#
# Poissons Ratio (x) = 0.37163 0.36432
# Poissons Ratio (y) = 0.41329 0.33457
# Poissons Ratio (z) = 0.27559 0.22757
#
# Static dielectric constant tensor:
#      x y z
#    x 1.762570 0.000000 0.000000 
#    y 0.000000 1.664560 0.000000 
#    z 0.000000 0.000000 1.726450 
# 
# From -- ./inp_files/2024.got.cif
#   From: 2010.05.17/outbox.cif.g08.bks.cpg/sg58_2_cif.got.tgz:2024.got - 2010.06.03 14:20:14.
