data_PCOD9445531
_publ_section_title
;
Structure prediction by ZEFSAII (Michael W. Deem and Ramdas Pophale) SiO2 
 PCOD9445531
Probable space group: P N N M
;
_chemical_formula_sum "Si O2"
_cell_formula_units_Z 48
_cell_length_a 6.527706
_cell_length_b 21.659362
_cell_length_c 19.053558
_cell_angle_alpha 90.000000
_cell_angle_beta 90.000000
_cell_angle_gamma 90.000000
_cell_volume 2693.905347
_symmetry_space_group_name_H-M "P N N M"
_symmetry_group_IT_number 58
_symmetry_cell_setting 'orthorhombic'
loop_
_space_group_symop_operation_xyz
x,y,z
-x,-y,z
1/2+x,1/2-y,1/2-z
1/2-x,1/2+y,1/2-z
-x,-y,-z
x,y,-z
1/2-x,1/2+y,1/2+z
1/2+x,1/2-y,1/2+z
loop_
_atom_site_type_symbol
_atom_site_label
_atom_site_fract_x
_atom_site_fract_y
_atom_site_fract_z
Si Si1 0.346783 0.244254 0.671416
Si Si2 0.049467 0.072505 0.302451
Si Si3 0.959570 0.268575 0.580681
Si Si4 0.384145 0.060421 0.421151
Si Si5 0.811250 0.828777 0.802013
Si Si6 0.700279 0.153606 0.373587
O O1 0.181546 0.249653 0.610057
O O2 0.236629 0.222668 0.742231
O O3 0.463409 0.309110 0.673014
O O4 0.521682 0.192722 0.663509
O O5 0.201119 0.077033 0.369289
O O6 0.165662 0.106145 0.237748
O O7 0.848508 0.112875 0.323714
O O8 0.000000 0.000000 0.290905
O O9 0.963028 0.289558 0.500000
O O10 0.850167 0.316484 0.635211
O O11 0.831664 0.205127 0.586989
O O12 0.306800 0.049305 0.500000
O O13 0.566153 0.109660 0.422100
O O14 0.500000 0.000000 0.393683
#
# Coordination Sequence:
#
# PCOD9445531 Si02
#       6
#     8   8   8   8   8   8
#     4  11  20  36  62  88 119 152 191 253 308 357
#     4  12  24  39  59  86 121 166 212 251 289 353
#     4  11  24  39  62  90 120 155 195 250 316 370
#     4  11  23  37  54  80 121 166 205 245 285 343
#     4  11  21  38  61  88 117 153 204 252 301 358
#     4  11  21  37  58  86 119 155 201 243 294 357
#
# _framework density 17.817999
#
# number of rings (size 3 to 8) (size 9 to 14) (size 15 to 20)
#    0.000    0.833    6.667    1.500    0.000    6.333 
#    0.000    0.000    0.000    0.500    0.000    1.167 
#    0.000    0.000    0.000    0.000    0.000    0.000 
#
# Total GULP energy -267614.382632 kJ/mol
# GULP energy per Si atom -5575.299638 kJ/mol
# Density = 1.777744 g / cm^3
# Si number density = 17.817999 Si / 1000 Ang^3
#
#
#
# Elastic Constant Matrix: (Units=GPa)
#
#
# Indices 1 2 3 4 5 6 
#
# 1 100.1877 43.3000 44.2591 0.0000 0.0000 0.0000
# 2 43.3000 69.1106 36.8443 0.0000 0.0000 0.0000
# 3 44.2591 36.8443 102.8068 0.0000 0.0000 0.0000
# 4 0.0000 0.0000 0.0000 8.4774 0.0000 0.0000
# 5 0.0000 0.0000 0.0000 0.0000 22.7816 0.0000
# 6 0.0000 0.0000 0.0000 0.0000 0.0000 21.8070
#
#
#
# Elastic Compliance Matrix: (Units=1/GPa)
#
#
# Indices 1 2 3 4 5 6 
#
# 1 0.014778 -0.007253 -0.003763 0.000000 0.000000 0.000000
# 2 -0.007253 0.021447 -0.004564 0.000000 0.000000 0.000000
# 3 -0.003763 -0.004564 0.012982 0.000000 0.000000 0.000000
# 4 0.000000 0.000000 0.000000 0.117961 0.000000 0.000000
# 5 0.000000 0.000000 0.000000 0.000000 0.043895 0.000000
# 6 0.000000 0.000000 0.000000 0.000000 0.000000 0.045857
#
#
# Mechanical properties :
#
#
# Convention : Reuss Voigt Hill
#
# Bulk Modulus (GPa) = 55.40637 57.87913 56.64275
# Shear Modulus (GPa) = 17.00131 20.45998 18.73064
#
# Velocity S-wave (km/s) = 3.09231 3.39230 3.24577
# Velocity P-wave (km/s) = 6.62669 6.92081 6.77535
#
# Compressibility (1/GPa) = 0.01804847
#
# Stress axis : x y z
#
# Youngs Moduli (GPa) = 67.66738 46.62701 77.02714
#
# Poissons Ratio (x) = 0.33819 0.28983
# Poissons Ratio (y) = 0.49079 0.35153
# Poissons Ratio (z) = 0.25462 0.21279
#
# Static dielectric constant tensor:
#      x y z
#    x 1.660230 0.000000 0.000000 
#    y 0.000000 1.658220 0.000000 
#    z 0.000000 0.000000 1.632480 
# 
# From -- ./inp_files/24337.got.cif
#   From: 2010.05.17/outbox.cif.g08.bks.cpg/sg58_13_cif.got.tgz:24337.got - 2010.06.03 14:20:14.
