data_PCOD9445810
_publ_section_title
;
Structure prediction by ZEFSAII (Michael W. Deem and Ramdas Pophale) SiO2 
 PCOD9445810
Probable space group: P N N M
;
_chemical_formula_sum "Si O2"
_cell_formula_units_Z 22
_cell_length_a 4.628093
_cell_length_b 21.229154
_cell_length_c 8.161597
_cell_angle_alpha 90.000000
_cell_angle_beta 90.000000
_cell_angle_gamma 90.000000
_cell_volume 801.880978
_symmetry_space_group_name_H-M "P N N M"
_symmetry_group_IT_number 58
_symmetry_cell_setting 'orthorhombic'
loop_
_space_group_symop_operation_xyz
x,y,z
-x,-y,z
1/2+x,1/2-y,1/2-z
1/2-x,1/2+y,1/2-z
-x,-y,-z
x,y,-z
1/2-x,1/2+y,1/2+z
1/2+x,1/2-y,1/2+z
loop_
_atom_site_type_symbol
_atom_site_label
_atom_site_fract_x
_atom_site_fract_y
_atom_site_fract_z
Si Si1 0.500000 0.500000 0.000000
Si Si2 0.126632 0.216069 0.321485
Si Si3 0.251553 0.950095 0.000000
Si Si4 0.028602 0.585726 0.175607
O O1 0.726241 0.467855 0.142214
O O2 0.375251 0.268332 0.303612
O O3 0.987873 0.220649 0.500000
O O4 0.288190 0.149731 0.310106
O O5 0.318232 0.913869 0.831156
O O6 0.500000 0.000000 0.000000
O O7 0.000000 0.000000 0.000000
O O8 0.849725 0.584293 0.000000
#
# Coordination Sequence:
#
# PCOD9445810 Si02
#       4
#     2   8   4   8
#     4   8  20  54  84 118 158 232 270 342 418 510
#     4  11  25  48  81 120 159 212 270 340 420 484
#     4  12  30  48  76 117 161 214 272 338 408 492
#     4   9  24  51  83 116 169 216 276 341 417 504
#
# _framework density 27.435492
#
# number of rings (size 3 to 8) (size 9 to 14) (size 15 to 20)
#    1.091    0.727    0.000    1.091    7.636    4.364 
#    0.000    3.636    0.000    0.000    0.000    0.000 
#    0.000    0.000    0.000    0.000    0.000    0.000 
#
# Total GULP energy -122694.980282 kJ/mol
# GULP energy per Si atom -5577.044558 kJ/mol
# Density = 2.737305 g / cm^3
# Si number density = 27.435492 Si / 1000 Ang^3
#
#
#
# Elastic Constant Matrix: (Units=GPa)
#
#
# Indices 1 2 3 4 5 6 
#
# 1 148.2588 34.4860 73.9248 0.0000 0.0000 0.0000
# 2 34.4860 135.5564 57.8796 0.0000 0.0000 0.0000
# 3 73.9248 57.8796 190.6274 0.0000 0.0000 0.0000
# 4 0.0000 0.0000 0.0000 29.9200 0.0000 0.0000
# 5 0.0000 0.0000 0.0000 0.0000 24.4129 0.0000
# 6 0.0000 0.0000 0.0000 0.0000 0.0000 43.0144
#
#
#
# Elastic Compliance Matrix: (Units=1/GPa)
#
#
# Indices 1 2 3 4 5 6 
#
# 1 0.008449 -0.000862 -0.003015 0.000000 0.000000 0.000000
# 2 -0.000862 0.008564 -0.002266 0.000000 0.000000 0.000000
# 3 -0.003015 -0.002266 0.007103 0.000000 0.000000 0.000000
# 4 0.000000 0.000000 0.000000 0.033422 0.000000 0.000000
# 5 0.000000 0.000000 0.000000 0.000000 0.040962 0.000000
# 6 0.000000 0.000000 0.000000 0.000000 0.000000 0.023248
#
#
# Mechanical properties :
#
#
# Convention : Reuss Voigt Hill
#
# Bulk Modulus (GPa) = 84.53040 89.66928 87.09984
# Shear Modulus (GPa) = 36.23809 40.01294 38.12551
#
# Velocity S-wave (km/s) = 3.63829 3.82309 3.73183
# Velocity P-wave (km/s) = 6.96613 7.22791 7.09823
#
# Compressibility (1/GPa) = 0.01183006
#
# Stress axis : x y z
#
# Youngs Moduli (GPa) = 118.36218 116.77039 140.78853
#
# Poissons Ratio (x) = 0.10068 0.42442
# Poissons Ratio (y) = 0.10205 0.31900
# Poissons Ratio (z) = 0.35681 0.26458
#
# Static dielectric constant tensor:
#      x y z
#    x 1.931520 0.000000 0.000000 
#    y 0.000000 2.113390 0.000000 
#    z 0.000000 0.000000 1.874900 
# 
# From -- ./inp_files/1179.got.cif
#   From: 2010.05.17/outbox.cif.g08.bks.cpg/sg58_1_cif.got.tgz:1179.got - 2010.06.03 14:20:14.
