data_PCOD9445253
_publ_section_title
;
Structure prediction by ZEFSAII (Michael W. Deem and Ramdas Pophale) SiO2 
 PCOD9445253
Probable space group: P N N M
;
_chemical_formula_sum "Si O2"
_cell_formula_units_Z 56
_cell_length_a 14.235452
_cell_length_b 10.942948
_cell_length_c 15.974468
_cell_angle_alpha 90.000000
_cell_angle_beta 90.000000
_cell_angle_gamma 90.000000
_cell_volume 2488.467657
_symmetry_space_group_name_H-M "P N N M"
_symmetry_group_IT_number 58
_symmetry_cell_setting 'orthorhombic'
loop_
_space_group_symop_operation_xyz
x,y,z
-x,-y,z
1/2+x,1/2-y,1/2-z
1/2-x,1/2+y,1/2-z
-x,-y,-z
x,y,-z
1/2-x,1/2+y,1/2+z
1/2+x,1/2-y,1/2+z
loop_
_atom_site_type_symbol
_atom_site_label
_atom_site_fract_x
_atom_site_fract_y
_atom_site_fract_z
Si Si1 0.347487 0.187068 0.807270
Si Si2 0.345843 0.810330 0.255464
Si Si3 0.235398 0.988706 0.092659
Si Si4 0.611670 0.019897 0.411548
Si Si5 0.054316 0.120059 0.860309
Si Si6 0.973732 0.644291 0.403721
Si Si7 0.622205 0.758552 0.625420
O O1 0.261688 0.276644 0.781221
O O2 0.297495 0.062257 0.839341
O O3 0.430009 0.211996 0.873930
O O4 0.400181 0.192677 0.718919
O O5 0.402484 0.690387 0.282915
O O6 0.388988 0.835779 0.163061
O O7 0.368029 0.912065 0.325408
O O8 0.142023 0.072450 0.087725
O O9 0.194292 0.854403 0.115114
O O10 0.279916 0.986631 0.000000
O O11 0.638491 0.083725 0.500000
O O12 0.656539 0.884645 0.413251
O O13 0.500000 0.000000 0.413171
O O14 0.977461 0.205006 0.905026
O O15 0.000000 0.000000 0.831280
O O16 0.951835 0.676486 0.500000
O O17 0.000000 0.500000 0.399755
#
# Coordination Sequence:
#
# PCOD9445253 Si02
#       7
#     8   8   8   8   8   8   8
#     4  11  24  41  70  96 136 188 239 301 359 432
#     4  11  22  42  66  99 143 184 238 300 365 434
#     4  10  23  39  61  97 134 171 231 294 352 429
#     4  11  22  36  62  96 135 178 223 282 359 439
#     4   9  19  36  61  89 123 174 216 277 354 421
#     4  11  24  44  74 107 143 190 249 306 364 437
#     4  11  21  38  61  93 131 177 227 288 356 426
#
# _framework density 22.503809
#
# number of rings (size 3 to 8) (size 9 to 14) (size 15 to 20)
#    0.000    1.429    2.857    2.143    4.000    6.000 
#    0.000    0.714    0.000    1.286    0.000    0.000 
#    0.000    0.000    0.000    0.000    0.000    0.000 
#
# Total GULP energy -311975.197084 kJ/mol
# GULP energy per Si atom -5570.985662 kJ/mol
# Density = 2.245259 g / cm^3
# Si number density = 22.503809 Si / 1000 Ang^3
#
#
#
# Elastic Constant Matrix: (Units=GPa)
#
#
# Indices 1 2 3 4 5 6 
#
# 1 130.5511 22.9187 46.8719 0.0000 0.0000 0.0000
# 2 22.9187 85.9503 57.0399 0.0000 0.0000 0.0000
# 3 46.8719 57.0399 200.8897 0.0000 0.0000 0.0000
# 4 0.0000 0.0000 0.0000 16.0004 0.0000 0.0000
# 5 0.0000 0.0000 0.0000 0.0000 10.5572 0.0000
# 6 0.0000 0.0000 0.0000 0.0000 0.0000 34.3854
#
#
#
# Elastic Compliance Matrix: (Units=1/GPa)
#
#
# Indices 1 2 3 4 5 6 
#
# 1 0.008454 -0.001165 -0.001642 0.000000 0.000000 0.000000
# 2 -0.001165 0.014496 -0.003844 0.000000 0.000000 0.000000
# 3 -0.001642 -0.003844 0.006452 0.000000 0.000000 0.000000
# 4 0.000000 0.000000 0.000000 0.062498 0.000000 0.000000
# 5 0.000000 0.000000 0.000000 0.000000 0.094722 0.000000
# 6 0.000000 0.000000 0.000000 0.000000 0.000000 0.029082
#
#
# Mechanical properties :
#
#
# Convention : Reuss Voigt Hill
#
# Bulk Modulus (GPa) = 62.10739 74.56134 68.33437
# Shear Modulus (GPa) = 21.33348 31.55933 26.44640
#
# Velocity S-wave (km/s) = 3.08229 3.74893 3.43183
# Velocity P-wave (km/s) = 6.35027 7.20721 6.79227
#
# Compressibility (1/GPa) = 0.01610114
#
# Stress axis : x y z
#
# Youngs Moduli (GPa) = 118.29093 68.98256 154.97984
#
# Poissons Ratio (x) = 0.08034 0.25444
# Poissons Ratio (y) = 0.13777 0.59579
# Poissons Ratio (z) = 0.19420 0.26519
#
# Static dielectric constant tensor:
#      x y z
#    x 1.890200 0.000000 0.000000 
#    y 0.000000 1.872180 0.000000 
#    z 0.000000 0.000000 1.894660 
# 
# From -- ./inp_files/22219.got.cif
#   From: 2010.05.17/outbox.cif.g08.bks.cpg/sg58_12_cif.got.tgz:22219.got - 2010.06.03 14:20:14.
