data_PCOD9445691
_publ_section_title
;
Structure prediction by ZEFSAII (Michael W. Deem and Ramdas Pophale) SiO2 
 PCOD9445691
Probable space group: P N N M
;
_chemical_formula_sum "Si O2"
_cell_formula_units_Z 56
_cell_length_a 17.292478
_cell_length_b 12.778322
_cell_length_c 12.266644
_cell_angle_alpha 90.000000
_cell_angle_beta 90.000000
_cell_angle_gamma 90.000000
_cell_volume 2710.546243
_symmetry_space_group_name_H-M "P N N M"
_symmetry_group_IT_number 58
_symmetry_cell_setting 'orthorhombic'
loop_
_space_group_symop_operation_xyz
x,y,z
-x,-y,z
1/2+x,1/2-y,1/2-z
1/2-x,1/2+y,1/2-z
-x,-y,-z
x,y,-z
1/2-x,1/2+y,1/2+z
1/2+x,1/2-y,1/2+z
loop_
_atom_site_type_symbol
_atom_site_label
_atom_site_fract_x
_atom_site_fract_y
_atom_site_fract_z
Si Si1 0.086379 0.757570 0.760082
Si Si2 0.147815 0.358709 0.249274
Si Si3 0.151612 0.576192 0.872782
Si Si4 0.701673 0.582367 0.372530
Si Si5 0.504517 0.881391 0.873003
Si Si6 0.534953 0.384649 0.125045
Si Si7 0.809113 0.868905 0.247450
O O1 0.085335 0.664194 0.850119
O O2 0.151511 0.837734 0.799067
O O3 0.083898 0.678783 0.655327
O O4 0.016863 0.832211 0.720680
O O5 0.137270 0.457802 0.169321
O O6 0.210005 0.395095 0.339517
O O7 0.068645 0.333713 0.311134
O O8 0.178941 0.248588 0.201798
O O9 0.226308 0.618328 0.806304
O O10 0.168402 0.573620 0.000000
O O11 0.687770 0.601076 0.500000
O O12 0.683766 0.462948 0.338892
O O13 0.500000 0.000000 0.833855
O O14 0.492099 0.883374 0.000000
O O15 0.500000 0.500000 0.118117
O O16 0.623682 0.386297 0.162854
O O17 0.527855 0.341061 0.000000
#
# Coordination Sequence:
#
# PCOD9445691 Si02
#       7
#     8   8   8   8   8   8   8
#     4  12  22  40  64  96 132 168 208 266 320 398
#     4  11  23  43  69  94 128 166 222 274 312 388
#     4  11  25  44  65  94 132 177 214 263 330 387
#     4  11  25  44  65  94 132 177 214 263 330 387
#     4  11  23  40  65  98 132 167 212 270 328 373
#     4  11  23  40  65  98 132 167 212 270 328 373
#     4  11  23  43  69  94 128 166 222 274 312 388
#
# _framework density 20.660042000000001
#
# number of rings (size 3 to 8) (size 9 to 14) (size 15 to 20)
#    0.000    0.857    5.714    1.714    0.000    1.714 
#    0.000    5.714    0.000    0.000    0.000    0.000 
#    0.000    0.000    0.000    0.000    0.000    0.000 
#
# Total GULP energy -311804.719309 kJ/mol
# GULP energy per Si atom -5567.941416 kJ/mol
# Density = 2.061302 g / cm^3
# Si number density = 20.660042 Si / 1000 Ang^3
#
#
#
# Elastic Constant Matrix: (Units=GPa)
#
#
# Indices 1 2 3 4 5 6 
#
# 1 71.2079 30.4006 51.6153 0.0000 0.0000 0.0000
# 2 30.4006 152.6262 40.8372 0.0000 0.0000 0.0000
# 3 51.6153 40.8372 52.2747 0.0000 0.0000 0.0000
# 4 0.0000 0.0000 0.0000 -30.9943 0.0000 0.0000
# 5 0.0000 0.0000 0.0000 0.0000 14.9912 0.0000
# 6 0.0000 0.0000 0.0000 0.0000 0.0000 31.3006
#
#
#
# Elastic Compliance Matrix: (Units=1/GPa)
#
#
# Indices 1 2 3 4 5 6 
#
# 1 0.051471 0.004230 -0.054126 0.000000 0.000000 0.000000
# 2 0.004230 0.008631 -0.010919 0.000000 0.000000 0.000000
# 3 -0.054126 -0.010919 0.081103 0.000000 0.000000 0.000000
# 4 0.000000 0.000000 0.000000 -0.032264 0.000000 0.000000
# 5 0.000000 0.000000 0.000000 0.000000 0.066706 0.000000
# 6 0.000000 0.000000 0.000000 0.000000 0.000000 0.031948
#
#
# Mechanical properties :
#
#
# Convention : Reuss Voigt Hill
#
# Bulk Modulus (GPa) = 51.08708 57.97946 54.53327
# Shear Modulus (GPa) = 14.89198 13.27656 14.08427
#
# Velocity S-wave (km/s) = 2.68770 2.53775 2.61380
# Velocity P-wave (km/s) = 5.86625 6.05899 5.96340
#
# Compressibility (1/GPa) = 0.01957442
#
# Stress axis : x y z
#
# Youngs Moduli (GPa) = 19.42839 115.86152 12.32994
#
# Poissons Ratio (x) = -0.49010 0.66737
# Poissons Ratio (y) = -0.08218 0.13463
# Poissons Ratio (z) = 1.05159 1.26512
#
# Static dielectric constant tensor:
#      x y z
#    x 1.755210 0.000000 0.000000 
#    y 0.000000 1.855900 0.000000 
#    z 0.000000 0.000000 1.691080 
# 
# From -- ./inp_files/15698.got.cif
#   From: 2010.05.17/outbox.cif.g08.bks.cpg/sg58_8_cif.got.tgz:15698.got - 2010.06.03 14:20:14.
