data_PCOD9445839
_publ_section_title
;
Structure prediction by ZEFSAII (Michael W. Deem and Ramdas Pophale) SiO2 
 PCOD9445839
Probable space group: P N N M
;
_chemical_formula_sum "Si O2"
_cell_formula_units_Z 38
_cell_length_a 14.755157
_cell_length_b 5.183555
_cell_length_c 23.397198
_cell_angle_alpha 90.000000
_cell_angle_beta 90.000000
_cell_angle_gamma 90.000000
_cell_volume 1789.515219
_symmetry_space_group_name_H-M "P N N M"
_symmetry_group_IT_number 58
_symmetry_cell_setting 'orthorhombic'
loop_
_space_group_symop_operation_xyz
x,y,z
-x,-y,z
1/2+x,1/2-y,1/2-z
1/2-x,1/2+y,1/2-z
-x,-y,-z
x,y,-z
1/2-x,1/2+y,1/2+z
1/2+x,1/2-y,1/2+z
loop_
_atom_site_type_symbol
_atom_site_label
_atom_site_fract_x
_atom_site_fract_y
_atom_site_fract_z
Si Si1 0.000000 0.000000 0.000000
Si Si2 0.935665 0.753258 0.500000
Si Si3 0.230008 0.223990 0.415123
Si Si4 0.209205 0.206106 0.278809
Si Si5 0.153031 0.225562 0.081045
Si Si6 0.940381 0.746799 0.801517
O O1 0.059271 0.159447 0.049221
O O2 0.866756 0.771136 0.446193
O O3 0.000000 0.500000 0.500000
O O4 0.000000 0.000000 0.500000
O O5 0.220668 0.204385 0.346581
O O6 0.280850 0.487446 0.430667
O O7 0.295545 0.989287 0.434229
O O8 0.270749 0.427047 0.249274
O O9 0.108619 0.280872 0.258973
O O10 0.133291 0.234126 0.148496
O O11 0.000000 0.500000 0.814621
O O12 0.000000 0.000000 0.802582
#
# Coordination Sequence:
#
# PCOD9445839 Si02
#       6
#     2   4   8   8   8   8
#     4  12  28  40  68 102 144 190 236 266 354 406
#     4  12  28  49  76 103 137 182 242 311 359 410
#     4  12  25  48  73 100 139 184 241 290 355 424
#     4  12  23  42  70  98 133 183 227 279 350 419
#     4  12  25  43  68 100 143 189 230 282 340 426
#     4  12  24  41  64 100 140 175 220 284 340 408
#
# _framework density 21.234801000000001
#
# number of rings (size 3 to 8) (size 9 to 14) (size 15 to 20)
#    0.000    0.000    5.263    5.053    0.000    2.526 
#    0.000    0.000    0.000    0.000    0.000    0.000 
#    0.000    0.000    0.000    0.000    0.000    0.000 
#
# Total GULP energy -212144.151964 kJ/mol
# GULP energy per Si atom -5582.740841 kJ/mol
# Density = 2.118647 g / cm^3
# Si number density = 21.234801 Si / 1000 Ang^3
#
#
#
# Elastic Constant Matrix: (Units=GPa)
#
#
# Indices 1 2 3 4 5 6 
#
# 1 88.8514 44.5745 23.6166 0.0000 0.0000 0.0000
# 2 44.5745 130.5770 18.0406 0.0000 0.0000 0.0000
# 3 23.6166 18.0406 149.4896 0.0000 0.0000 0.0000
# 4 0.0000 0.0000 0.0000 311.3931 0.0000 0.0000
# 5 0.0000 0.0000 0.0000 0.0000 57.0824 0.0000
# 6 0.0000 0.0000 0.0000 0.0000 0.0000 45.3781
#
#
#
# Elastic Compliance Matrix: (Units=1/GPa)
#
#
# Indices 1 2 3 4 5 6 
#
# 1 0.013974 -0.004541 -0.001660 0.000000 0.000000 0.000000
# 2 -0.004541 0.009264 -0.000401 0.000000 0.000000 0.000000
# 3 -0.001660 -0.000401 0.007000 0.000000 0.000000 0.000000
# 4 0.000000 0.000000 0.000000 0.003211 0.000000 0.000000
# 5 0.000000 0.000000 0.000000 0.000000 0.017519 0.000000
# 6 0.000000 0.000000 0.000000 0.000000 0.000000 0.022037
#
#
# Mechanical properties :
#
#
# Convention : Reuss Voigt Hill
#
# Bulk Modulus (GPa) = 58.70124 60.15349 59.42737
# Shear Modulus (GPa) = 54.41563 101.61647 78.01605
#
# Velocity S-wave (km/s) = 5.06767 6.92514 6.06791
# Velocity P-wave (km/s) = 7.87056 9.60900 8.78289
#
# Compressibility (1/GPa) = 0.01703542
#
# Stress axis : x y z
#
# Youngs Moduli (GPa) = 71.56183 107.94737 142.85792
#
# Poissons Ratio (x) = 0.49018 0.23709
# Poissons Ratio (y) = 0.32496 0.05723
# Poissons Ratio (z) = 0.11877 0.04324
#
# Static dielectric constant tensor:
#      x y z
#    x 1.770610 0.000000 0.000000 
#    y 0.000000 1.756210 0.000000 
#    z 0.000000 0.000000 1.849170 
# 
# From -- ./inp_files/33469.got.cif
#   From: 2010.05.17/outbox.cif.g08.bks.cpg/sg58_17_cif.got.tgz:33469.got - 2010.06.03 14:20:14.
