data_PCOD9445629
_publ_section_title
;
Structure prediction by ZEFSAII (Michael W. Deem and Ramdas Pophale) SiO2 
 PCOD9445629
Probable space group: P N N M
;
_chemical_formula_sum "Si O2"
_cell_formula_units_Z 48
_cell_length_a 19.431110
_cell_length_b 15.102152
_cell_length_c 7.680413
_cell_angle_alpha 90.000000
_cell_angle_beta 90.000000
_cell_angle_gamma 90.000000
_cell_volume 2253.829305
_symmetry_space_group_name_H-M "P N N M"
_symmetry_group_IT_number 58
_symmetry_cell_setting 'orthorhombic'
loop_
_space_group_symop_operation_xyz
x,y,z
-x,-y,z
1/2+x,1/2-y,1/2-z
1/2-x,1/2+y,1/2-z
-x,-y,-z
x,y,-z
1/2-x,1/2+y,1/2+z
1/2+x,1/2-y,1/2+z
loop_
_atom_site_type_symbol
_atom_site_label
_atom_site_fract_x
_atom_site_fract_y
_atom_site_fract_z
Si Si1 0.236148 0.725549 0.799479
Si Si2 0.028139 0.403882 0.212865
Si Si3 0.419774 0.243013 0.287186
Si Si4 0.432968 0.445728 0.712840
Si Si5 0.294194 0.540015 0.700489
Si Si6 0.815574 0.602770 0.799570
O O1 0.157882 0.719010 0.732333
O O2 0.271660 0.630403 0.790264
O O3 0.279756 0.801629 0.707397
O O4 0.231491 0.755059 0.000000
O O5 0.106877 0.392162 0.270414
O O6 0.000000 0.500000 0.263808
O O7 0.976635 0.326937 0.272827
O O8 0.028305 0.400766 0.000000
O O9 0.420887 0.240641 0.500000
O O10 0.434797 0.343527 0.232406
O O11 0.500000 0.500000 0.767243
O O12 0.431479 0.444985 0.500000
O O13 0.362926 0.493421 0.771565
O O14 0.307768 0.563660 0.500000
O O15 0.233232 0.468434 0.708646
O O16 0.820055 0.572832 0.000000
#
# Coordination Sequence:
#
# PCOD9445629 Si02
#       6
#     8   8   8   8   8   8
#     4  11  22  38  60  86 117 153 191 238 292 345
#     4   9  18  32  54  85 114 144 192 242 279 331
#     4   9  17  33  56  81 111 148 191 238 281 329
#     4   9  18  32  54  82 110 145 193 241 279 327
#     4  11  22  38  60  87 116 151 195 242 290 343
#     4  11  22  37  60  90 119 150 189 239 293 347
#
# _framework density 21.297087000000001
#
# number of rings (size 3 to 8) (size 9 to 14) (size 15 to 20)
#    0.000    2.000    1.667    2.500    2.333    2.667 
#    0.000    0.000    0.000   15.000    0.000    0.000 
#    0.000    0.000    0.000    0.000    0.000    0.000 
#
# Total GULP energy -268281.057473 kJ/mol
# GULP energy per Si atom -5589.188697 kJ/mol
# Density = 2.124861 g / cm^3
# Si number density = 21.297087 Si / 1000 Ang^3
#
#
#
# Elastic Constant Matrix: (Units=GPa)
#
#
# Indices 1 2 3 4 5 6 
#
# 1 148.7522 39.4386 -2.2718 0.0000 0.0000 0.0000
# 2 39.4386 101.5543 -10.2784 0.0000 0.0000 0.0000
# 3 -2.2718 -10.2784 38.8020 0.0000 0.0000 0.0000
# 4 0.0000 0.0000 0.0000 23.1826 0.0000 0.0000
# 5 0.0000 0.0000 0.0000 0.0000 20.0726 0.0000
# 6 0.0000 0.0000 0.0000 0.0000 0.0000 41.8817
#
#
#
# Elastic Compliance Matrix: (Units=1/GPa)
#
#
# Indices 1 2 3 4 5 6 
#
# 1 0.007499 -0.002947 -0.000342 0.000000 0.000000 0.000000
# 2 -0.002947 0.011276 0.002814 0.000000 0.000000 0.000000
# 3 -0.000342 0.002814 0.026497 0.000000 0.000000 0.000000
# 4 0.000000 0.000000 0.000000 0.043136 0.000000 0.000000
# 5 0.000000 0.000000 0.000000 0.000000 0.049819 0.000000
# 6 0.000000 0.000000 0.000000 0.000000 0.000000 0.023877
#
#
# Mechanical properties :
#
#
# Convention : Reuss Voigt Hill
#
# Bulk Modulus (GPa) = 22.56078 38.09837 30.32957
# Shear Modulus (GPa) = 28.11734 34.50872 31.31303
#
# Velocity S-wave (km/s) = 3.63746 4.02972 3.83860
# Velocity P-wave (km/s) = 5.31581 6.29122 5.82397
#
# Compressibility (1/GPa) = 0.04432472
#
# Stress axis : x y z
#
# Youngs Moduli (GPa) = 133.35787 88.68287 37.73956
#
# Poissons Ratio (x) = 0.26132 0.01289
# Poissons Ratio (y) = 0.39296 -0.10622
# Poissons Ratio (z) = 0.04554 -0.24959
#
# Static dielectric constant tensor:
#      x y z
#    x 1.743540 0.000000 0.000000 
#    y 0.000000 1.699780 0.000000 
#    z 0.000000 0.000000 1.797740 
# 
# From -- ./inp_files/5809.got.cif
#   From: 2010.05.17/outbox.cif.g08.bks.cpg/sg58_3_cif.got.tgz:5809.got - 2010.06.03 14:20:14.
