data_PCOD9445285
_publ_section_title
;
Structure prediction by ZEFSAII (Michael W. Deem and Ramdas Pophale) SiO2 
 PCOD9445285
Probable space group: P N N M
;
_chemical_formula_sum "Si O2"
_cell_formula_units_Z 40
_cell_length_a 14.002871
_cell_length_b 14.138224
_cell_length_c 8.125250
_cell_angle_alpha 90.000000
_cell_angle_beta 90.000000
_cell_angle_gamma 90.000000
_cell_volume 1608.602275
_symmetry_space_group_name_H-M "P N N M"
_symmetry_group_IT_number 58
_symmetry_cell_setting 'orthorhombic'
loop_
_space_group_symop_operation_xyz
x,y,z
-x,-y,z
1/2+x,1/2-y,1/2-z
1/2-x,1/2+y,1/2-z
-x,-y,-z
x,y,-z
1/2-x,1/2+y,1/2+z
1/2+x,1/2-y,1/2+z
loop_
_atom_site_type_symbol
_atom_site_label
_atom_site_fract_x
_atom_site_fract_y
_atom_site_fract_z
Si Si1 0.496122 0.723189 0.299992
Si Si2 0.715982 0.283107 0.690600
Si Si3 0.105240 0.601407 0.809037
Si Si4 0.097435 0.953771 0.307598
Si Si5 0.796038 0.576432 0.315197
O O1 0.504295 0.717399 0.500000
O O2 0.390618 0.689562 0.252056
O O3 0.519294 0.831007 0.251664
O O4 0.573809 0.656878 0.215712
O O5 0.729356 0.309722 0.500000
O O6 0.800596 0.332004 0.790297
O O7 0.709815 0.168796 0.701709
O O8 0.125998 0.503191 0.720682
O O9 0.090910 0.579526 0.000000
O O10 0.109224 0.977051 0.500000
O O11 0.193710 0.974933 0.211296
O O12 0.000000 0.000000 0.242223
O O13 0.803656 0.612088 0.500000
#
# Coordination Sequence:
#
# PCOD9445285 Si02
#       5
#     8   8   8   8   8
#     4  10  23  41  64  92 127 168 209 260 324 386
#     4  11  23  42  66  95 129 169 213 265 323 384
#     4  11  23  42  65  93 128 169 214 266 323 383
#     4  11  23  39  63  95 127 163 213 269 321 379
#     4  12  25  41  63  92 128 172 215 265 321 379
#
# _framework density 24.866308
#
# number of rings (size 3 to 8) (size 9 to 14) (size 15 to 20)
#    0.000    1.000    2.000    4.800    0.000    8.000 
#    0.000    4.000    0.000    0.000    0.000    0.000 
#    0.000    0.000    0.000    0.000    0.000    0.000 
#
# Total GULP energy -224029.363657 kJ/mol
# GULP energy per Si atom -5600.734091 kJ/mol
# Density = 2.480971 g / cm^3
# Si number density = 24.866308 Si / 1000 Ang^3
#
#
#
# Elastic Constant Matrix: (Units=GPa)
#
#
# Indices 1 2 3 4 5 6 
#
# 1 64.8754 5.9845 -3.9684 0.0000 0.0000 0.0000
# 2 5.9845 86.6342 -7.2822 0.0000 0.0000 0.0000
# 3 -3.9684 -7.2822 47.6338 0.0000 0.0000 0.0000
# 4 0.0000 0.0000 0.0000 85.7576 0.0000 0.0000
# 5 0.0000 0.0000 0.0000 0.0000 121.6062 0.0000
# 6 0.0000 0.0000 0.0000 0.0000 0.0000 52.5441
#
#
#
# Elastic Compliance Matrix: (Units=1/GPa)
#
#
# Indices 1 2 3 4 5 6 
#
# 1 0.015575 -0.000979 0.001148 0.000000 0.000000 0.000000
# 2 -0.000979 0.011755 0.001715 0.000000 0.000000 0.000000
# 3 0.001148 0.001715 0.021351 0.000000 0.000000 0.000000
# 4 0.000000 0.000000 0.000000 0.011661 0.000000 0.000000
# 5 0.000000 0.000000 0.000000 0.000000 0.008223 0.000000
# 6 0.000000 0.000000 0.000000 0.000000 0.000000 0.019032
#
#
# Mechanical properties :
#
#
# Convention : Reuss Voigt Hill
#
# Bulk Modulus (GPa) = 19.06635 20.95681 20.01158
# Shear Modulus (GPa) = 49.35274 65.60887 57.48081
#
# Velocity S-wave (km/s) = 4.45986 5.14217 4.81312
# Velocity P-wave (km/s) = 5.84847 6.61075 6.24126
#
# Compressibility (1/GPa) = 0.05244843
#
# Stress axis : x y z
#
# Youngs Moduli (GPa) = 64.20660 85.07283 46.83542
#
# Poissons Ratio (x) = 0.08332 -0.05376
# Poissons Ratio (y) = 0.06288 -0.08034
# Poissons Ratio (z) = -0.07370 -0.14594
#
# Static dielectric constant tensor:
#      x y z
#    x 1.987490 0.000000 0.000000 
#    y 0.000000 2.060650 0.000000 
#    z 0.000000 0.000000 1.832000 
# 
# From -- ./inp_files/5363.got.cif
#   From: 2010.05.17/outbox.cif.g08.bks.cpg/sg58_3_cif.got.tgz:5363.got - 2010.06.03 14:20:14.
