data_PCOD9445088
_publ_section_title
;
Structure prediction by ZEFSAII (Michael W. Deem and Ramdas Pophale) SiO2 
 PCOD9445088
Probable space group: P N N M
;
_chemical_formula_sum "Si O2"
_cell_formula_units_Z 40
_cell_length_a 14.319828
_cell_length_b 8.753769
_cell_length_c 15.986233
_cell_angle_alpha 90.000000
_cell_angle_beta 90.000000
_cell_angle_gamma 90.000000
_cell_volume 2003.913736
_symmetry_space_group_name_H-M "P N N M"
_symmetry_group_IT_number 58
_symmetry_cell_setting 'orthorhombic'
loop_
_space_group_symop_operation_xyz
x,y,z
-x,-y,z
1/2+x,1/2-y,1/2-z
1/2-x,1/2+y,1/2-z
-x,-y,-z
x,y,-z
1/2-x,1/2+y,1/2+z
1/2+x,1/2-y,1/2+z
loop_
_atom_site_type_symbol
_atom_site_label
_atom_site_fract_x
_atom_site_fract_y
_atom_site_fract_z
Si Si1 0.605228 0.940765 0.500000
Si Si2 0.784253 0.570680 0.159941
Si Si3 0.901938 0.911181 0.399454
Si Si4 0.601998 0.575314 0.500000
Si Si5 0.601996 0.067646 0.170461
Si Si6 0.743996 0.385430 0.409832
O O1 0.602941 0.756763 0.500000
O O2 0.500000 0.000000 0.500000
O O3 0.655673 0.003066 0.416870
O O4 0.681600 0.500753 0.146750
O O5 0.836159 0.541656 0.246661
O O6 0.776597 0.753934 0.154749
O O7 0.882838 0.902390 0.500000
O O8 0.905246 0.741875 0.360366
O O9 0.000000 0.000000 0.388980
O O10 0.500000 0.500000 0.500000
O O11 0.661555 0.509009 0.421561
O O12 0.500000 0.000000 0.183379
O O13 0.659558 0.971110 0.102731
O O14 0.746748 0.303040 0.500000
#
# Coordination Sequence:
#
# PCOD9445088 Si02
#       6
#     4   8   8   4   8   8
#     4  12  22  40  67  92 129 180 228 268 330 402
#     4  12  23  44  67  97 134 176 225 277 336 400
#     4  11  24  44  72 100 131 183 230 276 333 405
#     4  10  22  40  65  96 125 172 226 276 326 386
#     4  12  26  42  65 102 141 177 220 278 340 398
#     4  10  22  42  67  96 131 174 219 276 327 396
#
# _framework density 19.960937999999999
#
# number of rings (size 3 to 8) (size 9 to 14) (size 15 to 20)
#    0.600    0.200    2.000    6.000    0.000    3.200 
#    0.000   10.000    0.000    0.000    0.000    0.000 
#    0.000    0.000    0.000    0.000    0.000    0.000 
#
# Total GULP energy -223427.976072 kJ/mol
# GULP energy per Si atom -5585.699402 kJ/mol
# Density = 1.991551 g / cm^3
# Si number density = 19.960938 Si / 1000 Ang^3
#
#
#
# Elastic Constant Matrix: (Units=GPa)
#
#
# Indices 1 2 3 4 5 6 
#
# 1 165.0695 63.7158 45.1904 0.0000 0.0000 0.0000
# 2 63.7158 155.6558 27.8003 0.0000 0.0000 0.0000
# 3 45.1904 27.8003 77.3321 0.0000 0.0000 0.0000
# 4 0.0000 0.0000 0.0000 64.4418 0.0000 0.0000
# 5 0.0000 0.0000 0.0000 0.0000 33.1595 0.0000
# 6 0.0000 0.0000 0.0000 0.0000 0.0000 39.7163
#
#
#
# Elastic Compliance Matrix: (Units=1/GPa)
#
#
# Indices 1 2 3 4 5 6 
#
# 1 0.008117 -0.002645 -0.003793 0.000000 0.000000 0.000000
# 2 -0.002645 0.007727 -0.001232 0.000000 0.000000 0.000000
# 3 -0.003793 -0.001232 0.015590 0.000000 0.000000 0.000000
# 4 0.000000 0.000000 0.000000 0.015518 0.000000 0.000000
# 5 0.000000 0.000000 0.000000 0.000000 0.030157 0.000000
# 6 0.000000 0.000000 0.000000 0.000000 0.000000 0.025179
#
#
# Mechanical properties :
#
#
# Convention : Reuss Voigt Hill
#
# Bulk Modulus (GPa) = 62.13045 74.60782 68.36914
# Shear Modulus (GPa) = 40.65238 44.88690 42.76964
#
# Velocity S-wave (km/s) = 4.51776 4.74723 4.63392
# Velocity P-wave (km/s) = 7.64246 8.21622 7.93453
#
# Compressibility (1/GPa) = 0.01609517
#
# Stress axis : x y z
#
# Youngs Moduli (GPa) = 123.19148 129.41065 64.14206
#
# Poissons Ratio (x) = 0.34235 0.24326
# Poissons Ratio (y) = 0.32589 0.07902
# Poissons Ratio (z) = 0.46721 0.15944
#
# Static dielectric constant tensor:
#      x y z
#    x 1.670080 0.000000 0.000000 
#    y 0.000000 1.663970 0.000000 
#    z 0.000000 0.000000 1.589220 
# 
# From -- ./inp_files/25952.got.cif
#   From: 2010.05.17/outbox.cif.g08.bks.cpg/sg58_13_cif.got.tgz:25952.got - 2010.06.03 14:20:14.
