data_PCOD9445583
_publ_section_title
;
Structure prediction by ZEFSAII (Michael W. Deem and Ramdas Pophale) SiO2 
 PCOD9445583
Probable space group: P N N M
;
_chemical_formula_sum "Si O2"
_cell_formula_units_Z 40
_cell_length_a 19.179995
_cell_length_b 11.023986
_cell_length_c 10.186924
_cell_angle_alpha 90.000000
_cell_angle_beta 90.000000
_cell_angle_gamma 90.000000
_cell_volume 2153.923173
_symmetry_space_group_name_H-M "P N N M"
_symmetry_group_IT_number 58
_symmetry_cell_setting 'orthorhombic'
loop_
_space_group_symop_operation_xyz
x,y,z
-x,-y,z
1/2+x,1/2-y,1/2-z
1/2-x,1/2+y,1/2-z
-x,-y,-z
x,y,-z
1/2-x,1/2+y,1/2+z
1/2+x,1/2-y,1/2+z
loop_
_atom_site_type_symbol
_atom_site_label
_atom_site_fract_x
_atom_site_fract_y
_atom_site_fract_z
Si Si1 0.340558 0.061863 0.500000
Si Si2 0.573389 0.068700 0.266762
Si Si3 0.172488 0.046267 0.500000
Si Si4 0.109795 0.948902 0.763254
Si Si5 0.482461 0.675102 0.349927
Si Si6 0.356743 0.830850 0.000000
Si Si7 0.809227 0.157946 0.000000
O O1 0.256783 0.041970 0.500000
O O2 0.343120 0.207859 0.500000
O O3 0.378470 0.006066 0.370418
O O4 0.552117 0.195366 0.334162
O O5 0.500000 0.000000 0.243171
O O6 0.610581 0.106939 0.130135
O O7 0.138657 0.182659 0.500000
O O8 0.144941 0.977672 0.627047
O O9 0.049423 0.847089 0.758539
O O10 0.071842 0.070351 0.813868
O O11 0.164833 0.908660 0.870554
O O12 0.505799 0.656964 0.500000
O O13 0.273687 0.844054 0.000000
#
# Coordination Sequence:
#
# PCOD9445583 Si02
#       7
#     4   8   4   8   8   4   4
#     4  11  25  43  66  96 125 172 219 252 323 384
#     4  12  24  42  68  91 131 169 215 263 317 381
#     4  11  24  42  64  97 134 164 206 270 323 385
#     4  11  21  39  66  95 126 159 212 265 314 370
#     4  11  21  38  68  96 120 165 219 257 314 374
#     4  11  25  43  61  95 132 171 207 259 334 375
#     4  11  22  42  68  90 130 169 212 262 311 389
#
# _framework density 18.570765000000002
#
# number of rings (size 3 to 8) (size 9 to 14) (size 15 to 20)
#    0.000    0.800    5.000    3.600    0.000    2.400 
#    0.000    3.000    4.400    0.000    0.000    0.000 
#    0.000    0.000    0.000    0.000    0.000    0.000 
#
# Total GULP energy -223393.562349 kJ/mol
# GULP energy per Si atom -5584.839059 kJ/mol
# Density = 1.852850 g / cm^3
# Si number density = 18.570765 Si / 1000 Ang^3
#
#
#
# Elastic Constant Matrix: (Units=GPa)
#
#
# Indices 1 2 3 4 5 6 
#
# 1 114.7555 60.3865 84.1908 0.0000 0.0000 0.0000
# 2 60.3865 74.6468 69.8483 0.0000 0.0000 0.0000
# 3 84.1908 69.8483 184.5582 0.0000 0.0000 0.0000
# 4 0.0000 0.0000 0.0000 19.0834 0.0000 0.0000
# 5 0.0000 0.0000 0.0000 0.0000 52.6830 0.0000
# 6 0.0000 0.0000 0.0000 0.0000 0.0000 35.5910
#
#
#
# Elastic Compliance Matrix: (Units=1/GPa)
#
#
# Indices 1 2 3 4 5 6 
#
# 1 0.016814 -0.009948 -0.003905 0.000000 0.000000 0.000000
# 2 -0.009948 0.026627 -0.005539 0.000000 0.000000 0.000000
# 3 -0.003905 -0.005539 0.009296 0.000000 0.000000 0.000000
# 4 0.000000 0.000000 0.000000 0.052402 0.000000 0.000000
# 5 0.000000 0.000000 0.000000 0.000000 0.018981 0.000000
# 6 0.000000 0.000000 0.000000 0.000000 0.000000 0.028097
#
#
# Mechanical properties :
#
#
# Convention : Reuss Voigt Hill
#
# Bulk Modulus (GPa) = 71.67152 89.20128 80.43640
# Shear Modulus (GPa) = 25.55547 32.10715 28.83131
#
# Velocity S-wave (km/s) = 3.71362 4.16253 3.94447
# Velocity P-wave (km/s) = 7.55417 8.44036 8.00953
#
# Compressibility (1/GPa) = 0.01395254
#
# Stress axis : x y z
#
# Youngs Moduli (GPa) = 59.47457 37.55585 107.56930
#
# Poissons Ratio (x) = 0.37359 0.42009
# Poissons Ratio (y) = 0.59163 0.59588
# Poissons Ratio (z) = 0.23227 0.20804
#
# Static dielectric constant tensor:
#      x y z
#    x 1.638610 0.000000 0.000000 
#    y 0.000000 1.643950 0.000000 
#    z 0.000000 0.000000 1.606050 
# 
# From -- ./inp_files/8814.got.cif
#   From: 2010.05.17/outbox.cif.g08.bks.cpg/sg58_5_cif.got.tgz:8814.got - 2010.06.03 14:20:14.
