data_PCOD9445957
_publ_section_title
;
Structure prediction by ZEFSAII (Michael W. Deem and Ramdas Pophale) SiO2 
 PCOD9445957
Probable space group: P N N M
;
_chemical_formula_sum "Si O2"
_cell_formula_units_Z 56
_cell_length_a 21.000000
_cell_length_b 15.000000
_cell_length_c 9.000000
_cell_angle_alpha 90.000000
_cell_angle_beta 90.000000
_cell_angle_gamma 90.000000
_cell_volume 2835.000000
_symmetry_space_group_name_H-M "P N N M"
_symmetry_group_IT_number 58
_symmetry_cell_setting 'orthorhombic'
loop_
_space_group_symop_operation_xyz
x,y,z
-x,-y,z
1/2+x,1/2-y,1/2-z
1/2-x,1/2+y,1/2-z
-x,-y,-z
x,y,-z
1/2-x,1/2+y,1/2+z
1/2+x,1/2-y,1/2+z
loop_
_atom_site_type_symbol
_atom_site_label
_atom_site_fract_x
_atom_site_fract_y
_atom_site_fract_z
Si Si1 0.490511 0.150699 0.179869
Si Si2 0.576020 0.499169 0.174463
Si Si3 0.265153 0.259039 0.678329
Si Si4 0.895604 0.201701 0.319538
Si Si5 0.266128 0.962286 0.179272
Si Si6 0.906466 0.521599 0.681332
Si Si7 0.172091 0.118486 0.821609
O O1 0.458439 0.242690 0.227992
O O2 0.558828 0.113067 0.229922
O O3 0.444928 0.067379 0.219649
O O4 0.492944 0.155573 0.000000
O O5 0.500000 0.500000 0.185880
O O6 0.600054 0.597631 0.226000
O O7 0.604272 0.414605 0.261725
O O8 0.592934 0.490056 0.000000
O O9 0.268161 0.247233 0.500000
O O10 0.334492 0.246962 0.752852
O O11 0.250512 0.361715 0.714553
O O12 0.208406 0.200665 0.746817
O O13 0.891625 0.203602 0.500000
O O14 0.335533 0.984627 0.238480
O O15 0.215223 0.034058 0.226766
O O16 0.268267 0.968240 0.000000
O O17 0.905682 0.523647 0.500000
O O18 0.171764 0.128087 0.000000
#
# Coordination Sequence:
#
# PCOD9445957 Si02
#       7
#     8   8   8   8   8   8   8
#     4   8  14  24  44  74 104 135 175 222 275 333
#     4  10  22  39  59  85 118 157 201 252 305 357
#     4  11  22  36  56  84 113 148 194 245 298 352
#     4  10  19  34  56  81 111 151 196 241 292 355
#     4   9  18  32  52  77 109 144 182 232 285 342
#     4   8  13  24  43  72 106 135 170 223 279 329
#     4  11  22  39  60  85 116 153 198 247 302 363
#
# _framework density 19.753086
#
# number of rings (size 3 to 8) (size 9 to 14) (size 15 to 20)
#    0.000    2.429    1.429    2.571    0.000    3.714 
#    0.000    4.286    0.000    0.000    0.000    9.000 
#    0.000    0.000    0.000    0.000    0.000    0.000 
#
# Total GULP energy -312038.682392 kJ/mol
# GULP energy per Si atom -5572.119328 kJ/mol
# Density = 1.970813 g / cm^3
# Si number density = 19.753086 Si / 1000 Ang^3
#
#
#
# Elastic Constant Matrix: (Units=GPa)
#
#
# Indices 1 2 3 4 5 6 
#
# 1 39.8820 -9.0061 5.8701 0.0000 0.0000 0.0000
# 2 -9.0061 8.4674 11.0624 0.0000 0.0000 0.0000
# 3 5.8701 11.0624 26.8785 0.0000 0.0000 0.0000
# 4 0.0000 0.0000 0.0000 19.3401 0.0000 0.0000
# 5 0.0000 0.0000 0.0000 0.0000 16.9901 0.0000
# 6 0.0000 0.0000 0.0000 0.0000 0.0000 33.3423
#
#
#
# Elastic Compliance Matrix: (Units=1/GPa)
#
#
# Indices 1 2 3 4 5 6 
#
# 1 0.189707 0.553551 -0.269256 0.000000 0.000000 0.000000
# 2 0.553551 1.870681 -0.890810 0.000000 0.000000 0.000000
# 3 -0.269256 -0.890810 0.462640 0.000000 0.000000 0.000000
# 4 0.000000 0.000000 0.000000 0.051706 0.000000 0.000000
# 5 0.000000 0.000000 0.000000 0.000000 0.058858 0.000000
# 6 0.000000 0.000000 0.000000 0.000000 0.000000 0.029992
#
#
# Mechanical properties :
#
#
# Convention : Reuss Voigt Hill
#
# Bulk Modulus (GPa) = 0.76336 10.12009 5.44172
# Shear Modulus (GPa) = 1.15921 18.42127 9.79024
#
# Velocity S-wave (km/s) = 0.76689 3.05713 2.22869
# Velocity P-wave (km/s) = 1.08234 4.19473 3.06327
#
# Compressibility (1/GPa) = 1.30999825
#
# Stress axis : x y z
#
# Youngs Moduli (GPa) = 5.27128 0.53456 2.16151
#
# Poissons Ratio (x) = -0.29591 0.58200
# Poissons Ratio (y) = -2.91792 1.92549
# Poissons Ratio (z) = 1.41932 0.47620
#
# Static dielectric constant tensor:
#      x y z
#    x 1.763100 0.000000 0.000000 
#    y 0.000000 1.701640 0.000000 
#    z 0.000000 0.000000 1.658960 
# 
# From -- ./inp_files/9087.got.cif
#   From: 2010.05.17/outbox.ucp.g08.bks.cvg/sg58_5_cif.got.tgz:9087.got - 2010.06.11 16:41:41.
