data_PCOD9445776
_publ_section_title
;
Structure prediction by ZEFSAII (Michael W. Deem and Ramdas Pophale) SiO2 
 PCOD9445776
Probable space group: P N N M
;
_chemical_formula_sum "Si O2"
_cell_formula_units_Z 26
_cell_length_a 11.288122
_cell_length_b 7.304132
_cell_length_c 16.077670
_cell_angle_alpha 90.000000
_cell_angle_beta 90.000000
_cell_angle_gamma 90.000000
_cell_volume 1325.602816
_symmetry_space_group_name_H-M "P N N M"
_symmetry_group_IT_number 58
_symmetry_cell_setting 'orthorhombic'
loop_
_space_group_symop_operation_xyz
x,y,z
-x,-y,z
1/2+x,1/2-y,1/2-z
1/2-x,1/2+y,1/2-z
-x,-y,-z
x,y,-z
1/2-x,1/2+y,1/2+z
1/2+x,1/2-y,1/2+z
loop_
_atom_site_type_symbol
_atom_site_label
_atom_site_fract_x
_atom_site_fract_y
_atom_site_fract_z
Si Si1 0.905741 0.764687 0.903166
Si Si2 0.199291 0.012184 0.644545
Si Si3 0.000000 0.000000 0.500000
Si Si4 0.351082 0.359097 0.674787
O O1 0.813398 0.607861 0.881049
O O2 0.024664 0.762980 0.848294
O O3 0.845931 0.961203 0.883251
O O4 0.938686 0.754321 0.000000
O O5 0.245126 0.218192 0.659756
O O6 0.103132 0.003032 0.572748
O O7 0.151304 0.928878 0.730802
#
# Coordination Sequence:
#
# PCOD9445776 Si02
#       4
#     8   8   2   8
#     4  11  24  45  71 100 128 175 231 276 324 402
#     4  12  25  45  69  99 140 177 221 279 345 395
#     4  12  28  44  68 104 146 170 224 298 338 396
#     4  11  24  44  72  97 134 181 223 272 336 408
#
# _framework density 19.613719
#
# number of rings (size 3 to 8) (size 9 to 14) (size 15 to 20)
#    0.000    0.615    4.615    4.615    4.308    1.231 
#    0.000    3.077    0.000    0.000    0.000    0.000 
#    0.000    0.000    0.000    0.000    0.000    0.000 
#
# Total GULP energy -144902.500602 kJ/mol
# GULP energy per Si atom -5573.173100 kJ/mol
# Density = 1.956908 g / cm^3
# Si number density = 19.613719 Si / 1000 Ang^3
#
#
#
# Elastic Constant Matrix: (Units=GPa)
#
#
# Indices 1 2 3 4 5 6 
#
# 1 79.5596 49.6585 59.2912 0.0000 0.0000 0.0000
# 2 49.6585 64.3880 25.3389 0.0000 0.0000 0.0000
# 3 59.2912 25.3389 140.2605 0.0000 0.0000 0.0000
# 4 0.0000 0.0000 0.0000 14.6720 0.0000 0.0000
# 5 0.0000 0.0000 0.0000 0.0000 83.4373 0.0000
# 6 0.0000 0.0000 0.0000 0.0000 0.0000 21.2766
#
#
#
# Elastic Compliance Matrix: (Units=1/GPa)
#
#
# Indices 1 2 3 4 5 6 
#
# 1 0.034324 -0.022351 -0.010472 0.000000 0.000000 0.000000
# 2 -0.022351 0.031274 0.003798 0.000000 0.000000 0.000000
# 3 -0.010472 0.003798 0.010870 0.000000 0.000000 0.000000
# 4 0.000000 0.000000 0.000000 0.068157 0.000000 0.000000
# 5 0.000000 0.000000 0.000000 0.000000 0.011985 0.000000
# 6 0.000000 0.000000 0.000000 0.000000 0.000000 0.047000
#
#
# Mechanical properties :
#
#
# Convention : Reuss Voigt Hill
#
# Bulk Modulus (GPa) = 54.29040 61.42061 57.85551
# Shear Modulus (GPa) = 18.67080 33.87181 26.27130
#
# Velocity S-wave (km/s) = 3.08868 4.16016 3.66380
# Velocity P-wave (km/s) = 6.36080 7.37964 6.88908
#
# Compressibility (1/GPa) = 0.01841946
#
# Stress axis : x y z
#
# Youngs Moduli (GPa) = 29.13427 31.97552 91.99657
#
# Poissons Ratio (x) = 0.71468 0.96335
# Poissons Ratio (y) = 0.65118 -0.34944
# Poissons Ratio (z) = 0.30508 -0.12146
#
# Static dielectric constant tensor:
#      x y z
#    x 1.673850 0.000000 0.000000 
#    y 0.000000 1.713870 0.000000 
#    z 0.000000 0.000000 1.661260 
# 
# From -- ./inp_files/20526.got.cif
#   From: 2010.05.17/outbox.cif.g08.bks.cpg/sg58_11_cif.got.tgz:20526.got - 2010.06.03 14:20:14.
