data_PCOD9445178
_publ_section_title
;
Structure prediction by ZEFSAII (Michael W. Deem and Ramdas Pophale) SiO2 
 PCOD9445178
Probable space group: P N N M
;
_chemical_formula_sum "Si O2"
_cell_formula_units_Z 40
_cell_length_a 9.730376
_cell_length_b 14.421585
_cell_length_c 13.978681
_cell_angle_alpha 90.000000
_cell_angle_beta 90.000000
_cell_angle_gamma 90.000000
_cell_volume 1961.592583
_symmetry_space_group_name_H-M "P N N M"
_symmetry_group_IT_number 58
_symmetry_cell_setting 'orthorhombic'
loop_
_space_group_symop_operation_xyz
x,y,z
-x,-y,z
1/2+x,1/2-y,1/2-z
1/2-x,1/2+y,1/2-z
-x,-y,-z
x,y,-z
1/2-x,1/2+y,1/2+z
1/2+x,1/2-y,1/2+z
loop_
_atom_site_type_symbol
_atom_site_label
_atom_site_fract_x
_atom_site_fract_y
_atom_site_fract_z
Si Si1 0.158704 0.503317 0.709503
Si Si2 0.609473 0.126458 0.384842
Si Si3 0.656237 0.328713 0.707337
Si Si4 0.294027 0.172226 0.395240
Si Si5 0.112608 0.885127 0.892871
O O1 0.170336 0.453175 0.815107
O O2 0.210044 0.608059 0.690664
O O3 0.261545 0.443490 0.645726
O O4 0.000000 0.500000 0.682888
O O5 0.636575 0.119236 0.500000
O O6 0.655925 0.227510 0.342537
O O7 0.442588 0.124614 0.373254
O O8 0.668134 0.327956 0.821888
O O9 0.522737 0.383519 0.672081
O O10 0.252198 0.139774 0.500000
O O11 0.338592 0.279152 0.396494
O O12 0.074451 0.912030 0.000000
#
# Coordination Sequence:
#
# PCOD9445178 Si02
#       5
#     8   8   8   8   8
#     4  12  24  39  67 102 131 171 220 282 325 388
#     4  10  22  42  66  96 134 179 220 266 336 406
#     4  11  21  39  69  97 129 177 223 264 331 401
#     4   9  18  37  67  94 126 169 213 266 327 388
#     4  10  23  43  64  90 130 175 216 265 331 399
#
# _framework density 20.391594000000001
#
# number of rings (size 3 to 8) (size 9 to 14) (size 15 to 20)
#    0.000    1.600    4.000    2.400    0.000    4.000 
#    0.000    1.000    0.000    2.400    0.000    0.000 
#    0.000    0.000    0.000    0.000    0.000    0.000 
#
# Total GULP energy -222830.654073 kJ/mol
# GULP energy per Si atom -5570.766352 kJ/mol
# Density = 2.034518 g / cm^3
# Si number density = 20.391594 Si / 1000 Ang^3
#
#
#
# Elastic Constant Matrix: (Units=GPa)
#
#
# Indices 1 2 3 4 5 6 
#
# 1 113.4961 29.3003 70.9769 0.0000 0.0000 0.0000
# 2 29.3003 89.6051 12.5694 0.0000 0.0000 0.0000
# 3 70.9769 12.5694 135.5430 0.0000 0.0000 0.0000
# 4 0.0000 0.0000 0.0000 18.8543 0.0000 0.0000
# 5 0.0000 0.0000 0.0000 0.0000 76.8651 0.0000
# 6 0.0000 0.0000 0.0000 0.0000 0.0000 30.3951
#
#
#
# Elastic Compliance Matrix: (Units=1/GPa)
#
#
# Indices 1 2 3 4 5 6 
#
# 1 0.014186 -0.003644 -0.007090 0.000000 0.000000 0.000000
# 2 -0.003644 0.012243 0.000773 0.000000 0.000000 0.000000
# 3 -0.007090 0.000773 0.011019 0.000000 0.000000 0.000000
# 4 0.000000 0.000000 0.000000 0.053038 0.000000 0.000000
# 5 0.000000 0.000000 0.000000 0.000000 0.013010 0.000000
# 6 0.000000 0.000000 0.000000 0.000000 0.000000 0.032900
#
#
# Mechanical properties :
#
#
# Convention : Reuss Voigt Hill
#
# Bulk Modulus (GPa) = 57.06232 62.70415 59.88323
# Shear Modulus (GPa) = 30.83357 40.27607 35.55482
#
# Velocity S-wave (km/s) = 3.89276 4.44907 4.18018
# Velocity P-wave (km/s) = 6.94613 7.56366 7.26147
#
# Compressibility (1/GPa) = 0.01752470
#
# Stress axis : x y z
#
# Youngs Moduli (GPa) = 70.49324 81.67773 90.75268
#
# Poissons Ratio (x) = 0.29764 0.64348
# Poissons Ratio (y) = 0.25688 -0.07014
# Poissons Ratio (z) = 0.49983 -0.06312
#
# Static dielectric constant tensor:
#      x y z
#    x 1.666470 0.000000 0.000000 
#    y 0.000000 1.808930 0.000000 
#    z 0.000000 0.000000 1.820930 
# 
# From -- ./inp_files/19504.got.cif
#   From: 2010.05.17/outbox.cif.g08.bks.cpg/sg58_10_cif.got.tgz:19504.got - 2010.06.03 14:20:14.
