data_PCOD9445022
_publ_section_title
;
Structure prediction by ZEFSAII (Michael W. Deem and Ramdas Pophale) SiO2 
 PCOD9445022
Probable space group: P N N M
;
_chemical_formula_sum "Si O2"
_cell_formula_units_Z 32
_cell_length_a 7.054442
_cell_length_b 12.857068
_cell_length_c 14.321956
_cell_angle_alpha 90.000000
_cell_angle_beta 90.000000
_cell_angle_gamma 90.000000
_cell_volume 1298.993396
_symmetry_space_group_name_H-M "P N N M"
_symmetry_group_IT_number 58
_symmetry_cell_setting 'orthorhombic'
loop_
_space_group_symop_operation_xyz
x,y,z
-x,-y,z
1/2+x,1/2-y,1/2-z
1/2-x,1/2+y,1/2-z
-x,-y,-z
x,y,-z
1/2-x,1/2+y,1/2+z
1/2+x,1/2-y,1/2+z
loop_
_atom_site_type_symbol
_atom_site_label
_atom_site_fract_x
_atom_site_fract_y
_atom_site_fract_z
Si Si1 0.451587 0.173247 0.500000
Si Si2 0.716904 0.692065 0.153368
Si Si3 0.000000 0.000000 0.739881
Si Si4 0.175788 0.268029 0.637139
Si Si5 0.275567 0.000144 0.897010
O O1 0.616825 0.174747 0.418829
O O2 0.285671 0.179696 0.581738
O O3 0.606403 0.585440 0.179013
O O4 0.797381 0.732222 0.252020
O O5 0.548022 0.765604 0.117016
O O6 0.843862 0.954244 0.812305
O O7 0.268974 0.376212 0.602884
O O8 0.500000 0.000000 0.880606
O O9 0.229985 0.042605 0.000000
#
# Coordination Sequence:
#
# PCOD9445022 Si02
#       5
#     4   8   4   8   8
#     4  12  24  43  70  98 136 184 229 287 337 410
#     4  11  25  44  70  98 136 180 234 282 341 418
#     4  10  25  43  64  98 138 182 228 288 346 404
#     4  11  23  43  68 101 136 183 230 279 345 414
#     4  10  22  39  64 103 139 174 223 289 359 411
#
# _framework density 24.634457999999999
#
# number of rings (size 3 to 8) (size 9 to 14) (size 15 to 20)
#    0.000    1.250    3.750    1.125    3.500    0.500 
#    9.000    1.250    0.000    0.000    0.000    0.000 
#    0.000    0.000    0.000    0.000    0.000    0.000 
#
# Total GULP energy -178160.458082 kJ/mol
# GULP energy per Si atom -5567.514315 kJ/mol
# Density = 2.457839 g / cm^3
# Si number density = 24.634458 Si / 1000 Ang^3
#
#
#
# Elastic Constant Matrix: (Units=GPa)
#
#
# Indices 1 2 3 4 5 6 
#
# 1 113.0846 -21.9299 30.5650 0.0000 0.0000 0.0000
# 2 -21.9299 44.4039 -0.3606 0.0000 0.0000 0.0000
# 3 30.5650 -0.3606 177.8405 0.0000 0.0000 0.0000
# 4 0.0000 0.0000 0.0000 0.2622 0.0000 0.0000
# 5 0.0000 0.0000 0.0000 0.0000 62.7267 0.0000
# 6 0.0000 0.0000 0.0000 0.0000 0.0000 7.9774
#
#
#
# Elastic Compliance Matrix: (Units=1/GPa)
#
#
# Indices 1 2 3 4 5 6 
#
# 1 0.010303 0.005074 -0.001760 0.000000 0.000000 0.000000
# 2 0.005074 0.025020 -0.000821 0.000000 0.000000 0.000000
# 3 -0.001760 -0.000821 0.005924 0.000000 0.000000 0.000000
# 4 0.000000 0.000000 0.000000 3.813883 0.000000 0.000000
# 5 0.000000 0.000000 0.000000 0.000000 0.015942 0.000000
# 6 0.000000 0.000000 0.000000 0.000000 0.000000 0.125354
#
#
# Mechanical properties :
#
#
# Convention : Reuss Voigt Hill
#
# Bulk Modulus (GPa) = 21.63062 39.09758 30.36410
# Shear Modulus (GPa) = 1.24786 35.99689 18.62238
#
# Velocity S-wave (km/s) = 0.71250 3.82677 2.75243
# Velocity P-wave (km/s) = 3.07840 5.95240 4.73855
#
# Compressibility (1/GPa) = 0.04623076
#
# Stress axis : x y z
#
# Youngs Moduli (GPa) = 97.06183 39.96844 168.80748
#
# Poissons Ratio (x) = -0.20280 0.29717
# Poissons Ratio (y) = -0.49248 0.13864
# Poissons Ratio (z) = 0.17087 0.03283
#
# Static dielectric constant tensor:
#      x y z
#    x 1.896650 0.000000 0.000000 
#    y 0.000000 2.142460 0.000000 
#    z 0.000000 0.000000 1.901550 
# 
# From -- ./inp_files/18317.got.cif
#   From: 2010.05.17/outbox.cif.g08.bks.cpg/sg58_10_cif.got.tgz:18317.got - 2010.06.03 14:20:14.
