data_PCOD9445424
_publ_section_title
;
Structure prediction by ZEFSAII (Michael W. Deem and Ramdas Pophale) SiO2 
 PCOD9445424
Probable space group: P N N M
;
_chemical_formula_sum "Si O2"
_cell_formula_units_Z 40
_cell_length_a 14.835815
_cell_length_b 9.183217
_cell_length_c 13.514675
_cell_angle_alpha 90.000000
_cell_angle_beta 90.000000
_cell_angle_gamma 90.000000
_cell_volume 1841.246194
_symmetry_space_group_name_H-M "P N N M"
_symmetry_group_IT_number 58
_symmetry_cell_setting 'orthorhombic'
loop_
_space_group_symop_operation_xyz
x,y,z
-x,-y,z
1/2+x,1/2-y,1/2-z
1/2-x,1/2+y,1/2-z
-x,-y,-z
x,y,-z
1/2-x,1/2+y,1/2+z
1/2+x,1/2-y,1/2+z
loop_
_atom_site_type_symbol
_atom_site_label
_atom_site_fract_x
_atom_site_fract_y
_atom_site_fract_z
Si Si1 0.848802 0.944618 0.500000
Si Si2 0.413569 0.824487 0.288823
Si Si3 0.409940 0.151626 0.210224
Si Si4 0.073988 0.209007 0.000000
Si Si5 0.965341 0.240382 0.500000
Si Si6 0.635481 0.625716 0.500000
Si Si7 0.748259 0.285745 0.835330
O O1 0.783151 0.919110 0.594278
O O2 0.931093 0.822276 0.500000
O O3 0.900555 0.097731 0.500000
O O4 0.512491 0.758697 0.266874
O O5 0.394041 0.791397 0.401896
O O6 0.344978 0.763390 0.210088
O O7 0.413264 0.993575 0.260697
O O8 0.310854 0.198552 0.239159
O O9 0.439427 0.165892 0.096855
O O10 0.963853 0.200740 0.000000
O O11 0.113968 0.045731 0.000000
O O12 0.696113 0.677197 0.593151
#
# Coordination Sequence:
#
# PCOD9445424 Si02
#       7
#     4   8   8   4   4   4   8
#     4  10  24  44  76 102 143 179 243 285 347 416
#     4  11  26  45  71 103 143 184 231 291 350 418
#     4  11  26  45  71 103 143 184 231 291 350 418
#     4  11  24  48  72 104 135 192 230 291 352 417
#     4  11  24  48  72 104 135 192 230 291 352 417
#     4  10  24  44  76 102 143 179 243 285 347 416
#     4  11  24  47  68 110 140 187 226 299 338 414
#
# _framework density 21.724416999999999
#
# number of rings (size 3 to 8) (size 9 to 14) (size 15 to 20)
#    0.000    1.200    4.000    0.000    5.600    7.200 
#    0.000    0.000    0.000    0.000    0.000    0.000 
#    0.000    0.000    0.000    0.000    0.000    0.000 
#
# Total GULP energy -223047.176414 kJ/mol
# GULP energy per Si atom -5576.179410 kJ/mol
# Density = 2.167497 g / cm^3
# Si number density = 21.724417 Si / 1000 Ang^3
#
#
#
# Elastic Constant Matrix: (Units=GPa)
#
#
# Indices 1 2 3 4 5 6 
#
# 1 85.8168 16.7809 8.5776 0.0000 0.0000 0.0000
# 2 16.7809 58.2990 40.5326 0.0000 0.0000 0.0000
# 3 8.5776 40.5326 138.7532 0.0000 0.0000 0.0000
# 4 0.0000 0.0000 0.0000 11.6700 0.0000 0.0000
# 5 0.0000 0.0000 0.0000 0.0000 46.7202 0.0000
# 6 0.0000 0.0000 0.0000 0.0000 0.0000 27.1445
#
#
#
# Elastic Compliance Matrix: (Units=1/GPa)
#
#
# Indices 1 2 3 4 5 6 
#
# 1 0.012361 -0.003798 0.000345 0.000000 0.000000 0.000000
# 2 -0.003798 0.022692 -0.006394 0.000000 0.000000 0.000000
# 3 0.000345 -0.006394 0.009053 0.000000 0.000000 0.000000
# 4 0.000000 0.000000 0.000000 0.085690 0.000000 0.000000
# 5 0.000000 0.000000 0.000000 0.000000 0.021404 0.000000
# 6 0.000000 0.000000 0.000000 0.000000 0.000000 0.036840
#
#
# Mechanical properties :
#
#
# Convention : Reuss Voigt Hill
#
# Bulk Modulus (GPa) = 40.96226 46.07236 43.51731
# Shear Modulus (GPa) = 23.16205 31.57213 27.36709
#
# Velocity S-wave (km/s) = 3.26878 3.81636 3.55313
# Velocity P-wave (km/s) = 5.75698 6.37755 6.07519
#
# Compressibility (1/GPa) = 0.02441271
#
# Stress axis : x y z
#
# Youngs Moduli (GPa) = 80.90022 44.06927 110.45501
#
# Poissons Ratio (x) = 0.16738 -0.03815
# Poissons Ratio (y) = 0.30727 0.70623
# Poissons Ratio (z) = -0.02794 0.28177
#
# Static dielectric constant tensor:
#      x y z
#    x 1.867010 0.000000 0.000000 
#    y 0.000000 4.610370 0.000000 
#    z 0.000000 0.000000 1.823280 
# 
# From -- ./inp_files/21939.got.cif
#   From: 2010.05.17/outbox.cif.g08.bks.cpg/sg58_11_cif.got.tgz:21939.got - 2010.06.03 14:20:14.
