data_PCOD9445083
_publ_section_title
;
Structure prediction by ZEFSAII (Michael W. Deem and Ramdas Pophale) SiO2 
 PCOD9445083
Probable space group: P N N M
;
_chemical_formula_sum "Si O2"
_cell_formula_units_Z 26
_cell_length_a 27.302001
_cell_length_b 8.039457
_cell_length_c 5.295585
_cell_angle_alpha 90.000000
_cell_angle_beta 90.000000
_cell_angle_gamma 90.000000
_cell_volume 1162.345231
_symmetry_space_group_name_H-M "P N N M"
_symmetry_group_IT_number 58
_symmetry_cell_setting 'orthorhombic'
loop_
_space_group_symop_operation_xyz
x,y,z
-x,-y,z
1/2+x,1/2-y,1/2-z
1/2-x,1/2+y,1/2-z
-x,-y,-z
x,y,-z
1/2-x,1/2+y,1/2+z
1/2+x,1/2-y,1/2+z
loop_
_atom_site_type_symbol
_atom_site_label
_atom_site_fract_x
_atom_site_fract_y
_atom_site_fract_z
Si Si1 0.939329 0.334822 0.000000
Si Si2 0.614438 0.512738 0.500000
Si Si3 0.798538 0.313123 0.500000
Si Si4 0.244936 0.835655 0.000000
Si Si5 0.349741 0.661270 0.000000
Si Si6 0.000000 0.000000 0.000000
Si Si7 0.095697 0.510011 0.500000
O O1 0.983164 0.201109 0.000000
O O2 0.934908 0.442664 0.251708
O O3 0.892032 0.211082 0.000000
O O4 0.639018 0.443184 0.249552
O O5 0.557914 0.452326 0.500000
O O6 0.784635 0.210884 0.250759
O O7 0.763485 0.475568 0.500000
O O8 0.854131 0.380161 0.500000
O O9 0.294674 0.727271 0.000000
O O10 0.385734 0.821154 0.000000
#
# Coordination Sequence:
#
# PCOD9445083 Si02
#       7
#     4   4   4   4   4   2   4
#     4  10  22  40  65  86 122 159 203 252 305 365
#     4  10  22  40  65  86 122 159 203 252 305 365
#     4  11  24  40  60  88 127 161 205 254 302 361
#     4  11  24  40  60  88 127 161 205 254 302 361
#     4  11  23  40  61  92 124 160 202 256 308 361
#     4   8  24  42  66  90 128 150 214 262 308 350
#     4  11  23  40  61  92 124 160 202 256 308 361
#
# _framework density 22.368569999999998
#
# number of rings (size 3 to 8) (size 9 to 14) (size 15 to 20)
#    0.923    0.615    0.000    4.615    0.000   14.769 
#    0.000    4.615    0.000    0.000    0.000    0.000 
#    0.000    0.000    0.000    0.000    0.000    0.000 
#
# Total GULP energy -144980.499260 kJ/mol
# GULP energy per Si atom -5576.173048 kJ/mol
# Density = 2.231766 g / cm^3
# Si number density = 22.368570 Si / 1000 Ang^3
#
#
#
# Elastic Constant Matrix: (Units=GPa)
#
#
# Indices 1 2 3 4 5 6 
#
# 1 92.2209 19.3875 26.5901 0.0000 0.0000 0.0000
# 2 19.3875 83.7620 45.8316 0.0000 0.0000 0.0000
# 3 26.5901 45.8316 197.4707 0.0000 0.0000 0.0000
# 4 0.0000 0.0000 0.0000 34.1994 0.0000 0.0000
# 5 0.0000 0.0000 0.0000 0.0000 -6.2390 0.0000
# 6 0.0000 0.0000 0.0000 0.0000 0.0000 48.6183
#
#
#
# Elastic Compliance Matrix: (Units=1/GPa)
#
#
# Indices 1 2 3 4 5 6 
#
# 1 0.011594 -0.002095 -0.001075 0.000000 0.000000 0.000000
# 2 -0.002095 0.014054 -0.002980 0.000000 0.000000 0.000000
# 3 -0.001075 -0.002980 0.005900 0.000000 0.000000 0.000000
# 4 0.000000 0.000000 0.000000 0.029240 0.000000 0.000000
# 5 0.000000 0.000000 0.000000 0.000000 -0.160281 0.000000
# 6 0.000000 0.000000 0.000000 0.000000 0.000000 0.020568
#
#
# Mechanical properties :
#
#
# Convention : Reuss Voigt Hill
#
# Bulk Modulus (GPa) = 51.95239 61.89690 56.92464
# Shear Modulus (GPa) = -83.04486 34.09201 -24.47642
#
# Velocity S-wave (km/s) = -6.09970 3.90821 -3.31151
# Velocity P-wave (km/s) = 5.13150 6.93520 3.29883
#
# Compressibility (1/GPa) = 0.01924839
#
# Stress axis : x y z
#
# Youngs Moduli (GPa) = 86.25182 71.15429 169.48189
#
# Poissons Ratio (x) = 0.14910 0.18216
# Poissons Ratio (y) = 0.18073 0.50500
# Poissons Ratio (z) = 0.09271 0.21202
#
# Static dielectric constant tensor:
#      x y z
#    x 1.815740 0.000000 0.000000 
#    y 0.000000 1.815470 0.000000 
#    z 0.000000 0.000000 1.765990 
# 
# From -- ./inp_files/955.got.cif
#   From: 2010.05.17/outbox.cif.g08.bks.cpg/sg58_1_cif.got.tgz:955.got - 2010.06.03 14:20:14.
