data_PCOD9445498
_publ_section_title
;
Structure prediction by ZEFSAII (Michael W. Deem and Ramdas Pophale) SiO2 
 PCOD9445498
Probable space group: P N N M
;
_chemical_formula_sum "Si O2"
_cell_formula_units_Z 48
_cell_length_a 7.855870
_cell_length_b 11.230207
_cell_length_c 26.448525
_cell_angle_alpha 90.000000
_cell_angle_beta 90.000000
_cell_angle_gamma 90.000000
_cell_volume 2333.369445
_symmetry_space_group_name_H-M "P N N M"
_symmetry_group_IT_number 58
_symmetry_cell_setting 'orthorhombic'
loop_
_space_group_symop_operation_xyz
x,y,z
-x,-y,z
1/2+x,1/2-y,1/2-z
1/2-x,1/2+y,1/2-z
-x,-y,-z
x,y,-z
1/2-x,1/2+y,1/2+z
1/2+x,1/2-y,1/2+z
loop_
_atom_site_type_symbol
_atom_site_label
_atom_site_fract_x
_atom_site_fract_y
_atom_site_fract_z
Si Si1 0.868441 0.714631 0.853042
Si Si2 0.626140 0.102363 0.887336
Si Si3 0.344800 0.138359 0.282722
Si Si4 0.959658 0.141237 0.940873
Si Si5 0.184917 0.031477 0.799206
Si Si6 0.966417 0.210383 0.312957
O O1 0.838330 0.836762 0.821565
O O2 0.692742 0.645011 0.840387
O O3 0.024225 0.644361 0.828110
O O4 0.926764 0.768760 0.906989
O O5 0.759553 0.156274 0.926841
O O6 0.507356 0.189523 0.855411
O O7 0.500000 0.000000 0.908003
O O8 0.751351 0.049857 0.844271
O O9 0.319734 0.026126 0.245786
O O10 0.405670 0.239107 0.241855
O O11 0.153460 0.158483 0.302829
O O12 0.989732 0.160760 0.000000
O O13 0.000000 0.000000 0.930457
O O14 0.000000 0.000000 0.779848
#
# Coordination Sequence:
#
# PCOD9445498 Si02
#       6
#     8   8   8   8   8   8
#     4  11  19  34  49  67  97 133 171 215 254 299
#     4  12  19  31  46  69 103 134 169 210 255 292
#     4  11  20  30  48  71  96 131 173 203 252 314
#     4  11  21  34  50  68  96 139 184 226 260 293
#     4  11  19  30  48  70 100 135 168 208 253 313
#     4  11  20  29  49  73  97 132 171 202 249 311
#
# _framework density 20.571111999999999
#
# number of rings (size 3 to 8) (size 9 to 14) (size 15 to 20)
#    0.000    0.833   11.667    0.000    0.000    0.333 
#    0.000    0.833    0.000    0.000    0.000    0.000 
#    0.000    0.667    0.000    6.333    0.000    2.333 
#
# Total GULP energy -267624.985247 kJ/mol
# GULP energy per Si atom -5575.520526 kJ/mol
# Density = 2.052429 g / cm^3
# Si number density = 20.571112 Si / 1000 Ang^3
#
#
#
# Elastic Constant Matrix: (Units=GPa)
#
#
# Indices 1 2 3 4 5 6 
#
# 1 171.7250 8.8813 47.3648 0.0000 0.0000 0.0000
# 2 8.8813 14.5438 16.5653 0.0000 0.0000 0.0000
# 3 47.3648 16.5653 112.4794 0.0000 0.0000 0.0000
# 4 0.0000 0.0000 0.0000 21.1058 0.0000 0.0000
# 5 0.0000 0.0000 0.0000 0.0000 22.0885 0.0000
# 6 0.0000 0.0000 0.0000 0.0000 0.0000 25.9100
#
#
#
# Elastic Compliance Matrix: (Units=1/GPa)
#
#
# Indices 1 2 3 4 5 6 
#
# 1 0.006602 -0.001039 -0.002627 0.000000 0.000000 0.000000
# 2 -0.001039 0.082780 -0.011754 0.000000 0.000000 0.000000
# 3 -0.002627 -0.011754 0.011728 0.000000 0.000000 0.000000
# 4 0.000000 0.000000 0.000000 0.047380 0.000000 0.000000
# 5 0.000000 0.000000 0.000000 0.000000 0.045272 0.000000
# 6 0.000000 0.000000 0.000000 0.000000 0.000000 0.038595
#
#
# Mechanical properties :
#
#
# Convention : Reuss Voigt Hill
#
# Bulk Modulus (GPa) = 14.23098 49.37455 31.80276
# Shear Modulus (GPa) = 17.44475 28.88333 23.16404
#
# Velocity S-wave (km/s) = 2.91524 3.75116 3.35930
# Velocity P-wave (km/s) = 4.27369 6.54336 5.52630
#
# Compressibility (1/GPa) = 0.07026925
#
# Stress axis : x y z
#
# Youngs Moduli (GPa) = 151.47976 12.08028 85.26854
#
# Poissons Ratio (x) = 0.01256 0.22399
# Poissons Ratio (y) = 0.15744 1.00221
# Poissons Ratio (z) = 0.39791 0.14199
#
# Static dielectric constant tensor:
#      x y z
#    x 1.873990 0.000000 0.000000 
#    y 0.000000 1.848580 0.000000 
#    z 0.000000 0.000000 1.705280 
# 
# From -- ./inp_files/31530.got.cif
#   From: 2010.05.17/outbox.cif.g08.bks.cpg/sg58_16_cif.got.tgz:31530.got - 2010.06.03 14:20:14.
