data_PCOD9445269
_publ_section_title
;
Structure prediction by ZEFSAII (Michael W. Deem and Ramdas Pophale) SiO2 
 PCOD9445269
Probable space group: P N N M
;
_chemical_formula_sum "Si O2"
_cell_formula_units_Z 40
_cell_length_a 9.480118
_cell_length_b 12.742918
_cell_length_c 17.798438
_cell_angle_alpha 90.000000
_cell_angle_beta 90.000000
_cell_angle_gamma 90.000000
_cell_volume 2150.129024
_symmetry_space_group_name_H-M "P N N M"
_symmetry_group_IT_number 58
_symmetry_cell_setting 'orthorhombic'
loop_
_space_group_symop_operation_xyz
x,y,z
-x,-y,z
1/2+x,1/2-y,1/2-z
1/2-x,1/2+y,1/2-z
-x,-y,-z
x,y,-z
1/2-x,1/2+y,1/2+z
1/2+x,1/2-y,1/2+z
loop_
_atom_site_type_symbol
_atom_site_label
_atom_site_fract_x
_atom_site_fract_y
_atom_site_fract_z
Si Si1 0.283310 0.896670 0.500000
Si Si2 0.434744 0.333723 0.123195
Si Si3 0.406239 0.596266 0.390918
Si Si4 0.327397 0.630513 0.000000
Si Si5 0.076983 0.607303 0.586539
Si Si6 0.000000 0.000000 0.744281
Si Si7 0.962386 0.260727 0.000000
O O1 0.203053 0.846416 0.428665
O O2 0.445640 0.866477 0.500000
O O3 0.247808 0.018426 0.500000
O O4 0.451605 0.209432 0.137433
O O5 0.424031 0.415385 0.191080
O O6 0.569668 0.364071 0.071927
O O7 0.500000 0.500000 0.419841
O O8 0.244722 0.591152 0.414682
O O9 0.410893 0.573788 0.301309
O O10 0.483317 0.696401 0.426923
O O11 0.203786 0.716938 0.000000
O O12 0.031417 0.632008 0.500000
O O13 0.000000 0.500000 0.609295
#
# Coordination Sequence:
#
# PCOD9445269 Si02
#       7
#     4   8   8   4   8   4   4
#     4  11  19  40  66  90 124 159 197 274 297 347
#     4  11  19  42  64  90 123 163 208 244 305 370
#     4  10  23  41  58  88 122 166 195 257 307 355
#     4  11  23  34  70  97 114 162 210 258 302 371
#     4  11  22  38  67  96 118 153 211 264 301 354
#     4  10  24  40  66  84 126 176 200 240 310 386
#     4  12  22  40  61  96 126 153 209 260 314 348
#
# _framework density 18.603534
#
# number of rings (size 3 to 8) (size 9 to 14) (size 15 to 20)
#    0.600    0.600    7.000    1.200    2.800    0.000 
#    7.200    0.000    0.000    0.000    0.000    0.000 
#    0.000    0.000    0.000    0.000    0.000    0.000 
#
# Total GULP energy -222785.419323 kJ/mol
# GULP energy per Si atom -5569.635483 kJ/mol
# Density = 1.856119 g / cm^3
# Si number density = 18.603534 Si / 1000 Ang^3
#
#
#
# Elastic Constant Matrix: (Units=GPa)
#
#
# Indices 1 2 3 4 5 6 
#
# 1 79.1293 12.7028 10.1072 0.0000 0.0000 0.0000
# 2 12.7028 104.3292 19.1187 0.0000 0.0000 0.0000
# 3 10.1072 19.1187 85.5359 0.0000 0.0000 0.0000
# 4 0.0000 0.0000 0.0000 -7.2113 0.0000 0.0000
# 5 0.0000 0.0000 0.0000 0.0000 1.6053 0.0000
# 6 0.0000 0.0000 0.0000 0.0000 0.0000 37.8060
#
#
#
# Elastic Compliance Matrix: (Units=1/GPa)
#
#
# Indices 1 2 3 4 5 6 
#
# 1 0.013013 -0.001358 -0.001234 0.000000 0.000000 0.000000
# 2 -0.001358 0.010136 -0.002105 0.000000 0.000000 0.000000
# 3 -0.001234 -0.002105 0.012307 0.000000 0.000000 0.000000
# 4 0.000000 0.000000 0.000000 -0.138671 0.000000 0.000000
# 5 0.000000 0.000000 0.000000 0.000000 0.622937 0.000000
# 6 0.000000 0.000000 0.000000 0.000000 0.000000 0.026451
#
#
# Mechanical properties :
#
#
# Convention : Reuss Voigt Hill
#
# Bulk Modulus (GPa) = 38.37035 39.20575 38.78805
# Shear Modulus (GPa) = 8.86123 21.57771 15.21947
#
# Velocity S-wave (km/s) = 2.18484 3.40938 2.86334
# Velocity P-wave (km/s) = 5.19950 6.05133 5.64152
#
# Compressibility (1/GPa) = 0.02606179
#
# Stress axis : x y z
#
# Youngs Moduli (GPa) = 76.84492 98.65632 81.25228
#
# Poissons Ratio (x) = 0.13400 0.10027
# Poissons Ratio (y) = 0.10438 0.17104
# Poissons Ratio (z) = 0.09483 0.20768
#
# Static dielectric constant tensor:
#      x y z
#    x 1.608730 0.000000 0.000000 
#    y 0.000000 1.691430 0.000000 
#    z 0.000000 0.000000 1.674200 
# 
# From -- ./inp_files/28769.got.cif
#   From: 2010.05.17/outbox.cif.g08.bks.cpg/sg58_15_cif.got.tgz:28769.got - 2010.06.03 14:20:14.
