data_PCOD9445974
_publ_section_title
;
Structure prediction by ZEFSAII (Michael W. Deem and Ramdas Pophale) SiO2 
 PCOD9445974
Probable space group: P N N M
;
_chemical_formula_sum "Si O2"
_cell_formula_units_Z 64
_cell_length_a 30.000000
_cell_length_b 12.000000
_cell_length_c 9.000000
_cell_angle_alpha 90.000000
_cell_angle_beta 90.000000
_cell_angle_gamma 90.000000
_cell_volume 3240.000000
_symmetry_space_group_name_H-M "P N N M"
_symmetry_group_IT_number 58
_symmetry_cell_setting 'orthorhombic'
loop_
_space_group_symop_operation_xyz
x,y,z
-x,-y,z
1/2+x,1/2-y,1/2-z
1/2-x,1/2+y,1/2-z
-x,-y,-z
x,y,-z
1/2-x,1/2+y,1/2+z
1/2+x,1/2-y,1/2+z
loop_
_atom_site_type_symbol
_atom_site_label
_atom_site_fract_x
_atom_site_fract_y
_atom_site_fract_z
Si Si1 0.869569 0.165267 0.178376
Si Si2 0.290067 0.185971 0.321743
Si Si3 0.608286 0.428570 0.179392
Si Si4 0.053168 0.701780 0.322298
Si Si5 0.466363 0.723651 0.322836
Si Si6 0.332922 0.974413 0.171400
Si Si7 0.939149 0.550111 0.329287
Si Si8 0.308968 0.729016 0.180891
O O1 0.819665 0.205871 0.217129
O O2 0.902210 0.261317 0.239337
O O3 0.883446 0.051477 0.257915
O O4 0.873523 0.155167 0.000000
O O5 0.289317 0.180998 0.500000
O O6 0.239482 0.191352 0.267338
O O7 0.313936 0.076904 0.261243
O O8 0.565916 0.368803 0.253138
O O9 0.651045 0.352947 0.221636
O O10 0.603877 0.429738 0.000000
O O11 0.058055 0.713158 0.500000
O O12 0.041436 0.571826 0.292208
O O13 0.014281 0.778393 0.256536
O O14 0.469771 0.712606 0.500000
O O15 0.448086 0.846252 0.277279
O O16 0.386275 0.971615 0.170254
O O17 0.317580 0.854864 0.231279
O O18 0.318020 0.985297 0.000000
O O19 0.952084 0.580984 0.500000
O O20 0.309098 0.731887 0.000000
#
# Coordination Sequence:
#
# PCOD9445974 Si02
#       8
#     8   8   8   8   8   8   8   8
#     4  11  24  41  61  90 127 160 199 255 313 360
#     4  10  22  39  60  90 127 162 197 248 309 359
#     4  11  23  43  66  86 118 164 211 251 296 360
#     4  11  23  41  65  91 121 162 209 247 295 364
#     4  12  25  40  62  93 126 157 197 251 313 364
#     4  10  19  37  64  90 120 160 206 251 295 351
#     4  10  20  38  63  91 123 161 204 248 294 356
#     4   9  20  39  62  88 122 162 202 249 300 355
#
# _framework density 19.753086
#
# number of rings (size 3 to 8) (size 9 to 14) (size 15 to 20)
#    0.000    1.500    2.500    2.625    1.750    4.000 
#    0.000    3.750    0.000    0.000    0.000    0.000 
#    0.000    0.000    0.000    0.000    0.000    0.000 
#
# Total GULP energy -357573.096983 kJ/mol
# GULP energy per Si atom -5587.079640 kJ/mol
# Density = 1.970813 g / cm^3
# Si number density = 19.753086 Si / 1000 Ang^3
#
#
#
# Elastic Constant Matrix: (Units=GPa)
#
#
# Indices 1 2 3 4 5 6 
#
# 1 50.8099 -11.3451 -2.3066 0.0000 0.0000 0.0000
# 2 -11.3451 64.2616 10.8332 0.0000 0.0000 0.0000
# 3 -2.3066 10.8332 46.7660 0.0000 0.0000 0.0000
# 4 0.0000 0.0000 0.0000 26.1162 0.0000 0.0000
# 5 0.0000 0.0000 0.0000 0.0000 20.4128 0.0000
# 6 0.0000 0.0000 0.0000 0.0000 0.0000 15.0728
#
#
#
# Elastic Compliance Matrix: (Units=1/GPa)
#
#
# Indices 1 2 3 4 5 6 
#
# 1 0.020490 0.003587 0.000180 0.000000 0.000000 0.000000
# 2 0.003587 0.016822 -0.003720 0.000000 0.000000 0.000000
# 3 0.000180 -0.003720 0.022254 0.000000 0.000000 0.000000
# 4 0.000000 0.000000 0.000000 0.038290 0.000000 0.000000
# 5 0.000000 0.000000 0.000000 0.000000 0.048989 0.000000
# 6 0.000000 0.000000 0.000000 0.000000 0.000000 0.066345
#
#
# Mechanical properties :
#
#
# Convention : Reuss Voigt Hill
#
# Bulk Modulus (GPa) = 16.76171 17.35562 17.05866
# Shear Modulus (GPa) = 21.46086 23.29742 22.37914
#
# Velocity S-wave (km/s) = 3.29972 3.43801 3.36957
# Velocity P-wave (km/s) = 4.79808 4.95633 4.87785
#
# Compressibility (1/GPa) = 0.05965980
#
# Stress axis : x y z
#
# Youngs Moduli (GPa) = 48.80353 59.44670 44.93654
#
# Poissons Ratio (x) = -0.21325 -0.00807
# Poissons Ratio (y) = -0.17507 0.16716
# Poissons Ratio (z) = -0.00877 0.22113
#
# Static dielectric constant tensor:
#      x y z
#    x 1.738190 0.000000 0.000000 
#    y 0.000000 1.673450 0.000000 
#    z 0.000000 0.000000 1.656070 
# 
# From -- ./inp_files/10932.got.cif
#   From: 2010.05.17/outbox.ucp.g08.bks.cvg/sg58_6_cif.got.tgz:10932.got - 2010.06.11 16:41:41.
