data_PCOD9445090
_publ_section_title
;
Structure prediction by ZEFSAII (Michael W. Deem and Ramdas Pophale) SiO2 
 PCOD9445090
Probable space group: P N N M
;
_chemical_formula_sum "Si O2"
_cell_formula_units_Z 56
_cell_length_a 14.441226
_cell_length_b 5.927043
_cell_length_c 31.299125
_cell_angle_alpha 90.000000
_cell_angle_beta 90.000000
_cell_angle_gamma 90.000000
_cell_volume 2679.010027
_symmetry_space_group_name_H-M "P N N M"
_symmetry_group_IT_number 58
_symmetry_cell_setting 'orthorhombic'
loop_
_space_group_symop_operation_xyz
x,y,z
-x,-y,z
1/2+x,1/2-y,1/2-z
1/2-x,1/2+y,1/2-z
-x,-y,-z
x,y,-z
1/2-x,1/2+y,1/2+z
1/2+x,1/2-y,1/2+z
loop_
_atom_site_type_symbol
_atom_site_label
_atom_site_fract_x
_atom_site_fract_y
_atom_site_fract_z
Si Si1 0.753292 0.237046 0.046977
Si Si2 0.401568 0.376787 0.048312
Si Si3 0.916555 0.828943 0.324816
Si Si4 0.401048 0.967118 0.258013
Si Si5 0.718149 0.706657 0.799311
Si Si6 0.340876 0.032576 0.882692
Si Si7 0.027522 0.745150 0.950768
O O1 0.685561 0.451891 0.052014
O O2 0.861949 0.278262 0.047607
O O3 0.732972 0.069792 0.085199
O O4 0.730753 0.141499 0.000000
O O5 0.500000 0.500000 0.050716
O O6 0.394327 0.208453 0.087834
O O7 0.397565 0.277578 0.000000
O O8 0.931326 0.679217 0.283013
O O9 0.904159 0.667490 0.364822
O O10 0.824677 0.970898 0.314797
O O11 0.000000 0.000000 0.330568
O O12 0.322388 0.831531 0.283738
O O13 0.500000 0.000000 0.281300
O O14 0.346080 0.184510 0.238319
O O15 0.705902 0.864415 0.840525
O O16 0.000000 0.500000 0.930866
O O17 0.990058 0.744922 0.000000
O O18 0.000000 0.000000 0.934077
#
# Coordination Sequence:
#
# PCOD9445090 Si02
#       7
#     8   8   8   8   8   8   8
#     4  10  22  40  66  95 130 180 230 283 346 412
#     4  10  23  44  67  96 137 187 238 287 349 418
#     4  11  23  41  65  99 130 170 232 279 339 409
#     4  11  22  41  71  98 129 178 220 275 342 409
#     4  11  23  40  66  99 137 169 223 279 334 416
#     4  11  25  40  65  97 140 179 224 290 345 409
#     4   9  19  36  64  97 123 160 224 293 349 406
#
# _framework density 20.903243
#
# number of rings (size 3 to 8) (size 9 to 14) (size 15 to 20)
#    0.000    1.571    2.857    1.286    2.000    4.000 
#    0.000    2.143    6.286    1.286    0.000    0.000 
#    0.000    0.000    0.000    0.000    0.000    0.000 
#
# Total GULP energy -312575.271751 kJ/mol
# GULP energy per Si atom -5581.701281 kJ/mol
# Density = 2.085567 g / cm^3
# Si number density = 20.903243 Si / 1000 Ang^3
#
#
#
# Elastic Constant Matrix: (Units=GPa)
#
#
# Indices 1 2 3 4 5 6 
#
# 1 159.5280 67.6428 49.8746 0.0000 0.0000 0.0000
# 2 67.6428 110.9021 37.9486 0.0000 0.0000 0.0000
# 3 49.8746 37.9486 87.0105 0.0000 0.0000 0.0000
# 4 0.0000 0.0000 0.0000 61.4277 0.0000 0.0000
# 5 0.0000 0.0000 0.0000 0.0000 901.4380 0.0000
# 6 0.0000 0.0000 0.0000 0.0000 0.0000 32.7577
#
#
#
# Elastic Compliance Matrix: (Units=1/GPa)
#
#
# Indices 1 2 3 4 5 6 
#
# 1 0.009206 -0.004478 -0.003324 0.000000 0.000000 0.000000
# 2 -0.004478 0.012777 -0.003006 0.000000 0.000000 0.000000
# 3 -0.003324 -0.003006 0.014709 0.000000 0.000000 0.000000
# 4 0.000000 0.000000 0.000000 0.016279 0.000000 0.000000
# 5 0.000000 0.000000 0.000000 0.000000 0.001109 0.000000
# 6 0.000000 0.000000 0.000000 0.000000 0.000000 0.030527
#
#
# Mechanical properties :
#
#
# Convention : Reuss Voigt Hill
#
# Bulk Modulus (GPa) = 66.32686 74.26364 70.29525
# Shear Modulus (GPa) = 44.94419 212.58966 128.76693
#
# Velocity S-wave (km/s) = 4.64195 10.09567 7.85717
# Velocity P-wave (km/s) = 7.78008 13.09585 10.77104
#
# Compressibility (1/GPa) = 0.01507685
#
# Stress axis : x y z
#
# Youngs Moduli (GPa) = 108.61955 78.26793 67.98471
#
# Poissons Ratio (x) = 0.35047 0.22599
# Poissons Ratio (y) = 0.48638 0.20434
# Poissons Ratio (z) = 0.36107 0.23525
#
# Static dielectric constant tensor:
#      x y z
#    x 1.727660 0.000000 0.000000 
#    y 0.000000 1.819010 0.000000 
#    z 0.000000 0.000000 1.745590 
# 
# From -- ./inp_files/35027.got.cif
#   From: 2010.05.17/outbox.cif.g08.bks.cpg/sg58_18_cif.got.tgz:35027.got - 2010.06.03 14:20:14.
