data_PCOD9445402
_publ_section_title
;
Structure prediction by ZEFSAII (Michael W. Deem and Ramdas Pophale) SiO2 
 PCOD9445402
Probable space group: P N N M
;
_chemical_formula_sum "Si O2"
_cell_formula_units_Z 24
_cell_length_a 14.435202
_cell_length_b 7.969197
_cell_length_c 9.828455
_cell_angle_alpha 90.000000
_cell_angle_beta 90.000000
_cell_angle_gamma 90.000000
_cell_volume 1130.635668
_symmetry_space_group_name_H-M "P N N M"
_symmetry_group_IT_number 58
_symmetry_cell_setting 'orthorhombic'
loop_
_space_group_symop_operation_xyz
x,y,z
-x,-y,z
1/2+x,1/2-y,1/2-z
1/2-x,1/2+y,1/2-z
-x,-y,-z
x,y,-z
1/2-x,1/2+y,1/2+z
1/2+x,1/2-y,1/2+z
loop_
_atom_site_type_symbol
_atom_site_label
_atom_site_fract_x
_atom_site_fract_y
_atom_site_fract_z
Si Si1 0.207580 0.765858 0.000000
Si Si2 0.056673 0.658848 0.216498
Si Si3 0.000000 0.000000 0.281452
Si Si4 0.841712 0.044196 0.500000
Si Si5 0.162025 0.592906 0.500000
O O1 0.142296 0.729352 0.129172
O O2 0.280490 0.617332 0.000000
O O3 0.264409 0.941057 0.000000
O O4 0.097061 0.598123 0.364421
O O5 0.000000 0.500000 0.161845
O O6 0.987979 0.819702 0.213372
O O7 0.089645 0.965911 0.372684
O O8 0.790758 0.222639 0.500000
#
# Coordination Sequence:
#
# PCOD9445402 Si02
#       5
#     4   8   4   4   4
#     4  12  26  38  66 103 136 162 213 280 327 371
#     4  11  24  42  67  95 133 175 214 265 324 391
#     4   9  20  41  68  88 124 178 218 254 314 394
#     4   9  20  41  66  93 125 171 221 260 308 387
#     4  10  24  42  67  94 126 175 223 260 313 391
#
# _framework density 21.226997999999998
#
# number of rings (size 3 to 8) (size 9 to 14) (size 15 to 20)
#    0.000    1.667    0.000    4.000    9.333    3.333 
#    0.000    0.000    0.000    0.000    0.000    0.000 
#    0.000    0.000    0.000    0.000    0.000    0.000 
#
# Total GULP energy -133745.790761 kJ/mol
# GULP energy per Si atom -5572.741282 kJ/mol
# Density = 2.117868 g / cm^3
# Si number density = 21.226998 Si / 1000 Ang^3
#
#
#
# Elastic Constant Matrix: (Units=GPa)
#
#
# Indices 1 2 3 4 5 6 
#
# 1 67.7193 81.4841 28.3316 0.0000 0.0000 0.0000
# 2 81.4841 270.9178 28.1093 0.0000 0.0000 0.0000
# 3 28.3316 28.1093 92.7800 0.0000 0.0000 0.0000
# 4 0.0000 0.0000 0.0000 -10.5394 0.0000 0.0000
# 5 0.0000 0.0000 0.0000 0.0000 15.0596 0.0000
# 6 0.0000 0.0000 0.0000 0.0000 0.0000 45.5929
#
#
#
# Elastic Compliance Matrix: (Units=1/GPa)
#
#
# Indices 1 2 3 4 5 6 
#
# 1 0.025763 -0.007158 -0.005699 0.000000 0.000000 0.000000
# 2 -0.007158 0.005799 0.000429 0.000000 0.000000 0.000000
# 3 -0.005699 0.000429 0.012388 0.000000 0.000000 0.000000
# 4 0.000000 0.000000 0.000000 -0.094882 0.000000 0.000000
# 5 0.000000 0.000000 0.000000 0.000000 0.066403 0.000000
# 6 0.000000 0.000000 0.000000 0.000000 0.000000 0.021933
#
#
# Mechanical properties :
#
#
# Convention : Reuss Voigt Hill
#
# Bulk Modulus (GPa) = 52.36678 78.58522 65.47600
# Shear Modulus (GPa) = 72.85848 29.58878 51.22363
#
# Velocity S-wave (km/s) = 5.86498 3.73758 4.91770
# Velocity P-wave (km/s) = 8.40163 7.46510 7.94717
#
# Compressibility (1/GPa) = 0.01909607
#
# Stress axis : x y z
#
# Youngs Moduli (GPa) = 38.81463 172.42912 80.72008
#
# Poissons Ratio (x) = 1.23418 0.46000
# Poissons Ratio (y) = 0.27782 -0.03460
# Poissons Ratio (z) = 0.22119 -0.07391
#
# Static dielectric constant tensor:
#      x y z
#    x 1.411600 0.000000 0.000000 
#    y 0.000000 1.884620 0.000000 
#    z 0.000000 0.000000 1.909200 
# 
# From -- ./inp_files/12194.got.cif
#   From: 2010.05.17/outbox.cif.g08.bks.cpg/sg58_7_cif.got.tgz:12194.got - 2010.06.03 14:20:14.
