data_PCOD9445900
_publ_section_title
;
Structure prediction by ZEFSAII (Michael W. Deem and Ramdas Pophale) SiO2 
 PCOD9445900
Probable space group: P N N M
;
_chemical_formula_sum "Si O2"
_cell_formula_units_Z 64
_cell_length_a 30.000000
_cell_length_b 15.000000
_cell_length_c 9.000000
_cell_angle_alpha 90.000000
_cell_angle_beta 90.000000
_cell_angle_gamma 90.000000
_cell_volume 4050.000000
_symmetry_space_group_name_H-M "P N N M"
_symmetry_group_IT_number 58
_symmetry_cell_setting 'orthorhombic'
loop_
_space_group_symop_operation_xyz
x,y,z
-x,-y,z
1/2+x,1/2-y,1/2-z
1/2-x,1/2+y,1/2-z
-x,-y,-z
x,y,-z
1/2-x,1/2+y,1/2+z
1/2+x,1/2-y,1/2+z
loop_
_atom_site_type_symbol
_atom_site_label
_atom_site_fract_x
_atom_site_fract_y
_atom_site_fract_z
Si Si1 0.051186 0.896685 0.179932
Si Si2 0.719288 0.402937 0.820485
Si Si3 0.136981 0.779191 0.180057
Si Si4 0.677796 0.111779 0.679931
Si Si5 0.320610 0.096045 0.319431
Si Si6 0.865507 0.783001 0.319623
Si Si7 0.947361 0.894504 0.180519
Si Si8 0.281864 0.388844 0.821258
O O1 0.090934 0.829213 0.228645
O O2 0.999523 0.874989 0.222744
O O3 0.060580 0.000582 0.221229
O O4 0.051213 0.894951 0.000000
O O5 0.769780 0.380463 0.769121
O O6 0.677988 0.341936 0.772376
O O7 0.711308 0.506653 0.783557
O O8 0.720414 0.396937 0.000000
O O9 0.145432 0.675242 0.224583
O O10 0.180142 0.831869 0.241228
O O11 0.137513 0.782325 0.000000
O O12 0.673549 0.117738 0.500000
O O13 0.645643 0.184089 0.756927
O O14 0.730056 0.132360 0.716988
O O15 0.669759 0.007304 0.723013
O O16 0.319766 0.095216 0.500000
O O17 0.868023 0.781555 0.500000
O O18 0.910096 0.830503 0.254290
O O19 0.944111 0.887519 0.000000
O O20 0.286086 0.379220 0.000000
#
# Coordination Sequence:
#
# PCOD9445900 Si02
#       8
#     8   8   8   8   8   8   8   8
#     4   8  16  30  49  71  93 119 150 184 223 273
#     4   8  15  27  41  61  92 122 143 172 219 267
#     4  10  17  27  47  71  90 112 149 191 226 260
#     4   9  18  32  46  61  87 124 156 179 214 265
#     4   8  15  28  45  63  86 117 149 182 220 259
#     4  11  20  29  46  71  93 116 152 193 229 264
#     4   9  17  32  49  66  94 125 148 177 226 281
#     4   9  17  29  44  64  92 123 150 174 211 269
#
# _framework density 15.802469
#
# number of rings (size 3 to 8) (size 9 to 14) (size 15 to 20)
#    0.000    3.000    0.000    4.125    0.000    1.500 
#    0.000    3.125    0.000    3.000    0.000    5.250 
#    0.000    0.000    0.000    0.000    0.000    0.000 
#
# Total GULP energy -356371.153761 kJ/mol
# GULP energy per Si atom -5568.299278 kJ/mol
# Density = 1.576650 g / cm^3
# Si number density = 15.802469 Si / 1000 Ang^3
#
#
#
# Elastic Constant Matrix: (Units=GPa)
#
#
# Indices 1 2 3 4 5 6 
#
# 1 128.3525 89.6421 24.8460 0.0000 0.0000 0.0000
# 2 89.6421 124.2003 21.9071 0.0000 0.0000 0.0000
# 3 24.8460 21.9071 21.8600 0.0000 0.0000 0.0000
# 4 0.0000 0.0000 0.0000 18.8422 0.0000 0.0000
# 5 0.0000 0.0000 0.0000 0.0000 24.7039 0.0000
# 6 0.0000 0.0000 0.0000 0.0000 0.0000 36.7327
#
#
#
# Elastic Compliance Matrix: (Units=1/GPa)
#
#
# Indices 1 2 3 4 5 6 
#
# 1 0.016916 -0.010711 -0.008492 0.000000 0.000000 0.000000
# 2 -0.010711 0.016563 -0.004424 0.000000 0.000000 0.000000
# 3 -0.008492 -0.004424 0.059832 0.000000 0.000000 0.000000
# 4 0.000000 0.000000 0.000000 0.053072 0.000000 0.000000
# 5 0.000000 0.000000 0.000000 0.000000 0.040479 0.000000
# 6 0.000000 0.000000 0.000000 0.000000 0.000000 0.027224
#
#
# Mechanical properties :
#
#
# Convention : Reuss Voigt Hill
#
# Bulk Modulus (GPa) = 21.71309 60.80035 41.25672
# Shear Modulus (GPa) = 18.07067 25.25693 21.66380
#
# Velocity S-wave (km/s) = 3.38529 4.00220 3.70660
# Velocity P-wave (km/s) = 5.38984 7.74051 6.66955
#
# Compressibility (1/GPa) = 0.04605516
#
# Stress axis : x y z
#
# Youngs Moduli (GPa) = 59.11727 60.37717 16.71357
#
# Poissons Ratio (x) = 0.64670 0.14193
# Poissons Ratio (y) = 0.63320 0.07394
# Poissons Ratio (z) = 0.50203 0.26712
#
# Static dielectric constant tensor:
#      x y z
#    x 1.528640 0.000000 0.000000 
#    y 0.000000 1.546280 0.000000 
#    z 0.000000 0.000000 1.525250 
# 
# From -- ./inp_files/11147.got.cif
#   From: 2010.05.17/outbox.ucp.g08.bks.cvg/sg58_6_cif.got.tgz:11147.got - 2010.06.11 16:41:41.
