data_PCOD9445679
_publ_section_title
;
Structure prediction by ZEFSAII (Michael W. Deem and Ramdas Pophale) SiO2 
 PCOD9445679
Probable space group: P N N M
;
_chemical_formula_sum "Si O2"
_cell_formula_units_Z 40
_cell_length_a 17.100340
_cell_length_b 7.994506
_cell_length_c 12.663750
_cell_angle_alpha 90.000000
_cell_angle_beta 90.000000
_cell_angle_gamma 90.000000
_cell_volume 1731.245695
_symmetry_space_group_name_H-M "P N N M"
_symmetry_group_IT_number 58
_symmetry_cell_setting 'orthorhombic'
loop_
_space_group_symop_operation_xyz
x,y,z
-x,-y,z
1/2+x,1/2-y,1/2-z
1/2-x,1/2+y,1/2-z
-x,-y,-z
x,y,-z
1/2-x,1/2+y,1/2+z
1/2+x,1/2-y,1/2+z
loop_
_atom_site_type_symbol
_atom_site_label
_atom_site_fract_x
_atom_site_fract_y
_atom_site_fract_z
Si Si1 0.400320 0.323451 0.000000
Si Si2 0.879220 0.589705 0.886764
Si Si3 0.417975 0.730070 0.000000
Si Si4 0.194125 0.257708 0.309135
Si Si5 0.537734 0.729012 0.384966
Si Si6 0.846138 0.126411 0.271814
O O1 0.356053 0.289148 0.111755
O O2 0.410131 0.526742 0.000000
O O3 0.488058 0.242354 0.000000
O O4 0.825058 0.626970 0.790197
O O5 0.922636 0.412949 0.880475
O O6 0.946248 0.731142 0.882246
O O7 0.837798 0.597647 0.000000
O O8 0.367688 0.798086 0.901103
O O9 0.287099 0.288445 0.313386
O O10 0.178976 0.064201 0.285982
O O11 0.557453 0.654697 0.500000
O O12 0.569993 0.632219 0.285177
#
# Coordination Sequence:
#
# PCOD9445679 Si02
#       6
#     4   8   4   8   8   8
#     4   9  20  40  63  85 114 157 202 245 297 356
#     4   9  19  37  60  85 116 153 191 236 295 357
#     4   9  20  40  63  85 114 157 202 245 297 356
#     4  11  23  38  59  87 119 155 199 247 297 357
#     4   9  19  37  60  85 116 153 191 236 295 357
#     4  11  23  38  59  87 119 155 199 247 297 357
#
# _framework density 23.104752000000001
#
# number of rings (size 3 to 8) (size 9 to 14) (size 15 to 20)
#    0.000    2.200    0.000    3.600    2.800    3.200 
#    0.000    5.000    0.000    7.200    0.000    0.000 
#    0.000    0.000    0.000    0.000    0.000    0.000 
#
# Total GULP energy -223266.021362 kJ/mol
# GULP energy per Si atom -5581.650534 kJ/mol
# Density = 2.305216 g / cm^3
# Si number density = 23.104752 Si / 1000 Ang^3
#
#
#
# Elastic Constant Matrix: (Units=GPa)
#
#
# Indices 1 2 3 4 5 6 
#
# 1 64.1619 10.8700 19.0635 0.0000 0.0000 0.0000
# 2 10.8700 45.2378 19.3053 0.0000 0.0000 0.0000
# 3 19.0635 19.3053 86.3919 0.0000 0.0000 0.0000
# 4 0.0000 0.0000 0.0000 -182.1934 0.0000 0.0000
# 5 0.0000 0.0000 0.0000 0.0000 23.9654 0.0000
# 6 0.0000 0.0000 0.0000 0.0000 0.0000 39.4259
#
#
#
# Elastic Compliance Matrix: (Units=1/GPa)
#
#
# Indices 1 2 3 4 5 6 
#
# 1 0.016981 -0.002743 -0.003134 0.000000 0.000000 0.000000
# 2 -0.002743 0.024879 -0.004954 0.000000 0.000000 0.000000
# 3 -0.003134 -0.004954 0.013374 0.000000 0.000000 0.000000
# 4 0.000000 0.000000 0.000000 -0.005489 0.000000 0.000000
# 5 0.000000 0.000000 0.000000 0.000000 0.041727 0.000000
# 6 0.000000 0.000000 0.000000 0.000000 0.000000 0.025364
#
#
# Mechanical properties :
#
#
# Convention : Reuss Voigt Hill
#
# Bulk Modulus (GPa) = 29.78728 32.69659 31.24194
# Shear Modulus (GPa) = 33.40251 -13.99024 9.70614
#
# Velocity S-wave (km/s) = 3.80636 -2.46339 2.05184
# Velocity P-wave (km/s) = 5.67786 2.46802 4.37774
#
# Compressibility (1/GPa) = 0.03357137
#
# Stress axis : x y z
#
# Youngs Moduli (GPa) = 58.88765 40.19506 74.77282
#
# Poissons Ratio (x) = 0.11025 0.23436
# Poissons Ratio (y) = 0.16152 0.37044
# Poissons Ratio (z) = 0.18457 0.19913
#
# Static dielectric constant tensor:
#      x y z
#    x 1.919640 0.000000 0.000000 
#    y 0.000000 1.859250 0.000000 
#    z 0.000000 0.000000 1.895000 
# 
# From -- ./inp_files/12930.got.cif
#   From: 2010.05.17/outbox.cif.g08.bks.cpg/sg58_7_cif.got.tgz:12930.got - 2010.06.03 14:20:14.
