data_PCOD9445461
_publ_section_title
;
Structure prediction by ZEFSAII (Michael W. Deem and Ramdas Pophale) SiO2 
 PCOD9445461
Probable space group: P N N M
;
_chemical_formula_sum "Si O2"
_cell_formula_units_Z 30
_cell_length_a 10.712913
_cell_length_b 14.384366
_cell_length_c 7.278378
_cell_angle_alpha 90.000000
_cell_angle_beta 90.000000
_cell_angle_gamma 90.000000
_cell_volume 1121.586852
_symmetry_space_group_name_H-M "P N N M"
_symmetry_group_IT_number 58
_symmetry_cell_setting 'orthorhombic'
loop_
_space_group_symop_operation_xyz
x,y,z
-x,-y,z
1/2+x,1/2-y,1/2-z
1/2-x,1/2+y,1/2-z
-x,-y,-z
x,y,-z
1/2-x,1/2+y,1/2+z
1/2+x,1/2-y,1/2+z
loop_
_atom_site_type_symbol
_atom_site_label
_atom_site_fract_x
_atom_site_fract_y
_atom_site_fract_z
Si Si1 0.834737 0.890421 0.716733
Si Si2 0.163029 0.445331 0.211588
Si Si3 0.001601 0.666823 0.500000
Si Si4 0.500000 0.500000 0.500000
Si Si5 0.164930 0.779548 0.216726
O O1 0.858828 0.902697 0.500000
O O2 0.943236 0.929296 0.841509
O O3 0.787021 0.786159 0.747164
O O4 0.712386 0.952971 0.766125
O O5 0.062166 0.400266 0.341909
O O6 0.286983 0.381654 0.234501
O O7 0.124680 0.445333 0.000000
O O8 0.059128 0.737216 0.341653
O O9 0.137497 0.775349 0.000000
#
# Coordination Sequence:
#
# PCOD9445461 Si02
#       5
#     8   8   4   2   8
#     4  10  25  45  65  95 140 169 220 280 324 392
#     4  11  24  46  65  98 135 172 221 274 327 396
#     4  12  24  43  74  95 132 180 218 275 340 383
#     4  12  22  40  72 100 124 182 222 268 336 396
#     4  11  24  46  65  98 135 172 221 274 327 396
#
# _framework density 26.747816
#
# number of rings (size 3 to 8) (size 9 to 14) (size 15 to 20)
#    0.000    1.067    2.667    2.800    0.000    4.267 
#    0.000    4.000    0.000    0.000    0.000    0.000 
#    0.000    0.000    0.000    0.000    0.000    0.000 
#
# Total GULP energy -167003.278785 kJ/mol
# GULP energy per Si atom -5566.775960 kJ/mol
# Density = 2.668694 g / cm^3
# Si number density = 26.747816 Si / 1000 Ang^3
#
#
#
# Elastic Constant Matrix: (Units=GPa)
#
#
# Indices 1 2 3 4 5 6 
#
# 1 106.2849 32.0869 29.7288 0.0000 0.0000 0.0000
# 2 32.0869 99.1280 4.9692 0.0000 0.0000 0.0000
# 3 29.7288 4.9692 137.4729 0.0000 0.0000 0.0000
# 4 0.0000 0.0000 0.0000 14.6031 0.0000 0.0000
# 5 0.0000 0.0000 0.0000 0.0000 51.9767 0.0000
# 6 0.0000 0.0000 0.0000 0.0000 0.0000 72.2365
#
#
#
# Elastic Compliance Matrix: (Units=1/GPa)
#
#
# Indices 1 2 3 4 5 6 
#
# 1 0.011094 -0.003477 -0.002273 0.000000 0.000000 0.000000
# 2 -0.003477 0.011196 0.000347 0.000000 0.000000 0.000000
# 3 -0.002273 0.000347 0.007753 0.000000 0.000000 0.000000
# 4 0.000000 0.000000 0.000000 0.068478 0.000000 0.000000
# 5 0.000000 0.000000 0.000000 0.000000 0.019239 0.000000
# 6 0.000000 0.000000 0.000000 0.000000 0.000000 0.013843
#
#
# Mechanical properties :
#
#
# Convention : Reuss Voigt Hill
#
# Bulk Modulus (GPa) = 51.98357 52.93952 52.46154
# Shear Modulus (GPa) = 33.59674 46.17000 39.88337
#
# Velocity S-wave (km/s) = 3.54793 4.15917 3.86565
# Velocity P-wave (km/s) = 6.02168 6.54981 6.29129
#
# Compressibility (1/GPa) = 0.01923685
#
# Stress axis : x y z
#
# Youngs Moduli (GPa) = 90.13620 89.31692 128.97811
#
# Poissons Ratio (x) = 0.31057 0.29323
# Poissons Ratio (y) = 0.31342 -0.04479
# Poissons Ratio (z) = 0.20492 -0.03101
#
# Static dielectric constant tensor:
#      x y z
#    x 2.255750 0.000000 0.000000 
#    y 0.000000 2.028720 0.000000 
#    z 0.000000 0.000000 1.875240 
# 
# From -- ./inp_files/3554.got.cif
#   From: 2010.05.17/outbox.cif.g08.bks.cpg/sg58_2_cif.got.tgz:3554.got - 2010.06.03 14:20:14.
