data_PCOD9445816
_publ_section_title
;
Structure prediction by ZEFSAII (Michael W. Deem and Ramdas Pophale) SiO2 
 PCOD9445816
Probable space group: P N N M
;
_chemical_formula_sum "Si O2"
_cell_formula_units_Z 40
_cell_length_a 7.061553
_cell_length_b 15.269194
_cell_length_c 17.075884
_cell_angle_alpha 90.000000
_cell_angle_beta 90.000000
_cell_angle_gamma 90.000000
_cell_volume 1841.193919
_symmetry_space_group_name_H-M "P N N M"
_symmetry_group_IT_number 58
_symmetry_cell_setting 'orthorhombic'
loop_
_space_group_symop_operation_xyz
x,y,z
-x,-y,z
1/2+x,1/2-y,1/2-z
1/2-x,1/2+y,1/2-z
-x,-y,-z
x,y,-z
1/2-x,1/2+y,1/2+z
1/2+x,1/2-y,1/2+z
loop_
_atom_site_type_symbol
_atom_site_label
_atom_site_fract_x
_atom_site_fract_y
_atom_site_fract_z
Si Si1 0.796561 0.042309 0.000000
Si Si2 0.107023 0.291425 0.662247
Si Si3 0.500000 0.500000 0.124736
Si Si4 0.165696 0.552269 0.656840
Si Si5 0.742747 0.750868 0.500000
Si Si6 0.813193 0.441684 0.000000
Si Si7 0.025737 0.868945 0.240958
O O1 0.699406 0.003234 0.922156
O O2 0.182397 0.852143 0.000000
O O3 0.000000 0.000000 0.000000
O O4 0.146592 0.242362 0.581338
O O5 0.060928 0.223227 0.730643
O O6 0.292692 0.346547 0.688212
O O7 0.931745 0.354287 0.644195
O O8 0.575652 0.576872 0.181338
O O9 0.673962 0.464346 0.072794
O O10 0.363517 0.574635 0.697598
O O11 0.000000 0.500000 0.703507
O O12 0.620851 0.839664 0.500000
O O13 0.000000 0.500000 0.000000
#
# Coordination Sequence:
#
# PCOD9445816 Si02
#       7
#     4   8   4   8   4   4   8
#     4  12  26  47  75 110 148 196 245 311 390 461
#     4  12  25  46  73 107 150 197 250 308 376 458
#     4  11  26  48  72 103 148 188 244 315 374 432
#     4  12  25  45  73 107 149 195 243 314 384 446
#     4  12  24  49  72 102 150 190 250 306 370 458
#     4  11  27  51  77 104 142 200 251 307 374 447
#     4  12  26  45  73 108 150 197 250 310 379 452
#
# _framework density 21.725033
#
# number of rings (size 3 to 8) (size 9 to 14) (size 15 to 20)
#    0.000    0.200    6.000    3.300    1.400    4.000 
#    3.600    0.000    0.000    0.000    0.000    0.000 
#    0.000    0.000    0.000    0.000    0.000    0.000 
#
# Total GULP energy -223460.334389 kJ/mol
# GULP energy per Si atom -5586.508360 kJ/mol
# Density = 2.167559 g / cm^3
# Si number density = 21.725033 Si / 1000 Ang^3
#
#
#
# Elastic Constant Matrix: (Units=GPa)
#
#
# Indices 1 2 3 4 5 6 
#
# 1 127.2609 62.6349 51.5895 0.0000 0.0000 0.0000
# 2 62.6349 163.8139 45.9929 0.0000 0.0000 0.0000
# 3 51.5895 45.9929 111.8151 0.0000 0.0000 0.0000
# 4 0.0000 0.0000 0.0000 30.6871 0.0000 0.0000
# 5 0.0000 0.0000 0.0000 0.0000 -5.2264 0.0000
# 6 0.0000 0.0000 0.0000 0.0000 0.0000 54.2466
#
#
#
# Elastic Compliance Matrix: (Units=1/GPa)
#
#
# Indices 1 2 3 4 5 6 
#
# 1 0.010915 -0.003120 -0.003753 0.000000 0.000000 0.000000
# 2 -0.003120 0.007793 -0.001766 0.000000 0.000000 0.000000
# 3 -0.003753 -0.001766 0.011401 0.000000 0.000000 0.000000
# 4 0.000000 0.000000 0.000000 0.032587 0.000000 0.000000
# 5 0.000000 0.000000 0.000000 0.000000 -0.191335 0.000000
# 6 0.000000 0.000000 0.000000 0.000000 0.000000 0.018434
#
#
# Mechanical properties :
#
#
# Convention : Reuss Voigt Hill
#
# Bulk Modulus (GPa) = 77.92982 80.36938 79.14960
# Shear Modulus (GPa) = -56.40134 32.11963 -12.14086
#
# Velocity S-wave (km/s) = -5.10077 3.84925 -2.36655
# Velocity P-wave (km/s) = 1.12180 7.53856 5.38926
#
# Compressibility (1/GPa) = 0.01283206
#
# Stress axis : x y z
#
# Youngs Moduli (GPa) = 91.62116 128.31732 87.71006
#
# Poissons Ratio (x) = 0.40030 0.32914
# Poissons Ratio (y) = 0.28582 0.15492
# Poissons Ratio (z) = 0.34381 0.22664
#
# Static dielectric constant tensor:
#      x y z
#    x 1.815480 0.000000 0.000000 
#    y 0.000000 1.905300 0.000000 
#    z 0.000000 0.000000 1.807780 
# 
# From -- ./inp_files/24227.got.cif
#   From: 2010.05.17/outbox.cif.g08.bks.cpg/sg58_13_cif.got.tgz:24227.got - 2010.06.03 14:20:14.
