data_PCOD9445448
_publ_section_title
;
Structure prediction by ZEFSAII (Michael W. Deem and Ramdas Pophale) SiO2 
 PCOD9445448
Probable space group: P N N M
;
_chemical_formula_sum "Si O2"
_cell_formula_units_Z 48
_cell_length_a 9.447892
_cell_length_b 7.517736
_cell_length_c 30.148726
_cell_angle_alpha 90.000000
_cell_angle_beta 90.000000
_cell_angle_gamma 90.000000
_cell_volume 2141.366260
_symmetry_space_group_name_H-M "P N N M"
_symmetry_group_IT_number 58
_symmetry_cell_setting 'orthorhombic'
loop_
_space_group_symop_operation_xyz
x,y,z
-x,-y,z
1/2+x,1/2-y,1/2-z
1/2-x,1/2+y,1/2-z
-x,-y,-z
x,y,-z
1/2-x,1/2+y,1/2+z
1/2+x,1/2-y,1/2+z
loop_
_atom_site_type_symbol
_atom_site_label
_atom_site_fract_x
_atom_site_fract_y
_atom_site_fract_z
Si Si1 0.737789 0.141486 0.321644
Si Si2 0.892724 0.231714 0.500000
Si Si3 0.888392 0.236887 0.596501
Si Si4 0.637497 0.880904 0.249587
Si Si5 0.053230 0.804296 0.167082
Si Si6 0.291317 0.854492 0.000000
Si Si7 0.214089 0.356859 0.402850
O O1 0.840374 0.117732 0.362745
O O2 0.786215 0.316016 0.294235
O O3 0.579449 0.173268 0.339399
O O4 0.732012 0.991333 0.284222
O O5 0.850669 0.158443 0.548023
O O6 0.839941 0.437639 0.500000
O O7 0.062812 0.243421 0.500000
O O8 0.809495 0.428909 0.601794
O O9 0.055088 0.279333 0.598113
O O10 0.589362 0.718601 0.281001
O O11 0.500000 0.000000 0.238641
O O12 0.187035 0.778323 0.135291
O O13 0.000000 0.000000 0.157133
O O14 0.221980 0.824093 0.952168
#
# Coordination Sequence:
#
# PCOD9445448 Si02
#       7
#     8   4   8   8   8   4   8
#     4  11  22  38  58  81 111 151 191 242 291 346
#     4   7  12  26  47  83 108 144 185 238 282 343
#     4   9  17  30  57  81 115 147 192 234 292 350
#     4  10  25  41  59  84 116 153 200 244 292 352
#     4  11  21  37  57  82 113 146 184 236 292 343
#     4   7  12  26  46  78 115 144 182 234 286 340
#     4   9  17  30  54  83 114 149 188 237 290 347
#
# _framework density 22.415596000000001
#
# number of rings (size 3 to 8) (size 9 to 14) (size 15 to 20)
#    0.000    2.500    1.667    3.000    2.333    1.333 
#    0.000    5.417    0.000    1.000    0.000    7.000 
#    0.000    0.000    0.000    0.000    0.000    0.000 
#
# Total GULP energy -268087.542154 kJ/mol
# GULP energy per Si atom -5585.157128 kJ/mol
# Density = 2.236458 g / cm^3
# Si number density = 22.415596 Si / 1000 Ang^3
#
#
#
# Elastic Constant Matrix: (Units=GPa)
#
#
# Indices 1 2 3 4 5 6 
#
# 1 65.0187 13.6949 61.6233 0.0000 0.0000 0.0000
# 2 13.6949 44.8309 29.4833 0.0000 0.0000 0.0000
# 3 61.6233 29.4833 134.9707 0.0000 0.0000 0.0000
# 4 0.0000 0.0000 0.0000 498.7948 0.0000 0.0000
# 5 0.0000 0.0000 0.0000 0.0000 20.5369 0.0000
# 6 0.0000 0.0000 0.0000 0.0000 0.0000 22.9715
#
#
#
# Elastic Compliance Matrix: (Units=1/GPa)
#
#
# Indices 1 2 3 4 5 6 
#
# 1 0.027113 -0.000165 -0.012343 0.000000 0.000000 0.000000
# 2 -0.000165 0.026049 -0.005615 0.000000 0.000000 0.000000
# 3 -0.012343 -0.005615 0.014271 0.000000 0.000000 0.000000
# 4 0.000000 0.000000 0.000000 0.002005 0.000000 0.000000
# 5 0.000000 0.000000 0.000000 0.000000 0.048693 0.000000
# 6 0.000000 0.000000 0.000000 0.000000 0.000000 0.043532
#
#
# Mechanical properties :
#
#
# Convention : Reuss Voigt Hill
#
# Bulk Modulus (GPa) = 32.06413 50.49148 41.27780
# Shear Modulus (GPa) = 24.00325 117.79524 70.89924
#
# Velocity S-wave (km/s) = 3.27590 7.25704 5.63011
# Velocity P-wave (km/s) = 5.35202 9.63294 7.79223
#
# Compressibility (1/GPa) = 0.03118750
#
# Stress axis : x y z
#
# Youngs Moduli (GPa) = 36.88211 38.38908 70.07235
#
# Poissons Ratio (x) = 0.00634 0.86491
# Poissons Ratio (y) = 0.00609 0.39344
# Poissons Ratio (z) = 0.45524 0.21555
#
# Static dielectric constant tensor:
#      x y z
#    x 1.827790 0.000000 0.000000 
#    y 0.000000 1.902490 0.000000 
#    z 0.000000 0.000000 1.822170 
# 
# From -- ./inp_files/34642.got.cif
#   From: 2010.05.17/outbox.cif.g08.bks.cpg/sg58_18_cif.got.tgz:34642.got - 2010.06.03 14:20:14.
