data_PCOD9445288
_publ_section_title
;
Structure prediction by ZEFSAII (Michael W. Deem and Ramdas Pophale) SiO2 
 PCOD9445288
Probable space group: P N N M
;
_chemical_formula_sum "Si O2"
_cell_formula_units_Z 28
_cell_length_a 8.153084
_cell_length_b 8.102167
_cell_length_c 21.938224
_cell_angle_alpha 90.000000
_cell_angle_beta 90.000000
_cell_angle_gamma 90.000000
_cell_volume 1449.187482
_symmetry_space_group_name_H-M "P N N M"
_symmetry_group_IT_number 58
_symmetry_cell_setting 'orthorhombic'
loop_
_space_group_symop_operation_xyz
x,y,z
-x,-y,z
1/2+x,1/2-y,1/2-z
1/2-x,1/2+y,1/2-z
-x,-y,-z
x,y,-z
1/2-x,1/2+y,1/2+z
1/2+x,1/2-y,1/2+z
loop_
_atom_site_type_symbol
_atom_site_label
_atom_site_fract_x
_atom_site_fract_y
_atom_site_fract_z
Si Si1 0.918104 0.172675 0.165671
Si Si2 0.000000 0.000000 0.352274
Si Si3 0.419427 0.825713 0.227162
Si Si4 0.816227 0.424580 0.071154
O O1 0.771183 0.153550 0.213719
O O2 0.840699 0.251905 0.105874
O O3 0.043893 0.290026 0.201975
O O4 0.000000 0.000000 0.152533
O O5 0.023540 0.164819 0.311282
O O6 0.165425 0.987756 0.393415
O O7 0.500000 0.000000 0.209677
O O8 0.000000 0.500000 0.075315
O O9 0.774782 0.411051 0.000000
#
# Coordination Sequence:
#
# PCOD9445288 Si02
#       4
#     8   4   8   8
#     4  11  23  38  61  90 128 162 205 263 314 379
#     4  10  23  42  64  92 127 162 212 258 316 372
#     4  11  23  37  61  95 125 162 202 258 327 371
#     4  10  23  41  65  89 121 171 212 255 309 370
#
# _framework density 19.321171
#
# number of rings (size 3 to 8) (size 9 to 14) (size 15 to 20)
#    0.000    1.429    1.429    3.000   12.000    0.571 
#    0.000    0.000    0.000    4.286    0.000    0.000 
#    0.000    0.000    0.000    0.000    0.000    0.000 
#
# Total GULP energy -156274.226674 kJ/mol
# GULP energy per Si atom -5581.222381 kJ/mol
# Density = 1.927719 g / cm^3
# Si number density = 19.321171 Si / 1000 Ang^3
#
#
#
# Elastic Constant Matrix: (Units=GPa)
#
#
# Indices 1 2 3 4 5 6 
#
# 1 87.5366 24.9568 23.1565 0.0000 0.0000 0.0000
# 2 24.9568 98.3522 23.1856 0.0000 0.0000 0.0000
# 3 23.1565 23.1856 92.5212 0.0000 0.0000 0.0000
# 4 0.0000 0.0000 0.0000 10.1132 0.0000 0.0000
# 5 0.0000 0.0000 0.0000 0.0000 129.0554 0.0000
# 6 0.0000 0.0000 0.0000 0.0000 0.0000 28.4529
#
#
#
# Elastic Compliance Matrix: (Units=1/GPa)
#
#
# Indices 1 2 3 4 5 6 
#
# 1 0.012857 -0.002661 -0.002551 0.000000 0.000000 0.000000
# 2 -0.002661 0.011357 -0.002180 0.000000 0.000000 0.000000
# 3 -0.002551 -0.002180 0.011993 0.000000 0.000000 0.000000
# 4 0.000000 0.000000 0.000000 0.098881 0.000000 0.000000
# 5 0.000000 0.000000 0.000000 0.000000 0.007749 0.000000
# 6 0.000000 0.000000 0.000000 0.000000 0.000000 0.035146
#
#
# Mechanical properties :
#
#
# Convention : Reuss Voigt Hill
#
# Bulk Modulus (GPa) = 46.67916 46.77862 46.72889
# Shear Modulus (GPa) = 25.01157 47.33170 36.17164
#
# Velocity S-wave (km/s) = 3.60184 4.95485 4.33150
# Velocity P-wave (km/s) = 6.44280 7.54968 7.01810
#
# Compressibility (1/GPa) = 0.02142284
#
# Stress axis : x y z
#
# Youngs Moduli (GPa) = 77.77654 88.05372 83.38118
#
# Poissons Ratio (x) = 0.23432 0.21271
# Poissons Ratio (y) = 0.20697 0.18176
# Poissons Ratio (z) = 0.19842 0.19195
#
# Static dielectric constant tensor:
#      x y z
#    x 1.733960 0.000000 0.000000 
#    y 0.000000 1.584360 0.000000 
#    z 0.000000 0.000000 1.659680 
# 
# From -- ./inp_files/24698.got.cif
#   From: 2010.05.17/outbox.cif.g08.bks.cpg/sg58_13_cif.got.tgz:24698.got - 2010.06.03 14:20:14.
