data_PCOD9445470
_publ_section_title
;
Structure prediction by ZEFSAII (Michael W. Deem and Ramdas Pophale) SiO2 
 PCOD9445470
Probable space group: P N N M
;
_chemical_formula_sum "Si O2"
_cell_formula_units_Z 38
_cell_length_a 12.999945
_cell_length_b 5.294168
_cell_length_c 27.026799
_cell_angle_alpha 90.000000
_cell_angle_beta 90.000000
_cell_angle_gamma 90.000000
_cell_volume 1860.089518
_symmetry_space_group_name_H-M "P N N M"
_symmetry_group_IT_number 58
_symmetry_cell_setting 'orthorhombic'
loop_
_space_group_symop_operation_xyz
x,y,z
-x,-y,z
1/2+x,1/2-y,1/2-z
1/2-x,1/2+y,1/2-z
-x,-y,-z
x,y,-z
1/2-x,1/2+y,1/2+z
1/2+x,1/2-y,1/2+z
loop_
_atom_site_type_symbol
_atom_site_label
_atom_site_fract_x
_atom_site_fract_y
_atom_site_fract_z
Si Si1 0.000000 0.500000 0.827517
Si Si2 0.915250 0.810139 0.918391
Si Si3 0.000000 0.500000 0.000000
Si Si4 0.621203 0.549853 0.159512
Si Si5 0.765865 0.541194 0.636315
Si Si6 0.884662 0.115668 0.774170
O O1 0.042167 0.291997 0.865929
O O2 0.090630 0.599084 0.792289
O O3 0.916275 0.580903 0.956347
O O4 0.813463 0.967474 0.906979
O O5 0.000000 0.000000 0.940557
O O6 0.500000 0.500000 0.155061
O O7 0.650191 0.820933 0.137590
O O8 0.646548 0.567702 0.218105
O O9 0.685565 0.319618 0.135885
O O10 0.699282 0.521912 0.687030
O O11 0.000000 0.000000 0.778263
#
# Coordination Sequence:
#
# PCOD9445470 Si02
#       6
#     4   8   2   8   8   8
#     4  11  18  35  60  86 136 172 210 255 336 393
#     4  11  22  40  65  98 135 168 206 268 350 443
#     4  10  26  40  68 102 150 154 202 276 374 442
#     4  11  27  39  57  85 130 175 239 280 303 356
#     4  12  22  41  62  89 122 178 222 267 336 388
#     4  11  22  34  57  88 127 173 220 271 318 386
#
# _framework density 20.429123000000001
#
# number of rings (size 3 to 8) (size 9 to 14) (size 15 to 20)
#    0.000    0.842    4.211    3.474    8.842    0.000 
#    0.000    0.000    0.000    0.000    0.000    4.421 
#    0.000    0.000    0.000    0.000    0.000    0.000 
#
# Total GULP energy -211679.709923 kJ/mol
# GULP energy per Si atom -5570.518682 kJ/mol
# Density = 2.038263 g / cm^3
# Si number density = 20.429123 Si / 1000 Ang^3
#
#
#
# Elastic Constant Matrix: (Units=GPa)
#
#
# Indices 1 2 3 4 5 6 
#
# 1 73.1549 14.1497 14.6979 0.0000 0.0000 0.0000
# 2 14.1497 77.1397 14.6840 0.0000 0.0000 0.0000
# 3 14.6979 14.6840 73.1606 0.0000 0.0000 0.0000
# 4 0.0000 0.0000 0.0000 3201.0220 0.0000 0.0000
# 5 0.0000 0.0000 0.0000 0.0000 15.2775 0.0000
# 6 0.0000 0.0000 0.0000 0.0000 0.0000 50.2531
#
#
#
# Elastic Compliance Matrix: (Units=1/GPa)
#
#
# Indices 1 2 3 4 5 6 
#
# 1 0.014596 -0.002203 -0.002490 0.000000 0.000000 0.000000
# 2 -0.002203 0.013811 -0.002329 0.000000 0.000000 0.000000
# 3 -0.002490 -0.002329 0.014636 0.000000 0.000000 0.000000
# 4 0.000000 0.000000 0.000000 0.000312 0.000000 0.000000
# 5 0.000000 0.000000 0.000000 0.000000 0.065456 0.000000
# 6 0.000000 0.000000 0.000000 0.000000 0.000000 0.019899
#
#
# Mechanical properties :
#
#
# Convention : Reuss Voigt Hill
#
# Bulk Modulus (GPa) = 34.48528 34.50203 34.49366
# Shear Modulus (GPa) = 32.80358 665.30542 349.05450
#
# Velocity S-wave (km/s) = 4.01150 18.06577 13.08557
# Velocity P-wave (km/s) = 6.19462 21.26237 15.65984
#
# Compressibility (1/GPa) = 0.02899788
#
# Stress axis : x y z
#
# Youngs Moduli (GPa) = 68.51148 72.40569 68.32306
#
# Poissons Ratio (x) = 0.15954 0.17013
# Poissons Ratio (y) = 0.15095 0.15915
# Poissons Ratio (z) = 0.17060 0.16866
#
# Static dielectric constant tensor:
#      x y z
#    x 1.742890 0.000000 0.000000 
#    y 0.000000 1.887970 0.000000 
#    z 0.000000 0.000000 1.716050 
# 
# From -- ./inp_files/32703.got.cif
#   From: 2010.05.17/outbox.cif.g08.bks.cpg/sg58_17_cif.got.tgz:32703.got - 2010.06.03 14:20:14.
