data_PCOD9445553
_publ_section_title
;
Structure prediction by ZEFSAII (Michael W. Deem and Ramdas Pophale) SiO2 
 PCOD9445553
Probable space group: P N N M
;
_chemical_formula_sum "Si O2"
_cell_formula_units_Z 64
_cell_length_a 30.631217
_cell_length_b 14.744245
_cell_length_c 8.710273
_cell_angle_alpha 90.000000
_cell_angle_beta 90.000000
_cell_angle_gamma 90.000000
_cell_volume 3933.856900
_symmetry_space_group_name_H-M "P N N M"
_symmetry_group_IT_number 58
_symmetry_cell_setting 'orthorhombic'
loop_
_space_group_symop_operation_xyz
x,y,z
-x,-y,z
1/2+x,1/2-y,1/2-z
1/2-x,1/2+y,1/2-z
-x,-y,-z
x,y,-z
1/2-x,1/2+y,1/2+z
1/2+x,1/2-y,1/2+z
loop_
_atom_site_type_symbol
_atom_site_label
_atom_site_fract_x
_atom_site_fract_y
_atom_site_fract_z
Si Si1 0.134259 0.814708 0.817145
Si Si2 0.714078 0.211078 0.817427
Si Si3 0.450400 0.392007 0.184822
Si Si4 0.673213 0.503354 0.824123
Si Si5 0.777512 0.512305 0.823130
Si Si6 0.136499 0.175187 0.179734
Si Si7 0.297693 0.179552 0.816723
Si Si8 0.551084 0.395512 0.815617
O O1 0.084143 0.827113 0.766175
O O2 0.159825 0.727903 0.753852
O O3 0.158086 0.900333 0.738534
O O4 0.138247 0.819241 0.000000
O O5 0.668611 0.257681 0.769686
O O6 0.754534 0.267079 0.743850
O O7 0.713970 0.108177 0.757454
O O8 0.719622 0.213926 0.000000
O O9 0.441072 0.498000 0.224511
O O10 0.500903 0.374531 0.225219
O O11 0.446054 0.384412 0.000000
O O12 0.725250 0.500062 0.825647
O O13 0.655472 0.424382 0.716876
O O14 0.657417 0.490076 0.000000
O O15 0.795727 0.424529 0.736689
O O16 0.792734 0.514591 0.000000
O O17 0.086861 0.168155 0.238130
O O18 0.138520 0.194883 0.000000
O O19 0.298234 0.186426 0.000000
O O20 0.554798 0.389103 0.000000
#
# Coordination Sequence:
#
# PCOD9445553 Si02
#       8
#     8   8   8   8   8   8   8   8
#     4  12  23  34  52  79 109 143 182 223 266 317
#     4  12  24  38  56  78 106 143 183 223 266 318
#     4   9  18  33  53  76 106 143 179 218 267 321
#     4  11  21  33  52  74 106 145 181 221 265 315
#     4  11  23  39  57  78 106 141 180 228 271 313
#     4  12  23  34  52  79 109 143 182 223 266 317
#     4  12  24  38  56  78 106 143 183 223 266 318
#     4   9  18  33  53  76 106 143 179 218 267 321
#
# _framework density 16.269020000000001
#
# number of rings (size 3 to 8) (size 9 to 14) (size 15 to 20)
#    0.000    1.000    3.750    6.000    0.000    1.500 
#    0.000    1.250    0.000    0.000    0.000    0.875 
#    0.000    7.000    0.000    0.000    0.000    0.000 
#
# Total GULP energy -357613.776104 kJ/mol
# GULP energy per Si atom -5587.715252 kJ/mol
# Density = 1.623199 g / cm^3
# Si number density = 16.269020 Si / 1000 Ang^3
#
#
#
# Elastic Constant Matrix: (Units=GPa)
#
#
# Indices 1 2 3 4 5 6 
#
# 1 83.9394 14.3256 19.8064 0.0000 0.0000 0.0000
# 2 14.3256 52.2478 -1.6126 0.0000 0.0000 0.0000
# 3 19.8064 -1.6126 74.9682 0.0000 0.0000 0.0000
# 4 0.0000 0.0000 0.0000 24.6797 0.0000 0.0000
# 5 0.0000 0.0000 0.0000 0.0000 23.5949 0.0000
# 6 0.0000 0.0000 0.0000 0.0000 0.0000 20.5607
#
#
#
# Elastic Compliance Matrix: (Units=1/GPa)
#
#
# Indices 1 2 3 4 5 6 
#
# 1 0.013416 -0.003790 -0.003626 0.000000 0.000000 0.000000
# 2 -0.003790 0.020223 0.001436 0.000000 0.000000 0.000000
# 3 -0.003626 0.001436 0.014328 0.000000 0.000000 0.000000
# 4 0.000000 0.000000 0.000000 0.040519 0.000000 0.000000
# 5 0.000000 0.000000 0.000000 0.000000 0.042382 0.000000
# 6 0.000000 0.000000 0.000000 0.000000 0.000000 0.048636
#
#
# Mechanical properties :
#
#
# Convention : Reuss Voigt Hill
#
# Bulk Modulus (GPa) = 27.77234 30.68825 29.23029
# Shear Modulus (GPa) = 24.57408 25.67615 25.12511
#
# Velocity S-wave (km/s) = 3.89071 3.97700 3.93409
# Velocity P-wave (km/s) = 6.10666 6.32397 6.21626
#
# Compressibility (1/GPa) = 0.03600705
#
# Stress axis : x y z
#
# Youngs Moduli (GPa) = 74.53889 49.44830 69.79408
#
# Poissons Ratio (x) = 0.18743 0.25307
# Poissons Ratio (y) = 0.28253 -0.10025
# Poissons Ratio (z) = 0.27027 -0.07103
#
# Static dielectric constant tensor:
#      x y z
#    x 1.561150 0.000000 0.000000 
#    y 0.000000 1.523180 0.000000 
#    z 0.000000 0.000000 1.546650 
# 
# From -- ./inp_files/11137.got.cif
#   From: 2010.05.17/outbox.cif.g08.bks.cpg/sg58_6_cif.got.tgz:11137.got - 2010.06.03 14:20:14.
