data_PCOD9445259
_publ_section_title
;
Structure prediction by ZEFSAII (Michael W. Deem and Ramdas Pophale) SiO2 
 PCOD9445259
Probable space group: P N N M
;
_chemical_formula_sum "Si O2"
_cell_formula_units_Z 56
_cell_length_a 9.557712
_cell_length_b 16.355633
_cell_length_c 16.425299
_cell_angle_alpha 90.000000
_cell_angle_beta 90.000000
_cell_angle_gamma 90.000000
_cell_volume 2567.642650
_symmetry_space_group_name_H-M "P N N M"
_symmetry_group_IT_number 58
_symmetry_cell_setting 'orthorhombic'
loop_
_space_group_symop_operation_xyz
x,y,z
-x,-y,z
1/2+x,1/2-y,1/2-z
1/2-x,1/2+y,1/2-z
-x,-y,-z
x,y,-z
1/2-x,1/2+y,1/2+z
1/2+x,1/2-y,1/2+z
loop_
_atom_site_type_symbol
_atom_site_label
_atom_site_fract_x
_atom_site_fract_y
_atom_site_fract_z
Si Si1 0.962795 0.906191 0.813393
Si Si2 0.820894 0.861978 0.351238
Si Si3 0.754156 0.193712 0.803854
Si Si4 0.152792 0.489001 0.906168
Si Si5 0.366554 0.364718 0.087674
Si Si6 0.015380 0.401898 0.401228
Si Si7 0.253381 0.705357 0.637115
O O1 0.850602 0.900586 0.738769
O O2 0.883382 0.853115 0.881646
O O3 0.102207 0.855115 0.793356
O O4 0.000000 0.000000 0.830593
O O5 0.739371 0.776681 0.356902
O O6 0.980192 0.849131 0.378708
O O7 0.735488 0.926909 0.402402
O O8 0.644044 0.134559 0.848618
O O9 0.715551 0.240303 0.719124
O O10 0.260093 0.424888 0.866339
O O11 0.000000 0.500000 0.867391
O O12 0.128160 0.461777 0.000000
O O13 0.288805 0.279458 0.080316
O O14 0.392037 0.404647 0.000000
O O15 0.027764 0.386100 0.500000
O O16 0.000000 0.500000 0.391568
O O17 0.881316 0.353971 0.364888
#
# Coordination Sequence:
#
# PCOD9445259 Si02
#       7
#     8   8   8   8   8   8   8
#     4  11  23  40  61  90 133 171 216 282 345 409
#     4  11  22  39  66  94 126 177 222 276 339 415
#     4  11  23  42  65 101 136 174 236 291 351 418
#     4  10  23  40  60  96 137 172 217 271 331 410
#     4  11  21  39  66  94 132 177 223 275 342 423
#     4  11  24  46  74 104 140 186 242 299 356 429
#     4  11  22  41  65 100 137 177 230 286 354 425
#
# _framework density 21.809888999999998
#
# number of rings (size 3 to 8) (size 9 to 14) (size 15 to 20)
#    0.000    1.143    2.857    3.857    2.000    1.714 
#    0.000    1.429    0.000    3.857    0.000    0.000 
#    0.000    0.000    0.000    0.000    0.000    0.000 
#
# Total GULP energy -311938.847765 kJ/mol
# GULP energy per Si atom -5570.336567 kJ/mol
# Density = 2.176025 g / cm^3
# Si number density = 21.809889 Si / 1000 Ang^3
#
#
#
# Elastic Constant Matrix: (Units=GPa)
#
#
# Indices 1 2 3 4 5 6 
#
# 1 80.6366 51.2297 25.9213 0.0000 0.0000 0.0000
# 2 51.2297 166.0390 15.6628 0.0000 0.0000 0.0000
# 3 25.9213 15.6628 53.5410 0.0000 0.0000 0.0000
# 4 0.0000 0.0000 0.0000 15.4476 0.0000 0.0000
# 5 0.0000 0.0000 0.0000 0.0000 19.3429 0.0000
# 6 0.0000 0.0000 0.0000 0.0000 0.0000 45.8996
#
#
#
# Elastic Compliance Matrix: (Units=1/GPa)
#
#
# Indices 1 2 3 4 5 6 
#
# 1 0.017766 -0.004803 -0.007196 0.000000 0.000000 0.000000
# 2 -0.004803 0.007492 0.000133 0.000000 0.000000 0.000000
# 3 -0.007196 0.000133 0.022122 0.000000 0.000000 0.000000
# 4 0.000000 0.000000 0.000000 0.064735 0.000000 0.000000
# 5 0.000000 0.000000 0.000000 0.000000 0.051699 0.000000
# 6 0.000000 0.000000 0.000000 0.000000 0.000000 0.021787
#
#
# Mechanical properties :
#
#
# Convention : Reuss Voigt Hill
#
# Bulk Modulus (GPa) = 42.28469 53.98270 48.13369
# Shear Modulus (GPa) = 23.01881 29.96487 26.49184
#
# Velocity S-wave (km/s) = 3.25226 3.71065 3.48899
# Velocity P-wave (km/s) = 5.79076 6.56992 6.19260
#
# Compressibility (1/GPa) = 0.02364922
#
# Stress axis : x y z
#
# Youngs Moduli (GPa) = 56.28811 133.47762 45.20353
#
# Poissons Ratio (x) = 0.64104 0.32529
# Poissons Ratio (y) = 0.27033 -0.00603
# Poissons Ratio (z) = 0.40506 -0.01781
#
# Static dielectric constant tensor:
#      x y z
#    x 1.805880 0.000000 0.000000 
#    y 0.000000 1.825190 0.000000 
#    z 0.000000 0.000000 1.930500 
# 
# From -- ./inp_files/28977.got.cif
#   From: 2010.05.17/outbox.cif.g08.bks.cpg/sg58_15_cif.got.tgz:28977.got - 2010.06.03 14:20:14.
