data_PCOD9445001
_publ_section_title
;
Structure prediction by ZEFSAII (Michael W. Deem and Ramdas Pophale) SiO2 
 PCOD9445001
Probable space group: P N N M
;
_chemical_formula_sum "Si O2"
_cell_formula_units_Z 64
_cell_length_a 24.918427
_cell_length_b 8.665727
_cell_length_c 13.859335
_cell_angle_alpha 90.000000
_cell_angle_beta 90.000000
_cell_angle_gamma 90.000000
_cell_volume 2992.733321
_symmetry_space_group_name_H-M "P N N M"
_symmetry_group_IT_number 58
_symmetry_cell_setting 'orthorhombic'
loop_
_space_group_symop_operation_xyz
x,y,z
-x,-y,z
1/2+x,1/2-y,1/2-z
1/2-x,1/2+y,1/2-z
-x,-y,-z
x,y,-z
1/2-x,1/2+y,1/2+z
1/2+x,1/2-y,1/2+z
loop_
_atom_site_type_symbol
_atom_site_label
_atom_site_fract_x
_atom_site_fract_y
_atom_site_fract_z
Si Si1 0.617437 0.838427 0.115690
Si Si2 0.731377 0.369834 0.885689
Si Si3 0.838161 0.863020 0.217747
Si Si4 0.262711 0.277374 0.884810
Si Si5 0.332861 0.330793 0.388596
Si Si6 0.058799 0.654809 0.889477
Si Si7 0.421326 0.886738 0.753495
Si Si8 0.517272 0.675844 0.213840
O O1 0.676307 0.770178 0.139285
O O2 0.569776 0.727360 0.153997
O O3 0.608722 0.999136 0.172288
O O4 0.614014 0.856202 0.000000
O O5 0.675823 0.351064 0.830414
O O6 0.748933 0.544007 0.860450
O O7 0.776257 0.244187 0.858832
O O8 0.724641 0.361707 0.000000
O O9 0.782033 0.824318 0.166014
O O10 0.883120 0.736520 0.201513
O O11 0.851944 0.031527 0.179613
O O12 0.257387 0.260517 0.000000
O O13 0.327859 0.386027 0.500000
O O14 0.378111 0.199966 0.388506
O O15 0.055751 0.497373 0.829773
O O16 0.030048 0.786421 0.826132
O O17 0.041093 0.647317 0.000000
O O18 0.468190 0.792680 0.807358
O O19 0.500000 0.500000 0.198927
#
# Coordination Sequence:
#
# PCOD9445001 Si02
#       8
#     8   8   8   8   8   8   8   8
#     4  10  24  46  70  95 130 172 220 277 332 386
#     4  10  23  38  57  89 127 168 211 255 312 383
#     4  12  24  37  64  93 130 176 209 265 327 376
#     4  10  23  41  63  94 128 168 217 263 320 394
#     4  10  22  39  61  92 129 169 216 262 314 384
#     4  10  22  42  67  91 127 170 210 265 326 382
#     4  11  26  41  64  99 126 171 220 267 322 396
#     4  11  25  44  67  97 131 163 221 275 325 396
#
# _framework density 21.385133
#
# number of rings (size 3 to 8) (size 9 to 14) (size 15 to 20)
#    0.000    1.500    0.000    4.125   12.250    5.000 
#    0.000    0.000    0.000    0.000    0.000    0.000 
#    0.000    0.000    0.000    0.000    0.000    0.000 
#
# Total GULP energy -357873.903247 kJ/mol
# GULP energy per Si atom -5591.779738 kJ/mol
# Density = 2.133646 g / cm^3
# Si number density = 21.385133 Si / 1000 Ang^3
#
#
#
# Elastic Constant Matrix: (Units=GPa)
#
#
# Indices 1 2 3 4 5 6 
#
# 1 90.3796 42.0501 21.5857 0.0000 0.0000 0.0000
# 2 42.0501 118.3899 36.5535 0.0000 0.0000 0.0000
# 3 21.5857 36.5535 79.0617 0.0000 0.0000 0.0000
# 4 0.0000 0.0000 0.0000 18.3959 0.0000 0.0000
# 5 0.0000 0.0000 0.0000 0.0000 27.0035 0.0000
# 6 0.0000 0.0000 0.0000 0.0000 0.0000 34.3690
#
#
#
# Elastic Compliance Matrix: (Units=1/GPa)
#
#
# Indices 1 2 3 4 5 6 
#
# 1 0.013449 -0.004250 -0.001707 0.000000 0.000000 0.000000
# 2 -0.004250 0.011196 -0.004016 0.000000 0.000000 0.000000
# 3 -0.001707 -0.004016 0.014971 0.000000 0.000000 0.000000
# 4 0.000000 0.000000 0.000000 0.054360 0.000000 0.000000
# 5 0.000000 0.000000 0.000000 0.000000 0.037032 0.000000
# 6 0.000000 0.000000 0.000000 0.000000 0.000000 0.029096
#
#
# Mechanical properties :
#
#
# Convention : Reuss Voigt Hill
#
# Bulk Modulus (GPa) = 50.83735 54.24551 52.54143
# Shear Modulus (GPa) = 26.79409 28.46313 27.62861
#
# Velocity S-wave (km/s) = 3.54352 3.65221 3.59828
# Velocity P-wave (km/s) = 6.36914 6.57312 6.47193
#
# Compressibility (1/GPa) = 0.01967058
#
# Stress axis : x y z
#
# Youngs Moduli (GPa) = 74.35225 89.31620 66.79470
#
# Poissons Ratio (x) = 0.37959 0.11403
# Poissons Ratio (y) = 0.31599 0.26826
# Poissons Ratio (z) = 0.12693 0.35870
#
# Static dielectric constant tensor:
#      x y z
#    x 1.799060 0.000000 0.000000 
#    y 0.000000 1.784510 0.000000 
#    z 0.000000 0.000000 1.790950 
# 
# From -- ./inp_files/23545.got.cif
#   From: 2010.05.17/outbox.cif.g08.bks.cpg/sg58_12_cif.got.tgz:23545.got - 2010.06.03 14:20:14.
