data_PCOD9445422
_publ_section_title
;
Structure prediction by ZEFSAII (Michael W. Deem and Ramdas Pophale) SiO2 
 PCOD9445422
Probable space group: P N N M
;
_chemical_formula_sum "Si O2"
_cell_formula_units_Z 30
_cell_length_a 8.760199
_cell_length_b 11.573282
_cell_length_c 14.174414
_cell_angle_alpha 90.000000
_cell_angle_beta 90.000000
_cell_angle_gamma 90.000000
_cell_volume 1437.062381
_symmetry_space_group_name_H-M "P N N M"
_symmetry_group_IT_number 58
_symmetry_cell_setting 'orthorhombic'
loop_
_space_group_symop_operation_xyz
x,y,z
-x,-y,z
1/2+x,1/2-y,1/2-z
1/2-x,1/2+y,1/2-z
-x,-y,-z
x,y,-z
1/2-x,1/2+y,1/2+z
1/2+x,1/2-y,1/2+z
loop_
_atom_site_type_symbol
_atom_site_label
_atom_site_fract_x
_atom_site_fract_y
_atom_site_fract_z
Si Si1 0.500000 0.500000 0.500000
Si Si2 0.826459 0.452330 0.000000
Si Si3 0.744382 0.264198 0.153625
Si Si4 0.579049 0.320694 0.344061
Si Si5 0.249885 0.805537 0.500000
Si Si6 0.459708 0.863211 0.000000
O O1 0.590354 0.427388 0.416318
O O2 0.793163 0.370543 0.911892
O O3 0.711453 0.560218 0.000000
O O4 0.000000 0.500000 0.000000
O O5 0.666143 0.315518 0.246042
O O6 0.900688 0.197881 0.175898
O O7 0.639017 0.177698 0.091256
O O8 0.648058 0.218037 0.407824
O O9 0.109122 0.717688 0.500000
O O10 0.500000 0.000000 0.000000
#
# Coordination Sequence:
#
# PCOD9445422 Si02
#       6
#     2   4   8   8   4   4
#     4  10  24  44  72  94 154 198 232 308 356 432
#     4  11  21  48  75 103 147 188 233 304 377 425
#     4  11  25  45  71 108 145 190 247 300 365 448
#     4  11  24  44  68 108 144 192 243 297 368 434
#     4  11  23  44  71  99 142 191 230 303 366 423
#     4  11  26  46  72 104 149 195 243 310 372 431
#
# _framework density 20.875917999999999
#
# number of rings (size 3 to 8) (size 9 to 14) (size 15 to 20)
#    0.000    1.067    2.667    4.000    7.467    6.400 
#    4.800    0.000    0.000    0.000    0.000    0.000 
#    0.000    0.000    0.000    0.000    0.000    0.000 
#
# Total GULP energy -167031.599358 kJ/mol
# GULP energy per Si atom -5567.719979 kJ/mol
# Density = 2.082840 g / cm^3
# Si number density = 20.875918 Si / 1000 Ang^3
#
#
#
# Elastic Constant Matrix: (Units=GPa)
#
#
# Indices 1 2 3 4 5 6 
#
# 1 143.1844 42.8582 73.8964 0.0000 0.0000 0.0000
# 2 42.8582 116.0929 54.1150 0.0000 0.0000 0.0000
# 3 73.8964 54.1150 211.1941 0.0000 0.0000 0.0000
# 4 0.0000 0.0000 0.0000 5.9173 0.0000 0.0000
# 5 0.0000 0.0000 0.0000 0.0000 21.6815 0.0000
# 6 0.0000 0.0000 0.0000 0.0000 0.0000 33.3894
#
#
#
# Elastic Compliance Matrix: (Units=1/GPa)
#
#
# Indices 1 2 3 4 5 6 
#
# 1 0.008950 -0.002095 -0.002595 0.000000 0.000000 0.000000
# 2 -0.002095 0.010272 -0.001899 0.000000 0.000000 0.000000
# 3 -0.002595 -0.001899 0.006130 0.000000 0.000000 0.000000
# 4 0.000000 0.000000 0.000000 0.168997 0.000000 0.000000
# 5 0.000000 0.000000 0.000000 0.000000 0.046122 0.000000
# 6 0.000000 0.000000 0.000000 0.000000 0.000000 0.029950
#
#
# Mechanical properties :
#
#
# Convention : Reuss Voigt Hill
#
# Bulk Modulus (GPa) = 82.13802 90.24563 86.19183
# Shear Modulus (GPa) = 17.38184 32.17110 24.77647
#
# Velocity S-wave (km/s) = 2.88866 3.92990 3.44880
# Velocity P-wave (km/s) = 7.11035 7.99472 7.56546
#
# Compressibility (1/GPa) = 0.01217463
#
# Stress axis : x y z
#
# Youngs Moduli (GPa) = 111.72955 97.34880 163.14275
#
# Poissons Ratio (x) = 0.20390 0.42335
# Poissons Ratio (y) = 0.23402 0.30985
# Poissons Ratio (z) = 0.28993 0.18489
#
# Static dielectric constant tensor:
#      x y z
#    x 1.788190 0.000000 0.000000 
#    y 0.000000 1.773370 0.000000 
#    z 0.000000 0.000000 1.804480 
# 
# From -- ./inp_files/19152.got.cif
#   From: 2010.05.17/outbox.cif.g08.bks.cpg/sg58_10_cif.got.tgz:19152.got - 2010.06.03 14:20:14.
