data_PCOD9445910
_publ_section_title
;
Structure prediction by ZEFSAII (Michael W. Deem and Ramdas Pophale) SiO2 
 PCOD9445910
Probable space group: P N N M
;
_chemical_formula_sum "Si O2"
_cell_formula_units_Z 64
_cell_length_a 24.000000
_cell_length_b 15.000000
_cell_length_c 9.000000
_cell_angle_alpha 90.000000
_cell_angle_beta 90.000000
_cell_angle_gamma 90.000000
_cell_volume 3240.000000
_symmetry_space_group_name_H-M "P N N M"
_symmetry_group_IT_number 58
_symmetry_cell_setting 'orthorhombic'
loop_
_space_group_symop_operation_xyz
x,y,z
-x,-y,z
1/2+x,1/2-y,1/2-z
1/2-x,1/2+y,1/2-z
-x,-y,-z
x,y,-z
1/2-x,1/2+y,1/2+z
1/2+x,1/2-y,1/2+z
loop_
_atom_site_type_symbol
_atom_site_label
_atom_site_fract_x
_atom_site_fract_y
_atom_site_fract_z
Si Si1 0.253473 0.138556 0.174800
Si Si2 0.172838 0.985161 0.827593
Si Si3 0.908596 0.260876 0.673329
Si Si4 0.137756 0.565450 0.177776
Si Si5 0.951824 0.569628 0.180634
Si Si6 0.479667 0.730863 0.320735
Si Si7 0.285699 0.324124 0.171017
Si Si8 0.442011 0.542687 0.681429
O O1 0.197196 0.084119 0.183519
O O2 0.301561 0.084474 0.257775
O O3 0.251001 0.240041 0.229882
O O4 0.270028 0.144056 0.000000
O O5 0.111259 0.989366 0.760986
O O6 0.214862 0.916391 0.754605
O O7 0.169018 0.960044 0.000000
O O8 0.920935 0.275080 0.500000
O O9 0.899507 0.354271 0.757330
O O10 0.849801 0.209812 0.682485
O O11 0.959356 0.213251 0.754260
O O12 0.107436 0.473812 0.221123
O O13 0.138707 0.571433 0.000000
O O14 0.960773 0.670986 0.230928
O O15 0.000000 0.500000 0.229029
O O16 0.954492 0.571468 0.000000
O O17 0.483575 0.732466 0.500000
O O18 0.441469 0.647117 0.279204
O O19 0.270916 0.339379 0.000000
O O20 0.500000 0.500000 0.729216
O O21 0.440101 0.538247 0.500000
#
# Coordination Sequence:
#
# PCOD9445910 Si02
#       8
#     8   8   8   8   8   8   8   8
#     4   9  20  38  55  77 111 141 175 226 280 327
#     4  10  20  37  59  82 108 142 182 228 279 327
#     4  10  19  31  49  76 109 141 177 218 266 318
#     4  10  18  31  52  76 102 138 185 228 265 314
#     4   9  16  28  46  75 108 134 172 224 268 311
#     4  10  18  31  51  74 105 141 176 219 267 320
#     4   9  19  35  54  77 104 137 175 220 268 321
#     4   9  18  32  53  82 107 132 176 227 271 319
#
# _framework density 19.753086
#
# number of rings (size 3 to 8) (size 9 to 14) (size 15 to 20)
#    0.000    2.500    1.250    2.250    0.000    4.000 
#    2.250    2.500    0.000    2.250    0.000    0.000 
#    0.000    0.000    0.000    0.000    0.000    0.000 
#
# Total GULP energy -356666.449595 kJ/mol
# GULP energy per Si atom -5572.913275 kJ/mol
# Density = 1.970813 g / cm^3
# Si number density = 19.753086 Si / 1000 Ang^3
#
#
#
# Elastic Constant Matrix: (Units=GPa)
#
#
# Indices 1 2 3 4 5 6 
#
# 1 8.8689 9.2663 12.2676 0.0000 0.0000 0.0000
# 2 9.2663 102.0122 21.0527 0.0000 0.0000 0.0000
# 3 12.2676 21.0527 18.2865 0.0000 0.0000 0.0000
# 4 0.0000 0.0000 0.0000 15.6772 0.0000 0.0000
# 5 0.0000 0.0000 0.0000 0.0000 42.6585 0.0000
# 6 0.0000 0.0000 0.0000 0.0000 0.0000 15.5908
#
#
#
# Elastic Compliance Matrix: (Units=1/GPa)
#
#
# Indices 1 2 3 4 5 6 
#
# 1 2.977240 0.185924 -2.211340 0.000000 0.000000 0.000000
# 2 0.185924 0.024468 -0.152897 0.000000 0.000000 0.000000
# 3 -2.211340 -0.152897 1.714197 0.000000 0.000000 0.000000
# 4 0.000000 0.000000 0.000000 0.063787 0.000000 0.000000
# 5 0.000000 0.000000 0.000000 0.000000 0.023442 0.000000
# 6 0.000000 0.000000 0.000000 0.000000 0.000000 0.064140
#
#
# Mechanical properties :
#
#
# Convention : Reuss Voigt Hill
#
# Bulk Modulus (GPa) = 2.78337 23.81563 13.29950
# Shear Modulus (GPa) = 0.53512 20.55737 10.54625
#
# Velocity S-wave (km/s) = 0.52105 3.22951 2.31314
# Velocity P-wave (km/s) = 1.33196 5.09796 3.72581
#
# Compressibility (1/GPa) = 0.35927724
#
# Stress axis : x y z
#
# Youngs Moduli (GPa) = 0.33588 40.86927 0.58336
#
# Poissons Ratio (x) = -7.59857 1.29002
# Poissons Ratio (y) = -0.06245 0.08919
# Poissons Ratio (z) = 0.74275 6.24880
#
# Static dielectric constant tensor:
#      x y z
#    x 1.721600 0.000000 0.000000 
#    y 0.000000 1.739180 0.000000 
#    z 0.000000 0.000000 1.667910 
# 
# From -- ./inp_files/10029.got.cif
#   From: 2010.05.17/outbox.ucp.g08.bks.cvg/sg58_6_cif.got.tgz:10029.got - 2010.06.11 16:41:41.
