data_PCOD9445365
_publ_section_title
;
Structure prediction by ZEFSAII (Michael W. Deem and Ramdas Pophale) SiO2 
 PCOD9445365
Probable space group: P N N M
;
_chemical_formula_sum "Si O2"
_cell_formula_units_Z 58
_cell_length_a 13.386567
_cell_length_b 24.805776
_cell_length_c 7.434928
_cell_angle_alpha 90.000000
_cell_angle_beta 90.000000
_cell_angle_gamma 90.000000
_cell_volume 2468.873288
_symmetry_space_group_name_H-M "P N N M"
_symmetry_group_IT_number 58
_symmetry_cell_setting 'orthorhombic'
loop_
_space_group_symop_operation_xyz
x,y,z
-x,-y,z
1/2+x,1/2-y,1/2-z
1/2-x,1/2+y,1/2-z
-x,-y,-z
x,y,-z
1/2-x,1/2+y,1/2+z
1/2+x,1/2-y,1/2+z
loop_
_atom_site_type_symbol
_atom_site_label
_atom_site_fract_x
_atom_site_fract_y
_atom_site_fract_z
Si Si1 0.899948 0.249600 0.705374
Si Si2 0.945251 0.130840 0.281760
Si Si3 0.500000 0.000000 0.000000
Si Si4 0.939451 0.669357 0.800585
Si Si5 0.159165 0.109225 0.280890
Si Si6 0.316678 0.730839 0.798977
Si Si7 0.338221 0.030406 0.715530
Si Si8 0.727773 0.091965 0.715977
O O1 0.870413 0.240332 0.500000
O O2 0.955332 0.194530 0.763741
O O3 0.962606 0.304513 0.715956
O O4 0.798840 0.254884 0.812168
O O5 0.944192 0.126725 0.500000
O O6 0.044433 0.098718 0.222843
O O7 0.836765 0.110561 0.218277
O O8 0.435024 0.031910 0.159185
O O9 0.869191 0.722086 0.808461
O O10 0.867600 0.625192 0.711498
O O11 0.967747 0.650339 0.000000
O O12 0.159812 0.107554 0.500000
O O13 0.178518 0.170731 0.225943
O O14 0.250327 0.071322 0.227952
O O15 0.363189 0.731231 0.000000
O O16 0.359132 0.036775 0.500000
O O17 0.292830 0.970561 0.744520
O O18 0.727736 0.102148 0.500000
#
# Coordination Sequence:
#
# PCOD9445365 Si02
#       8
#     8   8   2   8   8   8   8   8
#     4  11  21  36  55  83 120 165 205 253 315 367
#     4   9  16  32  60  92 124 160 205 248 304 384
#     4  12  26  48  72  96 128 160 226 276 312 394
#     4  11  21  36  57  87 123 163 210 258 312 384
#     4   9  19  37  63  90 125 167 209 258 318 386
#     4  11  21  36  57  87 123 163 210 258 312 384
#     4  10  23  46  71  96 128 171 211 268 331 373
#     4   9  19  37  63  90 125 167 209 258 318 386
#
# _framework density 23.492497
#
# number of rings (size 3 to 8) (size 9 to 14) (size 15 to 20)
#    0.000    1.931    2.759    1.448    0.000    1.655 
#    7.448    6.897    0.000    0.828    0.000    0.000 
#    0.000    0.000    0.000    0.000    0.000    0.000 
#
# Total GULP energy -323409.885819 kJ/mol
# GULP energy per Si atom -5576.032514 kJ/mol
# Density = 2.343903 g / cm^3
# Si number density = 23.492497 Si / 1000 Ang^3
#
#
#
# Elastic Constant Matrix: (Units=GPa)
#
#
# Indices 1 2 3 4 5 6 
#
# 1 61.2762 -8.1839 5.4099 0.0000 0.0000 0.0000
# 2 -8.1839 56.6270 1.7055 0.0000 0.0000 0.0000
# 3 5.4099 1.7055 86.8015 0.0000 0.0000 0.0000
# 4 0.0000 0.0000 0.0000 5.4483 0.0000 0.0000
# 5 0.0000 0.0000 0.0000 0.0000 17.8439 0.0000
# 6 0.0000 0.0000 0.0000 0.0000 0.0000 35.6085
#
#
#
# Elastic Compliance Matrix: (Units=1/GPa)
#
#
# Indices 1 2 3 4 5 6 
#
# 1 0.016744 0.002453 -0.001092 0.000000 0.000000 0.000000
# 2 0.002453 0.018029 -0.000507 0.000000 0.000000 0.000000
# 3 -0.001092 -0.000507 0.011599 0.000000 0.000000 0.000000
# 4 0.000000 0.000000 0.000000 0.183544 0.000000 0.000000
# 5 0.000000 0.000000 0.000000 0.000000 0.056042 0.000000
# 6 0.000000 0.000000 0.000000 0.000000 0.000000 0.028083
#
#
# Mechanical properties :
#
#
# Convention : Reuss Voigt Hill
#
# Bulk Modulus (GPa) = 20.79912 22.50751 21.65331
# Shear Modulus (GPa) = 15.22724 25.49836 20.36280
#
# Velocity S-wave (km/s) = 2.54869 3.29809 2.94730
# Velocity P-wave (km/s) = 4.18734 4.90966 4.56281
#
# Compressibility (1/GPa) = 0.04807897
#
# Stress axis : x y z
#
# Youngs Moduli (GPa) = 59.72466 55.46568 86.21774
#
# Poissons Ratio (x) = -0.13604 0.09413
# Poissons Ratio (y) = -0.14649 0.04372
# Poissons Ratio (z) = 0.06520 0.02813
#
# Static dielectric constant tensor:
#      x y z
#    x 1.911470 0.000000 0.000000 
#    y 0.000000 1.849390 0.000000 
#    z 0.000000 0.000000 1.884940 
# 
# From -- ./inp_files/4452.got.cif
#   From: 2010.05.17/outbox.cif.g08.bks.cpg/sg58_3_cif.got.tgz:4452.got - 2010.06.03 14:20:14.
