data_PCOD9445480
_publ_section_title
;
Structure prediction by ZEFSAII (Michael W. Deem and Ramdas Pophale) SiO2 
 PCOD9445480
Probable space group: P N N M
;
_chemical_formula_sum "Si O2"
_cell_formula_units_Z 44
_cell_length_a 11.453295
_cell_length_b 8.957702
_cell_length_c 15.785731
_cell_angle_alpha 90.000000
_cell_angle_beta 90.000000
_cell_angle_gamma 90.000000
_cell_volume 1619.540285
_symmetry_space_group_name_H-M "P N N M"
_symmetry_group_IT_number 58
_symmetry_cell_setting 'orthorhombic'
loop_
_space_group_symop_operation_xyz
x,y,z
-x,-y,z
1/2+x,1/2-y,1/2-z
1/2-x,1/2+y,1/2-z
-x,-y,-z
x,y,-z
1/2-x,1/2+y,1/2+z
1/2+x,1/2-y,1/2+z
loop_
_atom_site_type_symbol
_atom_site_label
_atom_site_fract_x
_atom_site_fract_y
_atom_site_fract_z
Si Si1 0.815950 0.666871 0.280350
Si Si2 0.774749 0.367130 0.635625
Si Si3 0.485545 0.663238 0.596420
Si Si4 0.388831 0.064540 0.362586
Si Si5 0.123717 0.098811 0.590492
Si Si6 0.925530 0.215132 0.500000
O O1 0.766997 0.544786 0.346459
O O2 0.732720 0.771185 0.222660
O O3 0.874079 0.550123 0.214793
O O4 0.893166 0.789185 0.331430
O O5 0.653198 0.310938 0.593858
O O6 0.882026 0.332773 0.575193
O O7 0.500000 0.500000 0.632968
O O8 0.531114 0.666437 0.500000
O O9 0.560556 0.772364 0.652595
O O10 0.264783 0.083473 0.407195
O O11 0.500000 0.000000 0.413254
O O12 0.079119 0.182990 0.500000
O O13 0.089536 0.927046 0.575701
#
# Coordination Sequence:
#
# PCOD9445480 Si02
#       6
#     8   8   8   8   8   4
#     4  12  27  48  80 119 158 206 272 325 409 483
#     4  12  26  50  76 117 156 213 260 334 405 493
#     4  11  25  46  76 113 150 198 265 334 394 474
#     4  12  25  47  80 115 154 206 264 339 401 471
#     4  10  26  50  77 116 154 213 265 331 395 489
#     4  10  28  51  83 111 165 209 272 323 413 490
#
# _framework density 27.168203999999999
#
# number of rings (size 3 to 8) (size 9 to 14) (size 15 to 20)
#    0.545    0.182    4.545    1.636    3.818    3.636 
#    3.273    1.818    0.000    0.000    0.000    0.000 
#    0.000    0.000    0.000    0.000    0.000    0.000 
#
# Total GULP energy -245024.329963 kJ/mol
# GULP energy per Si atom -5568.734772 kJ/mol
# Density = 2.710637 g / cm^3
# Si number density = 27.168204 Si / 1000 Ang^3
#
#
#
# Elastic Constant Matrix: (Units=GPa)
#
#
# Indices 1 2 3 4 5 6 
#
# 1 93.6353 18.8657 42.9340 0.0000 0.0000 0.0000
# 2 18.8657 191.5748 75.2772 0.0000 0.0000 0.0000
# 3 42.9340 75.2772 164.1770 0.0000 0.0000 0.0000
# 4 0.0000 0.0000 0.0000 43.2780 0.0000 0.0000
# 5 0.0000 0.0000 0.0000 0.0000 22.3102 0.0000
# 6 0.0000 0.0000 0.0000 0.0000 0.0000 52.8493
#
#
#
# Elastic Compliance Matrix: (Units=1/GPa)
#
#
# Indices 1 2 3 4 5 6 
#
# 1 0.012135 0.000063 -0.003203 0.000000 0.000000 0.000000
# 2 0.000063 0.006367 -0.002936 0.000000 0.000000 0.000000
# 3 -0.003203 -0.002936 0.008275 0.000000 0.000000 0.000000
# 4 0.000000 0.000000 0.000000 0.023106 0.000000 0.000000
# 5 0.000000 0.000000 0.000000 0.000000 0.044822 0.000000
# 6 0.000000 0.000000 0.000000 0.000000 0.000000 0.018922
#
#
# Mechanical properties :
#
#
# Convention : Reuss Voigt Hill
#
# Bulk Modulus (GPa) = 68.36723 80.39342 74.38033
# Shear Modulus (GPa) = 38.26890 44.50818 41.38854
#
# Velocity S-wave (km/s) = 3.75719 4.05192 3.90733
# Velocity P-wave (km/s) = 6.63634 7.17955 6.91328
#
# Compressibility (1/GPa) = 0.01462689
#
# Stress axis : x y z
#
# Youngs Moduli (GPa) = 82.40338 157.05110 120.84985
#
# Poissons Ratio (x) = -0.00995 0.38703
# Poissons Ratio (y) = -0.00522 0.35483
# Poissons Ratio (z) = 0.26390 0.46112
#
# Static dielectric constant tensor:
#      x y z
#    x 2.553930 0.000000 0.000000 
#    y 0.000000 2.100060 0.000000 
#    z 0.000000 0.000000 2.171850 
# 
# From -- ./inp_files/26758.got.cif
#   From: 2010.05.17/outbox.cif.g08.bks.cpg/sg58_14_cif.got.tgz:26758.got - 2010.06.03 14:20:14.
