data_PCOD9445041
_publ_section_title
;
Structure prediction by ZEFSAII (Michael W. Deem and Ramdas Pophale) SiO2 
 PCOD9445041
Probable space group: P N N M
;
_chemical_formula_sum "Si O2"
_cell_formula_units_Z 56
_cell_length_a 21.816872
_cell_length_b 5.066603
_cell_length_c 22.079061
_cell_angle_alpha 90.000000
_cell_angle_beta 90.000000
_cell_angle_gamma 90.000000
_cell_volume 2440.562640
_symmetry_space_group_name_H-M "P N N M"
_symmetry_group_IT_number 58
_symmetry_cell_setting 'orthorhombic'
loop_
_space_group_symop_operation_xyz
x,y,z
-x,-y,z
1/2+x,1/2-y,1/2-z
1/2-x,1/2+y,1/2-z
-x,-y,-z
x,y,-z
1/2-x,1/2+y,1/2+z
1/2+x,1/2-y,1/2+z
loop_
_atom_site_type_symbol
_atom_site_label
_atom_site_fract_x
_atom_site_fract_y
_atom_site_fract_z
Si Si1 0.432942 0.619325 0.312266
Si Si2 0.064117 0.159366 0.672547
Si Si3 0.336181 0.219600 0.644738
Si Si4 0.616493 0.145457 0.566270
Si Si5 0.253973 0.541753 0.431938
Si Si6 0.136426 0.640433 0.359564
Si Si7 0.711344 0.095804 0.251868
O O1 0.500000 0.500000 0.316342
O O2 0.432091 0.738068 0.244244
O O3 0.379943 0.399082 0.315292
O O4 0.422970 0.769188 0.375888
O O5 0.081260 0.423404 0.634466
O O6 0.112510 0.931096 0.655534
O O7 0.000000 0.000000 0.663862
O O8 0.273137 0.340199 0.621123
O O9 0.321972 0.963599 0.684837
O O10 0.371581 0.160182 0.582227
O O11 0.590380 0.190770 0.500000
O O12 0.685868 0.267853 0.567340
O O13 0.249228 0.430506 0.500000
O O14 0.188037 0.653965 0.412105
O O15 0.171752 0.520685 0.301934
O O16 0.769418 0.897104 0.254104
#
# Coordination Sequence:
#
# PCOD9445041 Si02
#       7
#     8   8   8   8   8   8   8
#     4  10  23  40  59  86 122 167 216 265 317 375
#     4  11  25  44  67  97 130 166 213 271 327 380
#     4  11  21  36  59  86 126 163 208 262 320 374
#     4  10  22  40  60  86 123 167 213 262 315 370
#     4  10  23  40  62  93 129 166 205 255 316 388
#     4  12  23  41  67  96 130 171 212 259 326 391
#     4  12  23  35  59  96 134 164 204 265 326 387
#
# _framework density 22.945530000000002
#
# number of rings (size 3 to 8) (size 9 to 14) (size 15 to 20)
#    0.000    1.143    2.857    3.429    4.000    1.429 
#    0.000    0.714    0.000    2.571    0.000    0.000 
#    0.000    0.000    0.000    0.000    0.000    0.000 
#
# Total GULP energy -312544.862583 kJ/mol
# GULP energy per Si atom -5581.158260 kJ/mol
# Density = 2.289331 g / cm^3
# Si number density = 22.945530 Si / 1000 Ang^3
#
#
#
# Elastic Constant Matrix: (Units=GPa)
#
#
# Indices 1 2 3 4 5 6 
#
# 1 66.2543 6.0818 24.5454 0.0000 0.0000 0.0000
# 2 6.0818 44.0379 -6.5771 0.0000 0.0000 0.0000
# 3 24.5454 -6.5771 63.6101 0.0000 0.0000 0.0000
# 4 0.0000 0.0000 0.0000 16.3234 0.0000 0.0000
# 5 0.0000 0.0000 0.0000 0.0000 21.7575 0.0000
# 6 0.0000 0.0000 0.0000 0.0000 0.0000 18.9054
#
#
#
# Elastic Compliance Matrix: (Units=1/GPa)
#
#
# Indices 1 2 3 4 5 6 
#
# 1 0.018159 -0.003610 -0.007380 0.000000 0.000000 0.000000
# 2 -0.003610 0.023782 0.003852 0.000000 0.000000 0.000000
# 3 -0.007380 0.003852 0.018967 0.000000 0.000000 0.000000
# 4 0.000000 0.000000 0.000000 0.061262 0.000000 0.000000
# 5 0.000000 0.000000 0.000000 0.000000 0.045961 0.000000
# 6 0.000000 0.000000 0.000000 0.000000 0.000000 0.052895
#
#
# Mechanical properties :
#
#
# Convention : Reuss Voigt Hill
#
# Bulk Modulus (GPa) = 21.44513 24.66695 23.05604
# Shear Modulus (GPa) = 19.93254 21.38738 20.65996
#
# Velocity S-wave (km/s) = 2.95055 3.05633 3.00391
# Velocity P-wave (km/s) = 4.57975 4.81959 4.70120
#
# Compressibility (1/GPa) = 0.04663063
#
# Stress axis : x y z
#
# Youngs Moduli (GPa) = 55.06924 42.04932 52.72334
#
# Poissons Ratio (x) = 0.15180 0.38912
# Poissons Ratio (y) = 0.19881 -0.20309
# Poissons Ratio (z) = 0.40643 -0.16197
#
# Static dielectric constant tensor:
#      x y z
#    x 1.954300 0.000000 0.000000 
#    y 0.000000 1.983790 0.000000 
#    z 0.000000 0.000000 1.835450 
# 
# From -- ./inp_files/31027.got.cif
#   From: 2010.05.17/outbox.cif.g08.bks.cpg/sg58_16_cif.got.tgz:31027.got - 2010.06.03 14:20:14.
