data_PCOD9445363
_publ_section_title
;
Structure prediction by ZEFSAII (Michael W. Deem and Ramdas Pophale) SiO2 
 PCOD9445363
Probable space group: P N N M
;
_chemical_formula_sum "Si O2"
_cell_formula_units_Z 58
_cell_length_a 10.327033
_cell_length_b 11.488389
_cell_length_c 23.937965
_cell_angle_alpha 90.000000
_cell_angle_beta 90.000000
_cell_angle_gamma 90.000000
_cell_volume 2840.023443
_symmetry_space_group_name_H-M "P N N M"
_symmetry_group_IT_number 58
_symmetry_cell_setting 'orthorhombic'
loop_
_space_group_symop_operation_xyz
x,y,z
-x,-y,z
1/2+x,1/2-y,1/2-z
1/2-x,1/2+y,1/2-z
-x,-y,-z
x,y,-z
1/2-x,1/2+y,1/2+z
1/2+x,1/2-y,1/2+z
loop_
_atom_site_type_symbol
_atom_site_label
_atom_site_fract_x
_atom_site_fract_y
_atom_site_fract_z
Si Si1 0.000000 0.500000 0.000000
Si Si2 0.211735 0.734526 0.140441
Si Si3 0.641044 0.153204 0.597719
Si Si4 0.501706 0.635377 0.433846
Si Si5 0.979164 0.694981 0.786527
Si Si6 0.387064 0.932637 0.177699
Si Si7 0.862891 0.947485 0.226921
Si Si8 0.849396 0.002525 0.641928
O O1 0.073783 0.421228 0.950885
O O2 0.332015 0.819085 0.148140
O O3 0.264518 0.608891 0.123431
O O4 0.116093 0.794489 0.096486
O O5 0.127708 0.726686 0.198127
O O6 0.623596 0.289575 0.583537
O O7 0.568232 0.134213 0.656806
O O8 0.784379 0.112348 0.612491
O O9 0.500000 0.500000 0.418284
O O10 0.518345 0.642175 0.500000
O O11 0.957030 0.615005 0.733648
O O12 0.893014 0.810306 0.775929
O O13 0.500000 0.000000 0.145767
O O14 0.261694 0.010609 0.192733
O O15 0.843138 0.994911 0.290262
O O16 0.000000 0.000000 0.206682
O O17 0.000000 0.000000 0.627655
#
# Coordination Sequence:
#
# PCOD9445363 Si02
#       8
#     2   8   8   8   8   8   8   8
#     4  12  24  44  72 104 136 180 244 324 354 412
#     4  11  24  42  64  97 135 185 233 293 354 422
#     4  11  23  40  69 102 132 177 236 301 361 413
#     4  10  23  45  73 103 130 172 234 306 362 417
#     4  11  23  38  63  92 132 180 231 285 349 419
#     4  12  25  36  59  98 135 182 230 283 348 440
#     4  11  22  40  61  88 137 187 229 278 341 429
#     4  11  24  42  64  96 142 188 230 283 356 438
#
# _framework density 20.422366
#
# number of rings (size 3 to 8) (size 9 to 14) (size 15 to 20)
#    0.000    0.966    4.828    2.483    4.828    1.103 
#    0.000    0.345    0.000    0.414    0.000    0.000 
#    0.000    0.000    0.000    0.000    0.000    0.000 
#
# Total GULP energy -323563.817782 kJ/mol
# GULP energy per Si atom -5578.686513 kJ/mol
# Density = 2.037588 g / cm^3
# Si number density = 20.422366 Si / 1000 Ang^3
#
#
#
# Elastic Constant Matrix: (Units=GPa)
#
#
# Indices 1 2 3 4 5 6 
#
# 1 117.1658 55.0424 19.7711 0.0000 0.0000 0.0000
# 2 55.0424 104.0450 20.9287 0.0000 0.0000 0.0000
# 3 19.7711 20.9287 77.4107 0.0000 0.0000 0.0000
# 4 0.0000 0.0000 0.0000 26.2449 0.0000 0.0000
# 5 0.0000 0.0000 0.0000 0.0000 7.6111 0.0000
# 6 0.0000 0.0000 0.0000 0.0000 0.0000 45.3309
#
#
#
# Elastic Compliance Matrix: (Units=1/GPa)
#
#
# Indices 1 2 3 4 5 6 
#
# 1 0.011493 -0.005805 -0.001366 0.000000 0.000000 0.000000
# 2 -0.005805 0.013096 -0.002058 0.000000 0.000000 0.000000
# 3 -0.001366 -0.002058 0.013823 0.000000 0.000000 0.000000
# 4 0.000000 0.000000 0.000000 0.038103 0.000000 0.000000
# 5 0.000000 0.000000 0.000000 0.000000 0.131388 0.000000
# 6 0.000000 0.000000 0.000000 0.000000 0.000000 0.022060
#
#
# Mechanical properties :
#
#
# Convention : Reuss Voigt Hill
#
# Bulk Modulus (GPa) = 50.11461 54.45621 52.28541
# Shear Modulus (GPa) = 19.60232 29.36266 24.48249
#
# Velocity S-wave (km/s) = 3.10150 3.79591 3.46614
# Velocity P-wave (km/s) = 6.11703 6.77752 6.45573
#
# Compressibility (1/GPa) = 0.01995426
#
# Stress axis : x y z
#
# Youngs Moduli (GPa) = 87.01312 76.35772 72.34141
#
# Poissons Ratio (x) = 0.44326 0.09880
# Poissons Ratio (y) = 0.50512 0.14888
# Poissons Ratio (z) = 0.11884 0.15715
#
# Static dielectric constant tensor:
#      x y z
#    x 1.794290 0.000000 0.000000 
#    y 0.000000 1.799410 0.000000 
#    z 0.000000 0.000000 1.719240 
# 
# From -- ./inp_files/33339.got.cif
#   From: 2010.05.17/outbox.cif.g08.bks.cpg/sg58_17_cif.got.tgz:33339.got - 2010.06.03 14:20:14.
