data_PCOD9445911
_publ_section_title
;
Structure prediction by ZEFSAII (Michael W. Deem and Ramdas Pophale) SiO2 
 PCOD9445911
Probable space group: P N N M
;
_chemical_formula_sum "Si O2"
_cell_formula_units_Z 56
_cell_length_a 15.000000
_cell_length_b 21.000000
_cell_length_c 9.000000
_cell_angle_alpha 90.000000
_cell_angle_beta 90.000000
_cell_angle_gamma 90.000000
_cell_volume 2835.000000
_symmetry_space_group_name_H-M "P N N M"
_symmetry_group_IT_number 58
_symmetry_cell_setting 'orthorhombic'
loop_
_space_group_symop_operation_xyz
x,y,z
-x,-y,z
1/2+x,1/2-y,1/2-z
1/2-x,1/2+y,1/2-z
-x,-y,-z
x,y,-z
1/2-x,1/2+y,1/2+z
1/2+x,1/2-y,1/2+z
loop_
_atom_site_type_symbol
_atom_site_label
_atom_site_fract_x
_atom_site_fract_y
_atom_site_fract_z
Si Si1 0.739797 0.280679 0.822105
Si Si2 0.054761 0.563253 0.178135
Si Si3 0.736882 0.004734 0.319674
Si Si4 0.066470 0.695167 0.321199
Si Si5 0.246111 0.350960 0.179351
Si Si6 0.620953 0.406645 0.179200
Si Si7 0.955187 0.164577 0.320403
O O1 0.833263 0.296883 0.742181
O O2 0.707649 0.212162 0.758487
O O3 0.676567 0.341465 0.795787
O O4 0.752478 0.275299 0.000000
O O5 0.156246 0.543389 0.213888
O O6 0.029029 0.629405 0.255384
O O7 0.000000 0.500000 0.219080
O O8 0.046575 0.571878 0.000000
O O9 0.741930 0.008860 0.500000
O O10 0.826331 0.968967 0.265432
O O11 0.717853 0.077613 0.272435
O O12 0.067975 0.691815 0.500000
O O13 0.021189 0.762580 0.276765
O O14 0.352246 0.348452 0.213519
O O15 0.234046 0.345048 0.000000
O O16 0.522798 0.388973 0.236460
O O17 0.615766 0.414994 0.000000
O O18 0.961316 0.163680 0.500000
#
# Coordination Sequence:
#
# PCOD9445911 Si02
#       7
#     8   8   8   8   8   8   8
#     4  10  18  31  53  74  97 133 172 207 249 306
#     4  10  20  34  52  75 104 139 176 210 252 307
#     4   9  17  31  50  74 102 135 171 209 250 301
#     4  10  19  33  52  74 102 130 166 214 262 304
#     4   9  18  32  50  73 104 132 163 210 259 300
#     4   9  16  28  50  75  98 127 170 211 246 299
#     4   8  16  29  46  74 101 125 160 210 258 294
#
# _framework density 19.753086
#
# number of rings (size 3 to 8) (size 9 to 14) (size 15 to 20)
#    0.000    2.714    1.429    1.714    0.000    2.000 
#    0.000    3.571    0.000    7.714    0.000    4.000 
#    0.000    0.000    0.000    0.000    0.000    0.000 
#
# Total GULP energy -312105.795293 kJ/mol
# GULP energy per Si atom -5573.317773 kJ/mol
# Density = 1.970813 g / cm^3
# Si number density = 19.753086 Si / 1000 Ang^3
#
#
#
# Elastic Constant Matrix: (Units=GPa)
#
#
# Indices 1 2 3 4 5 6 
#
# 1 7.7840 -19.4647 -3.1020 0.0000 0.0000 0.0000
# 2 -19.4647 88.2062 12.7720 0.0000 0.0000 0.0000
# 3 -3.1020 12.7720 23.9773 0.0000 0.0000 0.0000
# 4 0.0000 0.0000 0.0000 31.1389 0.0000 0.0000
# 5 0.0000 0.0000 0.0000 0.0000 10.6288 0.0000
# 6 0.0000 0.0000 0.0000 0.0000 0.0000 27.0794
#
#
#
# Elastic Compliance Matrix: (Units=1/GPa)
#
#
# Indices 1 2 3 4 5 6 
#
# 1 0.286938 0.062787 0.003677 0.000000 0.000000 0.000000
# 2 0.062787 0.026023 -0.005739 0.000000 0.000000 0.000000
# 3 0.003677 -0.005739 0.045239 0.000000 0.000000 0.000000
# 4 0.000000 0.000000 0.000000 0.032114 0.000000 0.000000
# 5 0.000000 0.000000 0.000000 0.000000 0.094084 0.000000
# 6 0.000000 0.000000 0.000000 0.000000 0.000000 0.036928
#
#
# Mechanical properties :
#
#
# Convention : Reuss Voigt Hill
#
# Bulk Modulus (GPa) = 2.08485 11.15312 6.61899
# Shear Modulus (GPa) = 8.93239 22.42023 15.67631
#
# Velocity S-wave (km/s) = 2.12881 3.37267 2.82017
# Velocity P-wave (km/s) = 2.66462 4.56345 3.73666
#
# Compressibility (1/GPa) = 0.47965029
#
# Stress axis : x y z
#
# Youngs Moduli (GPa) = 3.48507 38.42698 22.10493
#
# Poissons Ratio (x) = -2.41271 -0.08128
# Poissons Ratio (y) = -0.21882 0.12686
# Poissons Ratio (z) = -0.01282 0.22053
#
# Static dielectric constant tensor:
#      x y z
#    x 1.763320 0.000000 0.000000 
#    y 0.000000 1.717040 0.000000 
#    z 0.000000 0.000000 1.660150 
# 
# From -- ./inp_files/6273.got.cif
#   From: 2010.05.17/outbox.ucp.g08.bks.cvg/sg58_4_cif.got.tgz:6273.got - 2010.06.11 16:41:41.
