data_PCOD9445946
_publ_section_title
;
Structure prediction by ZEFSAII (Michael W. Deem and Ramdas Pophale) SiO2 
 PCOD9445946
Probable space group: P N N M
;
_chemical_formula_sum "Si O2"
_cell_formula_units_Z 56
_cell_length_a 21.000000
_cell_length_b 18.000000
_cell_length_c 9.000000
_cell_angle_alpha 90.000000
_cell_angle_beta 90.000000
_cell_angle_gamma 90.000000
_cell_volume 3402.000000
_symmetry_space_group_name_H-M "P N N M"
_symmetry_group_IT_number 58
_symmetry_cell_setting 'orthorhombic'
loop_
_space_group_symop_operation_xyz
x,y,z
-x,-y,z
1/2+x,1/2-y,1/2-z
1/2-x,1/2+y,1/2-z
-x,-y,-z
x,y,-z
1/2-x,1/2+y,1/2+z
1/2+x,1/2-y,1/2+z
loop_
_atom_site_type_symbol
_atom_site_label
_atom_site_fract_x
_atom_site_fract_y
_atom_site_fract_z
Si Si1 0.115645 0.785813 0.321420
Si Si2 0.467168 0.698479 0.820455
Si Si3 0.693695 0.568317 0.181823
Si Si4 0.569412 0.466871 0.180053
Si Si5 0.087488 0.617376 0.320256
Si Si6 0.836076 0.536099 0.680656
Si Si7 0.447962 0.859315 0.680504
O O1 0.120799 0.785477 0.500000
O O2 0.166677 0.848961 0.273131
O O3 0.117909 0.698196 0.275987
O O4 0.042910 0.810706 0.286731
O O5 0.431936 0.621160 0.781130
O O6 0.444330 0.773395 0.737932
O O7 0.462026 0.709446 0.000000
O O8 0.634266 0.511973 0.222845
O O9 0.763779 0.548928 0.252635
O O10 0.699955 0.566333 0.000000
O O11 0.500000 0.500000 0.229688
O O12 0.568161 0.471380 0.000000
O O13 0.077042 0.619256 0.500000
O O14 0.133719 0.546803 0.289214
O O15 0.017438 0.612378 0.242604
O O16 0.833758 0.545046 0.500000
O O17 0.888738 0.593094 0.751362
O O18 0.447107 0.862785 0.500000
#
# Coordination Sequence:
#
# PCOD9445946 Si02
#       7
#     8   8   8   8   8   8   8
#     4   8  14  29  55  81 104 137 177 217 262 318
#     4   9  16  31  56  84 113 142 179 219 265 326
#     4  10  19  33  55  82 113 146 183 225 269 317
#     4   9  15  28  56  87 110 142 185 224 263 318
#     4   9  19  37  61  83 104 140 184 224 273 335
#     4  11  23  39  55  76 111 150 187 223 274 338
#     4  11  22  36  57  84 110 138 180 235 283 323
#
# _framework density 16.460905
#
# number of rings (size 3 to 8) (size 9 to 14) (size 15 to 20)
#    0.000    2.429    1.429    3.000    0.000    2.857 
#    2.571    3.571    0.000    0.857    0.000    0.000 
#    0.000    0.000    0.000    0.000    0.000    0.000 
#
# Total GULP energy -311837.252180 kJ/mol
# GULP energy per Si atom -5568.522360 kJ/mol
# Density = 1.642344 g / cm^3
# Si number density = 16.460905 Si / 1000 Ang^3
#
#
#
# Elastic Constant Matrix: (Units=GPa)
#
#
# Indices 1 2 3 4 5 6 
#
# 1 155.9829 91.7619 41.5091 0.0000 0.0000 0.0000
# 2 91.7619 156.7920 38.7220 0.0000 0.0000 0.0000
# 3 41.5091 38.7220 63.7930 0.0000 0.0000 0.0000
# 4 0.0000 0.0000 0.0000 20.0119 0.0000 0.0000
# 5 0.0000 0.0000 0.0000 0.0000 33.0526 0.0000
# 6 0.0000 0.0000 0.0000 0.0000 0.0000 37.0043
#
#
#
# Elastic Compliance Matrix: (Units=1/GPa)
#
#
# Indices 1 2 3 4 5 6 
#
# 1 0.010446 -0.005217 -0.003630 0.000000 0.000000 0.000000
# 2 -0.005217 0.010108 -0.002741 0.000000 0.000000 0.000000
# 3 -0.003630 -0.002741 0.019702 0.000000 0.000000 0.000000
# 4 0.000000 0.000000 0.000000 0.049970 0.000000 0.000000
# 5 0.000000 0.000000 0.000000 0.000000 0.030255 0.000000
# 6 0.000000 0.000000 0.000000 0.000000 0.000000 0.027024
#
#
# Mechanical properties :
#
#
# Convention : Reuss Voigt Hill
#
# Bulk Modulus (GPa) = 58.55089 80.06155 69.30622
# Shear Modulus (GPa) = 28.34880 31.65209 30.00045
#
# Velocity S-wave (km/s) = 4.15443 4.38981 4.27374
# Velocity P-wave (km/s) = 7.65893 8.62768 8.15770
#
# Compressibility (1/GPa) = 0.01707916
#
# Stress axis : x y z
#
# Youngs Moduli (GPa) = 95.72940 98.93176 50.75708
#
# Poissons Ratio (x) = 0.51612 0.18427
# Poissons Ratio (y) = 0.49942 0.13912
# Poissons Ratio (z) = 0.34754 0.27116
#
# Static dielectric constant tensor:
#      x y z
#    x 1.542780 0.000000 0.000000 
#    y 0.000000 1.595940 0.000000 
#    z 0.000000 0.000000 1.555720 
# 
# From -- ./inp_files/9164.got.cif
#   From: 2010.05.17/outbox.ucp.g08.bks.cvg/sg58_5_cif.got.tgz:9164.got - 2010.06.11 16:41:41.
