data_PCOD9445966
_publ_section_title
;
Structure prediction by ZEFSAII (Michael W. Deem and Ramdas Pophale) SiO2 
 PCOD9445966
Probable space group: P N N M
;
_chemical_formula_sum "Si O2"
_cell_formula_units_Z 64
_cell_length_a 18.000000
_cell_length_b 21.000000
_cell_length_c 9.000000
_cell_angle_alpha 90.000000
_cell_angle_beta 90.000000
_cell_angle_gamma 90.000000
_cell_volume 3402.000000
_symmetry_space_group_name_H-M "P N N M"
_symmetry_group_IT_number 58
_symmetry_cell_setting 'orthorhombic'
loop_
_space_group_symop_operation_xyz
x,y,z
-x,-y,z
1/2+x,1/2-y,1/2-z
1/2-x,1/2+y,1/2-z
-x,-y,-z
x,y,-z
1/2-x,1/2+y,1/2+z
1/2+x,1/2-y,1/2+z
loop_
_atom_site_type_symbol
_atom_site_label
_atom_site_fract_x
_atom_site_fract_y
_atom_site_fract_z
Si Si1 0.710558 0.851312 0.327712
Si Si2 0.537662 0.827492 0.673837
Si Si3 0.305643 0.757461 0.321127
Si Si4 0.203829 0.022801 0.678404
Si Si5 0.796494 0.595778 0.820618
Si Si6 0.950616 0.940873 0.179648
Si Si7 0.034500 0.201371 0.820199
Si Si8 0.550305 0.060446 0.822891
O O1 0.732320 0.841694 0.500000
O O2 0.622762 0.846131 0.316575
O O3 0.748264 0.795078 0.235443
O O4 0.736148 0.922304 0.286002
O O5 0.513160 0.833562 0.500000
O O6 0.526033 0.754193 0.719587
O O7 0.490582 0.875194 0.772862
O O8 0.304793 0.758377 0.500000
O O9 0.291528 0.830385 0.270940
O O10 0.386715 0.731755 0.273615
O O11 0.192600 0.022834 0.500000
O O12 0.131032 0.045333 0.761976
O O13 0.230242 0.952114 0.721944
O O14 0.870544 0.563725 0.756478
O O15 0.801180 0.596040 0.000000
O O16 0.975287 0.870734 0.233418
O O17 0.951123 0.940317 0.000000
O O18 0.000000 0.000000 0.230869
O O19 0.035628 0.197495 0.000000
O O20 0.500000 0.000000 0.777199
O O21 0.559700 0.058072 0.000000
#
# Coordination Sequence:
#
# PCOD9445966 Si02
#       8
#     8   8   8   8   8   8   8   8
#     4  10  21  35  56  86 114 146 185 231 281 331
#     4  10  20  37  59  81 110 149 194 234 274 334
#     4  10  19  35  59  81 107 147 187 226 276 334
#     4  10  21  37  56  82 115 148 187 231 278 334
#     4  10  21  38  59  82 109 148 192 228 274 339
#     4  10  21  37  59  85 112 148 192 232 280 335
#     4   9  17  34  58  82 107 144 188 229 274 329
#     4  11  23  36  52  81 117 147 181 231 286 334
#
# _framework density 18.812463000000001
#
# number of rings (size 3 to 8) (size 9 to 14) (size 15 to 20)
#    0.000    2.000    2.500    1.125    0.000    4.750 
#    0.000    1.875    0.000    0.000    0.000    0.000 
#    0.000    0.000    0.000    0.000    0.000    0.000 
#
# Total GULP energy -356957.579164 kJ/mol
# GULP energy per Si atom -5577.462174 kJ/mol
# Density = 1.876965 g / cm^3
# Si number density = 18.812463 Si / 1000 Ang^3
#
#
#
# Elastic Constant Matrix: (Units=GPa)
#
#
# Indices 1 2 3 4 5 6 
#
# 1 25.3924 25.9615 0.8081 0.0000 0.0000 0.0000
# 2 25.9615 141.9258 7.9281 0.0000 0.0000 0.0000
# 3 0.8081 7.9281 -6.8869 0.0000 0.0000 0.0000
# 4 0.0000 0.0000 0.0000 22.2817 0.0000 0.0000
# 5 0.0000 0.0000 0.0000 0.0000 18.0365 0.0000
# 6 0.0000 0.0000 0.0000 0.0000 0.0000 36.7557
#
#
#
# Elastic Compliance Matrix: (Units=1/GPa)
#
#
# Indices 1 2 3 4 5 6 
#
# 1 0.048310 -0.008601 -0.004232 0.000000 0.000000 0.000000
# 2 -0.008601 0.008151 0.008374 0.000000 0.000000 0.000000
# 3 -0.004232 0.008374 -0.136059 0.000000 0.000000 0.000000
# 4 0.000000 0.000000 0.000000 0.044880 0.000000 0.000000
# 5 0.000000 0.000000 0.000000 0.000000 0.055443 0.000000
# 6 0.000000 0.000000 0.000000 0.000000 0.000000 0.027207
#
#
# Mechanical properties :
#
#
# Convention : Reuss Voigt Hill
#
# Bulk Modulus (GPa) = -11.29766 25.53630 7.11932
# Shear Modulus (GPa) = 182.85454 23.79701 103.32578
#
# Velocity S-wave (km/s) = 9.86963 3.56049 7.41912
# Velocity P-wave (km/s) = 11.12929 5.52326 8.78543
#
# Compressibility (1/GPa) = -0.08851392
#
# Stress axis : x y z
#
# Youngs Moduli (GPa) = 20.69974 122.67872 -7.34977
#
# Poissons Ratio (x) = 1.05511 -0.03111
# Poissons Ratio (y) = 0.17803 0.06155
# Poissons Ratio (z) = 0.08760 -1.02737
#
# Static dielectric constant tensor:
#      x y z
#    x 1.660820 0.000000 0.000000 
#    y 0.000000 1.849230 0.000000 
#    z 0.000000 0.000000 1.635650 
# 
# From -- ./inp_files/8292.got.cif
#   From: 2010.05.17/outbox.ucp.g08.bks.cvg/sg58_5_cif.got.tgz:8292.got - 2010.06.11 16:41:41.
