data_PCOD9445206
_publ_section_title
;
Structure prediction by ZEFSAII (Michael W. Deem and Ramdas Pophale) SiO2 
 PCOD9445206
Probable space group: P N N M
;
_chemical_formula_sum "Si O2"
_cell_formula_units_Z 56
_cell_length_a 14.000762
_cell_length_b 9.312287
_cell_length_c 21.523003
_cell_angle_alpha 90.000000
_cell_angle_beta 90.000000
_cell_angle_gamma 90.000000
_cell_volume 2806.150061
_symmetry_space_group_name_H-M "P N N M"
_symmetry_group_IT_number 58
_symmetry_cell_setting 'orthorhombic'
loop_
_space_group_symop_operation_xyz
x,y,z
-x,-y,z
1/2+x,1/2-y,1/2-z
1/2-x,1/2+y,1/2-z
-x,-y,-z
x,y,-z
1/2-x,1/2+y,1/2+z
1/2+x,1/2-y,1/2+z
loop_
_atom_site_type_symbol
_atom_site_label
_atom_site_fract_x
_atom_site_fract_y
_atom_site_fract_z
Si Si1 0.909821 0.594166 0.747479
Si Si2 0.104117 0.445978 0.401182
Si Si3 0.724803 0.321592 0.933364
Si Si4 0.891683 0.822734 0.000000
Si Si5 0.739277 0.329479 0.611872
Si Si6 0.113819 0.829913 0.000000
Si Si7 0.405841 0.576377 0.714009
Si Si8 0.283357 0.456173 0.178455
O O1 0.897134 0.573287 0.673729
O O2 0.925233 0.760602 0.764484
O O3 0.814642 0.544346 0.782535
O O4 0.000000 0.500000 0.767460
O O5 0.141526 0.296158 0.427709
O O6 0.182691 0.565748 0.417079
O O7 0.000000 0.500000 0.420633
O O8 0.824678 0.234022 0.942336
O O9 0.722526 0.424713 0.874993
O O10 0.714250 0.399944 0.000000
O O11 0.834896 0.771814 0.060739
O O12 0.003400 0.783995 0.000000
O O13 0.884687 0.997460 0.000000
O O14 0.676152 0.414915 0.662242
O O15 0.790877 0.199240 0.646958
O O16 0.500000 0.500000 0.688736
O O17 0.367495 0.490420 0.773653
#
# Coordination Sequence:
#
# PCOD9445206 Si02
#       8
#     8   8   8   4   8   4   8   8
#     4  10  23  40  62  94 122 167 205 262 318 383
#     4  11  22  40  66  91 126 161 218 260 314 384
#     4  10  22  43  65  92 122 175 207 261 321 372
#     4  11  22  43  63 101 130 160 219 256 315 387
#     4  11  25  42  64  96 128 172 205 267 318 376
#     4   9  22  39  69  93 126 166 209 262 307 385
#     4  11  25  40  64  96 128 169 209 265 326 377
#     4  11  24  41  65  92 133 161 215 262 321 379
#
# _framework density 19.956167000000001
#
# number of rings (size 3 to 8) (size 9 to 14) (size 15 to 20)
#    0.429    1.000    4.286    0.000    7.000    3.714 
#    0.000    0.714    0.000    1.286    0.000    0.000 
#    0.000    0.000    0.000    0.000    0.000    0.000 
#
# Total GULP energy -312865.966621 kJ/mol
# GULP energy per Si atom -5586.892261 kJ/mol
# Density = 1.991075 g / cm^3
# Si number density = 19.956167 Si / 1000 Ang^3
#
#
#
# Elastic Constant Matrix: (Units=GPa)
#
#
# Indices 1 2 3 4 5 6 
#
# 1 87.5868 38.8716 6.0659 0.0000 0.0000 0.0000
# 2 38.8716 54.5762 12.9944 0.0000 0.0000 0.0000
# 3 6.0659 12.9944 67.4099 0.0000 0.0000 0.0000
# 4 0.0000 0.0000 0.0000 7.1116 0.0000 0.0000
# 5 0.0000 0.0000 0.0000 0.0000 17.5423 0.0000
# 6 0.0000 0.0000 0.0000 0.0000 0.0000 28.3163
#
#
#
# Elastic Compliance Matrix: (Units=1/GPa)
#
#
# Indices 1 2 3 4 5 6 
#
# 1 0.016738 -0.012120 0.000830 0.000000 0.000000 0.000000
# 2 -0.012120 0.027980 -0.004303 0.000000 0.000000 0.000000
# 3 0.000830 -0.004303 0.015589 0.000000 0.000000 0.000000
# 4 0.000000 0.000000 0.000000 0.140616 0.000000 0.000000
# 5 0.000000 0.000000 0.000000 0.000000 0.057005 0.000000
# 6 0.000000 0.000000 0.000000 0.000000 0.000000 0.035315
#
#
# Mechanical properties :
#
#
# Convention : Reuss Voigt Hill
#
# Bulk Modulus (GPa) = 34.33765 36.15964 35.24865
# Shear Modulus (GPa) = 14.96397 20.70343 17.83370
#
# Velocity S-wave (km/s) = 2.74129 3.22443 2.99263
# Velocity P-wave (km/s) = 5.22144 5.65875 5.44449
#
# Compressibility (1/GPa) = 0.02912255
#
# Stress axis : x y z
#
# Youngs Moduli (GPa) = 59.74258 35.74035 64.14621
#
# Poissons Ratio (x) = 0.43316 -0.05324
# Poissons Ratio (y) = 0.72405 0.27602
# Poissons Ratio (z) = -0.04959 0.15379
#
# Static dielectric constant tensor:
#      x y z
#    x 1.680140 0.000000 0.000000 
#    y 0.000000 1.684320 0.000000 
#    z 0.000000 0.000000 1.705810 
# 
# From -- ./inp_files/30056.got.cif
#   From: 2010.05.17/outbox.cif.g08.bks.cpg/sg58_16_cif.got.tgz:30056.got - 2010.06.03 14:20:14.
