data_PCOD9445529
_publ_section_title
;
Structure prediction by ZEFSAII (Michael W. Deem and Ramdas Pophale) SiO2 
 PCOD9445529
Probable space group: P N N M
;
_chemical_formula_sum "Si O2"
_cell_formula_units_Z 56
_cell_length_a 9.802575
_cell_length_b 14.131701
_cell_length_c 21.083436
_cell_angle_alpha 90.000000
_cell_angle_beta 90.000000
_cell_angle_gamma 90.000000
_cell_volume 2920.626381
_symmetry_space_group_name_H-M "P N N M"
_symmetry_group_IT_number 58
_symmetry_cell_setting 'orthorhombic'
loop_
_space_group_symop_operation_xyz
x,y,z
-x,-y,z
1/2+x,1/2-y,1/2-z
1/2-x,1/2+y,1/2-z
-x,-y,-z
x,y,-z
1/2-x,1/2+y,1/2+z
1/2+x,1/2-y,1/2+z
loop_
_atom_site_type_symbol
_atom_site_label
_atom_site_fract_x
_atom_site_fract_y
_atom_site_fract_z
Si Si1 0.811630 0.174118 0.626417
Si Si2 0.626627 0.048979 0.766486
Si Si3 0.430163 0.603234 0.070686
Si Si4 0.031718 0.388573 0.928800
Si Si5 0.856399 0.762452 0.222726
Si Si6 0.308918 0.124078 0.671587
Si Si7 0.089857 0.908131 0.239538
O O1 0.690768 0.124118 0.587923
O O2 0.733833 0.262077 0.658775
O O3 0.858677 0.119616 0.690209
O O4 0.949173 0.177918 0.586187
O O5 0.596807 0.155638 0.741857
O O6 0.348625 0.028639 0.710311
O O7 0.773529 0.065028 0.798734
O O8 0.500000 0.000000 0.802107
O O9 0.500000 0.500000 0.072469
O O10 0.313953 0.605199 0.122902
O O11 0.374865 0.618043 0.000000
O O12 0.000000 0.500000 0.928623
O O13 0.934588 0.346505 0.873943
O O14 0.005383 0.352057 0.000000
O O15 0.756438 0.803359 0.277571
O O16 0.989461 0.826432 0.217087
O O17 0.000000 0.000000 0.245226
#
# Coordination Sequence:
#
# PCOD9445529 Si02
#       7
#     8   8   8   8   8   8   8
#     4  11  22  35  54  78 117 153 197 238 291 347
#     4  11  24  36  56  82 120 160 198 240 302 359
#     4  11  21  34  55  80 111 158 203 237 285 358
#     4  11  23  36  53  80 115 160 200 234 286 359
#     4  11  24  33  60  85 118 159 202 239 304 356
#     4  12  22  38  58  82 123 159 196 244 294 357
#     4  11  20  36  55  81 115 157 196 238 295 354
#
# _framework density 19.173970000000001
#
# number of rings (size 3 to 8) (size 9 to 14) (size 15 to 20)
#    0.000    0.857    2.857    7.714    8.000    2.286 
#    0.000    0.000    0.000    0.000    0.000    0.000 
#    0.000   22.857    0.000    0.000    0.000    0.000 
#
# Total GULP energy -312500.937955 kJ/mol
# GULP energy per Si atom -5580.373892 kJ/mol
# Density = 1.913033 g / cm^3
# Si number density = 19.173970 Si / 1000 Ang^3
#
#
#
# Elastic Constant Matrix: (Units=GPa)
#
#
# Indices 1 2 3 4 5 6 
#
# 1 126.3202 37.6131 14.3396 0.0000 0.0000 0.0000
# 2 37.6131 81.4384 25.3689 0.0000 0.0000 0.0000
# 3 14.3396 25.3689 68.6151 0.0000 0.0000 0.0000
# 4 0.0000 0.0000 0.0000 13.2331 0.0000 0.0000
# 5 0.0000 0.0000 0.0000 0.0000 113.4329 0.0000
# 6 0.0000 0.0000 0.0000 0.0000 0.0000 43.0909
#
#
#
# Elastic Compliance Matrix: (Units=1/GPa)
#
#
# Indices 1 2 3 4 5 6 
#
# 1 0.009188 -0.004120 -0.000397 0.000000 0.000000 0.000000
# 2 -0.004120 0.015725 -0.004953 0.000000 0.000000 0.000000
# 3 -0.000397 -0.004953 0.016488 0.000000 0.000000 0.000000
# 4 0.000000 0.000000 0.000000 0.075568 0.000000 0.000000
# 5 0.000000 0.000000 0.000000 0.000000 0.008816 0.000000
# 6 0.000000 0.000000 0.000000 0.000000 0.000000 0.023207
#
#
# Mechanical properties :
#
#
# Convention : Reuss Voigt Hill
#
# Bulk Modulus (GPa) = 44.52029 47.89078 46.20554
# Shear Modulus (GPa) = 28.50313 47.22150 37.86231
#
# Velocity S-wave (km/s) = 3.85977 4.96804 4.44855
# Velocity P-wave (km/s) = 6.56759 7.61181 7.10890
#
# Compressibility (1/GPa) = 0.02246167
#
# Stress axis : x y z
#
# Youngs Moduli (GPa) = 108.83487 63.59302 60.64931
#
# Poissons Ratio (x) = 0.26201 0.02407
# Poissons Ratio (y) = 0.44840 0.30039
# Poissons Ratio (z) = 0.04320 0.31497
#
# Static dielectric constant tensor:
#      x y z
#    x 1.797020 0.000000 0.000000 
#    y 0.000000 1.703580 0.000000 
#    z 0.000000 0.000000 1.677630 
# 
# From -- ./inp_files/29052.got.cif
#   From: 2010.05.17/outbox.cif.g08.bks.cpg/sg58_15_cif.got.tgz:29052.got - 2010.06.03 14:20:14.
