data_PCOD9445682
_publ_section_title
;
Structure prediction by ZEFSAII (Michael W. Deem and Ramdas Pophale) SiO2 
 PCOD9445682
Probable space group: P N N M
;
_chemical_formula_sum "Si O2"
_cell_formula_units_Z 32
_cell_length_a 14.852887
_cell_length_b 9.253497
_cell_length_c 10.506691
_cell_angle_alpha 90.000000
_cell_angle_beta 90.000000
_cell_angle_gamma 90.000000
_cell_volume 1444.051644
_symmetry_space_group_name_H-M "P N N M"
_symmetry_group_IT_number 58
_symmetry_cell_setting 'orthorhombic'
loop_
_space_group_symop_operation_xyz
x,y,z
-x,-y,z
1/2+x,1/2-y,1/2-z
1/2-x,1/2+y,1/2-z
-x,-y,-z
x,y,-z
1/2-x,1/2+y,1/2+z
1/2+x,1/2-y,1/2+z
loop_
_atom_site_type_symbol
_atom_site_label
_atom_site_fract_x
_atom_site_fract_y
_atom_site_fract_z
Si Si1 0.373745 0.833226 0.741321
Si Si2 0.024338 0.239530 0.000000
Si Si3 0.220654 0.034440 0.259117
Si Si4 0.601157 0.568675 0.000000
Si Si5 0.517085 0.168247 0.000000
Si Si6 0.140034 0.942187 0.000000
O O1 0.443673 0.816203 0.627126
O O2 0.300699 0.702518 0.734481
O O3 0.322819 0.984529 0.722402
O O4 0.424673 0.805813 0.873424
O O5 0.920711 0.199123 0.000000
O O6 0.077589 0.085689 0.000000
O O7 0.157852 0.979742 0.375971
O O8 0.195067 0.952845 0.128810
O O9 0.500000 0.500000 0.000000
O O10 0.574230 0.737609 0.000000
O O11 0.500000 0.000000 0.000000
#
# Coordination Sequence:
#
# PCOD9445682 Si02
#       6
#     8   4   8   4   4   4
#     4  11  23  42  63  96 128 167 208 262 321 386
#     4   9  19  37  63  86 120 154 208 251 300 366
#     4  11  23  39  66  93 129 166 211 257 323 387
#     4  12  23  43  67  94 124 173 218 266 320 387
#     4  12  27  43  67  94 132 168 225 277 322 375
#     4   9  19  35  62  89 115 160 204 249 299 372
#
# _framework density 22.159872
#
# number of rings (size 3 to 8) (size 9 to 14) (size 15 to 20)
#    0.000    1.250    2.500    3.000    7.000    0.000 
#    0.000    0.625    0.000    0.000    0.000    0.000 
#    0.000    0.000    0.000    0.000    0.000    0.000 
#
# Total GULP energy -178900.793506 kJ/mol
# GULP energy per Si atom -5590.649797 kJ/mol
# Density = 2.210943 g / cm^3
# Si number density = 22.159872 Si / 1000 Ang^3
#
#
#
# Elastic Constant Matrix: (Units=GPa)
#
#
# Indices 1 2 3 4 5 6 
#
# 1 12.9269 -10.6097 20.1680 0.0000 0.0000 0.0000
# 2 -10.6097 55.1884 -3.5914 0.0000 0.0000 0.0000
# 3 20.1680 -3.5914 169.4425 0.0000 0.0000 0.0000
# 4 0.0000 0.0000 0.0000 49.4320 0.0000 0.0000
# 5 0.0000 0.0000 0.0000 0.0000 -64.2719 0.0000
# 6 0.0000 0.0000 0.0000 0.0000 0.0000 46.1827
#
#
#
# Elastic Compliance Matrix: (Units=1/GPa)
#
#
# Indices 1 2 3 4 5 6 
#
# 1 0.115671 0.021371 -0.013315 0.000000 0.000000 0.000000
# 2 0.021371 0.022093 -0.002075 0.000000 0.000000 0.000000
# 3 -0.013315 -0.002075 0.007443 0.000000 0.000000 0.000000
# 4 0.000000 0.000000 0.000000 0.020230 0.000000 0.000000
# 5 0.000000 0.000000 0.000000 0.000000 -0.015559 0.000000
# 6 0.000000 0.000000 0.000000 0.000000 0.000000 0.021653
#
#
# Mechanical properties :
#
#
# Convention : Reuss Voigt Hill
#
# Bulk Modulus (GPa) = 6.36265 27.72130 17.04198
# Shear Modulus (GPa) = 23.58951 21.70796 22.64873
#
# Velocity S-wave (km/s) = 3.26623 3.13326 3.20044
# Velocity P-wave (km/s) = 4.13544 5.06227 4.62214
#
# Compressibility (1/GPa) = 0.15716711
#
# Stress axis : x y z
#
# Youngs Moduli (GPa) = 8.64523 45.26310 134.36309
#
# Poissons Ratio (x) = -0.96730 1.78902
# Poissons Ratio (y) = -0.18475 0.27885
# Poissons Ratio (z) = 0.11511 0.09394
#
# Static dielectric constant tensor:
#      x y z
#    x 1.791010 0.000000 0.000000 
#    y 0.000000 1.844470 0.000000 
#    z 0.000000 0.000000 1.784920 
# 
# From -- ./inp_files/15212.got.cif
#   From: 2010.05.17/outbox.cif.g08.bks.cpg/sg58_8_cif.got.tgz:15212.got - 2010.06.03 14:20:14.
