data_PCOD9445146
_publ_section_title
;
Structure prediction by ZEFSAII (Michael W. Deem and Ramdas Pophale) SiO2 
 PCOD9445146
Probable space group: P N N M
;
_chemical_formula_sum "Si O2"
_cell_formula_units_Z 64
_cell_length_a 11.594854
_cell_length_b 17.501239
_cell_length_c 15.207977
_cell_angle_alpha 90.000000
_cell_angle_beta 90.000000
_cell_angle_gamma 90.000000
_cell_volume 3086.068255
_symmetry_space_group_name_H-M "P N N M"
_symmetry_group_IT_number 58
_symmetry_cell_setting 'orthorhombic'
loop_
_space_group_symop_operation_xyz
x,y,z
-x,-y,z
1/2+x,1/2-y,1/2-z
1/2-x,1/2+y,1/2-z
-x,-y,-z
x,y,-z
1/2-x,1/2+y,1/2+z
1/2+x,1/2-y,1/2+z
loop_
_atom_site_type_symbol
_atom_site_label
_atom_site_fract_x
_atom_site_fract_y
_atom_site_fract_z
Si Si1 0.215153 0.077339 0.263763
Si Si2 0.612615 0.300449 0.899959
Si Si3 0.363048 0.283468 0.172004
Si Si4 0.641367 0.575704 0.696786
Si Si5 0.544657 0.874568 0.750155
Si Si6 0.581384 0.374863 0.600279
Si Si7 0.366352 0.878622 0.103145
Si Si8 0.106686 0.301030 0.100067
O O1 0.163686 0.138532 0.331985
O O2 0.351731 0.070196 0.277248
O O3 0.185598 0.107669 0.165975
O O4 0.152404 0.995768 0.262516
O O5 0.474280 0.298304 0.888959
O O6 0.652052 0.213120 0.881005
O O7 0.644935 0.319033 0.000000
O O8 0.360126 0.348717 0.244943
O O9 0.390064 0.203301 0.219588
O O10 0.241449 0.288558 0.122537
O O11 0.528599 0.580504 0.637010
O O12 0.752982 0.577641 0.634545
O O13 0.471525 0.901196 0.833933
O O14 0.457107 0.852897 0.671936
O O15 0.607888 0.394125 0.500000
O O16 0.554478 0.284492 0.605284
O O17 0.389742 0.888473 0.000000
O O18 0.093627 0.328900 0.000000
#
# Coordination Sequence:
#
# PCOD9445146 Si02
#       8
#     8   8   8   8   8   8   8   8
#     4  12  25  40  60  92 131 173 203 257 318 381
#     4  10  22  41  67  94 122 160 213 268 315 370
#     4  11  20  40  66  90 120 164 208 266 308 371
#     4  12  23  39  63  88 128 168 211 250 319 377
#     4  11  22  40  64  90 128 164 209 263 314 373
#     4  11  23  39  62  93 126 163 206 260 320 382
#     4  10  22  41  67  93 120 163 216 267 314 368
#     4  11  22  39  68  98 123 160 213 269 320 369
#
# _framework density 20.738363
#
# number of rings (size 3 to 8) (size 9 to 14) (size 15 to 20)
#    0.000    1.000    5.000    2.625    0.000    3.500 
#    0.000    2.500    0.000    0.750    0.000    0.000 
#    0.000    0.000    0.000    0.000    0.000    0.000 
#
# Total GULP energy -357811.222341 kJ/mol
# GULP energy per Si atom -5590.800349 kJ/mol
# Density = 2.069116 g / cm^3
# Si number density = 20.738363 Si / 1000 Ang^3
#
#
#
# Elastic Constant Matrix: (Units=GPa)
#
#
# Indices 1 2 3 4 5 6 
#
# 1 97.8101 13.6900 37.4732 0.0000 0.0000 0.0000
# 2 13.6900 33.9603 24.2325 0.0000 0.0000 0.0000
# 3 37.4732 24.2325 95.7349 0.0000 0.0000 0.0000
# 4 0.0000 0.0000 0.0000 16.6817 0.0000 0.0000
# 5 0.0000 0.0000 0.0000 0.0000 6.5577 0.0000
# 6 0.0000 0.0000 0.0000 0.0000 0.0000 16.4059
#
#
#
# Elastic Compliance Matrix: (Units=1/GPa)
#
#
# Indices 1 2 3 4 5 6 
#
# 1 0.012120 -0.001831 -0.004281 0.000000 0.000000 0.000000
# 2 -0.001831 0.036214 -0.008450 0.000000 0.000000 0.000000
# 3 -0.004281 -0.008450 0.014260 0.000000 0.000000 0.000000
# 4 0.000000 0.000000 0.000000 0.059946 0.000000 0.000000
# 5 0.000000 0.000000 0.000000 0.000000 0.152493 0.000000
# 6 0.000000 0.000000 0.000000 0.000000 0.000000 0.060954
#
#
# Mechanical properties :
#
#
# Convention : Reuss Voigt Hill
#
# Bulk Modulus (GPa) = 29.87704 42.03296 35.95500
# Shear Modulus (GPa) = 13.28847 18.06971 15.67909
#
# Velocity S-wave (km/s) = 2.53408 2.95501 2.75261
# Velocity P-wave (km/s) = 4.79584 5.65288 5.24190
#
# Compressibility (1/GPa) = 0.03347052
#
# Stress axis : x y z
#
# Youngs Moduli (GPa) = 82.50676 27.61386 70.12710
#
# Poissons Ratio (x) = 0.05057 0.30019
# Poissons Ratio (y) = 0.15110 0.59254
# Poissons Ratio (z) = 0.35318 0.23333
#
# Static dielectric constant tensor:
#      x y z
#    x 1.766660 0.000000 0.000000 
#    y 0.000000 1.772150 0.000000 
#    z 0.000000 0.000000 1.702710 
# 
# From -- ./inp_files/21510.got.cif
#   From: 2010.05.17/outbox.cif.g08.bks.cpg/sg58_11_cif.got.tgz:21510.got - 2010.06.03 14:20:14.
