data_PCOD9445161
_publ_section_title
;
Structure prediction by ZEFSAII (Michael W. Deem and Ramdas Pophale) SiO2 
 PCOD9445161
Probable space group: P N N M
;
_chemical_formula_sum "Si O2"
_cell_formula_units_Z 48
_cell_length_a 19.423220
_cell_length_b 15.448705
_cell_length_c 8.452996
_cell_angle_alpha 90.000000
_cell_angle_beta 90.000000
_cell_angle_gamma 90.000000
_cell_volume 2536.436376
_symmetry_space_group_name_H-M "P N N M"
_symmetry_group_IT_number 58
_symmetry_cell_setting 'orthorhombic'
loop_
_space_group_symop_operation_xyz
x,y,z
-x,-y,z
1/2+x,1/2-y,1/2-z
1/2-x,1/2+y,1/2-z
-x,-y,-z
x,y,-z
1/2-x,1/2+y,1/2+z
1/2+x,1/2-y,1/2+z
loop_
_atom_site_type_symbol
_atom_site_label
_atom_site_fract_x
_atom_site_fract_y
_atom_site_fract_z
Si Si1 0.331328 0.882780 0.311651
Si Si2 0.078126 0.226286 0.311568
Si Si3 0.571499 0.774470 0.686017
Si Si4 0.924714 0.464123 0.311920
Si Si5 0.076123 0.029678 0.307320
Si Si6 0.827707 0.128533 0.691566
O O1 0.333144 0.896750 0.500000
O O2 0.373277 0.796247 0.270236
O O3 0.251967 0.874327 0.261508
O O4 0.369255 0.963129 0.229879
O O5 0.089070 0.231312 0.500000
O O6 0.090797 0.127775 0.256902
O O7 0.998796 0.249277 0.275876
O O8 0.559054 0.765732 0.500000
O O9 0.588870 0.873355 0.727522
O O10 0.631546 0.709919 0.739231
O O11 0.926446 0.449340 0.500000
O O12 0.000000 0.500000 0.263519
O O13 0.074851 0.030794 0.500000
O O14 0.131998 0.958619 0.259130
O O15 0.000000 0.000000 0.255048
O O16 0.831027 0.133801 0.500000
#
# Coordination Sequence:
#
# PCOD9445161 Si02
#       6
#     8   8   8   8   8   8
#     4  11  24  40  61  92 129 161 198 255 313 367
#     4  11  21  37  63  90 120 160 208 254 304 370
#     4  12  24  38  62  93 124 159 206 258 307 363
#     4  11  23  40  65  91 119 162 209 253 306 372
#     4   9  17  34  63  89 112 152 205 247 288 357
#     4  10  22  42  63  89 126 164 201 248 310 369
#
# _framework density 18.924188000000001
#
# number of rings (size 3 to 8) (size 9 to 14) (size 15 to 20)
#    0.000    1.333    3.333    3.000    0.000    3.333 
#    0.000    4.167    0.000    0.000    0.000    0.000 
#    0.000    0.000    0.000    0.000    0.000    0.000 
#
# Total GULP energy -268335.437853 kJ/mol
# GULP energy per Si atom -5590.321622 kJ/mol
# Density = 1.888112 g / cm^3
# Si number density = 18.924188 Si / 1000 Ang^3
#
#
#
# Elastic Constant Matrix: (Units=GPa)
#
#
# Indices 1 2 3 4 5 6 
#
# 1 120.9070 45.9190 -1.0603 0.0000 0.0000 0.0000
# 2 45.9190 137.9707 -2.7520 0.0000 0.0000 0.0000
# 3 -1.0603 -2.7520 17.8431 0.0000 0.0000 0.0000
# 4 0.0000 0.0000 0.0000 2.1240 0.0000 0.0000
# 5 0.0000 0.0000 0.0000 0.0000 11.6739 0.0000
# 6 0.0000 0.0000 0.0000 0.0000 0.0000 31.6661
#
#
#
# Elastic Compliance Matrix: (Units=1/GPa)
#
#
# Indices 1 2 3 4 5 6 
#
# 1 0.009468 -0.003149 0.000077 0.000000 0.000000 0.000000
# 2 -0.003149 0.008318 0.001096 0.000000 0.000000 0.000000
# 3 0.000077 0.001096 0.056217 0.000000 0.000000 0.000000
# 4 0.000000 0.000000 0.000000 0.470808 0.000000 0.000000
# 5 0.000000 0.000000 0.000000 0.000000 0.085661 0.000000
# 6 0.000000 0.000000 0.000000 0.000000 0.000000 0.031580
#
#
# Mechanical properties :
#
#
# Convention : Reuss Voigt Hill
#
# Bulk Modulus (GPa) = 14.27565 40.10382 27.18974
# Shear Modulus (GPa) = 7.25315 24.73375 15.99345
#
# Velocity S-wave (km/s) = 1.95986 3.61916 2.91027
# Velocity P-wave (km/s) = 3.56109 6.22111 5.06871
#
# Compressibility (1/GPa) = 0.07004935
#
# Stress axis : x y z
#
# Youngs Moduli (GPa) = 105.62320 120.22171 17.78806
#
# Poissons Ratio (x) = 0.37863 -0.00137
# Poissons Ratio (y) = 0.33266 -0.01949
# Poissons Ratio (z) = -0.00812 -0.13173
#
# Static dielectric constant tensor:
#      x y z
#    x 1.623620 0.000000 0.000000 
#    y 0.000000 1.634360 0.000000 
#    z 0.000000 0.000000 1.644050 
# 
# From -- ./inp_files/6029.got.cif
#   From: 2010.05.17/outbox.cif.g08.bks.cpg/sg58_4_cif.got.tgz:6029.got - 2010.06.03 14:20:14.
