data_PCOD9445898
_publ_section_title
;
Structure prediction by ZEFSAII (Michael W. Deem and Ramdas Pophale) SiO2 
 PCOD9445898
Probable space group: P N N M
;
_chemical_formula_sum "Si O2"
_cell_formula_units_Z 32
_cell_length_a 9.523905
_cell_length_b 9.523904
_cell_length_c 13.811286
_cell_angle_alpha 90.000000
_cell_angle_beta 90.000000
_cell_angle_gamma 90.000000
_cell_volume 1252.749339
_symmetry_space_group_name_H-M "P N N M"
_symmetry_group_IT_number 58
_symmetry_cell_setting 'orthorhombic'
loop_
_space_group_symop_operation_xyz
x,y,z
-x,-y,z
1/2+x,1/2-y,1/2-z
1/2-x,1/2+y,1/2-z
-x,-y,-z
x,y,-z
1/2-x,1/2+y,1/2+z
1/2+x,1/2-y,1/2+z
loop_
_atom_site_type_symbol
_atom_site_label
_atom_site_fract_x
_atom_site_fract_y
_atom_site_fract_z
Si Si1 0.305945 0.436468 0.895890
Si Si2 0.228751 0.493739 0.316674
Si Si3 0.563532 0.305945 0.395890
Si Si4 0.493739 0.771249 0.183326
O O1 0.278273 0.513381 0.794672
O O2 0.183161 0.316839 0.896025
O O3 0.453053 0.353677 0.884017
O O4 0.294870 0.508717 0.000000
O O5 0.353677 0.546947 0.384017
O O6 0.158521 0.341479 0.330590
O O7 0.104392 0.604392 0.333085
O O8 0.491283 0.294870 0.500000
O O9 0.486619 0.278273 0.294672
#
# Coordination Sequence:
#
# PCOD9445898 Si02
#       4
#     8   8   8   8
#     4   9  18  33  53  76 101 131 168 206 246 296
#     4   9  18  33  52  74 102 133 164 203 248 292
#     4   9  18  33  53  76 101 131 168 206 246 296
#     4   9  18  33  52  74 102 133 164 203 248 292
#
# _framework density 25.543818000000002
#
# number of rings (size 3 to 8) (size 9 to 14) (size 15 to 20)
#    0.000    3.000    0.000    0.000    0.000    3.000 
#    0.000   15.000    0.000    9.000    0.000    0.000 
#    0.000    0.000    0.000    0.000    0.000    0.000 
#
# Total GULP energy -178869.907058 kJ/mol
# GULP energy per Si atom -5589.684596 kJ/mol
# Density = 2.548568 g / cm^3
# Si number density = 25.543818 Si / 1000 Ang^3
#
#
#
# Elastic Constant Matrix: (Units=GPa)
#
#
# Indices 1 2 3 4 5 6 
#
# 1 77.6004 8.9612 -1.2075 0.0000 0.0000 0.0000
# 2 8.9612 77.6005 -1.2075 0.0000 0.0000 0.0000
# 3 -1.2075 -1.2075 93.7570 0.0000 0.0000 0.0000
# 4 0.0000 0.0000 0.0000 22.7827 0.0000 0.0000
# 5 0.0000 0.0000 0.0000 0.0000 22.7827 0.0000
# 6 0.0000 0.0000 0.0000 0.0000 0.0000 18.4468
#
#
#
# Elastic Compliance Matrix: (Units=1/GPa)
#
#
# Indices 1 2 3 4 5 6 
#
# 1 0.013063 -0.001506 0.000149 0.000000 0.000000 0.000000
# 2 -0.001506 0.013063 0.000149 0.000000 0.000000 0.000000
# 3 0.000149 0.000149 0.010670 0.000000 0.000000 0.000000
# 4 0.000000 0.000000 0.000000 0.043893 0.000000 0.000000
# 5 0.000000 0.000000 0.000000 0.000000 0.043893 0.000000
# 6 0.000000 0.000000 0.000000 0.000000 0.000000 0.054210
#
#
# Mechanical properties :
#
#
# Convention : Reuss Voigt Hill
#
# Bulk Modulus (GPa) = 29.08814 29.11671 29.10242
# Shear Modulus (GPa) = 25.95145 28.96322 27.45734
#
# Velocity S-wave (km/s) = 3.19087 3.37094 3.28214
# Velocity P-wave (km/s) = 4.99878 5.15504 5.07751
#
# Compressibility (1/GPa) = 0.03437827
#
# Stress axis : x y z
#
# Youngs Moduli (GPa) = 76.55344 76.55349 93.72330
#
# Poissons Ratio (x) = 0.11530 -0.01395
# Poissons Ratio (y) = 0.11530 -0.01395
# Poissons Ratio (z) = -0.01139 -0.01139
#
# Static dielectric constant tensor:
#      x y z
#    x 2.068070 0.000000 0.000000 
#    y 0.000000 2.068070 0.000000 
#    z 0.000000 0.000000 1.910130 
# 
# From -- ./inp_files/13768.got.cif
#   From: 2010.05.17/outbox.cif.g08.bks.cpg/sg58_7_cif.got.tgz:13768.got - 2010.06.03 14:20:14.
