data_PCOD9445042
_publ_section_title
;
Structure prediction by ZEFSAII (Michael W. Deem and Ramdas Pophale) SiO2 
 PCOD9445042
Probable space group: P N N M
;
_chemical_formula_sum "Si O2"
_cell_formula_units_Z 48
_cell_length_a 9.306978
_cell_length_b 13.909865
_cell_length_c 19.653845
_cell_angle_alpha 90.000000
_cell_angle_beta 90.000000
_cell_angle_gamma 90.000000
_cell_volume 2544.363337
_symmetry_space_group_name_H-M "P N N M"
_symmetry_group_IT_number 58
_symmetry_cell_setting 'orthorhombic'
loop_
_space_group_symop_operation_xyz
x,y,z
-x,-y,z
1/2+x,1/2-y,1/2-z
1/2-x,1/2+y,1/2-z
-x,-y,-z
x,y,-z
1/2-x,1/2+y,1/2+z
1/2+x,1/2-y,1/2+z
loop_
_atom_site_type_symbol
_atom_site_label
_atom_site_fract_x
_atom_site_fract_y
_atom_site_fract_z
Si Si1 0.835085 0.473604 0.675827
Si Si2 0.783477 0.272294 0.278530
Si Si3 0.629222 0.075626 0.422706
Si Si4 0.484209 0.241796 0.336314
Si Si5 0.127570 0.922031 0.921831
Si Si6 0.345762 0.449009 0.804876
O O1 0.821787 0.358450 0.670378
O O2 0.765833 0.528526 0.612119
O O3 0.742462 0.508021 0.741018
O O4 0.000000 0.500000 0.686363
O O5 0.611732 0.263941 0.282548
O O6 0.847334 0.166894 0.294442
O O7 0.852105 0.301362 0.206320
O O8 0.677267 0.093046 0.500000
O O9 0.560562 0.170384 0.388825
O O10 0.755518 0.038167 0.374006
O O11 0.500000 0.000000 0.423387
O O12 0.425673 0.334101 0.375654
O O13 0.152286 0.893139 0.000000
O O14 0.000000 0.000000 0.920309
O O15 0.500000 0.500000 0.806723
#
# Coordination Sequence:
#
# PCOD9445042 Si02
#       6
#     8   8   8   8   8   8
#     4  12  23  40  61  93 128 162 210 268 322 376
#     4  11  22  35  62  92 123 159 207 263 316 366
#     4  10  22  40  60  88 126 167 203 253 317 378
#     4  11  21  39  62  95 123 162 211 262 314 377
#     4  11  23  42  65  89 125 171 211 260 321 389
#     4  11  22  39  63  92 123 162 212 267 314 372
#
# _framework density 18.865231000000001
#
# number of rings (size 3 to 8) (size 9 to 14) (size 15 to 20)
#    0.000    1.000    3.333    5.500    0.000    0.667 
#    0.000    0.000    0.000    0.000    0.000    0.000 
#    0.000    0.000    0.000    0.000    0.000    0.000 
#
# Total GULP energy -268093.906760 kJ/mol
# GULP energy per Si atom -5585.289724 kJ/mol
# Density = 1.882229 g / cm^3
# Si number density = 18.865231 Si / 1000 Ang^3
#
#
#
# Elastic Constant Matrix: (Units=GPa)
#
#
# Indices 1 2 3 4 5 6 
#
# 1 128.8650 50.4504 66.5904 0.0000 0.0000 0.0000
# 2 50.4504 90.9109 3.9359 0.0000 0.0000 0.0000
# 3 66.5904 3.9359 103.6582 0.0000 0.0000 0.0000
# 4 0.0000 0.0000 0.0000 24.1265 0.0000 0.0000
# 5 0.0000 0.0000 0.0000 0.0000 12.5068 0.0000
# 6 0.0000 0.0000 0.0000 0.0000 0.0000 26.5511
#
#
#
# Elastic Compliance Matrix: (Units=1/GPa)
#
#
# Indices 1 2 3 4 5 6 
#
# 1 0.016452 -0.008686 -0.010239 0.000000 0.000000 0.000000
# 2 -0.008686 0.015604 0.004988 0.000000 0.000000 0.000000
# 3 -0.010239 0.004988 0.016035 0.000000 0.000000 0.000000
# 4 0.000000 0.000000 0.000000 0.041448 0.000000 0.000000
# 5 0.000000 0.000000 0.000000 0.000000 0.079956 0.000000
# 6 0.000000 0.000000 0.000000 0.000000 0.000000 0.037663
#
#
# Mechanical properties :
#
#
# Convention : Reuss Voigt Hill
#
# Bulk Modulus (GPa) = 49.46556 62.82084 56.14320
# Shear Modulus (GPa) = 20.68059 26.13404 23.40731
#
# Velocity S-wave (km/s) = 3.31453 3.72600 3.52627
# Velocity P-wave (km/s) = 6.39731 7.20298 6.81206
#
# Compressibility (1/GPa) = 0.02021609
#
# Stress axis : x y z
#
# Youngs Moduli (GPa) = 60.78431 64.08479 62.36310
#
# Poissons Ratio (x) = 0.55667 0.63852
# Poissons Ratio (y) = 0.52800 -0.31105
# Poissons Ratio (z) = 0.62236 -0.31964
#
# Static dielectric constant tensor:
#      x y z
#    x 1.642160 0.000000 0.000000 
#    y 0.000000 1.688610 0.000000 
#    z 0.000000 0.000000 1.657270 
# 
# From -- ./inp_files/25285.got.cif
#   From: 2010.05.17/outbox.cif.g08.bks.cpg/sg58_13_cif.got.tgz:25285.got - 2010.06.03 14:20:14.
