data_PCOD9445950
_publ_section_title
;
Structure prediction by ZEFSAII (Michael W. Deem and Ramdas Pophale) SiO2 
 PCOD9445950
Probable space group: P N N M
;
_chemical_formula_sum "Si O2"
_cell_formula_units_Z 56
_cell_length_a 15.000000
_cell_length_b 21.000000
_cell_length_c 9.000000
_cell_angle_alpha 90.000000
_cell_angle_beta 90.000000
_cell_angle_gamma 90.000000
_cell_volume 2835.000000
_symmetry_space_group_name_H-M "P N N M"
_symmetry_group_IT_number 58
_symmetry_cell_setting 'orthorhombic'
loop_
_space_group_symop_operation_xyz
x,y,z
-x,-y,z
1/2+x,1/2-y,1/2-z
1/2-x,1/2+y,1/2-z
-x,-y,-z
x,y,-z
1/2-x,1/2+y,1/2+z
1/2+x,1/2-y,1/2+z
loop_
_atom_site_type_symbol
_atom_site_label
_atom_site_fract_x
_atom_site_fract_y
_atom_site_fract_z
Si Si1 0.401397 0.674589 0.325127
Si Si2 0.910184 0.424900 0.319755
Si Si3 0.098433 0.022632 0.175259
Si Si4 0.892596 0.573211 0.321053
Si Si5 0.915671 0.196290 0.321806
Si Si6 0.710194 0.581754 0.822571
Si Si7 0.292023 0.188705 0.181741
O O1 0.411316 0.688125 0.500000
O O2 0.395946 0.598160 0.308487
O O3 0.486083 0.699296 0.239892
O O4 0.307892 0.700975 0.268432
O O5 0.910063 0.424305 0.500000
O O6 0.895511 0.498111 0.279278
O O7 0.833241 0.378100 0.267794
O O8 0.009494 0.401974 0.276529
O O9 0.175310 0.985426 0.261107
O O10 0.107276 0.007270 0.000000
O O11 0.000000 0.000000 0.224856
O O12 0.884215 0.578008 0.500000
O O13 0.805677 0.600641 0.243622
O O14 0.918238 0.196291 0.500000
O O15 0.864907 0.132301 0.274290
O O16 0.857704 0.255881 0.272396
O O17 0.715284 0.580987 0.000000
O O18 0.288974 0.186795 0.000000
#
# Coordination Sequence:
#
# PCOD9445950 Si02
#       7
#     8   8   8   8   8   8   8
#     4  10  20  36  59  82 103 133 176 224 267 309
#     4   8  15  31  55  80 102 129 171 221 267 304
#     4  10  19  33  56  82 104 130 172 227 274 310
#     4   9  17  31  55  82 104 129 169 221 265 307
#     4  10  22  37  51  72 107 144 175 207 251 313
#     4  11  22  33  48  75 111 146 172 205 261 321
#     4   9  18  34  55  76 102 139 178 213 257 312
#
# _framework density 19.753086
#
# number of rings (size 3 to 8) (size 9 to 14) (size 15 to 20)
#    0.000    2.429    1.429    2.143    0.000    4.857 
#    0.000    2.143    0.000    1.714    0.000    0.000 
#    0.000    0.000    0.000    0.000    0.000    0.000 
#
# Total GULP energy -312402.021093 kJ/mol
# GULP energy per Si atom -5578.607520 kJ/mol
# Density = 1.970813 g / cm^3
# Si number density = 19.753086 Si / 1000 Ang^3
#
#
#
# Elastic Constant Matrix: (Units=GPa)
#
#
# Indices 1 2 3 4 5 6 
#
# 1 160.7460 34.1850 21.7771 0.0000 0.0000 0.0000
# 2 34.1850 24.3014 12.3049 0.0000 0.0000 0.0000
# 3 21.7771 12.3049 4.2594 0.0000 0.0000 0.0000
# 4 0.0000 0.0000 0.0000 -2.5366 0.0000 0.0000
# 5 0.0000 0.0000 0.0000 0.0000 12.5960 0.0000
# 6 0.0000 0.0000 0.0000 0.0000 0.0000 19.2859
#
#
#
# Elastic Compliance Matrix: (Units=1/GPa)
#
#
# Indices 1 2 3 4 5 6 
#
# 1 0.008144 -0.020804 0.018459 0.000000 0.000000 0.000000
# 2 -0.020804 -0.035779 0.209724 0.000000 0.000000 0.000000
# 3 0.018459 0.209724 -0.465474 0.000000 0.000000 0.000000
# 4 0.000000 0.000000 0.000000 -0.394229 0.000000 0.000000
# 5 0.000000 0.000000 0.000000 0.000000 0.079390 0.000000
# 6 0.000000 0.000000 0.000000 0.000000 0.000000 0.051851
#
#
# Mechanical properties :
#
#
# Convention : Reuss Voigt Hill
#
# Bulk Modulus (GPa) = -12.76345 36.20454 11.72055
# Shear Modulus (GPa) = -4.17721 13.93838 4.88058
#
# Velocity S-wave (km/s) = -1.45578 2.65925 1.57358
# Velocity P-wave (km/s) = 3.04980 5.27230 3.04105
#
# Compressibility (1/GPa) = -0.07834875
#
# Stress axis : x y z
#
# Youngs Moduli (GPa) = 122.78362 -27.94963 -2.14835
#
# Poissons Ratio (x) = -0.58145 0.03966
# Poissons Ratio (y) = 2.55434 0.45056
# Poissons Ratio (z) = -2.26649 5.86171
#
# Static dielectric constant tensor:
#      x y z
#    x 1.710390 0.000000 0.000000 
#    y 0.000000 1.710280 0.000000 
#    z 0.000000 0.000000 1.665330 
# 
# From -- ./inp_files/6389.got.cif
#   From: 2010.05.17/outbox.ucp.g08.bks.cvg/sg58_4_cif.got.tgz:6389.got - 2010.06.11 16:41:41.
