data_PCOD9445330
_publ_section_title
;
Structure prediction by ZEFSAII (Michael W. Deem and Ramdas Pophale) SiO2 
 PCOD9445330
Probable space group: P N N M
;
_chemical_formula_sum "Si O2"
_cell_formula_units_Z 48
_cell_length_a 7.972708
_cell_length_b 25.245228
_cell_length_c 10.338100
_cell_angle_alpha 90.000000
_cell_angle_beta 90.000000
_cell_angle_gamma 90.000000
_cell_volume 2080.778657
_symmetry_space_group_name_H-M "P N N M"
_symmetry_group_IT_number 58
_symmetry_cell_setting 'orthorhombic'
loop_
_space_group_symop_operation_xyz
x,y,z
-x,-y,z
1/2+x,1/2-y,1/2-z
1/2-x,1/2+y,1/2-z
-x,-y,-z
x,y,-z
1/2-x,1/2+y,1/2+z
1/2+x,1/2-y,1/2+z
loop_
_atom_site_type_symbol
_atom_site_label
_atom_site_fract_x
_atom_site_fract_y
_atom_site_fract_z
Si Si1 0.272878 0.020469 0.000000
Si Si2 0.767864 0.135369 0.759301
Si Si3 0.771647 0.818034 0.848800
Si Si4 0.915639 0.741010 0.350253
Si Si5 0.088291 0.576870 0.257943
Si Si6 0.073993 0.915409 0.000000
Si Si7 0.603798 0.586433 0.000000
Si Si8 0.740264 0.969409 0.500000
O O1 0.371931 0.037893 0.874503
O O2 0.100153 0.054039 0.000000
O O3 0.218100 0.960203 0.000000
O O4 0.699647 0.193383 0.794797
O O5 0.599899 0.098899 0.760164
O O6 0.853630 0.122441 0.623392
O O7 0.893457 0.117532 0.871526
O O8 0.895893 0.788853 0.750271
O O9 0.603346 0.781829 0.852057
O O10 0.708840 0.872909 0.787419
O O11 0.823590 0.823517 0.000000
O O12 0.868726 0.753683 0.500000
O O13 0.138407 0.548516 0.125776
O O14 0.414910 0.563786 0.000000
O O15 0.714178 0.531887 0.000000
#
# Coordination Sequence:
#
# PCOD9445330 Si02
#       8
#     4   8   8   8   8   4   4   4
#     4  11  23  39  62  93 126 161 204 255 310 369
#     4  11  23  42  65  91 125 164 209 258 307 369
#     4  10  23  43  64  92 126 160 203 255 309 368
#     4  10  23  43  64  92 126 160 203 255 309 368
#     4  11  23  42  65  91 125 164 209 258 307 369
#     4  11  23  39  62  93 126 161 204 255 310 369
#     4  11  25  43  62  91 130 167 208 259 312 369
#     4  11  25  43  62  91 130 167 208 259 312 369
#
# _framework density 23.068287999999999
#
# number of rings (size 3 to 8) (size 9 to 14) (size 15 to 20)
#    0.000    1.333    1.667    3.000    2.333   10.000 
#    0.000    0.000    0.000    0.000    0.000    0.000 
#    0.000    0.000    0.000    0.000    0.000    0.000 
#
# Total GULP energy -269051.676217 kJ/mol
# GULP energy per Si atom -5605.243255 kJ/mol
# Density = 2.301578 g / cm^3
# Si number density = 23.068288 Si / 1000 Ang^3
#
#
#
# Elastic Constant Matrix: (Units=GPa)
#
#
# Indices 1 2 3 4 5 6 
#
# 1 87.5998 25.7070 46.2339 0.0000 0.0000 0.0000
# 2 25.7070 89.1021 67.0321 0.0000 0.0000 0.0000
# 3 46.2339 67.0321 234.9842 0.0000 0.0000 0.0000
# 4 0.0000 0.0000 0.0000 51.2049 0.0000 0.0000
# 5 0.0000 0.0000 0.0000 0.0000 44.9295 0.0000
# 6 0.0000 0.0000 0.0000 0.0000 0.0000 52.3107
#
#
#
# Elastic Compliance Matrix: (Units=1/GPa)
#
#
# Indices 1 2 3 4 5 6 
#
# 1 0.013112 -0.002346 -0.001911 0.000000 0.000000 0.000000
# 2 -0.002346 0.014709 -0.003735 0.000000 0.000000 0.000000
# 3 -0.001911 -0.003735 0.005697 0.000000 0.000000 0.000000
# 4 0.000000 0.000000 0.000000 0.019529 0.000000 0.000000
# 5 0.000000 0.000000 0.000000 0.000000 0.022257 0.000000
# 6 0.000000 0.000000 0.000000 0.000000 0.000000 0.019117
#
#
# Mechanical properties :
#
#
# Convention : Reuss Voigt Hill
#
# Bulk Modulus (GPa) = 57.02298 76.62578 66.82438
# Shear Modulus (GPa) = 43.01117 47.86990 45.44054
#
# Velocity S-wave (km/s) = 4.32269 4.56031 4.44309
# Velocity P-wave (km/s) = 7.04890 7.81138 7.43991
#
# Compressibility (1/GPa) = 0.01753679
#
# Stress axis : x y z
#
# Youngs Moduli (GPa) = 76.26386 67.98426 175.53492
#
# Poissons Ratio (x) = 0.15946 0.33541
# Poissons Ratio (y) = 0.17888 0.65554
# Poissons Ratio (z) = 0.14572 0.25389
#
# Static dielectric constant tensor:
#      x y z
#    x 1.878280 0.000000 0.000000 
#    y 0.000000 1.849030 0.000000 
#    z 0.000000 0.000000 1.792370 
# 
# From -- ./inp_files/3107.got.cif
#   From: 2010.05.17/outbox.cif.g08.bks.cpg/sg58_2_cif.got.tgz:3107.got - 2010.06.03 14:20:14.
