data_PCOD9445801
_publ_section_title
;
Structure prediction by ZEFSAII (Michael W. Deem and Ramdas Pophale) SiO2 
 PCOD9445801
Probable space group: P N N M
;
_chemical_formula_sum "Si O2"
_cell_formula_units_Z 40
_cell_length_a 14.649763
_cell_length_b 14.198278
_cell_length_c 9.043817
_cell_angle_alpha 90.000000
_cell_angle_beta 90.000000
_cell_angle_gamma 90.000000
_cell_volume 1881.126667
_symmetry_space_group_name_H-M "P N N M"
_symmetry_group_IT_number 58
_symmetry_cell_setting 'orthorhombic'
loop_
_space_group_symop_operation_xyz
x,y,z
-x,-y,z
1/2+x,1/2-y,1/2-z
1/2-x,1/2+y,1/2-z
-x,-y,-z
x,y,-z
1/2-x,1/2+y,1/2+z
1/2+x,1/2-y,1/2+z
loop_
_atom_site_type_symbol
_atom_site_label
_atom_site_fract_x
_atom_site_fract_y
_atom_site_fract_z
Si Si1 0.777798 0.435188 0.832549
Si Si2 0.563407 0.145424 0.000000
Si Si3 0.362174 0.061767 0.000000
Si Si4 0.861883 0.781863 0.745674
Si Si5 0.028644 0.900397 0.835479
Si Si6 0.798738 0.146771 0.661446
O O1 0.820789 0.416576 0.666125
O O2 0.692728 0.364515 0.836257
O O3 0.744444 0.542893 0.825070
O O4 0.823848 0.424940 0.000000
O O5 0.587516 0.209176 0.860770
O O6 0.459907 0.111762 0.000000
O O7 0.624456 0.051207 0.000000
O O8 0.782489 0.720960 0.821522
O O9 0.940374 0.834167 0.836484
O O10 0.115611 0.847789 0.768961
O O11 0.058473 0.926605 0.000000
O O12 0.000000 0.000000 0.759943
O O13 0.839760 0.157981 0.500000
#
# Coordination Sequence:
#
# PCOD9445801 Si02
#       6
#     8   4   4   8   8   8
#     4  11  25  45  74 107 143 190 245 306 365 437
#     4  11  26  48  71 105 144 199 246 308 375 445
#     4  11  26  50  76 100 151 204 245 303 376 441
#     4  12  25  45  71 105 147 188 247 303 363 443
#     4  11  26  44  70 105 144 191 243 304 367 441
#     4  11  26  45  70 104 143 190 239 303 372 433
#
# _framework density 21.263852
#
# number of rings (size 3 to 8) (size 9 to 14) (size 15 to 20)
#    0.000    0.800    5.000    0.600    9.800    0.400 
#    0.000    3.000    0.000    0.000    0.000    0.000 
#    0.000    0.000    0.000    0.000    0.000    0.000 
#
# Total GULP energy -222912.840086 kJ/mol
# GULP energy per Si atom -5572.821002 kJ/mol
# Density = 2.121545 g / cm^3
# Si number density = 21.263852 Si / 1000 Ang^3
#
#
#
# Elastic Constant Matrix: (Units=GPa)
#
#
# Indices 1 2 3 4 5 6 
#
# 1 77.4656 24.0969 44.0159 0.0000 0.0000 0.0000
# 2 24.0969 106.5708 11.2414 0.0000 0.0000 0.0000
# 3 44.0159 11.2414 134.5832 0.0000 0.0000 0.0000
# 4 0.0000 0.0000 0.0000 -28.7955 0.0000 0.0000
# 5 0.0000 0.0000 0.0000 0.0000 22.9292 0.0000
# 6 0.0000 0.0000 0.0000 0.0000 0.0000 29.5012
#
#
#
# Elastic Compliance Matrix: (Units=1/GPa)
#
#
# Indices 1 2 3 4 5 6 
#
# 1 0.016914 -0.003270 -0.005259 0.000000 0.000000 0.000000
# 2 -0.003270 0.010099 0.000226 0.000000 0.000000 0.000000
# 3 -0.005259 0.000226 0.009131 0.000000 0.000000 0.000000
# 4 0.000000 0.000000 0.000000 -0.034728 0.000000 0.000000
# 5 0.000000 0.000000 0.000000 0.000000 0.043613 0.000000
# 6 0.000000 0.000000 0.000000 0.000000 0.000000 0.033897
#
#
# Mechanical properties :
#
#
# Convention : Reuss Voigt Hill
#
# Bulk Modulus (GPa) = 51.17930 53.03643 52.10786
# Shear Modulus (GPa) = 48.99825 20.67799 34.83812
#
# Velocity S-wave (km/s) = 4.80552 3.12179 4.05207
# Velocity P-wave (km/s) = 7.41024 6.16363 6.81549
#
# Compressibility (1/GPa) = 0.01953915
#
# Stress axis : x y z
#
# Youngs Moduli (GPa) = 59.12247 99.02029 109.51280
#
# Poissons Ratio (x) = 0.32377 0.57589
# Poissons Ratio (y) = 0.19332 -0.02473
# Poissons Ratio (z) = 0.31091 -0.02236
#
# Static dielectric constant tensor:
#      x y z
#    x 1.728870 0.000000 0.000000 
#    y 0.000000 1.772700 0.000000 
#    z 0.000000 0.000000 1.835720 
# 
# From -- ./inp_files/5400.got.cif
#   From: 2010.05.17/outbox.cif.g08.bks.cpg/sg58_3_cif.got.tgz:5400.got - 2010.06.03 14:20:14.
