data_PCOD9445129
_publ_section_title
;
Structure prediction by ZEFSAII (Michael W. Deem and Ramdas Pophale) SiO2 
 PCOD9445129
Probable space group: P N N M
;
_chemical_formula_sum "Si O2"
_cell_formula_units_Z 56
_cell_length_a 21.562425
_cell_length_b 14.839939
_cell_length_c 8.734799
_cell_angle_alpha 90.000000
_cell_angle_beta 90.000000
_cell_angle_gamma 90.000000
_cell_volume 2795.005284
_symmetry_space_group_name_H-M "P N N M"
_symmetry_group_IT_number 58
_symmetry_cell_setting 'orthorhombic'
loop_
_space_group_symop_operation_xyz
x,y,z
-x,-y,z
1/2+x,1/2-y,1/2-z
1/2-x,1/2+y,1/2-z
-x,-y,-z
x,y,-z
1/2-x,1/2+y,1/2+z
1/2+x,1/2-y,1/2+z
loop_
_atom_site_type_symbol
_atom_site_label
_atom_site_fract_x
_atom_site_fract_y
_atom_site_fract_z
Si Si1 0.255823 0.519394 0.821793
Si Si2 0.893857 0.259512 0.181773
Si Si3 0.867070 0.448192 0.322431
Si Si4 0.344376 0.678267 0.182161
Si Si5 0.048414 0.418025 0.177243
Si Si6 0.520212 0.270273 0.819438
Si Si7 0.263465 0.304872 0.181202
O O1 0.205637 0.560676 0.707408
O O2 0.317740 0.577500 0.798636
O O3 0.258805 0.412730 0.797651
O O4 0.236540 0.535326 0.000000
O O5 0.897906 0.359746 0.251976
O O6 0.827670 0.223150 0.237891
O O7 0.954933 0.206925 0.239369
O O8 0.894919 0.265567 0.000000
O O9 0.882616 0.457254 0.500000
O O10 0.887960 0.536205 0.229579
O O11 0.415462 0.685094 0.236526
O O12 0.295878 0.749250 0.256161
O O13 0.344916 0.698416 0.000000
O O14 0.032590 0.334913 0.283962
O O15 0.000000 0.500000 0.192205
O O16 0.049594 0.389065 0.000000
O O17 0.513251 0.285959 0.000000
O O18 0.268890 0.286913 0.000000
#
# Coordination Sequence:
#
# PCOD9445129 Si02
#       7
#     8   8   8   8   8   8   8
#     4  10  22  41  64  90 124 162 202 251 312 374
#     4  12  24  40  61  86 122 165 204 251 314 368
#     4  12  23  36  59  89 120 156 202 254 305 365
#     4  10  22  41  64  91 126 165 201 252 317 373
#     4  11  22  35  54  82 119 161 196 238 304 374
#     4  11  23  39  61  90 123 161 209 260 309 368
#     4  11  23  40  65  95 123 161 211 257 303 367
#
# _framework density 20.035741999999999
#
# number of rings (size 3 to 8) (size 9 to 14) (size 15 to 20)
#    0.000    1.000    2.857    4.714    0.000    5.143 
#    0.000    0.714    0.000    4.286    0.000    0.000 
#    0.000    0.000    0.000    0.000    0.000    0.000 
#
# Total GULP energy -312866.826494 kJ/mol
# GULP energy per Si atom -5586.907616 kJ/mol
# Density = 1.999014 g / cm^3
# Si number density = 20.035742 Si / 1000 Ang^3
#
#
#
# Elastic Constant Matrix: (Units=GPa)
#
#
# Indices 1 2 3 4 5 6 
#
# 1 96.8888 -2.4256 11.2034 0.0000 0.0000 0.0000
# 2 -2.4256 35.6766 7.5759 0.0000 0.0000 0.0000
# 3 11.2034 7.5759 24.7586 0.0000 0.0000 0.0000
# 4 0.0000 0.0000 0.0000 6.1940 0.0000 0.0000
# 5 0.0000 0.0000 0.0000 0.0000 22.2579 0.0000
# 6 0.0000 0.0000 0.0000 0.0000 0.0000 23.6542
#
#
#
# Elastic Compliance Matrix: (Units=1/GPa)
#
#
# Indices 1 2 3 4 5 6 
#
# 1 0.011014 0.001933 -0.005575 0.000000 0.000000 0.000000
# 2 0.001933 0.030317 -0.010151 0.000000 0.000000 0.000000
# 3 -0.005575 -0.010151 0.046019 0.000000 0.000000 0.000000
# 4 0.000000 0.000000 0.000000 0.161447 0.000000 0.000000
# 5 0.000000 0.000000 0.000000 0.000000 0.044928 0.000000
# 6 0.000000 0.000000 0.000000 0.000000 0.000000 0.042276
#
#
# Mechanical properties :
#
#
# Convention : Reuss Voigt Hill
#
# Bulk Modulus (GPa) = 16.73296 21.11459 18.92378
# Shear Modulus (GPa) = 13.03751 19.81925 16.42838
#
# Velocity S-wave (km/s) = 2.55367 3.14856 2.86659
# Velocity P-wave (km/s) = 4.13094 4.87640 4.51907
#
# Compressibility (1/GPa) = 0.05976228
#
# Stress axis : x y z
#
# Youngs Moduli (GPa) = 90.79200 32.98519 21.73009
#
# Poissons Ratio (x) = -0.06375 0.12115
# Poissons Ratio (y) = -0.17548 0.22059
# Poissons Ratio (z) = 0.50620 0.33484
#
# Static dielectric constant tensor:
#      x y z
#    x 1.772250 0.000000 0.000000 
#    y 0.000000 1.700720 0.000000 
#    z 0.000000 0.000000 1.680790 
# 
# From -- ./inp_files/6401.got.cif
#   From: 2010.05.17/outbox.cif.g08.bks.cpg/sg58_4_cif.got.tgz:6401.got - 2010.06.03 14:20:14.
