data_PCOD9445673
_publ_section_title
;
Structure prediction by ZEFSAII (Michael W. Deem and Ramdas Pophale) SiO2 
 PCOD9445673
Probable space group: P N N M
;
_chemical_formula_sum "Si O2"
_cell_formula_units_Z 48
_cell_length_a 13.342627
_cell_length_b 9.771968
_cell_length_c 20.091666
_cell_angle_alpha 90.000000
_cell_angle_beta 90.000000
_cell_angle_gamma 90.000000
_cell_volume 2619.626236
_symmetry_space_group_name_H-M "P N N M"
_symmetry_group_IT_number 58
_symmetry_cell_setting 'orthorhombic'
loop_
_space_group_symop_operation_xyz
x,y,z
-x,-y,z
1/2+x,1/2-y,1/2-z
1/2-x,1/2+y,1/2-z
-x,-y,-z
x,y,-z
1/2-x,1/2+y,1/2+z
1/2+x,1/2-y,1/2+z
loop_
_atom_site_type_symbol
_atom_site_label
_atom_site_fract_x
_atom_site_fract_y
_atom_site_fract_z
Si Si1 0.408252 0.101868 0.218467
Si Si2 0.597862 0.585229 0.816283
Si Si3 0.125284 0.699538 0.867858
Si Si4 0.696469 0.521520 0.674474
Si Si5 0.268473 0.947087 0.425887
Si Si6 0.415750 0.687709 0.422444
O O1 0.425374 0.253620 0.189759
O O2 0.396047 0.123911 0.297844
O O3 0.304998 0.041872 0.189165
O O4 0.500000 0.000000 0.205560
O O5 0.500000 0.500000 0.833951
O O6 0.637613 0.534389 0.744372
O O7 0.684755 0.562529 0.869668
O O8 0.170155 0.586869 0.916489
O O9 0.023874 0.767364 0.895266
O O10 0.201000 0.824322 0.853525
O O11 0.633710 0.427910 0.623691
O O12 0.224822 0.940315 0.500000
O O13 0.344615 0.820660 0.418182
O O14 0.421983 0.645963 0.500000
#
# Coordination Sequence:
#
# PCOD9445673 Si02
#       6
#     8   8   8   8   8   8
#     4  11  23  39  66  93 126 162 210 265 313 371
#     4  11  24  40  65  92 123 163 214 260 312 373
#     4  11  23  36  65  96 127 163 209 260 319 381
#     4  11  23  41  63  96 127 166 206 261 321 374
#     4  11  23  40  62  90 127 168 209 261 317 375
#     4  11  23  42  65  93 133 171 212 259 323 385
#
# _framework density 18.323224
#
# number of rings (size 3 to 8) (size 9 to 14) (size 15 to 20)
#    0.000    1.000    3.333    4.500    2.333    3.667 
#    0.000    0.000    0.000    1.000    0.000    0.000 
#    0.000    0.000    0.000    0.000    0.000    0.000 
#
# Total GULP energy -268398.341959 kJ/mol
# GULP energy per Si atom -5591.632124 kJ/mol
# Density = 1.828152 g / cm^3
# Si number density = 18.323224 Si / 1000 Ang^3
#
#
#
# Elastic Constant Matrix: (Units=GPa)
#
#
# Indices 1 2 3 4 5 6 
#
# 1 102.6099 64.2250 42.1215 0.0000 0.0000 0.0000
# 2 64.2250 113.6332 48.5897 0.0000 0.0000 0.0000
# 3 42.1215 48.5897 105.3081 0.0000 0.0000 0.0000
# 4 0.0000 0.0000 0.0000 -16.3592 0.0000 0.0000
# 5 0.0000 0.0000 0.0000 0.0000 71.9408 0.0000
# 6 0.0000 0.0000 0.0000 0.0000 0.0000 38.2550
#
#
#
# Elastic Compliance Matrix: (Units=1/GPa)
#
#
# Indices 1 2 3 4 5 6 
#
# 1 0.015682 -0.007700 -0.002719 0.000000 0.000000 0.000000
# 2 -0.007700 0.014745 -0.003723 0.000000 0.000000 0.000000
# 3 -0.002719 -0.003723 0.012302 0.000000 0.000000 0.000000
# 4 0.000000 0.000000 0.000000 -0.061128 0.000000 0.000000
# 5 0.000000 0.000000 0.000000 0.000000 0.013900 0.000000
# 6 0.000000 0.000000 0.000000 0.000000 0.000000 0.026140
#
#
# Mechanical properties :
#
#
# Convention : Reuss Voigt Hill
#
# Bulk Modulus (GPa) = 69.24336 70.15818 69.70077
# Shear Modulus (GPa) = 91.33943 29.87499 60.60721
#
# Velocity S-wave (km/s) = 7.06804 4.04226 5.75748
# Velocity P-wave (km/s) = 10.22162 7.75621 9.07305
#
# Compressibility (1/GPa) = 0.01444182
#
# Stress axis : x y z
#
# Youngs Moduli (GPa) = 63.76815 67.82180 81.29052
#
# Poissons Ratio (x) = 0.52226 0.22106
# Poissons Ratio (y) = 0.49104 0.30266
# Poissons Ratio (z) = 0.17341 0.25251
#
# Static dielectric constant tensor:
#      x y z
#    x 1.591830 0.000000 0.000000 
#    y 0.000000 1.623590 0.000000 
#    z 0.000000 0.000000 1.623790 
# 
# From -- ./inp_files/25314.got.cif
#   From: 2010.05.17/outbox.cif.g08.bks.cpg/sg58_13_cif.got.tgz:25314.got - 2010.06.03 14:20:14.
