data_PCOD9445510
_publ_section_title
;
Structure prediction by ZEFSAII (Michael W. Deem and Ramdas Pophale) SiO2 
 PCOD9445510
Probable space group: P N N M
;
_chemical_formula_sum "Si O2"
_cell_formula_units_Z 56
_cell_length_a 21.911781
_cell_length_b 9.213967
_cell_length_c 14.544901
_cell_angle_alpha 90.000000
_cell_angle_beta 90.000000
_cell_angle_gamma 90.000000
_cell_volume 2936.534454
_symmetry_space_group_name_H-M "P N N M"
_symmetry_group_IT_number 58
_symmetry_cell_setting 'orthorhombic'
loop_
_space_group_symop_operation_xyz
x,y,z
-x,-y,z
1/2+x,1/2-y,1/2-z
1/2-x,1/2+y,1/2-z
-x,-y,-z
x,y,-z
1/2-x,1/2+y,1/2+z
1/2+x,1/2-y,1/2+z
loop_
_atom_site_type_symbol
_atom_site_label
_atom_site_fract_x
_atom_site_fract_y
_atom_site_fract_z
Si Si1 0.563624 0.554557 0.829539
Si Si2 0.022395 0.751506 0.500000
Si Si3 0.880189 0.821257 0.772623
Si Si4 0.906228 0.554344 0.500000
Si Si5 0.506421 0.322241 0.603465
Si Si6 0.167372 0.462124 0.692383
Si Si7 0.799521 0.036067 0.890722
Si Si8 0.380545 0.227323 0.313399
O O1 0.500000 0.500000 0.787183
O O2 0.604235 0.410116 0.821184
O O3 0.601339 0.666904 0.769973
O O4 0.540977 0.644682 0.916295
O O5 0.059604 0.601416 0.500000
O O6 0.953396 0.690297 0.500000
O O7 0.943176 0.774555 0.821972
O O8 0.838154 0.688846 0.745803
O O9 0.848670 0.926650 0.846655
O O10 0.869065 0.553311 0.595676
O O11 0.500000 0.500000 0.602983
O O12 0.525956 0.283842 0.500000
O O13 0.442174 0.242473 0.625705
O O14 0.236447 0.492409 0.662042
O O15 0.138912 0.580292 0.762443
O O16 0.825522 0.196781 0.868658
O O17 0.793259 0.016513 0.000000
#
# Coordination Sequence:
#
# PCOD9445510 Si02
#       8
#     8   4   8   4   8   8   8   8
#     4  11  19  37  57  91 126 164 211 261 313 372
#     4  11  23  36  60  94 134 174 216 265 316 381
#     4  11  23  39  68  97 125 169 215 268 327 385
#     4  11  24  38  62  94 132 177 210 265 331 378
#     4  11  20  38  67  99 124 157 208 263 323 383
#     4  12  25  43  62  93 133 171 215 260 325 389
#     4  11  23  45  68  89 123 173 223 267 312 383
#     4  11  22  39  67  92 125 164 210 266 326 384
#
# _framework density 19.070098999999999
#
# number of rings (size 3 to 8) (size 9 to 14) (size 15 to 20)
#    0.000    0.857    6.429    2.786    0.000    1.143 
#    0.000    3.571    0.000    0.000    0.000    0.000 
#    0.000    0.000    0.000    0.000    0.000    0.000 
#
# Total GULP energy -312005.457897 kJ/mol
# GULP energy per Si atom -5571.526034 kJ/mol
# Density = 1.902669 g / cm^3
# Si number density = 19.070099 Si / 1000 Ang^3
#
#
#
# Elastic Constant Matrix: (Units=GPa)
#
#
# Indices 1 2 3 4 5 6 
#
# 1 71.9650 15.9724 19.5329 0.0000 0.0000 0.0000
# 2 15.9724 83.0344 34.0530 0.0000 0.0000 0.0000
# 3 19.5329 34.0530 88.9967 0.0000 0.0000 0.0000
# 4 0.0000 0.0000 0.0000 15.5124 0.0000 0.0000
# 5 0.0000 0.0000 0.0000 0.0000 35.5484 0.0000
# 6 0.0000 0.0000 0.0000 0.0000 0.0000 17.1082
#
#
#
# Elastic Compliance Matrix: (Units=1/GPa)
#
#
# Indices 1 2 3 4 5 6 
#
# 1 0.015005 -0.001822 -0.002596 0.000000 0.000000 0.000000
# 2 -0.001822 0.014506 -0.005151 0.000000 0.000000 0.000000
# 3 -0.002596 -0.005151 0.013777 0.000000 0.000000 0.000000
# 4 0.000000 0.000000 0.000000 0.064464 0.000000 0.000000
# 5 0.000000 0.000000 0.000000 0.000000 0.028131 0.000000
# 6 0.000000 0.000000 0.000000 0.000000 0.000000 0.058452
#
#
# Mechanical properties :
#
#
# Convention : Reuss Voigt Hill
#
# Bulk Modulus (GPa) = 41.40664 42.56806 41.98735
# Shear Modulus (GPa) = 22.57122 25.26300 23.91711
#
# Velocity S-wave (km/s) = 3.44407 3.64365 3.54527
# Velocity P-wave (km/s) = 6.12988 6.33024 6.23087
#
# Compressibility (1/GPa) = 0.02415072
#
# Stress axis : x y z
#
# Youngs Moduli (GPa) = 66.64623 68.93752 72.58490
#
# Poissons Ratio (x) = 0.12557 0.18845
# Poissons Ratio (y) = 0.12140 0.37386
# Poissons Ratio (z) = 0.17303 0.35507
#
# Static dielectric constant tensor:
#      x y z
#    x 1.671900 0.000000 0.000000 
#    y 0.000000 1.627920 0.000000 
#    z 0.000000 0.000000 1.698350 
# 
# From -- ./inp_files/23292.got.cif
#   From: 2010.05.17/outbox.cif.g08.bks.cpg/sg58_12_cif.got.tgz:23292.got - 2010.06.03 14:20:14.
