data_PCOD9445454
_publ_section_title
;
Structure prediction by ZEFSAII (Michael W. Deem and Ramdas Pophale) SiO2 
 PCOD9445454
Probable space group: P N N M
;
_chemical_formula_sum "Si O2"
_cell_formula_units_Z 40
_cell_length_a 5.370365
_cell_length_b 11.937252
_cell_length_c 28.155075
_cell_angle_alpha 90.000000
_cell_angle_beta 90.000000
_cell_angle_gamma 90.000000
_cell_volume 1804.948665
_symmetry_space_group_name_H-M "P N N M"
_symmetry_group_IT_number 58
_symmetry_cell_setting 'orthorhombic'
loop_
_space_group_symop_operation_xyz
x,y,z
-x,-y,z
1/2+x,1/2-y,1/2-z
1/2-x,1/2+y,1/2-z
-x,-y,-z
x,y,-z
1/2-x,1/2+y,1/2+z
1/2+x,1/2-y,1/2+z
loop_
_atom_site_type_symbol
_atom_site_label
_atom_site_fract_x
_atom_site_fract_y
_atom_site_fract_z
Si Si1 0.000000 0.000000 0.322066
Si Si2 0.495964 0.722481 0.223924
Si Si3 0.104220 0.387040 0.105991
Si Si4 0.500000 0.500000 0.612496
Si Si5 0.282366 0.797219 0.866328
Si Si6 0.660332 0.823975 0.055931
O O1 0.798153 0.061395 0.355897
O O2 0.093843 0.097148 0.287642
O O3 0.769930 0.724695 0.246045
O O4 0.496015 0.782356 0.172429
O O5 0.223485 0.296524 0.070594
O O6 0.000000 0.500000 0.081918
O O7 0.888887 0.313035 0.131154
O O8 0.632031 0.591713 0.645034
O O9 0.682979 0.424490 0.579931
O O10 0.394194 0.819699 0.918268
O O11 0.646682 0.838130 0.000000
#
# Coordination Sequence:
#
# PCOD9445454 Si02
#       6
#     4   8   8   4   8   8
#     4  12  24  49  73 101 148 195 229 309 378 440
#     4  12  28  47  75 111 144 194 253 303 369 444
#     4  11  21  42  75  99 139 194 231 294 378 432
#     4  10  25  43  70  99 146 189 240 301 377 424
#     4  11  24  45  69 101 147 185 240 305 364 439
#     4  11  24  44  71 104 141 189 245 297 367 448
#
# _framework density 22.161294999999999
#
# number of rings (size 3 to 8) (size 9 to 14) (size 15 to 20)
#    0.000    0.800    4.000    2.100    2.800    6.000 
#    3.600    3.500    0.000    0.000    0.000    0.000 
#    0.000    0.000    0.000    0.000    0.000    0.000 
#
# Total GULP energy -223493.644921 kJ/mol
# GULP energy per Si atom -5587.341123 kJ/mol
# Density = 2.211085 g / cm^3
# Si number density = 22.161295 Si / 1000 Ang^3
#
#
#
# Elastic Constant Matrix: (Units=GPa)
#
#
# Indices 1 2 3 4 5 6 
#
# 1 60.1413 19.4325 -9.6446 0.0000 0.0000 0.0000
# 2 19.4325 158.8736 3.4174 0.0000 0.0000 0.0000
# 3 -9.6446 3.4174 42.1746 0.0000 0.0000 0.0000
# 4 0.0000 0.0000 0.0000 19.1347 0.0000 0.0000
# 5 0.0000 0.0000 0.0000 0.0000 17.8588 0.0000
# 6 0.0000 0.0000 0.0000 0.0000 0.0000 43.0791
#
#
#
# Elastic Compliance Matrix: (Units=1/GPa)
#
#
# Indices 1 2 3 4 5 6 
#
# 1 0.018064 -0.002302 0.004317 0.000000 0.000000 0.000000
# 2 -0.002302 0.006599 -0.001061 0.000000 0.000000 0.000000
# 3 0.004317 -0.001061 0.024784 0.000000 0.000000 0.000000
# 4 0.000000 0.000000 0.000000 0.052261 0.000000 0.000000
# 5 0.000000 0.000000 0.000000 0.000000 0.055995 0.000000
# 6 0.000000 0.000000 0.000000 0.000000 0.000000 0.023213
#
#
# Mechanical properties :
#
#
# Convention : Reuss Voigt Hill
#
# Bulk Modulus (GPa) = 19.47244 31.95555 25.71399
# Shear Modulus (GPa) = 25.49380 32.54681 29.02030
#
# Velocity S-wave (km/s) = 3.39540 3.83643 3.62263
# Velocity P-wave (km/s) = 4.91705 5.83739 5.39687
#
# Compressibility (1/GPa) = 0.05135464
#
# Stress axis : x y z
#
# Youngs Moduli (GPa) = 55.35934 151.54397 40.34820
#
# Poissons Ratio (x) = 0.34890 -0.17420
# Poissons Ratio (y) = 0.12746 0.04282
# Poissons Ratio (z) = -0.23901 0.16082
#
# Static dielectric constant tensor:
#      x y z
#    x 1.931330 0.000000 0.000000 
#    y 0.000000 1.824890 0.000000 
#    z 0.000000 0.000000 1.787570 
# 
# From -- ./inp_files/32695.got.cif
#   From: 2010.05.17/outbox.cif.g08.bks.cpg/sg58_17_cif.got.tgz:32695.got - 2010.06.03 14:20:14.
