data_PCOD9445619
_publ_section_title
;
Structure prediction by ZEFSAII (Michael W. Deem and Ramdas Pophale) SiO2 
 PCOD9445619
Probable space group: P N N M
;
_chemical_formula_sum "Si O2"
_cell_formula_units_Z 48
_cell_length_a 22.787683
_cell_length_b 11.993321
_cell_length_c 9.076597
_cell_angle_alpha 90.000000
_cell_angle_beta 90.000000
_cell_angle_gamma 90.000000
_cell_volume 2480.633933
_symmetry_space_group_name_H-M "P N N M"
_symmetry_group_IT_number 58
_symmetry_cell_setting 'orthorhombic'
loop_
_space_group_symop_operation_xyz
x,y,z
-x,-y,z
1/2+x,1/2-y,1/2-z
1/2-x,1/2+y,1/2-z
-x,-y,-z
x,y,-z
1/2-x,1/2+y,1/2+z
1/2+x,1/2-y,1/2+z
loop_
_atom_site_type_symbol
_atom_site_label
_atom_site_fract_x
_atom_site_fract_y
_atom_site_fract_z
Si Si1 0.638336 0.075924 0.173901
Si Si2 0.147705 0.658741 0.171581
Si Si3 0.771874 0.141415 0.175526
Si Si4 0.918019 0.775880 0.175172
Si Si5 0.050480 0.849788 0.829051
Si Si6 0.865016 0.982596 0.325083
O O1 0.703378 0.125698 0.200715
O O2 0.593163 0.153556 0.260866
O O3 0.639416 0.949902 0.231395
O O4 0.626570 0.079915 0.000000
O O5 0.202508 0.737212 0.216523
O O6 0.091792 0.740957 0.181342
O O7 0.155250 0.626424 0.000000
O O8 0.809044 0.048179 0.260882
O O9 0.783796 0.128631 0.000000
O O10 0.984116 0.817521 0.205670
O O11 0.874172 0.862229 0.253183
O O12 0.909381 0.776942 0.000000
O O13 0.079334 0.942744 0.726259
O O14 0.053339 0.889167 0.000000
O O15 0.861606 0.974327 0.500000
#
# Coordination Sequence:
#
# PCOD9445619 Si02
#       6
#     8   8   8   8   8   8
#     4  11  24  39  57  88 121 152 194 245 295 343
#     4   9  19  39  62  82 110 153 199 238 285 347
#     4   9  21  41  61  82 115 157 197 237 288 354
#     4  11  23  39  60  86 118 158 200 239 289 352
#     4   9  20  40  63  85 115 158 202 239 285 352
#     4  11  22  36  60  92 121 151 193 246 300 344
#
# _framework density 19.349892000000001
#
# number of rings (size 3 to 8) (size 9 to 14) (size 15 to 20)
#    0.000    2.000    0.000    4.000    2.333    8.000 
#    0.000    3.333    0.000    0.000    0.000    0.000 
#    0.000    0.000    0.000    0.000    0.000    0.000 
#
# Total GULP energy -268287.096166 kJ/mol
# GULP energy per Si atom -5589.314503 kJ/mol
# Density = 1.930585 g / cm^3
# Si number density = 19.349892 Si / 1000 Ang^3
#
#
#
# Elastic Constant Matrix: (Units=GPa)
#
#
# Indices 1 2 3 4 5 6 
#
# 1 31.3972 -1.2207 21.6537 0.0000 0.0000 0.0000
# 2 -1.2207 77.1891 27.3657 0.0000 0.0000 0.0000
# 3 21.6537 27.3657 57.6140 0.0000 0.0000 0.0000
# 4 0.0000 0.0000 0.0000 26.2573 0.0000 0.0000
# 5 0.0000 0.0000 0.0000 0.0000 41.9077 0.0000
# 6 0.0000 0.0000 0.0000 0.0000 0.0000 6.2902
#
#
#
# Elastic Compliance Matrix: (Units=1/GPa)
#
#
# Indices 1 2 3 4 5 6 
#
# 1 0.047178 0.008456 -0.021748 0.000000 0.000000 0.000000
# 2 0.008456 0.017094 -0.011298 0.000000 0.000000 0.000000
# 3 -0.021748 -0.011298 0.030897 0.000000 0.000000 0.000000
# 4 0.000000 0.000000 0.000000 0.038085 0.000000 0.000000
# 5 0.000000 0.000000 0.000000 0.000000 0.023862 0.000000
# 6 0.000000 0.000000 0.000000 0.000000 0.000000 0.158978
#
#
# Mechanical properties :
#
#
# Convention : Reuss Voigt Hill
#
# Bulk Modulus (GPa) = 21.74379 29.08866 25.41622
# Shear Modulus (GPa) = 13.13707 22.78447 17.96077
#
# Velocity S-wave (km/s) = 2.60844 3.43519 3.04996
# Velocity P-wave (km/s) = 4.50927 5.54975 5.05634
#
# Compressibility (1/GPa) = 0.04599014
#
# Stress axis : x y z
#
# Youngs Moduli (GPa) = 21.19649 58.49904 32.36574
#
# Poissons Ratio (x) = -0.49469 0.70389
# Poissons Ratio (y) = -0.17924 0.36566
# Poissons Ratio (z) = 0.46098 0.66091
#
# Static dielectric constant tensor:
#      x y z
#    x 1.677600 0.000000 0.000000 
#    y 0.000000 1.662350 0.000000 
#    z 0.000000 0.000000 1.642050 
# 
# From -- ./inp_files/9730.got.cif
#   From: 2010.05.17/outbox.cif.g08.bks.cpg/sg58_5_cif.got.tgz:9730.got - 2010.06.03 14:20:14.
