data_PCOD9445343
_publ_section_title
;
Structure prediction by ZEFSAII (Michael W. Deem and Ramdas Pophale) SiO2 
 PCOD9445343
Probable space group: P N N M
;
_chemical_formula_sum "Si O2"
_cell_formula_units_Z 56
_cell_length_a 9.882266
_cell_length_b 14.878766
_cell_length_c 19.699261
_cell_angle_alpha 90.000000
_cell_angle_beta 90.000000
_cell_angle_gamma 90.000000
_cell_volume 2896.499031
_symmetry_space_group_name_H-M "P N N M"
_symmetry_group_IT_number 58
_symmetry_cell_setting 'orthorhombic'
loop_
_space_group_symop_operation_xyz
x,y,z
-x,-y,z
1/2+x,1/2-y,1/2-z
1/2-x,1/2+y,1/2-z
-x,-y,-z
x,y,-z
1/2-x,1/2+y,1/2+z
1/2+x,1/2-y,1/2+z
loop_
_atom_site_type_symbol
_atom_site_label
_atom_site_fract_x
_atom_site_fract_y
_atom_site_fract_z
Si Si1 0.098711 0.921290 0.765062
Si Si2 0.247863 0.281918 0.925735
Si Si3 0.985096 0.734053 0.821480
Si Si4 0.144329 0.970312 0.390744
Si Si5 0.955217 0.697241 0.576820
Si Si6 0.088616 0.413407 0.708328
Si Si7 0.717755 0.843667 0.418997
O O1 0.041996 0.825251 0.788499
O O2 0.107149 0.932340 0.683691
O O3 0.252197 0.933076 0.788738
O O4 0.000000 0.000000 0.790425
O O5 0.273986 0.388940 0.923837
O O6 0.396142 0.239704 0.918459
O O7 0.149614 0.251719 0.865944
O O8 0.192235 0.257077 0.000000
O O9 0.095318 0.692910 0.873425
O O10 0.948435 0.664123 0.762228
O O11 0.235046 0.059390 0.391685
O O12 0.000000 0.000000 0.422378
O O13 0.935122 0.663725 0.500000
O O14 0.942426 0.622346 0.633493
O O15 0.843461 0.774810 0.588781
O O16 0.000000 0.500000 0.724833
O O17 0.686889 0.849653 0.500000
#
# Coordination Sequence:
#
# PCOD9445343 Si02
#       7
#     8   8   8   8   8   8   8
#     4  11  26  44  67  97 134 175 224 283 338 397
#     4  11  23  40  64  98 137 176 221 271 332 406
#     4  12  26  43  67  99 137 178 220 275 343 400
#     4  11  21  39  65  98 133 173 224 274 330 402
#     4  10  23  43  68  96 128 178 223 270 333 397
#     4  12  26  43  69  99 132 174 225 280 328 403
#     4  11  23  41  69  99 139 181 219 275 343 410
#
# _framework density 19.333684000000002
#
# number of rings (size 3 to 8) (size 9 to 14) (size 15 to 20)
#    0.000    0.857    4.286    2.571    4.000    0.857 
#    0.000    1.429    0.000    2.143    0.000    0.000 
#    0.000    0.000    0.000    0.000    0.000    0.000 
#
# Total GULP energy -313088.240237 kJ/mol
# GULP energy per Si atom -5590.861433 kJ/mol
# Density = 1.928968 g / cm^3
# Si number density = 19.333684 Si / 1000 Ang^3
#
#
#
# Elastic Constant Matrix: (Units=GPa)
#
#
# Indices 1 2 3 4 5 6 
#
# 1 109.1070 46.8832 40.1652 0.0000 0.0000 0.0000
# 2 46.8832 90.5636 33.2155 0.0000 0.0000 0.0000
# 3 40.1652 33.2155 99.2855 0.0000 0.0000 0.0000
# 4 0.0000 0.0000 0.0000 3.4811 0.0000 0.0000
# 5 0.0000 0.0000 0.0000 0.0000 135.1794 0.0000
# 6 0.0000 0.0000 0.0000 0.0000 0.0000 31.2267
#
#
#
# Elastic Compliance Matrix: (Units=1/GPa)
#
#
# Indices 1 2 3 4 5 6 
#
# 1 0.012694 -0.005344 -0.003347 0.000000 0.000000 0.000000
# 2 -0.005344 0.014836 -0.002802 0.000000 0.000000 0.000000
# 3 -0.003347 -0.002802 0.012363 0.000000 0.000000 0.000000
# 4 0.000000 0.000000 0.000000 0.287263 0.000000 0.000000
# 5 0.000000 0.000000 0.000000 0.000000 0.007398 0.000000
# 6 0.000000 0.000000 0.000000 0.000000 0.000000 0.032024
#
#
# Mechanical properties :
#
#
# Convention : Reuss Voigt Hill
#
# Bulk Modulus (GPa) = 59.14466 59.94266 59.54366
# Shear Modulus (GPa) = 12.65188 45.89025 29.27107
#
# Velocity S-wave (km/s) = 2.56089 4.87724 3.89523
# Velocity P-wave (km/s) = 6.27711 7.92390 7.14809
#
# Compressibility (1/GPa) = 0.01690770
#
# Stress axis : x y z
#
# Youngs Moduli (GPa) = 78.77891 67.40477 80.88391
#
# Poissons Ratio (x) = 0.36018 0.27076
# Poissons Ratio (y) = 0.42096 0.22660
# Poissons Ratio (z) = 0.26371 0.18884
#
# Static dielectric constant tensor:
#      x y z
#    x 1.681240 0.000000 0.000000 
#    y 0.000000 1.653290 0.000000 
#    z 0.000000 0.000000 1.701310 
# 
# From -- ./inp_files/28932.got.cif
#   From: 2010.05.17/outbox.cif.g08.bks.cpg/sg58_15_cif.got.tgz:28932.got - 2010.06.03 14:20:14.
