data_PCOD9445527
_publ_section_title
;
Structure prediction by ZEFSAII (Michael W. Deem and Ramdas Pophale) SiO2 
 PCOD9445527
Probable space group: P N N M
;
_chemical_formula_sum "Si O2"
_cell_formula_units_Z 56
_cell_length_a 15.836824
_cell_length_b 20.975861
_cell_length_c 8.970488
_cell_angle_alpha 90.000000
_cell_angle_beta 90.000000
_cell_angle_gamma 90.000000
_cell_volume 2979.915549
_symmetry_space_group_name_H-M "P N N M"
_symmetry_group_IT_number 58
_symmetry_cell_setting 'orthorhombic'
loop_
_space_group_symop_operation_xyz
x,y,z
-x,-y,z
1/2+x,1/2-y,1/2-z
1/2-x,1/2+y,1/2-z
-x,-y,-z
x,y,-z
1/2-x,1/2+y,1/2+z
1/2+x,1/2-y,1/2+z
loop_
_atom_site_type_symbol
_atom_site_label
_atom_site_fract_x
_atom_site_fract_y
_atom_site_fract_z
Si Si1 0.803839 0.333600 0.318765
Si Si2 0.368073 0.474085 0.169163
Si Si3 0.292985 0.017367 0.174893
Si Si4 0.937810 0.559648 0.832466
Si Si5 0.026098 0.104663 0.668717
Si Si6 0.005506 0.683889 0.678224
Si Si7 0.378412 0.715256 0.676836
O O1 0.802077 0.333557 0.500000
O O2 0.797496 0.408485 0.272775
O O3 0.718996 0.295886 0.270603
O O4 0.895982 0.306574 0.273469
O O5 0.298181 0.488546 0.290239
O O6 0.423811 0.538226 0.164393
O O7 0.429947 0.415134 0.202276
O O8 0.333487 0.465590 0.000000
O O9 0.355242 0.970734 0.261192
O O10 0.312721 0.017395 0.000000
O O11 0.979054 0.613664 0.731211
O O12 0.000000 0.500000 0.841320
O O13 0.923107 0.584682 0.000000
O O14 0.029206 0.132193 0.500000
O O15 0.071440 0.150663 0.783290
O O16 0.003593 0.688708 0.500000
O O17 0.935264 0.730674 0.746470
O O18 0.376293 0.726086 0.500000
#
# Coordination Sequence:
#
# PCOD9445527 Si02
#       7
#     8   8   8   8   8   8   8
#     4   9  20  38  62  87 116 154 196 241 301 359
#     4   9  18  33  54  84 120 155 196 245 295 350
#     4  11  20  35  60  89 117 153 196 240 296 359
#     4  11  23  39  61  91 121 151 189 246 308 355
#     4   9  18  34  56  83 117 158 197 240 299 357
#     4  11  23  43  65  87 117 159 203 248 304 367
#     4  11  22  40  62  89 121 158 205 256 303 358
#
# _framework density 18.792477999999999
#
# number of rings (size 3 to 8) (size 9 to 14) (size 15 to 20)
#    0.000    1.857    2.857    2.571    0.000    1.143 
#    2.571    4.286    0.000    0.000    0.000    0.000 
#    0.000    0.000    0.000    0.000    0.000    0.000 
#
# Total GULP energy -312207.691144 kJ/mol
# GULP energy per Si atom -5575.137342 kJ/mol
# Density = 1.874971 g / cm^3
# Si number density = 18.792478 Si / 1000 Ang^3
#
#
#
# Elastic Constant Matrix: (Units=GPa)
#
#
# Indices 1 2 3 4 5 6 
#
# 1 126.7991 50.7718 35.6928 0.0000 0.0000 0.0000
# 2 50.7718 62.3279 19.8232 0.0000 0.0000 0.0000
# 3 35.6928 19.8232 48.7881 0.0000 0.0000 0.0000
# 4 0.0000 0.0000 0.0000 30.9003 0.0000 0.0000
# 5 0.0000 0.0000 0.0000 0.0000 27.4342 0.0000
# 6 0.0000 0.0000 0.0000 0.0000 0.0000 26.1352
#
#
#
# Elastic Compliance Matrix: (Units=1/GPa)
#
#
# Indices 1 2 3 4 5 6 
#
# 1 0.013081 -0.008741 -0.006018 0.000000 0.000000 0.000000
# 2 -0.008741 0.024267 -0.003465 0.000000 0.000000 0.000000
# 3 -0.006018 -0.003465 0.026307 0.000000 0.000000 0.000000
# 4 0.000000 0.000000 0.000000 0.032362 0.000000 0.000000
# 5 0.000000 0.000000 0.000000 0.000000 0.036451 0.000000
# 6 0.000000 0.000000 0.000000 0.000000 0.000000 0.038263
#
#
# Mechanical properties :
#
#
# Convention : Reuss Voigt Hill
#
# Bulk Modulus (GPa) = 36.75595 50.05451 43.40523
# Shear Modulus (GPa) = 23.12168 25.66909 24.39538
#
# Velocity S-wave (km/s) = 3.51147 3.69985 3.60689
# Velocity P-wave (km/s) = 6.00349 6.70411 6.36345
#
# Compressibility (1/GPa) = 0.02720648
#
# Stress axis : x y z
#
# Youngs Moduli (GPa) = 76.44890 41.20849 38.01244
#
# Poissons Ratio (x) = 0.36022 0.22875
# Poissons Ratio (y) = 0.66827 0.13171
# Poissons Ratio (z) = 0.46006 0.14278
#
# Static dielectric constant tensor:
#      x y z
#    x 1.657640 0.000000 0.000000 
#    y 0.000000 1.634930 0.000000 
#    z 0.000000 0.000000 1.653570 
# 
# From -- ./inp_files/6339.got.cif
#   From: 2010.05.17/outbox.cif.g08.bks.cpg/sg58_4_cif.got.tgz:6339.got - 2010.06.03 14:20:14.
