data_PCOD9445430
_publ_section_title
;
Structure prediction by ZEFSAII (Michael W. Deem and Ramdas Pophale) SiO2 
 PCOD9445430
Probable space group: P N N M
;
_chemical_formula_sum "Si O2"
_cell_formula_units_Z 34
_cell_length_a 9.539584
_cell_length_b 19.121766
_cell_length_c 7.645719
_cell_angle_alpha 90.000000
_cell_angle_beta 90.000000
_cell_angle_gamma 90.000000
_cell_volume 1394.683838
_symmetry_space_group_name_H-M "P N N M"
_symmetry_group_IT_number 58
_symmetry_cell_setting 'orthorhombic'
loop_
_space_group_symop_operation_xyz
x,y,z
-x,-y,z
1/2+x,1/2-y,1/2-z
1/2-x,1/2+y,1/2-z
-x,-y,-z
x,y,-z
1/2-x,1/2+y,1/2+z
1/2+x,1/2-y,1/2+z
loop_
_atom_site_type_symbol
_atom_site_label
_atom_site_fract_x
_atom_site_fract_y
_atom_site_fract_z
Si Si1 0.500000 0.500000 0.500000
Si Si2 0.803670 0.342683 0.293522
Si Si3 0.979601 0.768289 0.790830
Si Si4 0.652185 0.998445 0.700956
Si Si5 0.091089 0.910907 0.704254
O O1 0.481651 0.559254 0.655943
O O2 0.788419 0.353624 0.500000
O O3 0.952969 0.304913 0.263704
O O4 0.675323 0.292903 0.231171
O O5 0.801372 0.418105 0.203886
O O6 0.084705 0.828049 0.719964
O O7 0.978820 0.769023 0.000000
O O8 0.636333 0.022243 0.500000
O O9 0.500000 0.000000 0.787337
O O10 0.767493 0.051591 0.773665
O O11 0.068328 0.929244 0.500000
#
# Coordination Sequence:
#
# PCOD9445430 Si02
#       5
#     2   8   8   8   8
#     4  12  22  40  66 102 136 172 232 284 338 410
#     4  11  26  44  69 102 136 183 232 285 349 419
#     4  11  25  46  71 100 141 182 233 291 350 416
#     4  10  24  45  70 101 139 181 231 290 352 414
#     4  11  24  42  71 101 138 182 229 288 349 412
#
# _framework density 24.378287
#
# number of rings (size 3 to 8) (size 9 to 14) (size 15 to 20)
#    0.000    1.176    1.176    3.176    8.235    6.118 
#    0.000    0.000    0.000    0.000    0.000    0.000 
#    0.000    0.000    0.000    0.000    0.000    0.000 
#
# Total GULP energy -189637.911690 kJ/mol
# GULP energy per Si atom -5577.585638 kJ/mol
# Density = 2.432280 g / cm^3
# Si number density = 24.378287 Si / 1000 Ang^3
#
#
#
# Elastic Constant Matrix: (Units=GPa)
#
#
# Indices 1 2 3 4 5 6 
#
# 1 112.6694 5.5218 4.5325 0.0000 0.0000 0.0000
# 2 5.5218 35.1823 -3.3620 0.0000 0.0000 0.0000
# 3 4.5325 -3.3620 118.7600 0.0000 0.0000 0.0000
# 4 0.0000 0.0000 0.0000 38.1347 0.0000 0.0000
# 5 0.0000 0.0000 0.0000 0.0000 10.1489 0.0000
# 6 0.0000 0.0000 0.0000 0.0000 0.0000 49.0676
#
#
#
# Elastic Compliance Matrix: (Units=1/GPa)
#
#
# Indices 1 2 3 4 5 6 
#
# 1 0.008962 -0.001443 -0.000383 0.000000 0.000000 0.000000
# 2 -0.001443 0.028733 0.000868 0.000000 0.000000 0.000000
# 3 -0.000383 0.000868 0.008460 0.000000 0.000000 0.000000
# 4 0.000000 0.000000 0.000000 0.026223 0.000000 0.000000
# 5 0.000000 0.000000 0.000000 0.000000 0.098533 0.000000
# 6 0.000000 0.000000 0.000000 0.000000 0.000000 0.020380
#
#
# Mechanical properties :
#
#
# Convention : Reuss Voigt Hill
#
# Bulk Modulus (GPa) = 22.60447 31.11070 26.85759
# Shear Modulus (GPa) = 24.04408 36.79819 30.42114
#
# Velocity S-wave (km/s) = 3.14393 3.88940 3.53636
# Velocity P-wave (km/s) = 4.74042 5.74101 5.26454
#
# Compressibility (1/GPa) = 0.04423904
#
# Stress axis : x y z
#
# Youngs Moduli (GPa) = 111.58652 34.80335 118.20974
#
# Poissons Ratio (x) = 0.05023 0.04526
# Poissons Ratio (y) = 0.16103 -0.10266
# Poissons Ratio (z) = 0.04272 -0.03023
#
# Static dielectric constant tensor:
#      x y z
#    x 2.150840 0.000000 0.000000 
#    y 0.000000 1.986640 0.000000 
#    z 0.000000 0.000000 1.903260 
# 
# From -- ./inp_files/2297.got.cif
#   From: 2010.05.17/outbox.cif.g08.bks.cpg/sg58_2_cif.got.tgz:2297.got - 2010.06.03 14:20:14.
