data_PCOD9445752
_publ_section_title
;
Structure prediction by ZEFSAII (Michael W. Deem and Ramdas Pophale) SiO2 
 PCOD9445752
Probable space group: P N N M
;
_chemical_formula_sum "Si O2"
_cell_formula_units_Z 48
_cell_length_a 9.791954
_cell_length_b 22.929220
_cell_length_c 11.221140
_cell_angle_alpha 90.000000
_cell_angle_beta 90.000000
_cell_angle_gamma 90.000000
_cell_volume 2519.391308
_symmetry_space_group_name_H-M "P N N M"
_symmetry_group_IT_number 58
_symmetry_cell_setting 'orthorhombic'
loop_
_space_group_symop_operation_xyz
x,y,z
-x,-y,z
1/2+x,1/2-y,1/2-z
1/2-x,1/2+y,1/2-z
-x,-y,-z
x,y,-z
1/2-x,1/2+y,1/2+z
1/2+x,1/2-y,1/2+z
loop_
_atom_site_type_symbol
_atom_site_label
_atom_site_fract_x
_atom_site_fract_y
_atom_site_fract_z
Si Si1 0.801726 0.271878 0.641958
Si Si2 0.071313 0.148456 0.134498
Si Si3 0.522706 0.134137 0.859206
Si Si4 0.160773 0.984768 0.631663
Si Si5 0.786955 0.457753 0.365106
Si Si6 0.697492 0.638745 0.216181
O O1 0.796915 0.282488 0.500000
O O2 0.661499 0.299755 0.691389
O O3 0.810191 0.203762 0.664333
O O4 0.928299 0.311614 0.683883
O O5 0.173291 0.093528 0.130802
O O6 0.934139 0.133233 0.200259
O O7 0.034458 0.165102 0.000000
O O8 0.430721 0.075702 0.847891
O O9 0.661795 0.132254 0.787470
O O10 0.550442 0.141787 0.000000
O O11 0.199946 0.009190 0.500000
O O12 0.182654 0.915476 0.628539
O O13 0.244632 0.005907 0.748385
O O14 0.000000 0.000000 0.649142
O O15 0.786770 0.485188 0.500000
#
# Coordination Sequence:
#
# PCOD9445752 Si02
#       6
#     8   8   8   8   8   8
#     4   9  19  36  54  78 114 154 187 236 299 352
#     4   9  18  33  56  81 107 139 189 242 284 334
#     4   9  20  37  59  87 119 145 189 254 305 340
#     4  11  24  40  57  86 123 157 195 243 290 347
#     4   9  19  40  62  83 112 155 194 237 292 343
#     4  12  20  33  57  86 111 153 194 235 286 353
#
# _framework density 19.052219999999998
#
# number of rings (size 3 to 8) (size 9 to 14) (size 15 to 20)
#    0.000    2.167    1.667    4.000    0.000    2.333 
#    0.000    4.167    0.000    4.000    0.000    0.000 
#    0.000    0.000    0.000    0.000    0.000    0.000 
#
# Total GULP energy -267568.552241 kJ/mol
# GULP energy per Si atom -5574.344838 kJ/mol
# Density = 1.900886 g / cm^3
# Si number density = 19.052220 Si / 1000 Ang^3
#
#
#
# Elastic Constant Matrix: (Units=GPa)
#
#
# Indices 1 2 3 4 5 6 
#
# 1 118.4622 18.5236 42.2747 0.0000 0.0000 0.0000
# 2 18.5236 83.3541 38.6839 0.0000 0.0000 0.0000
# 3 42.2747 38.6839 82.1872 0.0000 0.0000 0.0000
# 4 0.0000 0.0000 0.0000 32.2127 0.0000 0.0000
# 5 0.0000 0.0000 0.0000 0.0000 21.0607 0.0000
# 6 0.0000 0.0000 0.0000 0.0000 0.0000 16.2193
#
#
#
# Elastic Compliance Matrix: (Units=1/GPa)
#
#
# Indices 1 2 3 4 5 6 
#
# 1 0.010343 0.000218 -0.005423 0.000000 0.000000 0.000000
# 2 0.000218 0.015355 -0.007339 0.000000 0.000000 0.000000
# 3 -0.005423 -0.007339 0.018411 0.000000 0.000000 0.000000
# 4 0.000000 0.000000 0.000000 0.031044 0.000000 0.000000
# 5 0.000000 0.000000 0.000000 0.000000 0.047482 0.000000
# 6 0.000000 0.000000 0.000000 0.000000 0.000000 0.061655
#
#
# Mechanical properties :
#
#
# Convention : Reuss Voigt Hill
#
# Bulk Modulus (GPa) = 52.57430 53.66309 53.11869
# Shear Modulus (GPa) = 23.17860 26.19998 24.68929
#
# Velocity S-wave (km/s) = 3.49174 3.71235 3.60373
# Velocity P-wave (km/s) = 6.62654 6.82663 6.72733
#
# Compressibility (1/GPa) = 0.01902070
#
# Stress axis : x y z
#
# Youngs Moduli (GPa) = 96.68838 65.12690 54.31526
#
# Poissons Ratio (x) = -0.01421 0.29453
# Poissons Ratio (y) = -0.02109 0.39864
# Poissons Ratio (z) = 0.52430 0.47799
#
# Static dielectric constant tensor:
#      x y z
#    x 1.654280 0.000000 0.000000 
#    y 0.000000 1.699650 0.000000 
#    z 0.000000 0.000000 1.660070 
# 
# From -- ./inp_files/13046.got.cif
#   From: 2010.05.17/outbox.cif.g08.bks.cpg/sg58_7_cif.got.tgz:13046.got - 2010.06.03 14:20:14.
