data_PCOD9445199
_publ_section_title
;
Structure prediction by ZEFSAII (Michael W. Deem and Ramdas Pophale) SiO2 
 PCOD9445199
Probable space group: P N N M
;
_chemical_formula_sum "Si O2"
_cell_formula_units_Z 38
_cell_length_a 12.363761
_cell_length_b 9.262434
_cell_length_c 13.605120
_cell_angle_alpha 90.000000
_cell_angle_beta 90.000000
_cell_angle_gamma 90.000000
_cell_volume 1558.038210
_symmetry_space_group_name_H-M "P N N M"
_symmetry_group_IT_number 58
_symmetry_cell_setting 'orthorhombic'
loop_
_space_group_symop_operation_xyz
x,y,z
-x,-y,z
1/2+x,1/2-y,1/2-z
1/2-x,1/2+y,1/2-z
-x,-y,-z
x,y,-z
1/2-x,1/2+y,1/2+z
1/2+x,1/2-y,1/2+z
loop_
_atom_site_type_symbol
_atom_site_label
_atom_site_fract_x
_atom_site_fract_y
_atom_site_fract_z
Si Si1 0.452541 0.860274 0.674184
Si Si2 0.708965 0.045378 0.500000
Si Si3 0.839248 0.205496 0.176522
Si Si4 0.682620 0.230570 0.000000
Si Si5 0.266959 0.148835 0.000000
Si Si6 0.000000 0.500000 0.500000
Si Si7 0.683175 0.391686 0.287509
O O1 0.371404 0.928502 0.593388
O O2 0.550712 0.765684 0.629632
O O3 0.395897 0.739787 0.740799
O O4 0.500000 0.000000 0.729461
O O5 0.787817 0.180800 0.500000
O O6 0.781148 0.901451 0.500000
O O7 0.748970 0.177574 0.095108
O O8 0.795487 0.335615 0.243870
O O9 0.850302 0.054846 0.235647
O O10 0.562176 0.166798 0.000000
O O11 0.379714 0.068463 0.000000
O O12 0.194449 0.117997 0.904622
#
# Coordination Sequence:
#
# PCOD9445199 Si02
#       7
#     8   4   8   4   4   2   8
#     4  11  21  40  71 101 138 183 227 299 372 416
#     4  10  22  42  73 108 134 173 239 308 358 430
#     4  12  24  43  69 104 144 187 243 299 366 436
#     4  12  25  45  73 102 143 183 248 293 355 441
#     4  10  24  46  70  95 140 179 237 287 361 428
#     4  12  24  48  72 100 138 210 228 282 360 440
#     4  11  25  44  67 105 142 186 239 302 351 439
#
# _framework density 24.389645000000002
#
# number of rings (size 3 to 8) (size 9 to 14) (size 15 to 20)
#    0.000    0.842    4.211    2.842    2.947    2.105 
#    3.789    4.211    0.000    0.000    0.000    0.000 
#    0.000    0.000    0.000    0.000    0.000    0.000 
#
# Total GULP energy -211597.925274 kJ/mol
# GULP energy per Si atom -5568.366455 kJ/mol
# Density = 2.433413 g / cm^3
# Si number density = 24.389645 Si / 1000 Ang^3
#
#
#
# Elastic Constant Matrix: (Units=GPa)
#
#
# Indices 1 2 3 4 5 6 
#
# 1 110.8391 46.7651 2.8789 0.0000 0.0000 0.0000
# 2 46.7651 235.7694 -3.9253 0.0000 0.0000 0.0000
# 3 2.8789 -3.9253 46.5972 0.0000 0.0000 0.0000
# 4 0.0000 0.0000 0.0000 13.6998 0.0000 0.0000
# 5 0.0000 0.0000 0.0000 0.0000 10.6523 0.0000
# 6 0.0000 0.0000 0.0000 0.0000 0.0000 67.4982
#
#
#
# Elastic Compliance Matrix: (Units=1/GPa)
#
#
# Indices 1 2 3 4 5 6 
#
# 1 0.009874 -0.001971 -0.000776 0.000000 0.000000 0.000000
# 2 -0.001971 0.004641 0.000513 0.000000 0.000000 0.000000
# 3 -0.000776 0.000513 0.021552 0.000000 0.000000 0.000000
# 4 0.000000 0.000000 0.000000 0.072994 0.000000 0.000000
# 5 0.000000 0.000000 0.000000 0.000000 0.093876 0.000000
# 6 0.000000 0.000000 0.000000 0.000000 0.000000 0.014815
#
#
# Mechanical properties :
#
#
# Convention : Reuss Voigt Hill
#
# Bulk Modulus (GPa) = 31.64850 53.84925 42.74887
# Shear Modulus (GPa) = 21.48191 41.53587 31.50889
#
# Velocity S-wave (km/s) = 2.97101 4.13123 3.59820
# Velocity P-wave (km/s) = 4.97731 6.69946 5.90154
#
# Compressibility (1/GPa) = 0.03159708
#
# Stress axis : x y z
#
# Youngs Moduli (GPa) = 101.27567 215.47043 46.40014
#
# Poissons Ratio (x) = 0.42479 0.03601
# Poissons Ratio (y) = 0.19966 -0.02379
# Poissons Ratio (z) = 0.07860 -0.11048
#
# Static dielectric constant tensor:
#      x y z
#    x 1.966630 0.000000 0.000000 
#    y 0.000000 2.071840 0.000000 
#    z 0.000000 0.000000 1.997300 
# 
# From -- ./inp_files/25962.got.cif
#   From: 2010.05.17/outbox.cif.g08.bks.cpg/sg58_13_cif.got.tgz:25962.got - 2010.06.03 14:20:14.
