data_PCOD9445048
_publ_section_title
;
Structure prediction by ZEFSAII (Michael W. Deem and Ramdas Pophale) SiO2 
 PCOD9445048
Probable space group: P N N M
;
_chemical_formula_sum "Si O2"
_cell_formula_units_Z 64
_cell_length_a 12.188665
_cell_length_b 31.487652
_cell_length_c 8.604046
_cell_angle_alpha 90.000000
_cell_angle_beta 90.000000
_cell_angle_gamma 90.000000
_cell_volume 3302.167824
_symmetry_space_group_name_H-M "P N N M"
_symmetry_group_IT_number 58
_symmetry_cell_setting 'orthorhombic'
loop_
_space_group_symop_operation_xyz
x,y,z
-x,-y,z
1/2+x,1/2-y,1/2-z
1/2-x,1/2+y,1/2-z
-x,-y,-z
x,y,-z
1/2-x,1/2+y,1/2+z
1/2+x,1/2-y,1/2+z
loop_
_atom_site_type_symbol
_atom_site_label
_atom_site_fract_x
_atom_site_fract_y
_atom_site_fract_z
Si Si1 0.654269 0.624636 0.687815
Si Si2 0.277261 0.958102 0.684197
Si Si3 0.401103 0.625975 0.687759
Si Si4 0.702962 0.206355 0.811971
Si Si5 0.249974 0.047310 0.187668
Si Si6 0.006799 0.662989 0.186037
Si Si7 0.002084 0.569550 0.314758
Si Si8 0.754902 0.302065 0.812784
O O1 0.657155 0.622291 0.500000
O O2 0.718525 0.584034 0.752232
O O3 0.527467 0.624305 0.738260
O O4 0.714302 0.668433 0.733426
O O5 0.273812 0.957991 0.500000
O O6 0.403736 0.956896 0.740162
O O7 0.222638 0.000853 0.749411
O O8 0.399693 0.626348 0.500000
O O9 0.331862 0.584622 0.739289
O O10 0.339340 0.667849 0.745994
O O11 0.586207 0.195794 0.736987
O O12 0.742704 0.253077 0.765201
O O13 0.693325 0.205459 0.000000
O O14 0.374767 0.058161 0.237111
O O15 0.248552 0.046223 0.000000
O O16 0.983051 0.618458 0.269197
O O17 0.126922 0.679267 0.233227
O O18 0.004343 0.656944 0.000000
O O19 0.995984 0.564175 0.500000
O O20 0.749478 0.303495 0.000000
#
# Coordination Sequence:
#
# PCOD9445048 Si02
#       8
#     8   8   8   8   8   8   8   8
#     4  10  22  41  64  85 117 160 204 250 295 351
#     4  12  25  39  60  90 122 156 200 247 304 361
#     4  10  22  41  65  90 116 159 208 248 293 356
#     4  10  22  40  61  87 121 164 203 240 297 357
#     4  10  22  40  62  89 120 156 202 246 297 361
#     4  11  22  37  62  93 124 157 197 250 304 352
#     4  11  21  38  63  90 123 158 196 245 298 357
#     4  10  23  40  60  91 127 160 196 248 306 354
#
# _framework density 19.381208000000001
#
# number of rings (size 3 to 8) (size 9 to 14) (size 15 to 20)
#    0.000    1.500    2.500    2.250    1.750    5.000 
#    0.000    2.500    0.000    0.000    0.000    0.000 
#    0.000    0.000    0.000    0.000    0.000    0.000 
#
# Total GULP energy -357753.948368 kJ/mol
# GULP energy per Si atom -5589.905443 kJ/mol
# Density = 1.933710 g / cm^3
# Si number density = 19.381208 Si / 1000 Ang^3
#
#
#
# Elastic Constant Matrix: (Units=GPa)
#
#
# Indices 1 2 3 4 5 6 
#
# 1 120.1500 37.1913 19.6043 0.0000 0.0000 0.0000
# 2 37.1913 118.6435 14.8665 0.0000 0.0000 0.0000
# 3 19.6043 14.8665 11.7178 0.0000 0.0000 0.0000
# 4 0.0000 0.0000 0.0000 24.4365 0.0000 0.0000
# 5 0.0000 0.0000 0.0000 0.0000 24.3063 0.0000
# 6 0.0000 0.0000 0.0000 0.0000 0.0000 20.4143
#
#
#
# Elastic Compliance Matrix: (Units=1/GPa)
#
#
# Indices 1 2 3 4 5 6 
#
# 1 0.011651 -0.001438 -0.017667 0.000000 0.000000 0.000000
# 2 -0.001438 0.010199 -0.010534 0.000000 0.000000 0.000000
# 3 -0.017667 -0.010534 0.128263 0.000000 0.000000 0.000000
# 4 0.000000 0.000000 0.000000 0.040922 0.000000 0.000000
# 5 0.000000 0.000000 0.000000 0.000000 0.041142 0.000000
# 6 0.000000 0.000000 0.000000 0.000000 0.000000 0.048985
#
#
# Mechanical properties :
#
#
# Convention : Reuss Voigt Hill
#
# Bulk Modulus (GPa) = 11.00908 43.75951 27.38430
# Shear Modulus (GPa) = 13.48730 25.75472 19.62101
#
# Velocity S-wave (km/s) = 2.64085 3.64929 3.18523
# Velocity P-wave (km/s) = 3.87187 6.35482 5.26190
#
# Compressibility (1/GPa) = 0.09083412
#
# Stress axis : x y z
#
# Youngs Moduli (GPa) = 85.83045 98.04469 7.79650
#
# Poissons Ratio (x) = 0.14103 0.13774
# Poissons Ratio (y) = 0.12346 0.08213
# Poissons Ratio (z) = 1.51640 1.03277
#
# Static dielectric constant tensor:
#      x y z
#    x 1.661870 0.000000 0.000000 
#    y 0.000000 1.662650 0.000000 
#    z 0.000000 0.000000 1.655310 
# 
# From -- ./inp_files/4770.got.cif
#   From: 2010.05.17/outbox.cif.g08.bks.cpg/sg58_3_cif.got.tgz:4770.got - 2010.06.03 14:20:14.
