data_PCOD9445283
_publ_section_title
;
Structure prediction by ZEFSAII (Michael W. Deem and Ramdas Pophale) SiO2 
 PCOD9445283
Probable space group: P N N M
;
_chemical_formula_sum "Si O2"
_cell_formula_units_Z 48
_cell_length_a 15.591423
_cell_length_b 18.808903
_cell_length_c 7.997716
_cell_angle_alpha 90.000000
_cell_angle_beta 90.000000
_cell_angle_gamma 90.000000
_cell_volume 2345.390702
_symmetry_space_group_name_H-M "P N N M"
_symmetry_group_IT_number 58
_symmetry_cell_setting 'orthorhombic'
loop_
_space_group_symop_operation_xyz
x,y,z
-x,-y,z
1/2+x,1/2-y,1/2-z
1/2-x,1/2+y,1/2-z
-x,-y,-z
x,y,-z
1/2-x,1/2+y,1/2+z
1/2+x,1/2-y,1/2+z
loop_
_atom_site_type_symbol
_atom_site_label
_atom_site_fract_x
_atom_site_fract_y
_atom_site_fract_z
Si Si1 0.091344 0.523720 0.803029
Si Si2 0.361631 0.178654 0.806339
Si Si3 0.031170 0.229360 0.300503
Si Si4 0.637986 0.512411 0.500000
Si Si5 0.722185 0.216341 0.191315
Si Si6 0.977290 0.881229 0.000000
Si Si7 0.743486 0.565992 0.186480
O O1 0.128714 0.595190 0.724723
O O2 0.159041 0.460239 0.789763
O O3 0.000000 0.500000 0.731477
O O4 0.079357 0.539737 0.000000
O O5 0.453054 0.216023 0.769660
O O6 0.285243 0.216615 0.707243
O O7 0.342214 0.191283 0.000000
O O8 0.029038 0.209803 0.500000
O O9 0.124588 0.263395 0.266467
O O10 0.020208 0.166114 0.167671
O O11 0.557788 0.566025 0.500000
O O12 0.605859 0.431584 0.500000
O O13 0.690137 0.529908 0.332917
O O14 0.758220 0.150958 0.297561
O O15 0.722580 0.190880 0.000000
O O16 0.715512 0.544361 0.000000
#
# Coordination Sequence:
#
# PCOD9445283 Si02
#       7
#     8   8   8   4   8   4   8
#     4  10  23  41  63  94 133 175 216 265 334 402
#     4  11  24  40  65  98 131 171 217 269 330 394
#     4  10  25  43  64  99 135 166 223 277 330 392
#     4  11  26  46  65  98 128 176 231 271 331 402
#     4  11  23  41  66  95 130 173 218 272 326 392
#     4  11  26  44  72  90 129 182 220 277 338 387
#     4  11  24  42  67  96 136 174 221 274 330 396
#
# _framework density 20.465674
#
# number of rings (size 3 to 8) (size 9 to 14) (size 15 to 20)
#    0.000    1.333    0.833    3.000    8.167    3.000 
#    0.000    1.667    0.000    0.000    0.000    0.000 
#    0.000    0.000    0.000    0.000    0.000    0.000 
#
# Total GULP energy -268356.453565 kJ/mol
# GULP energy per Si atom -5590.759449 kJ/mol
# Density = 2.041909 g / cm^3
# Si number density = 20.465674 Si / 1000 Ang^3
#
#
#
# Elastic Constant Matrix: (Units=GPa)
#
#
# Indices 1 2 3 4 5 6 
#
# 1 56.0487 -10.5050 16.3107 0.0000 0.0000 0.0000
# 2 -10.5050 63.6371 3.2741 0.0000 0.0000 0.0000
# 3 16.3107 3.2741 60.6770 0.0000 0.0000 0.0000
# 4 0.0000 0.0000 0.0000 62.9008 0.0000 0.0000
# 5 0.0000 0.0000 0.0000 0.0000 15.7150 0.0000
# 6 0.0000 0.0000 0.0000 0.0000 0.0000 23.4208
#
#
#
# Elastic Compliance Matrix: (Units=1/GPa)
#
#
# Indices 1 2 3 4 5 6 
#
# 1 0.020152 0.003615 -0.005612 0.000000 0.000000 0.000000
# 2 0.003615 0.016406 -0.001857 0.000000 0.000000 0.000000
# 3 -0.005612 -0.001857 0.018090 0.000000 0.000000 0.000000
# 4 0.000000 0.000000 0.000000 0.015898 0.000000 0.000000
# 5 0.000000 0.000000 0.000000 0.000000 0.063634 0.000000
# 6 0.000000 0.000000 0.000000 0.000000 0.000000 0.042697
#
#
# Mechanical properties :
#
#
# Convention : Reuss Voigt Hill
#
# Bulk Modulus (GPa) = 21.30356 22.05804 21.68080
# Shear Modulus (GPa) = 24.97102 31.82619 28.39860
#
# Velocity S-wave (km/s) = 3.49684 3.94775 3.72912
# Velocity P-wave (km/s) = 5.17067 5.61971 5.39986
#
# Compressibility (1/GPa) = 0.04694051
#
# Stress axis : x y z
#
# Youngs Moduli (GPa) = 49.62165 60.95150 55.28039
#
# Poissons Ratio (x) = -0.22037 0.31025
# Poissons Ratio (y) = -0.17940 0.10266
# Poissons Ratio (z) = 0.27849 0.11320
#
# Static dielectric constant tensor:
#      x y z
#    x 1.740880 0.000000 0.000000 
#    y 0.000000 1.691530 0.000000 
#    z 0.000000 0.000000 1.720610 
# 
# From -- ./inp_files/5927.got.cif
#   From: 2010.05.17/outbox.cif.g08.bks.cpg/sg58_3_cif.got.tgz:5927.got - 2010.06.03 14:20:14.
