data_PCOD9445086
_publ_section_title
;
Structure prediction by ZEFSAII (Michael W. Deem and Ramdas Pophale) SiO2 
 PCOD9445086
Probable space group: P N N M
;
_chemical_formula_sum "Si O2"
_cell_formula_units_Z 64
_cell_length_a 15.639534
_cell_length_b 24.120587
_cell_length_c 8.894520
_cell_angle_alpha 90.000000
_cell_angle_beta 90.000000
_cell_angle_gamma 90.000000
_cell_volume 3355.321944
_symmetry_space_group_name_H-M "P N N M"
_symmetry_group_IT_number 58
_symmetry_cell_setting 'orthorhombic'
loop_
_space_group_symop_operation_xyz
x,y,z
-x,-y,z
1/2+x,1/2-y,1/2-z
1/2-x,1/2+y,1/2-z
-x,-y,-z
x,y,-z
1/2-x,1/2+y,1/2+z
1/2+x,1/2-y,1/2+z
loop_
_atom_site_type_symbol
_atom_site_label
_atom_site_fract_x
_atom_site_fract_y
_atom_site_fract_z
Si Si1 0.244494 0.576399 0.179675
Si Si2 0.590638 0.624910 0.679936
Si Si3 0.414869 0.645541 0.820804
Si Si4 0.587956 0.856519 0.178757
Si Si5 0.655483 0.749019 0.320118
Si Si6 0.252536 0.455257 0.680905
Si Si7 0.605287 0.131117 0.820606
Si Si8 0.342153 0.752556 0.679107
O O1 0.331314 0.609486 0.218445
O O2 0.163585 0.606847 0.253066
O O3 0.250822 0.513983 0.238669
O O4 0.235366 0.577628 0.000000
O O5 0.577211 0.622219 0.500000
O O6 0.501448 0.617243 0.763871
O O7 0.625345 0.686707 0.714467
O O8 0.663363 0.580519 0.719824
O O9 0.404350 0.704989 0.741493
O O10 0.417118 0.653050 0.000000
O O11 0.594118 0.795772 0.252660
O O12 0.494112 0.881541 0.206819
O O13 0.599625 0.851392 0.000000
O O14 0.660695 0.755038 0.500000
O O15 0.748710 0.758370 0.249245
O O16 0.252164 0.463277 0.500000
O O17 0.169844 0.418075 0.719811
O O18 0.629599 0.187006 0.734332
O O19 0.616318 0.141677 0.000000
O O20 0.338705 0.749994 0.500000
#
# Coordination Sequence:
#
# PCOD9445086 Si02
#       8
#     8   8   8   8   8   8   8   8
#     4  11  25  43  62  86 121 165 207 257 309 355
#     4  10  22  40  65  93 123 160 202 250 305 365
#     4  11  24  41  62  88 125 165 201 251 309 361
#     4  11  23  39  64  94 122 160 205 249 301 366
#     4  11  21  38  62  90 128 163 195 245 307 363
#     4  10  22  43  66  88 120 161 205 256 307 361
#     4  10  22  42  65  92 126 161 199 247 310 367
#     4  12  23  36  62  95 125 161 204 247 299 366
#
# _framework density 19.074173999999999
#
# number of rings (size 3 to 8) (size 9 to 14) (size 15 to 20)
#    0.000    1.250    2.500    3.375    0.000    7.500 
#    0.000    5.000    0.000    0.000    0.000    0.000 
#    0.000    0.000    0.000    0.000    0.000    0.000 
#
# Total GULP energy -357952.998358 kJ/mol
# GULP energy per Si atom -5593.015599 kJ/mol
# Density = 1.903076 g / cm^3
# Si number density = 19.074174 Si / 1000 Ang^3
#
#
#
# Elastic Constant Matrix: (Units=GPa)
#
#
# Indices 1 2 3 4 5 6 
#
# 1 103.0136 34.1513 47.7865 0.0000 0.0000 0.0000
# 2 34.1513 113.3239 46.2182 0.0000 0.0000 0.0000
# 3 47.7865 46.2182 54.4328 0.0000 0.0000 0.0000
# 4 0.0000 0.0000 0.0000 26.9025 0.0000 0.0000
# 5 0.0000 0.0000 0.0000 0.0000 11.8102 0.0000
# 6 0.0000 0.0000 0.0000 0.0000 0.0000 6.0433
#
#
#
# Elastic Compliance Matrix: (Units=1/GPa)
#
#
# Indices 1 2 3 4 5 6 
#
# 1 0.016528 0.001433 -0.015726 0.000000 0.000000 0.000000
# 2 0.001433 0.013623 -0.012825 0.000000 0.000000 0.000000
# 3 -0.015726 -0.012825 0.043067 0.000000 0.000000 0.000000
# 4 0.000000 0.000000 0.000000 0.037171 0.000000 0.000000
# 5 0.000000 0.000000 0.000000 0.000000 0.084673 0.000000
# 6 0.000000 0.000000 0.000000 0.000000 0.000000 0.165471
#
#
# Mechanical properties :
#
#
# Convention : Reuss Voigt Hill
#
# Bulk Modulus (GPa) = 52.68494 58.56470 55.62482
# Shear Modulus (GPa) = 11.87374 18.45883 15.16628
#
# Velocity S-wave (km/s) = 2.49771 3.11423 2.82285
# Velocity P-wave (km/s) = 5.99993 6.61071 6.31271
#
# Compressibility (1/GPa) = 0.01898076
#
# Stress axis : x y z
#
# Youngs Moduli (GPa) = 60.50483 73.40485 23.21945
#
# Poissons Ratio (x) = -0.10520 0.36516
# Poissons Ratio (y) = -0.08671 0.29780
# Poissons Ratio (z) = 0.95153 0.94144
#
# Static dielectric constant tensor:
#      x y z
#    x 1.669010 0.000000 0.000000 
#    y 0.000000 1.629620 0.000000 
#    z 0.000000 0.000000 1.635710 
# 
# From -- ./inp_files/6864.got.cif
#   From: 2010.05.17/outbox.cif.g08.bks.cpg/sg58_4_cif.got.tgz:6864.got - 2010.06.03 14:20:14.
