data_PCOD9445173
_publ_section_title
;
Structure prediction by ZEFSAII (Michael W. Deem and Ramdas Pophale) SiO2 
 PCOD9445173
Probable space group: P N N M
;
_chemical_formula_sum "Si O2"
_cell_formula_units_Z 36
_cell_length_a 13.118103
_cell_length_b 14.441615
_cell_length_c 7.446930
_cell_angle_alpha 90.000000
_cell_angle_beta 90.000000
_cell_angle_gamma 90.000000
_cell_volume 1410.795517
_symmetry_space_group_name_H-M "P N N M"
_symmetry_group_IT_number 58
_symmetry_cell_setting 'orthorhombic'
loop_
_space_group_symop_operation_xyz
x,y,z
-x,-y,z
1/2+x,1/2-y,1/2-z
1/2-x,1/2+y,1/2-z
-x,-y,-z
x,y,-z
1/2-x,1/2+y,1/2+z
1/2+x,1/2-y,1/2+z
loop_
_atom_site_type_symbol
_atom_site_label
_atom_site_fract_x
_atom_site_fract_y
_atom_site_fract_z
Si Si1 0.287861 0.174176 0.784742
Si Si2 0.850443 0.521544 0.205949
Si Si3 0.956506 0.648040 0.500000
Si Si4 0.055306 0.191753 0.205647
Si Si5 0.646577 0.620599 0.215501
O O1 0.168733 0.159821 0.742937
O O2 0.314962 0.277404 0.722844
O O3 0.352577 0.089278 0.711875
O O4 0.302971 0.171047 0.000000
O O5 0.922049 0.573748 0.343216
O O6 0.735318 0.550152 0.266862
O O7 0.865772 0.551940 0.000000
O O8 0.974388 0.728041 0.343543
O O9 0.968283 0.113837 0.216749
O O10 0.061715 0.224812 0.000000
O O11 0.643077 0.618941 0.000000
#
# Coordination Sequence:
#
# PCOD9445173 Si02
#       5
#     8   8   4   8   8
#     4  10  22  42  65  96 130 167 217 266 318 383
#     4  11  24  40  68  97 127 172 217 261 322 386
#     4  12  22  44  65  94 132 173 208 270 324 366
#     4  11  24  40  68  97 127 172 217 261 322 386
#     4  10  22  42  65  96 130 167 217 266 318 383
#
# _framework density 25.517516000000001
#
# number of rings (size 3 to 8) (size 9 to 14) (size 15 to 20)
#    0.000    1.333    4.444    0.667    3.111    1.778 
#    0.000    6.667    0.000    2.667    0.000    0.000 
#    0.000    0.000    0.000    0.000    0.000    0.000 
#
# Total GULP energy -200719.882589 kJ/mol
# GULP energy per Si atom -5575.552294 kJ/mol
# Density = 2.545944 g / cm^3
# Si number density = 25.517516 Si / 1000 Ang^3
#
#
#
# Elastic Constant Matrix: (Units=GPa)
#
#
# Indices 1 2 3 4 5 6 
#
# 1 98.8092 19.9417 26.6757 0.0000 0.0000 0.0000
# 2 19.9417 82.7809 5.4284 0.0000 0.0000 0.0000
# 3 26.6757 5.4284 128.4210 0.0000 0.0000 0.0000
# 4 0.0000 0.0000 0.0000 -85.1051 0.0000 0.0000
# 5 0.0000 0.0000 0.0000 0.0000 15.5039 0.0000
# 6 0.0000 0.0000 0.0000 0.0000 0.0000 29.5891
#
#
#
# Elastic Compliance Matrix: (Units=1/GPa)
#
#
# Indices 1 2 3 4 5 6 
#
# 1 0.011238 -0.002561 -0.002226 0.000000 0.000000 0.000000
# 2 -0.002561 0.012697 -0.000005 0.000000 0.000000 0.000000
# 3 -0.002226 -0.000005 0.008250 0.000000 0.000000 0.000000
# 4 0.000000 0.000000 0.000000 -0.011750 0.000000 0.000000
# 5 0.000000 0.000000 0.000000 0.000000 0.064500 0.000000
# 6 0.000000 0.000000 0.000000 0.000000 0.000000 0.033796
#
#
# Mechanical properties :
#
#
# Convention : Reuss Voigt Hill
#
# Bulk Modulus (GPa) = 44.24591 46.01142 45.12867
# Shear Modulus (GPa) = 36.80546 9.19526 23.00036
#
# Velocity S-wave (km/s) = 3.80196 1.90035 3.00552
# Velocity P-wave (km/s) = 6.05395 4.78389 5.45600
#
# Compressibility (1/GPa) = 0.02260096
#
# Stress axis : x y z
#
# Youngs Moduli (GPa) = 88.98021 78.75622 121.21932
#
# Poissons Ratio (x) = 0.20172 0.26986
# Poissons Ratio (y) = 0.22791 0.00057
# Poissons Ratio (z) = 0.19809 0.00037
#
# Static dielectric constant tensor:
#      x y z
#    x 2.136990 0.000000 0.000000 
#    y 0.000000 1.938970 0.000000 
#    z 0.000000 0.000000 1.943530 
# 
# From -- ./inp_files/5306.got.cif
#   From: 2010.05.17/outbox.cif.g08.bks.cpg/sg58_3_cif.got.tgz:5306.got - 2010.06.03 14:20:14.
