data_PCOD9445934
_publ_section_title
;
Structure prediction by ZEFSAII (Michael W. Deem and Ramdas Pophale) SiO2 
 PCOD9445934
Probable space group: P N N M
;
_chemical_formula_sum "Si O2"
_cell_formula_units_Z 48
_cell_length_a 24.000000
_cell_length_b 12.000000
_cell_length_c 9.000000
_cell_angle_alpha 90.000000
_cell_angle_beta 90.000000
_cell_angle_gamma 90.000000
_cell_volume 2592.000000
_symmetry_space_group_name_H-M "P N N M"
_symmetry_group_IT_number 58
_symmetry_cell_setting 'orthorhombic'
loop_
_space_group_symop_operation_xyz
x,y,z
-x,-y,z
1/2+x,1/2-y,1/2-z
1/2-x,1/2+y,1/2-z
-x,-y,-z
x,y,-z
1/2-x,1/2+y,1/2+z
1/2+x,1/2-y,1/2+z
loop_
_atom_site_type_symbol
_atom_site_label
_atom_site_fract_x
_atom_site_fract_y
_atom_site_fract_z
Si Si1 0.676716 0.130351 0.178503
Si Si2 0.135470 0.597544 0.179888
Si Si3 0.801515 0.178363 0.180049
Si Si4 0.910196 0.788605 0.179924
Si Si5 0.029572 0.735447 0.819668
Si Si6 0.908131 0.043963 0.180614
O O1 0.740317 0.146673 0.229540
O O2 0.641582 0.232985 0.241154
O O3 0.652129 0.016686 0.244347
O O4 0.675042 0.127770 0.000000
O O5 0.177439 0.698354 0.221525
O O6 0.074460 0.643356 0.225144
O O7 0.136236 0.585112 0.000000
O O8 0.847506 0.088326 0.227135
O O9 0.801956 0.177459 0.000000
O O10 0.965815 0.720874 0.222380
O O11 0.918146 0.917427 0.224913
O O12 0.903907 0.784580 0.000000
O O13 0.050049 0.858360 0.770628
O O14 0.031349 0.737327 0.000000
O O15 0.910608 0.043707 0.000000
#
# Coordination Sequence:
#
# PCOD9445934 Si02
#       6
#     8   8   8   8   8   8
#     4  11  23  35  48  73 109 141 168 203 251 301
#     4   9  18  36  57  73  95 132 174 209 251 302
#     4   8  17  33  52  73 100 132 164 208 258 299
#     4  10  19  31  53  82 105 129 169 213 253 300
#     4   8  15  30  54  81 103 125 164 220 263 291
#     4   8  14  28  53  81 102 125 164 215 263 297
#
# _framework density 18.518519000000001
#
# number of rings (size 3 to 8) (size 9 to 14) (size 15 to 20)
#    0.000    3.000    0.000    3.000    2.333    2.667 
#    0.000    5.000    0.000    6.000    0.000    0.000 
#    0.000    0.000    0.000    0.000    0.000    0.000 
#
# Total GULP energy -267451.130180 kJ/mol
# GULP energy per Si atom -5571.898545 kJ/mol
# Density = 1.847637 g / cm^3
# Si number density = 18.518519 Si / 1000 Ang^3
#
#
#
# Elastic Constant Matrix: (Units=GPa)
#
#
# Indices 1 2 3 4 5 6 
#
# 1 83.9488 -18.0701 5.9284 0.0000 0.0000 0.0000
# 2 -18.0701 -26.3848 -3.5819 0.0000 0.0000 0.0000
# 3 5.9284 -3.5819 10.5584 0.0000 0.0000 0.0000
# 4 0.0000 0.0000 0.0000 9.3929 0.0000 0.0000
# 5 0.0000 0.0000 0.0000 0.0000 18.2247 0.0000
# 6 0.0000 0.0000 0.0000 0.0000 0.0000 17.0133
#
#
#
# Elastic Compliance Matrix: (Units=1/GPa)
#
#
# Indices 1 2 3 4 5 6 
#
# 1 0.011116 -0.006468 -0.008435 0.000000 0.000000 0.000000
# 2 -0.006468 -0.032469 -0.007383 0.000000 0.000000 0.000000
# 3 -0.008435 -0.007383 0.096943 0.000000 0.000000 0.000000
# 4 0.000000 0.000000 0.000000 0.106463 0.000000 0.000000
# 5 0.000000 0.000000 0.000000 0.000000 0.054871 0.000000
# 6 0.000000 0.000000 0.000000 0.000000 0.000000 0.058778
#
#
# Mechanical properties :
#
#
# Convention : Reuss Voigt Hill
#
# Bulk Modulus (GPa) = 32.24014 4.07503 18.15759
# Shear Modulus (GPa) = 14.26074 14.51590 14.38832
#
# Velocity S-wave (km/s) = 2.77804 2.80278 2.79044
# Velocity P-wave (km/s) = 5.26664 3.56082 4.49538
#
# Compressibility (1/GPa) = 0.03101723
#
# Stress axis : x y z
#
# Youngs Moduli (GPa) = 89.96386 -30.79875 10.31532
#
# Poissons Ratio (x) = -0.19919 0.08701
# Poissons Ratio (y) = 0.58185 0.07616
# Poissons Ratio (z) = 0.75888 -0.22740
#
# Static dielectric constant tensor:
#      x y z
#    x 1.669700 0.000000 0.000000 
#    y 0.000000 1.617290 0.000000 
#    z 0.000000 0.000000 1.621320 
# 
# From -- ./inp_files/4182.got.cif
#   From: 2010.05.17/outbox.ucp.g08.bks.cvg/sg58_3_cif.got.tgz:4182.got - 2010.06.11 16:41:41.
