data_PCOD9445831
_publ_section_title
;
Structure prediction by ZEFSAII (Michael W. Deem and Ramdas Pophale) SiO2 
 PCOD9445831
Probable space group: P N N M
;
_chemical_formula_sum "Si O2"
_cell_formula_units_Z 44
_cell_length_a 5.100036
_cell_length_b 26.697137
_cell_length_c 15.065789
_cell_angle_alpha 90.000000
_cell_angle_beta 90.000000
_cell_angle_gamma 90.000000
_cell_volume 2051.302988
_symmetry_space_group_name_H-M "P N N M"
_symmetry_group_IT_number 58
_symmetry_cell_setting 'orthorhombic'
loop_
_space_group_symop_operation_xyz
x,y,z
-x,-y,z
1/2+x,1/2-y,1/2-z
1/2-x,1/2+y,1/2-z
-x,-y,-z
x,y,-z
1/2-x,1/2+y,1/2+z
1/2+x,1/2-y,1/2+z
loop_
_atom_site_type_symbol
_atom_site_label
_atom_site_fract_x
_atom_site_fract_y
_atom_site_fract_z
Si Si1 0.433630 0.284357 0.748361
Si Si2 0.016406 0.559227 0.856062
Si Si3 0.535141 0.906652 0.157802
Si Si4 0.019842 0.872136 0.399153
Si Si5 0.749387 0.466871 0.500000
Si Si6 0.010519 0.855905 0.895189
O O1 0.195239 0.247228 0.767428
O O2 0.460977 0.327914 0.824829
O O3 0.359802 0.309213 0.654110
O O4 0.010295 0.564433 0.749172
O O5 0.274719 0.590046 0.884618
O O6 0.000000 0.500000 0.880342
O O7 0.771829 0.591666 0.890053
O O8 0.246329 0.896332 0.119734
O O9 0.737310 0.860255 0.161079
O O10 0.717667 0.935436 0.087958
O O11 0.006926 0.851893 0.500000
O O12 0.500000 0.500000 0.500000
O O13 0.000000 0.500000 0.500000
O O14 0.963243 0.850192 0.000000
#
# Coordination Sequence:
#
# PCOD9445831 Si02
#       6
#     8   8   8   8   4   8
#     4  12  26  46  75 103 138 180 234 294 364 433
#     4  12  25  45  73 104 143 194 242 291 354 427
#     4  12  22  42  65  95 138 188 227 277 344 404
#     4  12  27  48  74 105 145 186 237 302 363 422
#     4  12  24  36  58  98 140 178 232 276 320 404
#     4  12  23  43  71  98 135 179 226 284 349 418
#
# _framework density 21.449781999999999
#
# number of rings (size 3 to 8) (size 9 to 14) (size 15 to 20)
#    0.000    0.000    5.455    4.909    0.000    5.091 
#    0.000    0.000    0.000    0.000    0.000    0.000 
#    0.000    0.000    0.000    0.000    0.000    0.000 
#
# Total GULP energy -245489.091295 kJ/mol
# GULP energy per Si atom -5579.297529 kJ/mol
# Density = 2.140096 g / cm^3
# Si number density = 21.449782 Si / 1000 Ang^3
#
#
#
# Elastic Constant Matrix: (Units=GPa)
#
#
# Indices 1 2 3 4 5 6 
#
# 1 176.4878 57.6876 15.9795 0.0000 0.0000 0.0000
# 2 57.6876 113.7129 36.1402 0.0000 0.0000 0.0000
# 3 15.9795 36.1402 122.8435 0.0000 0.0000 0.0000
# 4 0.0000 0.0000 0.0000 -115.5243 0.0000 0.0000
# 5 0.0000 0.0000 0.0000 0.0000 26.1377 0.0000
# 6 0.0000 0.0000 0.0000 0.0000 0.0000 47.5907
#
#
#
# Elastic Compliance Matrix: (Units=1/GPa)
#
#
# Indices 1 2 3 4 5 6 
#
# 1 0.006795 -0.003493 0.000144 0.000000 0.000000 0.000000
# 2 -0.003493 0.011496 -0.002928 0.000000 0.000000 0.000000
# 3 0.000144 -0.002928 0.008983 0.000000 0.000000 0.000000
# 4 0.000000 0.000000 0.000000 -0.008656 0.000000 0.000000
# 5 0.000000 0.000000 0.000000 0.000000 0.038259 0.000000
# 6 0.000000 0.000000 0.000000 0.000000 0.000000 0.021012
#
#
# Mechanical properties :
#
#
# Convention : Reuss Voigt Hill
#
# Bulk Modulus (GPa) = 67.93238 70.29543 69.11390
# Shear Modulus (GPa) = 52.43826 11.85663 32.14745
#
# Velocity S-wave (km/s) = 4.94975 2.35364 3.87554
# Velocity P-wave (km/s) = 8.02533 6.34267 7.23310
#
# Compressibility (1/GPa) = 0.01472052
#
# Stress axis : x y z
#
# Youngs Moduli (GPa) = 147.17264 86.98304 111.31979
#
# Poissons Ratio (x) = 0.30381 -0.01599
# Poissons Ratio (y) = 0.51403 0.32593
# Poissons Ratio (z) = -0.02115 0.25468
#
# Static dielectric constant tensor:
#      x y z
#    x 2.113900 0.000000 0.000000 
#    y 0.000000 2.167400 0.000000 
#    z 0.000000 0.000000 1.738680 
# 
# From -- ./inp_files/18546.got.cif
#   From: 2010.05.17/outbox.cif.g08.bks.cpg/sg58_10_cif.got.tgz:18546.got - 2010.06.03 14:20:14.
