data_PCOD9445159
_publ_section_title
;
Structure prediction by ZEFSAII (Michael W. Deem and Ramdas Pophale) SiO2 
 PCOD9445159
Probable space group: P N N M
;
_chemical_formula_sum "Si O2"
_cell_formula_units_Z 56
_cell_length_a 14.725787
_cell_length_b 21.381295
_cell_length_c 9.368131
_cell_angle_alpha 90.000000
_cell_angle_beta 90.000000
_cell_angle_gamma 90.000000
_cell_volume 2949.615963
_symmetry_space_group_name_H-M "P N N M"
_symmetry_group_IT_number 58
_symmetry_cell_setting 'orthorhombic'
loop_
_space_group_symop_operation_xyz
x,y,z
-x,-y,z
1/2+x,1/2-y,1/2-z
1/2-x,1/2+y,1/2-z
-x,-y,-z
x,y,-z
1/2-x,1/2+y,1/2+z
1/2+x,1/2-y,1/2+z
loop_
_atom_site_type_symbol
_atom_site_label
_atom_site_fract_x
_atom_site_fract_y
_atom_site_fract_z
Si Si1 0.394976 0.655782 0.329706
Si Si2 0.903529 0.421238 0.167263
Si Si3 0.103671 0.024547 0.333398
Si Si4 0.887926 0.570852 0.167374
Si Si5 0.910924 0.207018 0.167709
Si Si6 0.710323 0.583095 0.668017
Si Si7 0.306133 0.185209 0.168828
O O1 0.400834 0.641647 0.500000
O O2 0.392429 0.591376 0.242862
O O3 0.484879 0.694258 0.291357
O O4 0.301296 0.691970 0.304005
O O5 0.888791 0.495385 0.184848
O O6 0.838869 0.380229 0.264521
O O7 0.009562 0.407479 0.199903
O O8 0.888465 0.406813 0.000000
O O9 0.129873 0.029036 0.500000
O O10 0.167338 0.975126 0.252687
O O11 0.000000 0.000000 0.325632
O O12 0.808724 0.597260 0.265538
O O13 0.870112 0.584023 0.000000
O O14 0.856050 0.142269 0.185428
O O15 0.863507 0.260531 0.257911
O O16 0.908298 0.223926 0.000000
O O17 0.717163 0.568746 0.500000
O O18 0.320588 0.185022 0.000000
#
# Coordination Sequence:
#
# PCOD9445159 Si02
#       7
#     8   8   8   8   8   8   8
#     4  10  22  42  63  85 116 156 197 238 295 356
#     4   9  19  38  60  83 115 155 192 230 287 350
#     4  11  22  35  58  91 122 153 191 240 296 348
#     4   9  19  36  60  87 116 151 191 236 285 343
#     4  10  23  42  60  79 112 156 196 232 285 353
#     4  11  22  36  58  87 119 155 193 238 293 351
#     4  11  24  39  60  87 114 149 198 249 289 338
#
# _framework density 18.985522
#
# number of rings (size 3 to 8) (size 9 to 14) (size 15 to 20)
#    0.000    1.857    1.429    3.000    0.000    8.000 
#    0.000    5.714    0.000    0.000    0.000    0.000 
#    0.000    0.000    0.000    0.000    0.000    0.000 
#
# Total GULP energy -312971.297055 kJ/mol
# GULP energy per Si atom -5588.773162 kJ/mol
# Density = 1.894231 g / cm^3
# Si number density = 18.985522 Si / 1000 Ang^3
#
#
#
# Elastic Constant Matrix: (Units=GPa)
#
#
# Indices 1 2 3 4 5 6 
#
# 1 127.2082 25.8448 61.5355 0.0000 0.0000 0.0000
# 2 25.8448 39.4023 31.8451 0.0000 0.0000 0.0000
# 3 61.5355 31.8451 66.8116 0.0000 0.0000 0.0000
# 4 0.0000 0.0000 0.0000 23.1720 0.0000 0.0000
# 5 0.0000 0.0000 0.0000 0.0000 20.9487 0.0000
# 6 0.0000 0.0000 0.0000 0.0000 0.0000 17.3601
#
#
#
# Elastic Compliance Matrix: (Units=1/GPa)
#
#
# Indices 1 2 3 4 5 6 
#
# 1 0.014279 0.002055 -0.014131 0.000000 0.000000 0.000000
# 2 0.002055 0.041578 -0.021710 0.000000 0.000000 0.000000
# 3 -0.014131 -0.021710 0.038331 0.000000 0.000000 0.000000
# 4 0.000000 0.000000 0.000000 0.043156 0.000000 0.000000
# 5 0.000000 0.000000 0.000000 0.000000 0.047736 0.000000
# 6 0.000000 0.000000 0.000000 0.000000 0.000000 0.057603
#
#
# Mechanical properties :
#
#
# Convention : Reuss Voigt Hill
#
# Bulk Modulus (GPa) = 37.57321 52.43030 45.00175
# Shear Modulus (GPa) = 15.66776 19.90928 17.78852
#
# Velocity S-wave (km/s) = 2.87583 3.24181 3.06429
# Velocity P-wave (km/s) = 5.55523 6.45665 6.02283
#
# Compressibility (1/GPa) = 0.02661471
#
# Stress axis : x y z
#
# Youngs Moduli (GPa) = 70.03068 24.05136 26.08886
#
# Poissons Ratio (x) = -0.04942 0.36867
# Poissons Ratio (y) = -0.14389 0.56639
# Poissons Ratio (z) = 0.98961 0.52216
#
# Static dielectric constant tensor:
#      x y z
#    x 1.670500 0.000000 0.000000 
#    y 0.000000 1.628860 0.000000 
#    z 0.000000 0.000000 1.628780 
# 
# From -- ./inp_files/6386.got.cif
#   From: 2010.05.17/outbox.cif.g08.bks.cpg/sg58_4_cif.got.tgz:6386.got - 2010.06.03 14:20:14.
