data_PCOD9445608
_publ_section_title
;
Structure prediction by ZEFSAII (Michael W. Deem and Ramdas Pophale) SiO2 
 PCOD9445608
Probable space group: P N N M
;
_chemical_formula_sum "Si O2"
_cell_formula_units_Z 34
_cell_length_a 8.748442
_cell_length_b 13.937047
_cell_length_c 14.431515
_cell_angle_alpha 90.000000
_cell_angle_beta 90.000000
_cell_angle_gamma 90.000000
_cell_volume 1759.597785
_symmetry_space_group_name_H-M "P N N M"
_symmetry_group_IT_number 58
_symmetry_cell_setting 'orthorhombic'
loop_
_space_group_symop_operation_xyz
x,y,z
-x,-y,z
1/2+x,1/2-y,1/2-z
1/2-x,1/2+y,1/2-z
-x,-y,-z
x,y,-z
1/2-x,1/2+y,1/2+z
1/2+x,1/2-y,1/2+z
loop_
_atom_site_type_symbol
_atom_site_label
_atom_site_fract_x
_atom_site_fract_y
_atom_site_fract_z
Si Si1 0.159903 0.554831 0.000000
Si Si2 0.169993 0.045550 0.000000
Si Si3 0.821199 0.654146 0.500000
Si Si4 0.692221 0.289226 0.348913
Si Si5 0.000000 0.000000 0.500000
Si Si6 0.153987 0.718396 0.849295
Si Si7 0.098973 0.790546 0.500000
O O1 0.311836 0.490765 0.000000
O O2 0.160848 0.622899 0.089723
O O3 0.000000 0.500000 0.000000
O O4 0.186347 0.113788 0.089835
O O5 0.000000 0.000000 0.000000
O O6 0.290893 0.958904 0.000000
O O7 0.739713 0.700117 0.590342
O O8 0.992426 0.695001 0.500000
O O9 0.767240 0.299000 0.248858
O O10 0.520815 0.250707 0.338721
O O11 0.794495 0.216661 0.409883
O O12 0.988511 0.881833 0.500000
#
# Coordination Sequence:
#
# PCOD9445608 Si02
#       7
#     4   4   4   8   2   8   4
#     4  11  24  46  65 101 137 179 229 292 347 410
#     4  11  21  46  71 100 134 191 227 278 353 428
#     4  11  21  44  70  94 139 174 229 289 343 413
#     4  11  24  42  69  99 138 181 231 287 351 416
#     4  12  22  42  76  92 128 186 230 264 362 412
#     4  11  22  43  65  98 138 175 226 293 346 406
#     4  11  23  44  66  97 135 180 227 283 351 410
#
# _framework density 19.322597999999999
#
# number of rings (size 3 to 8) (size 9 to 14) (size 15 to 20)
#    0.000    0.941    4.706    4.941    0.000    1.882 
#   14.824    0.000    0.000    0.000    0.000    0.000 
#    0.000    0.000    0.000    0.000    0.000    0.000 
#
# Total GULP energy -189580.775171 kJ/mol
# GULP energy per Si atom -5575.905152 kJ/mol
# Density = 1.927862 g / cm^3
# Si number density = 19.322598 Si / 1000 Ang^3
#
#
#
# Elastic Constant Matrix: (Units=GPa)
#
#
# Indices 1 2 3 4 5 6 
#
# 1 158.8788 34.7527 62.5493 0.0000 0.0000 0.0000
# 2 34.7527 101.7796 48.1910 0.0000 0.0000 0.0000
# 3 62.5493 48.1910 182.2503 0.0000 0.0000 0.0000
# 4 0.0000 0.0000 0.0000 -3.5946 0.0000 0.0000
# 5 0.0000 0.0000 0.0000 0.0000 23.2666 0.0000
# 6 0.0000 0.0000 0.0000 0.0000 0.0000 36.2949
#
#
#
# Elastic Compliance Matrix: (Units=1/GPa)
#
#
# Indices 1 2 3 4 5 6 
#
# 1 0.007480 -0.001530 -0.002163 0.000000 0.000000 0.000000
# 2 -0.001530 0.011544 -0.002527 0.000000 0.000000 0.000000
# 3 -0.002163 -0.002527 0.006897 0.000000 0.000000 0.000000
# 4 0.000000 0.000000 0.000000 -0.278197 0.000000 0.000000
# 5 0.000000 0.000000 0.000000 0.000000 0.042980 0.000000
# 6 0.000000 0.000000 0.000000 0.000000 0.000000 0.027552
#
#
# Mechanical properties :
#
#
# Convention : Reuss Voigt Hill
#
# Bulk Modulus (GPa) = 74.17513 81.54387 77.85950
# Shear Modulus (GPa) = -30.33831 31.02109 0.34139
#
# Velocity S-wave (km/s) = -3.96674 4.01113 0.42079
# Velocity P-wave (km/s) = 4.18223 7.98405 6.37323
#
# Compressibility (1/GPa) = 0.01348161
#
# Stress axis : x y z
#
# Youngs Moduli (GPa) = 133.68587 86.62274 144.98009
#
# Poissons Ratio (x) = 0.13255 0.31354
# Poissons Ratio (y) = 0.20456 0.36643
# Poissons Ratio (z) = 0.28912 0.21893
#
# Static dielectric constant tensor:
#      x y z
#    x 1.681160 0.000000 0.000000 
#    y 0.000000 1.695090 0.000000 
#    z 0.000000 0.000000 1.650740 
# 
# From -- ./inp_files/19358.got.cif
#   From: 2010.05.17/outbox.cif.g08.bks.cpg/sg58_10_cif.got.tgz:19358.got - 2010.06.03 14:20:14.
