data_PCOD9445270
_publ_section_title
;
Structure prediction by ZEFSAII (Michael W. Deem and Ramdas Pophale) SiO2 
 PCOD9445270
Probable space group: P N N M
;
_chemical_formula_sum "Si O2"
_cell_formula_units_Z 48
_cell_length_a 29.549494
_cell_length_b 8.379158
_cell_length_c 8.270282
_cell_angle_alpha 90.000000
_cell_angle_beta 90.000000
_cell_angle_gamma 90.000000
_cell_volume 2047.720823
_symmetry_space_group_name_H-M "P N N M"
_symmetry_group_IT_number 58
_symmetry_cell_setting 'orthorhombic'
loop_
_space_group_symop_operation_xyz
x,y,z
-x,-y,z
1/2+x,1/2-y,1/2-z
1/2-x,1/2+y,1/2-z
-x,-y,-z
x,y,-z
1/2-x,1/2+y,1/2+z
1/2+x,1/2-y,1/2+z
loop_
_atom_site_type_symbol
_atom_site_label
_atom_site_fract_x
_atom_site_fract_y
_atom_site_fract_z
Si Si1 0.233338 0.443287 0.696708
Si Si2 0.517009 0.744462 0.693773
Si Si3 0.599009 0.559940 0.690168
Si Si4 0.650642 0.249838 0.811935
Si Si5 0.816979 0.233577 0.691504
Si Si6 0.930465 0.577978 0.806738
O O1 0.236150 0.441425 0.500000
O O2 0.199158 0.303327 0.754954
O O3 0.209233 0.607573 0.746170
O O4 0.282505 0.410372 0.767718
O O5 0.511362 0.720443 0.500000
O O6 0.549557 0.605554 0.759564
O O7 0.467007 0.789423 0.752728
O O8 0.545967 0.907260 0.714572
O O9 0.592554 0.548574 0.500000
O O10 0.624076 0.400138 0.743127
O O11 0.635141 0.699230 0.726988
O O12 0.616369 0.102556 0.783681
O O13 0.657005 0.279283 0.000000
O O14 0.823993 0.242442 0.500000
O O15 0.923146 0.598959 0.000000
#
# Coordination Sequence:
#
# PCOD9445270 Si02
#       6
#     8   8   8   8   8   8
#     4  10  23  41  59  81 112 148 183 221 270 329
#     4   8  17  34  58  84 109 142 187 234 276 331
#     4  11  22  37  57  82 112 147 186 226 274 329
#     4  11  23  38  55  81 116 150 187 231 277 326
#     4  11  23  39  60  85 111 140 179 227 274 321
#     4   9  17  35  60  83 108 143 188 233 280 332
#
# _framework density 23.440695000000002
#
# number of rings (size 3 to 8) (size 9 to 14) (size 15 to 20)
#    0.000    2.000    0.000    4.500    0.000    6.000 
#    0.000    7.500    0.000    0.000    0.000    0.000 
#    0.000    0.000    0.000    0.000    0.000    0.000 
#
# Total GULP energy -268347.834664 kJ/mol
# GULP energy per Si atom -5590.579889 kJ/mol
# Density = 2.338734 g / cm^3
# Si number density = 23.440695 Si / 1000 Ang^3
#
#
#
# Elastic Constant Matrix: (Units=GPa)
#
#
# Indices 1 2 3 4 5 6 
#
# 1 97.1820 -6.8030 -13.0133 0.0000 0.0000 0.0000
# 2 -6.8030 60.6968 0.7779 0.0000 0.0000 0.0000
# 3 -13.0133 0.7779 7.0521 0.0000 0.0000 0.0000
# 4 0.0000 0.0000 0.0000 25.9486 0.0000 0.0000
# 5 0.0000 0.0000 0.0000 0.0000 19.3710 0.0000
# 6 0.0000 0.0000 0.0000 0.0000 0.0000 39.0664
#
#
#
# Elastic Compliance Matrix: (Units=1/GPa)
#
#
# Indices 1 2 3 4 5 6 
#
# 1 0.013756 0.001218 0.025250 0.000000 0.000000 0.000000
# 2 0.001218 0.016607 0.000416 0.000000 0.000000 0.000000
# 3 0.025250 0.000416 0.188351 0.000000 0.000000 0.000000
# 4 0.000000 0.000000 0.000000 0.038538 0.000000 0.000000
# 5 0.000000 0.000000 0.000000 0.000000 0.051624 0.000000
# 6 0.000000 0.000000 0.000000 0.000000 0.000000 0.025597
#
#
# Mechanical properties :
#
#
# Convention : Reuss Voigt Hill
#
# Bulk Modulus (GPa) = 3.66995 14.09492 8.88244
# Shear Modulus (GPa) = 13.45782 29.14180 21.29981
#
# Velocity S-wave (km/s) = 2.39868 3.52975 3.01768
# Velocity P-wave (km/s) = 3.03984 4.75797 3.99242
#
# Compressibility (1/GPa) = 0.27248344
#
# Stress axis : x y z
#
# Youngs Moduli (GPa) = 72.69320 60.21727 5.30924
#
# Poissons Ratio (x) = -0.07336 -0.13406
# Poissons Ratio (y) = -0.08856 -0.00221
# Poissons Ratio (z) = -1.83554 -0.02505
#
# Static dielectric constant tensor:
#      x y z
#    x 1.897890 0.000000 0.000000 
#    y 0.000000 2.001070 0.000000 
#    z 0.000000 0.000000 1.801030 
# 
# From -- ./inp_files/2874.got.cif
#   From: 2010.05.17/outbox.cif.g08.bks.cpg/sg58_2_cif.got.tgz:2874.got - 2010.06.03 14:20:14.
