data_PCOD9445508
_publ_section_title
;
Structure prediction by ZEFSAII (Michael W. Deem and Ramdas Pophale) SiO2 
 PCOD9445508
Probable space group: P N N M
;
_chemical_formula_sum "Si O2"
_cell_formula_units_Z 64
_cell_length_a 14.868432
_cell_length_b 12.518813
_cell_length_c 17.268758
_cell_angle_alpha 90.000000
_cell_angle_beta 90.000000
_cell_angle_gamma 90.000000
_cell_volume 3214.322339
_symmetry_space_group_name_H-M "P N N M"
_symmetry_group_IT_number 58
_symmetry_cell_setting 'orthorhombic'
loop_
_space_group_symop_operation_xyz
x,y,z
-x,-y,z
1/2+x,1/2-y,1/2-z
1/2-x,1/2+y,1/2-z
-x,-y,-z
x,y,-z
1/2-x,1/2+y,1/2+z
1/2+x,1/2-y,1/2+z
loop_
_atom_site_type_symbol
_atom_site_label
_atom_site_fract_x
_atom_site_fract_y
_atom_site_fract_z
Si Si1 0.653559 0.693342 0.650349
Si Si2 0.288536 0.683649 0.343050
Si Si3 0.222656 0.475393 0.410714
Si Si4 0.700655 0.368643 0.834145
Si Si5 0.020811 0.121242 0.908318
Si Si6 0.538983 0.110531 0.093709
Si Si7 0.495930 0.659436 0.092943
Si Si8 0.323095 0.388338 0.173903
O O1 0.688632 0.594700 0.598141
O O2 0.716390 0.796242 0.635802
O O3 0.549132 0.702446 0.631049
O O4 0.663822 0.651362 0.738036
O O5 0.224486 0.582814 0.361769
O O6 0.314673 0.675312 0.252810
O O7 0.378365 0.657907 0.390421
O O8 0.238631 0.794401 0.362150
O O9 0.207808 0.505319 0.500000
O O10 0.143595 0.395164 0.385446
O O11 0.607018 0.360460 0.881330
O O12 0.721447 0.494903 0.828952
O O13 0.007039 0.120960 0.000000
O O14 0.000000 0.000000 0.878811
O O15 0.489844 0.216922 0.117776
O O16 0.500000 0.000000 0.122836
O O17 0.533655 0.110888 0.000000
O O18 0.578716 0.600695 0.133866
O O19 0.502220 0.646448 0.000000
#
# Coordination Sequence:
#
# PCOD9445508 Si02
#       8
#     8   8   8   8   8   8   8   8
#     4  11  22  39  62  91 119 157 205 248 303 358
#     4  11  23  39  62  91 124 159 203 250 307 361
#     4  11  19  35  63  90 120 154 195 252 307 351
#     4  11  23  41  63  86 125 166 204 246 294 365
#     4  11  21  36  62  92 120 152 200 259 309 354
#     4   9  18  32  54  88 125 152 186 243 303 352
#     4  11  23  39  60  89 120 161 209 246 295 360
#     4  11  24  41  61  87 125 165 202 248 298 364
#
# _framework density 19.910882999999998
#
# number of rings (size 3 to 8) (size 9 to 14) (size 15 to 20)
#    0.000    1.250    3.750    2.625    0.000    3.500 
#    0.000    0.625    0.000    0.750    0.000    0.000 
#    0.000    0.000    0.000    0.000    0.000    0.000 
#
# Total GULP energy -357154.460753 kJ/mol
# GULP energy per Si atom -5580.538449 kJ/mol
# Density = 1.986557 g / cm^3
# Si number density = 19.910883 Si / 1000 Ang^3
#
#
#
# Elastic Constant Matrix: (Units=GPa)
#
#
# Indices 1 2 3 4 5 6 
#
# 1 86.7524 41.7082 18.2327 0.0000 0.0000 0.0000
# 2 41.7082 115.7975 15.4799 0.0000 0.0000 0.0000
# 3 18.2327 15.4799 46.1122 0.0000 0.0000 0.0000
# 4 0.0000 0.0000 0.0000 18.1007 0.0000 0.0000
# 5 0.0000 0.0000 0.0000 0.0000 28.1405 0.0000
# 6 0.0000 0.0000 0.0000 0.0000 0.0000 26.9307
#
#
#
# Elastic Compliance Matrix: (Units=1/GPa)
#
#
# Indices 1 2 3 4 5 6 
#
# 1 0.014686 -0.004725 -0.004220 0.000000 0.000000 0.000000
# 2 -0.004725 0.010562 -0.001677 0.000000 0.000000 0.000000
# 3 -0.004220 -0.001677 0.023918 0.000000 0.000000 0.000000
# 4 0.000000 0.000000 0.000000 0.055246 0.000000 0.000000
# 5 0.000000 0.000000 0.000000 0.000000 0.035536 0.000000
# 6 0.000000 0.000000 0.000000 0.000000 0.000000 0.037132
#
#
# Mechanical properties :
#
#
# Convention : Reuss Voigt Hill
#
# Bulk Modulus (GPa) = 35.81697 44.38929 40.10313
# Shear Modulus (GPa) = 24.08088 26.18379 25.13234
#
# Velocity S-wave (km/s) = 3.48146 3.63029 3.55666
# Velocity P-wave (km/s) = 5.84709 6.31779 6.08699
#
# Compressibility (1/GPa) = 0.02791972
#
# Stress axis : x y z
#
# Youngs Moduli (GPa) = 68.09236 94.67910 41.80937
#
# Poissons Ratio (x) = 0.44740 0.17646
# Poissons Ratio (y) = 0.32176 0.07012
# Poissons Ratio (z) = 0.28738 0.15880
#
# Static dielectric constant tensor:
#      x y z
#    x 1.752020 0.000000 0.000000 
#    y 0.000000 1.731040 0.000000 
#    z 0.000000 0.000000 1.686660 
# 
# From -- ./inp_files/27018.got.cif
#   From: 2010.05.17/outbox.cif.g08.bks.cpg/sg58_14_cif.got.tgz:27018.got - 2010.06.03 14:20:14.
