data_PCOD9445273
_publ_section_title
;
Structure prediction by ZEFSAII (Michael W. Deem and Ramdas Pophale) SiO2 
 PCOD9445273
Probable space group: P N N M
;
_chemical_formula_sum "Si O2"
_cell_formula_units_Z 24
_cell_length_a 13.415497
_cell_length_b 9.704990
_cell_length_c 9.570888
_cell_angle_alpha 90.000000
_cell_angle_beta 90.000000
_cell_angle_gamma 90.000000
_cell_volume 1246.103434
_symmetry_space_group_name_H-M "P N N M"
_symmetry_group_IT_number 58
_symmetry_cell_setting 'orthorhombic'
loop_
_space_group_symop_operation_xyz
x,y,z
-x,-y,z
1/2+x,1/2-y,1/2-z
1/2-x,1/2+y,1/2-z
-x,-y,-z
x,y,-z
1/2-x,1/2+y,1/2+z
1/2+x,1/2-y,1/2+z
loop_
_atom_site_type_symbol
_atom_site_label
_atom_site_fract_x
_atom_site_fract_y
_atom_site_fract_z
Si Si1 0.203470 0.441689 0.500000
Si Si2 0.621229 0.503036 0.000000
Si Si3 0.407144 0.606551 0.500000
Si Si4 0.388688 0.732212 0.202477
Si Si5 0.569200 0.790596 0.000000
O O1 0.310248 0.510139 0.500000
O O2 0.183512 0.347515 0.363003
O O3 0.122955 0.564529 0.500000
O O4 0.500000 0.500000 0.000000
O O5 0.648475 0.412311 0.866022
O O6 0.646730 0.663028 0.000000
O O7 0.500000 0.500000 0.500000
O O8 0.402973 0.703307 0.363805
O O9 0.495318 0.770593 0.131899
#
# Coordination Sequence:
#
# PCOD9445273 Si02
#       5
#     4   4   4   8   4
#     4  10  23  41  61  86 118 160 198 234 291 361
#     4   7  13  29  57  83 110 152 188 217 281 365
#     4  12  24  37  59  92 125 150 191 252 299 335
#     4   9  19  37  59  87 117 152 197 241 290 345
#     4   9  16  37  64  83 112 160 200 229 282 367
#
# _framework density 19.260038000000002
#
# number of rings (size 3 to 8) (size 9 to 14) (size 15 to 20)
#    0.000    3.333    0.000    5.000    0.000    5.333 
#    0.000    6.667    0.000    0.000    0.000    0.000 
#    0.000    0.000    0.000    0.000    0.000    0.000 
#
# Total GULP energy -133713.482673 kJ/mol
# GULP energy per Si atom -5571.395111 kJ/mol
# Density = 1.921620 g / cm^3
# Si number density = 19.260038 Si / 1000 Ang^3
#
#
#
# Elastic Constant Matrix: (Units=GPa)
#
#
# Indices 1 2 3 4 5 6 
#
# 1 90.3081 45.6357 45.6139 0.0000 0.0000 0.0000
# 2 45.6357 125.8251 65.9927 0.0000 0.0000 0.0000
# 3 45.6139 65.9927 202.2595 0.0000 0.0000 0.0000
# 4 0.0000 0.0000 0.0000 12.2725 0.0000 0.0000
# 5 0.0000 0.0000 0.0000 0.0000 -0.8002 0.0000
# 6 0.0000 0.0000 0.0000 0.0000 0.0000 31.3935
#
#
#
# Elastic Compliance Matrix: (Units=1/GPa)
#
#
# Indices 1 2 3 4 5 6 
#
# 1 0.014094 -0.004156 -0.001823 0.000000 0.000000 0.000000
# 2 -0.004156 0.010814 -0.002591 0.000000 0.000000 0.000000
# 3 -0.001823 -0.002591 0.006201 0.000000 0.000000 0.000000
# 4 0.000000 0.000000 0.000000 0.081483 0.000000 0.000000
# 5 0.000000 0.000000 0.000000 0.000000 -1.249695 0.000000
# 6 0.000000 0.000000 0.000000 0.000000 0.000000 0.031854
#
#
# Mechanical properties :
#
#
# Convention : Reuss Voigt Hill
#
# Bulk Modulus (GPa) = 71.58528 81.43081 76.50805
# Shear Modulus (GPa) = -4.61487 25.98318 10.68416
#
# Velocity S-wave (km/s) = -1.54961 3.67696 2.35783
# Velocity P-wave (km/s) = 5.83496 7.77162 6.87186
#
# Compressibility (1/GPa) = 0.01396935
#
# Stress axis : x y z
#
# Youngs Moduli (GPa) = 70.95313 92.47462 161.27564
#
# Poissons Ratio (x) = 0.38431 0.29393
# Poissons Ratio (y) = 0.29487 0.41787
# Poissons Ratio (z) = 0.12931 0.23961
#
# Static dielectric constant tensor:
#      x y z
#    x 1.681770 0.000000 0.000000 
#    y 0.000000 1.715790 0.000000 
#    z 0.000000 0.000000 1.707080 
# 
# From -- ./inp_files/4950.got.cif
#   From: 2010.05.17/outbox.cif.g08.bks.cpg/sg58_3_cif.got.tgz:4950.got - 2010.06.03 14:20:14.
