data_PCOD9445559
_publ_section_title
;
Structure prediction by ZEFSAII (Michael W. Deem and Ramdas Pophale) SiO2 
 PCOD9445559
Probable space group: P N N M
;
_chemical_formula_sum "Si O2"
_cell_formula_units_Z 56
_cell_length_a 14.837457
_cell_length_b 11.590072
_cell_length_c 14.454448
_cell_angle_alpha 90.000000
_cell_angle_beta 90.000000
_cell_angle_gamma 90.000000
_cell_volume 2485.690877
_symmetry_space_group_name_H-M "P N N M"
_symmetry_group_IT_number 58
_symmetry_cell_setting 'orthorhombic'
loop_
_space_group_symop_operation_xyz
x,y,z
-x,-y,z
1/2+x,1/2-y,1/2-z
1/2-x,1/2+y,1/2-z
-x,-y,-z
x,y,-z
1/2-x,1/2+y,1/2+z
1/2+x,1/2-y,1/2+z
loop_
_atom_site_type_symbol
_atom_site_label
_atom_site_fract_x
_atom_site_fract_y
_atom_site_fract_z
Si Si1 0.944562 0.645152 0.603518
Si Si2 0.880858 0.911341 0.599116
Si Si3 0.677914 0.837374 0.396177
Si Si4 0.756761 0.590067 0.610728
Si Si5 0.964272 0.888330 0.787808
Si Si6 0.392544 0.200070 0.217804
Si Si7 0.708196 0.327240 0.388642
O O1 0.948845 0.600637 0.500000
O O2 0.919899 0.781420 0.595639
O O3 0.856070 0.597304 0.653705
O O4 0.041127 0.634499 0.648292
O O5 0.903636 0.969341 0.500000
O O6 0.773393 0.901313 0.602278
O O7 0.915840 0.948337 0.698620
O O8 0.639781 0.840191 0.500000
O O9 0.700664 0.704400 0.367529
O O10 0.621726 0.876817 0.309211
O O11 0.767808 0.602082 0.500000
O O12 0.716927 0.465445 0.626132
O O13 0.889710 0.809434 0.840651
O O14 0.045485 0.807921 0.751515
O O15 0.000000 0.000000 0.844503
O O16 0.296771 0.223150 0.164812
O O17 0.710047 0.302826 0.500000
#
# Coordination Sequence:
#
# PCOD9445559 Si02
#       7
#     8   8   8   8   8   8   8
#     4   8  15  29  51  80 109 140 182 234 288 345
#     4   8  15  31  53  77 107 142 189 239 278 329
#     4   9  16  31  55  79 108 149 190 227 278 342
#     4   8  16  32  56  82 110 143 181 235 297 349
#     4  11  23  38  58  90 120 156 200 245 298 360
#     4  11  21  34  56  84 118 155 196 236 292 356
#     4  11  23  39  59  89 124 153 190 245 307 365
#
# _framework density 22.528948
#
# number of rings (size 3 to 8) (size 9 to 14) (size 15 to 20)
#    0.000    2.571    1.429    3.000    0.000    2.286 
#    0.000    2.143    0.000    0.000    0.000    2.000 
#    0.000    0.000    0.000    0.000    0.000    0.000 
#
# Total GULP energy -311862.313446 kJ/mol
# GULP energy per Si atom -5568.969883 kJ/mol
# Density = 2.247767 g / cm^3
# Si number density = 22.528948 Si / 1000 Ang^3
#
#
#
# Elastic Constant Matrix: (Units=GPa)
#
#
# Indices 1 2 3 4 5 6 
#
# 1 103.5017 4.3097 55.0240 0.0000 0.0000 0.0000
# 2 4.3097 12.9272 -11.8642 0.0000 0.0000 0.0000
# 3 55.0240 -11.8642 129.4115 0.0000 0.0000 0.0000
# 4 0.0000 0.0000 0.0000 9.4364 0.0000 0.0000
# 5 0.0000 0.0000 0.0000 0.0000 -35.9621 0.0000
# 6 0.0000 0.0000 0.0000 0.0000 0.0000 22.6666
#
#
#
# Elastic Compliance Matrix: (Units=1/GPa)
#
#
# Indices 1 2 3 4 5 6 
#
# 1 0.013752 -0.010865 -0.006843 0.000000 0.000000 0.000000
# 2 -0.010865 0.093048 0.013150 0.000000 0.000000 0.000000
# 3 -0.006843 0.013150 0.011843 0.000000 0.000000 0.000000
# 4 0.000000 0.000000 0.000000 0.105973 0.000000 0.000000
# 5 0.000000 0.000000 0.000000 0.000000 -0.027807 0.000000
# 6 0.000000 0.000000 0.000000 0.000000 0.000000 0.044118
#
#
# Mechanical properties :
#
#
# Convention : Reuss Voigt Hill
#
# Bulk Modulus (GPa) = 9.13029 37.86439 23.49734
# Shear Modulus (GPa) = 17.44886 12.45289 14.95087
#
# Velocity S-wave (km/s) = 2.78602 2.35362 2.57890
# Velocity P-wave (km/s) = 3.79614 4.92235 4.39546
#
# Compressibility (1/GPa) = 0.10952555
#
# Stress axis : x y z
#
# Youngs Moduli (GPa) = 72.71558 10.74716 84.44098
#
# Poissons Ratio (x) = 0.11677 0.57786
# Poissons Ratio (y) = 0.79009 -1.11042
# Poissons Ratio (z) = 0.49762 -0.14133
#
# Static dielectric constant tensor:
#      x y z
#    x 1.926170 0.000000 0.000000 
#    y 0.000000 1.895310 0.000000 
#    z 0.000000 0.000000 1.914330 
# 
# From -- ./inp_files/22317.got.cif
#   From: 2010.05.17/outbox.cif.g08.bks.cpg/sg58_12_cif.got.tgz:22317.got - 2010.06.03 14:20:14.
