data_PCOD9445503
_publ_section_title
;
Structure prediction by ZEFSAII (Michael W. Deem and Ramdas Pophale) SiO2 
 PCOD9445503
Probable space group: P N N M
;
_chemical_formula_sum "Si O2"
_cell_formula_units_Z 60
_cell_length_a 18.755477
_cell_length_b 5.087677
_cell_length_c 27.603726
_cell_angle_alpha 90.000000
_cell_angle_beta 90.000000
_cell_angle_gamma 90.000000
_cell_volume 2633.997469
_symmetry_space_group_name_H-M "P N N M"
_symmetry_group_IT_number 58
_symmetry_cell_setting 'orthorhombic'
loop_
_space_group_symop_operation_xyz
x,y,z
-x,-y,z
1/2+x,1/2-y,1/2-z
1/2-x,1/2+y,1/2-z
-x,-y,-z
x,y,-z
1/2-x,1/2+y,1/2+z
1/2+x,1/2-y,1/2+z
loop_
_atom_site_type_symbol
_atom_site_label
_atom_site_fract_x
_atom_site_fract_y
_atom_site_fract_z
Si Si1 0.250249 0.800499 0.330673
Si Si2 0.665115 0.823630 0.083760
Si Si3 0.232550 0.179429 0.447206
Si Si4 0.827754 0.049116 0.762655
Si Si5 0.923461 0.566236 0.772121
Si Si6 0.396804 0.899430 0.380494
Si Si7 0.550624 0.751850 0.000000
Si Si8 0.894962 0.122811 0.944031
O O1 0.177880 0.769102 0.361220
O O2 0.286939 0.530144 0.312197
O O3 0.313608 0.931368 0.362127
O O4 0.228815 0.935004 0.280627
O O5 0.724249 0.632206 0.058616
O O6 0.598222 0.767646 0.049277
O O7 0.685507 0.130258 0.085857
O O8 0.201889 0.243488 0.500000
O O9 0.312457 0.284993 0.446272
O O10 0.881611 0.811890 0.750582
O O11 0.873942 0.310100 0.768740
O O12 0.933648 0.644738 0.828792
O O13 0.000000 0.500000 0.750558
O O14 0.400696 0.654926 0.417144
O O15 0.425896 0.153671 0.408672
O O16 0.500000 0.500000 0.000000
O O17 0.500000 0.000000 0.000000
O O18 0.920525 0.118569 0.000000
#
# Coordination Sequence:
#
# PCOD9445503 Si02
#       8
#     8   8   8   8   8   8   4   8
#     4  11  23  42  66 106 134 165 219 280 389 395
#     4  12  23  38  68  88 126 175 217 280 332 413
#     4  11  19  34  55  94 125 160 204 256 328 388
#     4  11  25  42  70 101 142 170 215 305 347 425
#     4  11  25  46  70  95 129 186 233 262 326 413
#     4  11  21  37  62  95 132 167 212 271 327 402
#     4  12  26  48  62  90 134 188 243 281 321 393
#     4  11  21  33  55  94 140 161 197 261 330 388
#
# _framework density 22.779063000000001
#
# number of rings (size 3 to 8) (size 9 to 14) (size 15 to 20)
#    0.000    0.800    4.000    4.800    0.000    5.333 
#    0.000    2.000    0.000    2.400    0.000    0.000 
#    0.000    0.000    0.000    0.000    0.000    0.000 
#
# Total GULP energy -335027.590087 kJ/mol
# GULP energy per Si atom -5583.793168 kJ/mol
# Density = 2.272722 g / cm^3
# Si number density = 22.779063 Si / 1000 Ang^3
#
#
#
# Elastic Constant Matrix: (Units=GPa)
#
#
# Indices 1 2 3 4 5 6 
#
# 1 87.4423 25.1382 16.8682 0.0000 0.0000 0.0000
# 2 25.1382 124.1017 15.5486 0.0000 0.0000 0.0000
# 3 16.8682 15.5486 82.2010 0.0000 0.0000 0.0000
# 4 0.0000 0.0000 0.0000 36.2043 0.0000 0.0000
# 5 0.0000 0.0000 0.0000 0.0000 19.5483 0.0000
# 6 0.0000 0.0000 0.0000 0.0000 0.0000 28.9129
#
#
#
# Elastic Compliance Matrix: (Units=1/GPa)
#
#
# Indices 1 2 3 4 5 6 
#
# 1 0.012499 -0.002264 -0.002137 0.000000 0.000000 0.000000
# 2 -0.002264 0.008664 -0.001174 0.000000 0.000000 0.000000
# 3 -0.002137 -0.001174 0.012826 0.000000 0.000000 0.000000
# 4 0.000000 0.000000 0.000000 0.027621 0.000000 0.000000
# 5 0.000000 0.000000 0.000000 0.000000 0.051155 0.000000
# 6 0.000000 0.000000 0.000000 0.000000 0.000000 0.034587
#
#
# Mechanical properties :
#
#
# Convention : Reuss Voigt Hill
#
# Bulk Modulus (GPa) = 43.78514 45.42835 44.60675
# Shear Modulus (GPa) = 30.09973 32.67910 31.38941
#
# Velocity S-wave (km/s) = 3.63902 3.79174 3.71616
# Velocity P-wave (km/s) = 6.07618 6.25748 6.16750
#
# Compressibility (1/GPa) = 0.02283880
#
# Stress axis : x y z
#
# Youngs Moduli (GPa) = 80.00512 115.42491 77.96754
#
# Poissons Ratio (x) = 0.26134 0.16659
# Poissons Ratio (y) = 0.18114 0.09154
# Poissons Ratio (z) = 0.17094 0.13552
#
# Static dielectric constant tensor:
#      x y z
#    x 1.899740 0.000000 0.000000 
#    y 0.000000 1.853230 0.000000 
#    z 0.000000 0.000000 1.883290 
# 
# From -- ./inp_files/32402.got.cif
#   From: 2010.05.17/outbox.cif.g08.bks.cpg/sg58_17_cif.got.tgz:32402.got - 2010.06.03 14:20:14.
