data_PCOD9445662
_publ_section_title
;
Structure prediction by ZEFSAII (Michael W. Deem and Ramdas Pophale) SiO2 
 PCOD9445662
Probable space group: P N N M
;
_chemical_formula_sum "Si O2"
_cell_formula_units_Z 28
_cell_length_a 11.845431
_cell_length_b 11.940251
_cell_length_c 9.760901
_cell_angle_alpha 90.000000
_cell_angle_beta 90.000000
_cell_angle_gamma 90.000000
_cell_volume 1380.556648
_symmetry_space_group_name_H-M "P N N M"
_symmetry_group_IT_number 58
_symmetry_cell_setting 'orthorhombic'
loop_
_space_group_symop_operation_xyz
x,y,z
-x,-y,z
1/2+x,1/2-y,1/2-z
1/2-x,1/2+y,1/2-z
-x,-y,-z
x,y,-z
1/2-x,1/2+y,1/2+z
1/2+x,1/2-y,1/2+z
loop_
_atom_site_type_symbol
_atom_site_label
_atom_site_fract_x
_atom_site_fract_y
_atom_site_fract_z
Si Si1 0.681796 0.000493 0.000000
Si Si2 0.983140 0.862881 0.500000
Si Si3 0.500000 0.000000 0.227934
Si Si4 0.079428 0.107626 0.000000
Si Si5 0.037427 0.742707 0.215308
Si Si6 0.261352 0.244516 0.500000
O O1 0.606642 0.976739 0.131552
O O2 0.711022 0.131074 0.000000
O O3 0.793077 0.928920 0.000000
O O4 0.847320 0.837081 0.500000
O O5 0.035949 0.797734 0.367210
O O6 0.000000 0.000000 0.500000
O O7 0.514375 0.118305 0.299367
O O8 0.045123 0.177178 0.131672
O O9 0.000000 0.000000 0.000000
O O10 0.156728 0.737168 0.133422
#
# Coordination Sequence:
#
# PCOD9445662 Si02
#       6
#     4   4   4   4   8   4
#     4  11  22  44  69  96 143 199 225 278 367 440
#     4  12  26  47  71 111 146 181 249 305 345 435
#     4  11  24  41  68  98 148 184 236 288 356 436
#     4  11  23  44  74  96 134 184 240 290 359 428
#     4  11  25  46  69 106 139 187 236 296 364 426
#     4  11  25  45  73 102 147 188 235 293 362 428
#
# _framework density 20.281675
#
# number of rings (size 3 to 8) (size 9 to 14) (size 15 to 20)
#    0.000    0.857    5.714    1.714    4.000    2.286 
#    0.000    0.000    0.000    0.000    0.000    0.000 
#    0.000    0.000    0.000    0.000    0.000    0.000 
#
# Total GULP energy -156298.701603 kJ/mol
# GULP energy per Si atom -5582.096486 kJ/mol
# Density = 2.023551 g / cm^3
# Si number density = 20.281675 Si / 1000 Ang^3
#
#
#
# Elastic Constant Matrix: (Units=GPa)
#
#
# Indices 1 2 3 4 5 6 
#
# 1 156.2364 47.1020 44.4684 0.0000 0.0000 0.0000
# 2 47.1020 176.1522 47.6844 0.0000 0.0000 0.0000
# 3 44.4684 47.6844 122.9865 0.0000 0.0000 0.0000
# 4 0.0000 0.0000 0.0000 98.7487 0.0000 0.0000
# 5 0.0000 0.0000 0.0000 0.0000 -16.2648 0.0000
# 6 0.0000 0.0000 0.0000 0.0000 0.0000 45.4378
#
#
#
# Elastic Compliance Matrix: (Units=1/GPa)
#
#
# Indices 1 2 3 4 5 6 
#
# 1 0.007435 -0.001408 -0.002142 0.000000 0.000000 0.000000
# 2 -0.001408 0.006609 -0.002053 0.000000 0.000000 0.000000
# 3 -0.002142 -0.002053 0.009702 0.000000 0.000000 0.000000
# 4 0.000000 0.000000 0.000000 0.010127 0.000000 0.000000
# 5 0.000000 0.000000 0.000000 0.000000 -0.061482 0.000000
# 6 0.000000 0.000000 0.000000 0.000000 0.000000 0.022008
#
#
# Mechanical properties :
#
#
# Convention : Reuss Voigt Hill
#
# Bulk Modulus (GPa) = 79.75616 81.54273 80.64945
# Shear Modulus (GPa) = 510.97003 46.65903 278.81453
#
# Velocity S-wave (km/s) = 15.88974 4.80161 11.73753
# Velocity P-wave (km/s) = 19.39213 8.42811 14.95138
#
# Compressibility (1/GPa) = 0.01253822
#
# Stress axis : x y z
#
# Youngs Moduli (GPa) = 134.50249 151.30221 103.07465
#
# Poissons Ratio (x) = 0.21305 0.22081
# Poissons Ratio (y) = 0.18939 0.21166
# Poissons Ratio (z) = 0.28814 0.31069
#
# Static dielectric constant tensor:
#      x y z
#    x 1.695860 0.000000 0.000000 
#    y 0.000000 1.744680 0.000000 
#    z 0.000000 0.000000 1.782020 
# 
# From -- ./inp_files/13730.got.cif
#   From: 2010.05.17/outbox.cif.g08.bks.cpg/sg58_7_cif.got.tgz:13730.got - 2010.06.03 14:20:14.
