data_PCOD9445282
_publ_section_title
;
Structure prediction by ZEFSAII (Michael W. Deem and Ramdas Pophale) SiO2 
 PCOD9445282
Probable space group: P N N M
;
_chemical_formula_sum "Si O2"
_cell_formula_units_Z 56
_cell_length_a 21.883478
_cell_length_b 14.907804
_cell_length_c 8.747329
_cell_angle_alpha 90.000000
_cell_angle_beta 90.000000
_cell_angle_gamma 90.000000
_cell_volume 2853.681385
_symmetry_space_group_name_H-M "P N N M"
_symmetry_group_IT_number 58
_symmetry_cell_setting 'orthorhombic'
loop_
_space_group_symop_operation_xyz
x,y,z
-x,-y,z
1/2+x,1/2-y,1/2-z
1/2-x,1/2+y,1/2-z
-x,-y,-z
x,y,-z
1/2-x,1/2+y,1/2+z
1/2+x,1/2-y,1/2+z
loop_
_atom_site_type_symbol
_atom_site_label
_atom_site_fract_x
_atom_site_fract_y
_atom_site_fract_z
Si Si1 0.179512 0.928814 0.318056
Si Si2 0.741646 0.394014 0.682599
Si Si3 0.885786 0.413351 0.681305
Si Si4 0.483118 0.217156 0.683013
Si Si5 0.778622 0.701415 0.682204
Si Si6 0.103477 0.394718 0.182549
Si Si7 0.955501 0.080873 0.816128
O O1 0.184069 0.921936 0.500000
O O2 0.218184 0.848360 0.243113
O O3 0.109762 0.925385 0.264157
O O4 0.209300 0.021670 0.260935
O O5 0.732785 0.399376 0.500000
O O6 0.814224 0.398287 0.714404
O O7 0.717036 0.299924 0.745250
O O8 0.892373 0.426523 0.500000
O O9 0.926470 0.330408 0.735270
O O10 0.906962 0.503032 0.767571
O O11 0.475094 0.207614 0.500000
O O12 0.545312 0.165948 0.724721
O O13 0.484823 0.322428 0.718413
O O14 0.776684 0.707046 0.500000
O O15 0.836228 0.642247 0.735169
O O16 0.112272 0.389998 0.000000
O O17 0.946294 0.075459 0.000000
O O18 0.000000 0.000000 0.770932
#
# Coordination Sequence:
#
# PCOD9445282 Si02
#       7
#     8   8   8   8   8   8   8
#     4  12  25  43  67  98 132 172 216 269 327 386
#     4  11  24  42  66  95 130 171 215 267 325 388
#     4  11  23  40  64  95 128 168 214 265 324 385
#     4  10  23  41  63  93 127 171 217 263 324 389
#     4  12  25  42  65  97 132 171 218 272 329 389
#     4  11  23  40  64  94 129 169 215 267 324 390
#     4  10  23  44  69  95 129 174 220 270 327 387
#
# _framework density 19.623774000000001
#
# number of rings (size 3 to 8) (size 9 to 14) (size 15 to 20)
#    0.000    1.000    1.429    5.143    2.000    7.714 
#    0.000    0.000    0.000    0.000    0.000    0.000 
#    0.000    0.000    0.000    0.000    0.000    0.000 
#
# Total GULP energy -313451.827634 kJ/mol
# GULP energy per Si atom -5597.354065 kJ/mol
# Density = 1.957911 g / cm^3
# Si number density = 19.623774 Si / 1000 Ang^3
#
#
#
# Elastic Constant Matrix: (Units=GPa)
#
#
# Indices 1 2 3 4 5 6 
#
# 1 40.3373 -4.2427 12.0342 0.0000 0.0000 0.0000
# 2 -4.2427 87.4077 12.8862 0.0000 0.0000 0.0000
# 3 12.0342 12.8862 44.4916 0.0000 0.0000 0.0000
# 4 0.0000 0.0000 0.0000 12.0353 0.0000 0.0000
# 5 0.0000 0.0000 0.0000 0.0000 31.5812 0.0000
# 6 0.0000 0.0000 0.0000 0.0000 0.0000 17.2070
#
#
#
# Elastic Compliance Matrix: (Units=1/GPa)
#
#
# Indices 1 2 3 4 5 6 
#
# 1 0.027496 0.002540 -0.008173 0.000000 0.000000 0.000000
# 2 0.002540 0.012185 -0.004216 0.000000 0.000000 0.000000
# 3 -0.008173 -0.004216 0.025908 0.000000 0.000000 0.000000
# 4 0.000000 0.000000 0.000000 0.083089 0.000000 0.000000
# 5 0.000000 0.000000 0.000000 0.000000 0.031664 0.000000
# 6 0.000000 0.000000 0.000000 0.000000 0.000000 0.058116
#
#
# Mechanical properties :
#
#
# Convention : Reuss Voigt Hill
#
# Bulk Modulus (GPa) = 21.79088 23.73244 22.76166
# Shear Modulus (GPa) = 18.28459 22.26865 20.27662
#
# Velocity S-wave (km/s) = 3.05578 3.37230 3.21794
# Velocity P-wave (km/s) = 4.85580 5.22333 5.04292
#
# Compressibility (1/GPa) = 0.04589077
#
# Stress axis : x y z
#
# Youngs Moduli (GPa) = 36.36850 82.06489 38.59829
#
# Poissons Ratio (x) = -0.20841 0.31546
# Poissons Ratio (y) = -0.09236 0.16274
# Poissons Ratio (z) = 0.29723 0.34600
#
# Static dielectric constant tensor:
#      x y z
#    x 1.657830 0.000000 0.000000 
#    y 0.000000 1.670520 0.000000 
#    z 0.000000 0.000000 1.658660 
# 
# From -- ./inp_files/9033.got.cif
#   From: 2010.05.17/outbox.cif.g08.bks.cpg/sg58_5_cif.got.tgz:9033.got - 2010.06.03 14:20:14.
