data_PCOD9445625
_publ_section_title
;
Structure prediction by ZEFSAII (Michael W. Deem and Ramdas Pophale) SiO2 
 PCOD9445625
Probable space group: P N N M
;
_chemical_formula_sum "Si O2"
_cell_formula_units_Z 56
_cell_length_a 22.449824
_cell_length_b 15.170088
_cell_length_c 7.891538
_cell_angle_alpha 90.000000
_cell_angle_beta 90.000000
_cell_angle_gamma 90.000000
_cell_volume 2687.587997
_symmetry_space_group_name_H-M "P N N M"
_symmetry_group_IT_number 58
_symmetry_cell_setting 'orthorhombic'
loop_
_space_group_symop_operation_xyz
x,y,z
-x,-y,z
1/2+x,1/2-y,1/2-z
1/2-x,1/2+y,1/2-z
-x,-y,-z
x,y,-z
1/2-x,1/2+y,1/2+z
1/2+x,1/2-y,1/2+z
loop_
_atom_site_type_symbol
_atom_site_label
_atom_site_fract_x
_atom_site_fract_y
_atom_site_fract_z
Si Si1 0.720650 0.805342 0.299154
Si Si2 0.824057 0.935196 0.200303
Si Si3 0.252090 0.390654 0.201501
Si Si4 0.116519 0.408283 0.792780
Si Si5 0.513511 0.222169 0.707147
Si Si6 0.901249 0.393436 0.207497
Si Si7 0.959111 0.918558 0.207955
O O1 0.717677 0.812596 0.500000
O O2 0.780937 0.854350 0.245782
O O3 0.721067 0.703009 0.252715
O O4 0.662196 0.855652 0.232102
O O5 0.891031 0.928060 0.269379
O O6 0.791408 0.025882 0.247467
O O7 0.830235 0.934021 0.000000
O O8 0.184326 0.397919 0.268065
O O9 0.247776 0.392623 0.000000
O O10 0.092737 0.504622 0.742544
O O11 0.072481 0.330769 0.738500
O O12 0.117428 0.406627 0.000000
O O13 0.513194 0.221817 0.500000
O O14 0.455412 0.168315 0.762811
O O15 0.515684 0.323552 0.760835
O O16 0.901161 0.392409 0.000000
O O17 0.958889 0.919143 0.000000
O O18 0.000000 0.000000 0.262417
#
# Coordination Sequence:
#
# PCOD9445625 Si02
#       7
#     8   8   8   8   8   8   8
#     4  11  22  37  57  86 119 154 194 240 292 352
#     4  11  22  38  60  87 117 154 194 240 296 350
#     4  11  22  37  58  85 118 154 193 240 291 351
#     4   9  16  30  50  78 110 140 180 233 289 338
#     4   9  16  27  48  76 109 144 180 233 290 331
#     4   9  17  29  49  79 111 140 179 234 289 337
#     4   9  19  33  51  80 115 148 190 243 288 335
#
# _framework density 20.836528000000001
#
# number of rings (size 3 to 8) (size 9 to 14) (size 15 to 20)
#    0.000    2.143    1.429    2.571    2.000    4.000 
#    0.000    0.000    0.000    1.714    0.000    4.000 
#    0.000    0.000    0.000    0.000    0.000    0.000 
#
# Total GULP energy -312846.182489 kJ/mol
# GULP energy per Si atom -5586.538973 kJ/mol
# Density = 2.078910 g / cm^3
# Si number density = 20.836528 Si / 1000 Ang^3
#
#
#
# Elastic Constant Matrix: (Units=GPa)
#
#
# Indices 1 2 3 4 5 6 
#
# 1 64.7473 12.8242 0.0384 0.0000 0.0000 0.0000
# 2 12.8242 119.5965 -1.3503 0.0000 0.0000 0.0000
# 3 0.0384 -1.3503 23.3068 0.0000 0.0000 0.0000
# 4 0.0000 0.0000 0.0000 22.5757 0.0000 0.0000
# 5 0.0000 0.0000 0.0000 0.0000 20.7454 0.0000
# 6 0.0000 0.0000 0.0000 0.0000 0.0000 39.3510
#
#
#
# Elastic Compliance Matrix: (Units=1/GPa)
#
#
# Indices 1 2 3 4 5 6 
#
# 1 0.015780 -0.001693 -0.000124 0.000000 0.000000 0.000000
# 2 -0.001693 0.008549 0.000498 0.000000 0.000000 0.000000
# 3 -0.000124 0.000498 0.042935 0.000000 0.000000 0.000000
# 4 0.000000 0.000000 0.000000 0.044295 0.000000 0.000000
# 5 0.000000 0.000000 0.000000 0.000000 0.048203 0.000000
# 6 0.000000 0.000000 0.000000 0.000000 0.000000 0.025412
#
#
# Mechanical properties :
#
#
# Convention : Reuss Voigt Hill
#
# Bulk Modulus (GPa) = 15.47396 25.63059 20.55228
# Shear Modulus (GPa) = 23.88280 29.61030 26.74655
#
# Velocity S-wave (km/s) = 3.38923 3.77381 3.58668
# Velocity P-wave (km/s) = 4.77057 5.59610 5.19974
#
# Compressibility (1/GPa) = 0.06462470
#
# Stress axis : x y z
#
# Youngs Moduli (GPa) = 63.37077 116.97738 23.29104
#
# Poissons Ratio (x) = 0.19810 0.00289
# Poissons Ratio (y) = 0.10732 -0.01160
# Poissons Ratio (z) = 0.00787 -0.05826
#
# Static dielectric constant tensor:
#      x y z
#    x 1.748080 0.000000 0.000000 
#    y 0.000000 1.692040 0.000000 
#    z 0.000000 0.000000 1.776530 
# 
# From -- ./inp_files/6392.got.cif
#   From: 2010.05.17/outbox.cif.g08.bks.cpg/sg58_4_cif.got.tgz:6392.got - 2010.06.03 14:20:14.
