data_PCOD9445155
_publ_section_title
;
Structure prediction by ZEFSAII (Michael W. Deem and Ramdas Pophale) SiO2 
 PCOD9445155
Probable space group: P N N M
;
_chemical_formula_sum "Si O2"
_cell_formula_units_Z 58
_cell_length_a 13.384754
_cell_length_b 11.716064
_cell_length_c 15.879187
_cell_angle_alpha 90.000000
_cell_angle_beta 90.000000
_cell_angle_gamma 90.000000
_cell_volume 2490.120664
_symmetry_space_group_name_H-M "P N N M"
_symmetry_group_IT_number 58
_symmetry_cell_setting 'orthorhombic'
loop_
_space_group_symop_operation_xyz
x,y,z
-x,-y,z
1/2+x,1/2-y,1/2-z
1/2-x,1/2+y,1/2-z
-x,-y,-z
x,y,-z
1/2-x,1/2+y,1/2+z
1/2+x,1/2-y,1/2+z
loop_
_atom_site_type_symbol
_atom_site_label
_atom_site_fract_x
_atom_site_fract_y
_atom_site_fract_z
Si Si1 0.974075 0.163228 0.135255
Si Si2 0.243997 0.023961 0.589419
Si Si3 0.893859 0.635811 0.151438
Si Si4 0.500000 0.500000 0.500000
Si Si5 0.110272 0.467969 0.661326
Si Si6 0.296146 0.214320 0.176639
Si Si7 0.261604 0.282176 0.626625
Si Si8 0.424703 0.410395 0.823044
O O1 0.862804 0.157143 0.097534
O O2 0.970650 0.118890 0.231394
O O3 0.007040 0.294563 0.132237
O O4 0.039489 0.086538 0.074733
O O5 0.200826 0.982175 0.500000
O O6 0.243556 0.158890 0.589219
O O7 0.353611 0.969979 0.598284
O O8 0.180231 0.978580 0.669161
O O9 0.903119 0.586269 0.245445
O O10 0.806561 0.732541 0.141856
O O11 0.177946 0.582251 0.666696
O O12 0.170703 0.368237 0.614934
O O13 0.000000 0.500000 0.629416
O O14 0.285353 0.251037 0.275061
O O15 0.390591 0.287854 0.141884
O O16 0.500000 0.500000 0.865206
#
# Coordination Sequence:
#
# PCOD9445155 Si02
#       8
#     8   8   8   2   8   8   8   8
#     4  11  25  42  64 102 135 183 223 286 352 425
#     4  11  25  44  65  98 140 188 231 285 351 417
#     4  10  23  39  66  95 139 173 222 287 347 419
#     4  12  28  40  68 102 140 176 232 268 368 424
#     4  11  21  36  66 102 130 176 236 289 348 417
#     4   9  20  36  61 100 127 173 226 284 347 410
#     4  10  23  39  61  92 141 178 224 287 352 416
#     4  10  22  41  69  94 134 177 236 290 339 408
#
# _framework density 23.292043
#
# number of rings (size 3 to 8) (size 9 to 14) (size 15 to 20)
#    0.000    1.655    2.069    2.483    9.655    0.276 
#    0.000    0.690    0.000    1.241    0.000    0.000 
#    0.000    0.000    0.000    0.000    0.000    0.000 
#
# Total GULP energy -323011.554861 kJ/mol
# GULP energy per Si atom -5569.164739 kJ/mol
# Density = 2.323903 g / cm^3
# Si number density = 23.292043 Si / 1000 Ang^3
#
#
#
# Elastic Constant Matrix: (Units=GPa)
#
#
# Indices 1 2 3 4 5 6 
#
# 1 93.1034 49.0225 10.0206 0.0000 0.0000 0.0000
# 2 49.0225 171.4898 20.6419 0.0000 0.0000 0.0000
# 3 10.0206 20.6419 36.7063 0.0000 0.0000 0.0000
# 4 0.0000 0.0000 0.0000 -3.9882 0.0000 0.0000
# 5 0.0000 0.0000 0.0000 0.0000 -33.6812 0.0000
# 6 0.0000 0.0000 0.0000 0.0000 0.0000 51.6064
#
#
#
# Elastic Compliance Matrix: (Units=1/GPa)
#
#
# Indices 1 2 3 4 5 6 
#
# 1 0.012724 -0.003453 -0.001532 0.000000 0.000000 0.000000
# 2 -0.003453 0.007192 -0.003102 0.000000 0.000000 0.000000
# 3 -0.001532 -0.003102 0.029406 0.000000 0.000000 0.000000
# 4 0.000000 0.000000 0.000000 -0.250737 0.000000 0.000000
# 5 0.000000 0.000000 0.000000 0.000000 -0.029690 0.000000
# 6 0.000000 0.000000 0.000000 0.000000 0.000000 0.019377
#
#
# Mechanical properties :
#
#
# Convention : Reuss Voigt Hill
#
# Bulk Modulus (GPa) = 30.16731 51.18548 40.67639
# Shear Modulus (GPa) = -27.09931 17.56168 -4.76882
#
# Velocity S-wave (km/s) = -3.41465 2.74884 -1.43243
# Velocity P-wave (km/s) = 1.60205 5.66552 3.84262
#
# Compressibility (1/GPa) = 0.03314847
#
# Stress axis : x y z
#
# Youngs Moduli (GPa) = 78.59373 139.05065 34.00708
#
# Poissons Ratio (x) = 0.48012 0.05209
# Poissons Ratio (y) = 0.27137 0.10548
# Poissons Ratio (z) = 0.12039 0.43128
#
# Static dielectric constant tensor:
#      x y z
#    x 1.989790 0.000000 0.000000 
#    y 0.000000 1.914610 0.000000 
#    z 0.000000 0.000000 1.891480 
# 
# From -- ./inp_files/26965.got.cif
#   From: 2010.05.17/outbox.cif.g08.bks.cpg/sg58_14_cif.got.tgz:26965.got - 2010.06.03 14:20:14.
