data_PCOD9445483
_publ_section_title
;
Structure prediction by ZEFSAII (Michael W. Deem and Ramdas Pophale) SiO2 
 PCOD9445483
Probable space group: P N N M
;
_chemical_formula_sum "Si O2"
_cell_formula_units_Z 18
_cell_length_a 4.683815
_cell_length_b 11.051824
_cell_length_c 12.982612
_cell_angle_alpha 90.000000
_cell_angle_beta 90.000000
_cell_angle_gamma 90.000000
_cell_volume 672.041003
_symmetry_space_group_name_H-M "P N N M"
_symmetry_group_IT_number 58
_symmetry_cell_setting 'orthorhombic'
loop_
_space_group_symop_operation_xyz
x,y,z
-x,-y,z
1/2+x,1/2-y,1/2-z
1/2-x,1/2+y,1/2-z
-x,-y,-z
x,y,-z
1/2-x,1/2+y,1/2+z
1/2+x,1/2-y,1/2+z
loop_
_atom_site_type_symbol
_atom_site_label
_atom_site_fract_x
_atom_site_fract_y
_atom_site_fract_z
Si Si1 0.500000 0.000000 0.500000
Si Si2 0.962198 0.162209 0.607320
Si Si3 0.737454 0.412319 0.322638
O O1 0.295593 0.929727 0.588060
O O2 0.151444 0.148464 0.500000
O O3 0.835546 0.296162 0.613758
O O4 0.114946 0.138531 0.714619
O O5 0.500000 0.500000 0.370788
O O6 0.000000 0.500000 0.306892
#
# Coordination Sequence:
#
# PCOD9445483 Si02
#       3
#     2   8   8
#     4   8  24  56  88 120 156 226 272 344 392 512
#     4  10  26  53  86 119 167 212 280 334 409 487
#     4  12  28  50  85 122 167 217 273 342 416 483
#
# _framework density 26.784078999999998
#
# number of rings (size 3 to 8) (size 9 to 14) (size 15 to 20)
#    1.333    0.000    0.000    2.667    9.333    3.556 
#    0.000   15.556    0.000    0.000    0.000    0.000 
#    0.000    0.000    0.000    0.000    0.000    0.000 
#
# Total GULP energy -100641.469030 kJ/mol
# GULP energy per Si atom -5591.192724 kJ/mol
# Density = 2.672312 g / cm^3
# Si number density = 26.784079 Si / 1000 Ang^3
#
#
#
# Elastic Constant Matrix: (Units=GPa)
#
#
# Indices 1 2 3 4 5 6 
#
# 1 119.6130 30.9680 36.9749 0.0000 0.0000 0.0000
# 2 30.9680 206.6859 76.8929 0.0000 0.0000 0.0000
# 3 36.9749 76.8929 166.9791 0.0000 0.0000 0.0000
# 4 0.0000 0.0000 0.0000 161.4491 0.0000 0.0000
# 5 0.0000 0.0000 0.0000 0.0000 51.4872 0.0000
# 6 0.0000 0.0000 0.0000 0.0000 0.0000 44.0390
#
#
#
# Elastic Compliance Matrix: (Units=1/GPa)
#
#
# Indices 1 2 3 4 5 6 
#
# 1 0.009067 -0.000738 -0.001668 0.000000 0.000000 0.000000
# 2 -0.000738 0.005899 -0.002553 0.000000 0.000000 0.000000
# 3 -0.001668 -0.002553 0.007534 0.000000 0.000000 0.000000
# 4 0.000000 0.000000 0.000000 0.006194 0.000000 0.000000
# 5 0.000000 0.000000 0.000000 0.000000 0.019422 0.000000
# 6 0.000000 0.000000 0.000000 0.000000 0.000000 0.022707
#
#
# Mechanical properties :
#
#
# Convention : Reuss Voigt Hill
#
# Bulk Modulus (GPa) = 79.48043 86.99441 83.23742
# Shear Modulus (GPa) = 58.86932 74.62454 66.74693
#
# Velocity S-wave (km/s) = 4.69329 5.28413 4.99745
# Velocity P-wave (km/s) = 7.68818 8.35343 8.02770
#
# Compressibility (1/GPa) = 0.01258171
#
# Stress axis : x y z
#
# Youngs Moduli (GPa) = 110.29075 169.53281 132.73749
#
# Poissons Ratio (x) = 0.12512 0.22139
# Poissons Ratio (y) = 0.08140 0.33886
# Poissons Ratio (z) = 0.18395 0.43279
#
# Static dielectric constant tensor:
#      x y z
#    x 0.865080 0.000000 0.000000 
#    y 0.000000 2.086620 0.000000 
#    z 0.000000 0.000000 2.110110 
# 
# From -- ./inp_files/11231.got.cif
#   From: 2010.05.17/outbox.cif.g08.bks.cpg/sg58_6_cif.got.tgz:11231.got - 2010.06.03 14:20:14.
