data_PCOD9445500
_publ_section_title
;
Structure prediction by ZEFSAII (Michael W. Deem and Ramdas Pophale) SiO2 
 PCOD9445500
Probable space group: P N N M
;
_chemical_formula_sum "Si O2"
_cell_formula_units_Z 60
_cell_length_a 14.201717
_cell_length_b 7.312744
_cell_length_c 23.544803
_cell_angle_alpha 90.000000
_cell_angle_beta 90.000000
_cell_angle_gamma 90.000000
_cell_volume 2445.210688
_symmetry_space_group_name_H-M "P N N M"
_symmetry_group_IT_number 58
_symmetry_cell_setting 'orthorhombic'
loop_
_space_group_symop_operation_xyz
x,y,z
-x,-y,z
1/2+x,1/2-y,1/2-z
1/2-x,1/2+y,1/2-z
-x,-y,-z
x,y,-z
1/2-x,1/2+y,1/2+z
1/2+x,1/2-y,1/2+z
loop_
_atom_site_type_symbol
_atom_site_label
_atom_site_fract_x
_atom_site_fract_y
_atom_site_fract_z
Si Si1 0.606850 0.379058 0.500000
Si Si2 0.242976 0.233823 0.096605
Si Si3 0.453035 0.188806 0.420766
Si Si4 0.418269 0.255763 0.707627
Si Si5 0.639282 0.341747 0.710038
Si Si6 0.757409 0.845112 0.439973
Si Si7 0.586480 0.761337 0.830806
Si Si8 0.373989 0.681057 0.168289
O O1 0.688274 0.384311 0.449495
O O2 0.526097 0.327478 0.449714
O O3 0.182878 0.251579 0.155104
O O4 0.251031 0.434816 0.068882
O O5 0.344321 0.169069 0.120225
O O6 0.428373 0.168361 0.353939
O O7 0.349482 0.220783 0.443761
O O8 0.500000 0.000000 0.438035
O O9 0.528217 0.304422 0.717257
O O10 0.358667 0.440826 0.700550
O O11 0.389481 0.164161 0.767378
O O12 0.676307 0.283291 0.771560
O O13 0.806115 0.807233 0.500000
O O14 0.809599 0.774791 0.384799
O O15 0.606259 0.539973 0.829548
O O16 0.474910 0.778058 0.839274
#
# Coordination Sequence:
#
# PCOD9445500 Si02
#       8
#     4   8   8   8   8   8   8   8
#     4  12  21  34  47  75 112 142 173 209 277 333
#     4  11  19  32  51  75 102 143 173 214 265 328
#     4  12  20  33  50  74 108 144 169 212 269 326
#     4   9  18  33  52  72 103 136 172 224 269 312
#     4   9  17  33  52  73 102 135 176 219 275 316
#     4  11  20  32  51  74 106 139 177 213 273 329
#     4   8  17  33  51  72 102 132 173 223 272 313
#     4   8  17  33  50  74 100 135 174 225 270 320
#
# _framework density 24.537762000000001
#
# number of rings (size 3 to 8) (size 9 to 14) (size 15 to 20)
#    0.000    2.133    4.000    1.800    1.867    0.000 
#    1.200    2.667    0.000    0.000    0.000    0.000 
#    0.000    1.067    0.000    0.000    0.000    0.000 
#
# Total GULP energy -334214.049954 kJ/mol
# GULP energy per Si atom -5570.234166 kJ/mol
# Density = 2.448191 g / cm^3
# Si number density = 24.537762 Si / 1000 Ang^3
#
#
#
# Elastic Constant Matrix: (Units=GPa)
#
#
# Indices 1 2 3 4 5 6 
#
# 1 128.1630 14.1408 84.0948 0.0000 0.0000 0.0000
# 2 14.1408 68.3488 15.5450 0.0000 0.0000 0.0000
# 3 84.0948 15.5450 241.5541 0.0000 0.0000 0.0000
# 4 0.0000 0.0000 0.0000 30.1933 0.0000 0.0000
# 5 0.0000 0.0000 0.0000 0.0000 48.9934 0.0000
# 6 0.0000 0.0000 0.0000 0.0000 0.0000 -8.1852
#
#
#
# Elastic Compliance Matrix: (Units=1/GPa)
#
#
# Indices 1 2 3 4 5 6 
#
# 1 0.010230 -0.001326 -0.003476 0.000000 0.000000 0.000000
# 2 -0.001326 0.015020 -0.000505 0.000000 0.000000 0.000000
# 3 -0.003476 -0.000505 0.005383 0.000000 0.000000 0.000000
# 4 0.000000 0.000000 0.000000 0.033120 0.000000 0.000000
# 5 0.000000 0.000000 0.000000 0.000000 0.020411 0.000000
# 6 0.000000 0.000000 0.000000 0.000000 0.000000 -0.122171
#
#
# Mechanical properties :
#
#
# Convention : Reuss Voigt Hill
#
# Bulk Modulus (GPa) = 49.95411 73.95855 61.95633
# Shear Modulus (GPa) = -241.29283 35.81931 -102.73676
#
# Velocity S-wave (km/s) = -9.92717 3.82483 -6.47763
# Velocity P-wave (km/s) = 10.53547 7.05067 5.53553
#
# Compressibility (1/GPa) = 0.02001837
#
# Stress axis : x y z
#
# Youngs Moduli (GPa) = 97.75489 66.57785 185.78695
#
# Poissons Ratio (x) = 0.08827 0.64580
# Poissons Ratio (y) = 0.12961 0.09382
# Poissons Ratio (z) = 0.33980 0.03362
#
# Static dielectric constant tensor:
#      x y z
#    x 1.932610 0.000000 0.000000 
#    y 0.000000 2.029660 0.000000 
#    z 0.000000 0.000000 1.999390 
# 
# From -- ./inp_files/30145.got.cif
#   From: 2010.05.17/outbox.cif.g08.bks.cpg/sg58_16_cif.got.tgz:30145.got - 2010.06.03 14:20:14.
