data_PCOD9445586
_publ_section_title
;
Structure prediction by ZEFSAII (Michael W. Deem and Ramdas Pophale) SiO2 
 PCOD9445586
Probable space group: P N N M
;
_chemical_formula_sum "Si O2"
_cell_formula_units_Z 56
_cell_length_a 14.234223
_cell_length_b 7.624870
_cell_length_c 21.155789
_cell_angle_alpha 90.000000
_cell_angle_beta 90.000000
_cell_angle_gamma 90.000000
_cell_volume 2296.124517
_symmetry_space_group_name_H-M "P N N M"
_symmetry_group_IT_number 58
_symmetry_cell_setting 'orthorhombic'
loop_
_space_group_symop_operation_xyz
x,y,z
-x,-y,z
1/2+x,1/2-y,1/2-z
1/2-x,1/2+y,1/2-z
-x,-y,-z
x,y,-z
1/2-x,1/2+y,1/2+z
1/2+x,1/2-y,1/2+z
loop_
_atom_site_type_symbol
_atom_site_label
_atom_site_fract_x
_atom_site_fract_y
_atom_site_fract_z
Si Si1 0.801851 0.862931 0.432820
Si Si2 0.087801 0.123693 0.829919
Si Si3 0.415047 0.125647 0.834269
Si Si4 0.097975 0.607176 0.930486
Si Si5 0.361858 0.490461 0.192075
Si Si6 0.141732 0.500084 0.804111
Si Si7 0.751118 0.452036 0.572152
O O1 0.851053 0.890648 0.500000
O O2 0.766806 0.662253 0.429427
O O3 0.704073 0.975244 0.434860
O O4 0.862857 0.894798 0.371189
O O5 0.122099 0.073146 0.759898
O O6 0.161035 0.089211 0.885855
O O7 0.080089 0.333148 0.823704
O O8 0.000000 0.000000 0.844008
O O9 0.431423 0.328149 0.817696
O O10 0.500000 0.000000 0.852209
O O11 0.376364 0.052409 0.767694
O O12 0.339545 0.124621 0.890139
O O13 0.115304 0.652588 0.855312
O O14 0.000000 0.500000 0.932539
O O15 0.093140 0.706511 0.000000
O O16 0.250616 0.439684 0.193662
O O17 0.743907 0.391298 0.500000
#
# Coordination Sequence:
#
# PCOD9445586 Si02
#       7
#     8   8   8   8   8   8   8
#     4   9  21  40  66  91 125 175 216 262 329 394
#     4  12  26  41  65  98 134 174 219 271 332 403
#     4  12  25  43  70  99 131 173 223 277 329 392
#     4   9  19  33  56  90 128 169 214 259 312 388
#     4  11  22  41  68  94 131 173 215 274 328 392
#     4  11  21  39  62  96 129 173 211 273 328 388
#     4  11  25  45  66  93 133 177 217 272 336 395
#
# _framework density 24.388922999999998
#
# number of rings (size 3 to 8) (size 9 to 14) (size 15 to 20)
#    0.000    1.286    2.857    2.143    6.000    1.714 
#    0.000    0.000    0.000    2.143    0.000    0.000 
#    0.000    0.000    0.000    0.000    0.000    0.000 
#
# Total GULP energy -312402.960105 kJ/mol
# GULP energy per Si atom -5578.624288 kJ/mol
# Density = 2.433341 g / cm^3
# Si number density = 24.388923 Si / 1000 Ang^3
#
#
#
# Elastic Constant Matrix: (Units=GPa)
#
#
# Indices 1 2 3 4 5 6 
#
# 1 61.9478 -2.2838 59.0751 0.0000 0.0000 0.0000
# 2 -2.2838 77.8302 40.0280 0.0000 0.0000 0.0000
# 3 59.0751 40.0280 239.4576 0.0000 0.0000 0.0000
# 4 0.0000 0.0000 0.0000 22.2739 0.0000 0.0000
# 5 0.0000 0.0000 0.0000 0.0000 8.6425 0.0000
# 6 0.0000 0.0000 0.0000 0.0000 0.0000 24.1597
#
#
#
# Elastic Compliance Matrix: (Units=1/GPa)
#
#
# Indices 1 2 3 4 5 6 
#
# 1 0.022077 0.003773 -0.006077 0.000000 0.000000 0.000000
# 2 0.003773 0.014702 -0.003388 0.000000 0.000000 0.000000
# 3 -0.006077 -0.003388 0.006242 0.000000 0.000000 0.000000
# 4 0.000000 0.000000 0.000000 0.044896 0.000000 0.000000
# 5 0.000000 0.000000 0.000000 0.000000 0.115707 0.000000
# 6 0.000000 0.000000 0.000000 0.000000 0.000000 0.041391
#
#
# Mechanical properties :
#
#
# Convention : Reuss Voigt Hill
#
# Bulk Modulus (GPa) = 31.60946 63.65270 47.63108
# Shear Modulus (GPa) = 18.73045 29.84296 24.28671
#
# Velocity S-wave (km/s) = 2.77427 3.50183 3.15907
# Velocity P-wave (km/s) = 4.82191 6.51967 5.73398
#
# Compressibility (1/GPa) = 0.03163610
#
# Stress axis : x y z
#
# Youngs Moduli (GPa) = 45.29559 68.01837 160.20969
#
# Poissons Ratio (x) = -0.25666 0.97364
# Poissons Ratio (y) = -0.17092 0.54287
# Poissons Ratio (z) = 0.27527 0.23048
#
# Static dielectric constant tensor:
#      x y z
#    x 1.984630 0.000000 0.000000 
#    y 0.000000 2.005080 0.000000 
#    z 0.000000 0.000000 1.955250 
# 
# From -- ./inp_files/30018.got.cif
#   From: 2010.05.17/outbox.cif.g08.bks.cpg/sg58_16_cif.got.tgz:30018.got - 2010.06.03 14:20:14.
