data_PCOD9445579
_publ_section_title
;
Structure prediction by ZEFSAII (Michael W. Deem and Ramdas Pophale) SiO2 
 PCOD9445579
Probable space group: P N N M
;
_chemical_formula_sum "Si O2"
_cell_formula_units_Z 34
_cell_length_a 7.275950
_cell_length_b 9.401504
_cell_length_c 22.375942
_cell_angle_alpha 90.000000
_cell_angle_beta 90.000000
_cell_angle_gamma 90.000000
_cell_volume 1530.623471
_symmetry_space_group_name_H-M "P N N M"
_symmetry_group_IT_number 58
_symmetry_cell_setting 'orthorhombic'
loop_
_space_group_symop_operation_xyz
x,y,z
-x,-y,z
1/2+x,1/2-y,1/2-z
1/2-x,1/2+y,1/2-z
-x,-y,-z
x,y,-z
1/2-x,1/2+y,1/2+z
1/2+x,1/2-y,1/2+z
loop_
_atom_site_type_symbol
_atom_site_label
_atom_site_fract_x
_atom_site_fract_y
_atom_site_fract_z
Si Si1 0.154315 0.108547 0.283473
Si Si2 0.735118 0.915235 0.590678
Si Si3 0.500000 0.500000 0.000000
Si Si4 0.874444 0.733060 0.066280
Si Si5 0.602590 0.852129 0.166820
O O1 0.258308 0.041866 0.339916
O O2 0.282977 0.142175 0.228612
O O3 0.055554 0.238834 0.317040
O O4 0.000000 0.000000 0.261842
O O5 0.920418 0.891073 0.553406
O O6 0.589062 0.788466 0.583449
O O7 0.680915 0.066229 0.560975
O O8 0.745645 0.806719 0.115209
O O9 0.856808 0.796547 0.000000
O O10 0.500000 0.000000 0.154149
#
# Coordination Sequence:
#
# PCOD9445579 Si02
#       5
#     8   8   2   8   8
#     4  12  24  44  70  99 134 183 241 295 353 423
#     4  11  21  37  71 103 133 175 239 301 343 415
#     4  12  16  34  60 112 134 158 228 304 360 386
#     4  11  22  42  67 101 143 182 235 292 362 428
#     4  12  27  44  67 101 145 189 235 299 366 436
#
# _framework density 22.213170000000002
#
# number of rings (size 3 to 8) (size 9 to 14) (size 15 to 20)
#    0.000    0.471    5.882    3.529    3.294    0.471 
#    0.000    0.000    0.000    2.118    0.000    0.000 
#    0.000    0.000    0.000    0.000    0.000    0.000 
#
# Total GULP energy -189276.832315 kJ/mol
# GULP energy per Si atom -5566.965656 kJ/mol
# Density = 2.216261 g / cm^3
# Si number density = 22.213170 Si / 1000 Ang^3
#
#
#
# Elastic Constant Matrix: (Units=GPa)
#
#
# Indices 1 2 3 4 5 6 
#
# 1 102.8390 27.6787 49.3024 0.0000 0.0000 0.0000
# 2 27.6787 64.5476 -4.5222 0.0000 0.0000 0.0000
# 3 49.3024 -4.5222 180.1611 0.0000 0.0000 0.0000
# 4 0.0000 0.0000 0.0000 14.8798 0.0000 0.0000
# 5 0.0000 0.0000 0.0000 0.0000 33.8388 0.0000
# 6 0.0000 0.0000 0.0000 0.0000 0.0000 19.9848
#
#
#
# Elastic Compliance Matrix: (Units=1/GPa)
#
#
# Indices 1 2 3 4 5 6 
#
# 1 0.013094 -0.005876 -0.003731 0.000000 0.000000 0.000000
# 2 -0.005876 0.018157 0.002064 0.000000 0.000000 0.000000
# 3 -0.003731 0.002064 0.006623 0.000000 0.000000 0.000000
# 4 0.000000 0.000000 0.000000 0.067205 0.000000 0.000000
# 5 0.000000 0.000000 0.000000 0.000000 0.029552 0.000000
# 6 0.000000 0.000000 0.000000 0.000000 0.000000 0.050038
#
#
# Mechanical properties :
#
#
# Convention : Reuss Voigt Hill
#
# Bulk Modulus (GPa) = 43.88308 54.71841 49.30074
# Shear Modulus (GPa) = 24.11360 32.07993 28.09676
#
# Velocity S-wave (km/s) = 3.29835 3.80437 3.56036
# Velocity P-wave (km/s) = 5.85694 6.63207 6.25652
#
# Compressibility (1/GPa) = 0.02278783
#
# Stress axis : x y z
#
# Youngs Moduli (GPa) = 76.37025 55.07570 150.98096
#
# Poissons Ratio (x) = 0.32364 0.56328
# Poissons Ratio (y) = 0.44877 -0.31160
# Poissons Ratio (z) = 0.28492 -0.11367
#
# Static dielectric constant tensor:
#      x y z
#    x 2.215830 0.000000 0.000000 
#    y 0.000000 1.911480 0.000000 
#    z 0.000000 0.000000 1.818300 
# 
# From -- ./inp_files/28555.got.cif
#   From: 2010.05.17/outbox.cif.g08.bks.cpg/sg58_15_cif.got.tgz:28555.got - 2010.06.03 14:20:14.
