data_PCOD9445641
_publ_section_title
;
Structure prediction by ZEFSAII (Michael W. Deem and Ramdas Pophale) SiO2 
 PCOD9445641
Probable space group: P N N M
;
_chemical_formula_sum "Si O2"
_cell_formula_units_Z 34
_cell_length_a 10.070344
_cell_length_b 11.202539
_cell_length_c 14.652931
_cell_angle_alpha 90.000000
_cell_angle_beta 90.000000
_cell_angle_gamma 90.000000
_cell_volume 1653.047280
_symmetry_space_group_name_H-M "P N N M"
_symmetry_group_IT_number 58
_symmetry_cell_setting 'orthorhombic'
loop_
_space_group_symop_operation_xyz
x,y,z
-x,-y,z
1/2+x,1/2-y,1/2-z
1/2-x,1/2+y,1/2-z
-x,-y,-z
x,y,-z
1/2-x,1/2+y,1/2+z
1/2+x,1/2-y,1/2+z
loop_
_atom_site_type_symbol
_atom_site_label
_atom_site_fract_x
_atom_site_fract_y
_atom_site_fract_z
Si Si1 0.387948 0.582578 0.353717
Si Si2 0.000000 0.000000 0.500000
Si Si3 0.639084 0.068784 0.210606
Si Si4 0.962506 0.819116 0.656833
Si Si5 0.236160 0.326174 0.896997
O O1 0.500000 0.500000 0.397261
O O2 0.255605 0.506499 0.335551
O O3 0.445642 0.623105 0.255669
O O4 0.349798 0.706090 0.401098
O O5 0.930844 0.915802 0.580151
O O6 0.620824 0.197155 0.161814
O O7 0.676075 0.091985 0.317171
O O8 0.500000 0.000000 0.205387
O O9 0.116681 0.790501 0.636438
O O10 0.252238 0.377326 0.000000
#
# Coordination Sequence:
#
# PCOD9445641 Si02
#       5
#     8   2   8   8   8
#     4  11  22  42  67  93 135 182 218 270 345 406
#     4  12  20  40  66 100 128 160 232 282 324 402
#     4  11  23  42  67 100 131 176 224 274 341 405
#     4  11  22  38  69  98 129 174 219 281 338 394
#     4  11  23  40  66  99 134 172 226 280 334 395
#
# _framework density 20.568073999999999
#
# number of rings (size 3 to 8) (size 9 to 14) (size 15 to 20)
#    0.000    0.941    7.059    0.000    0.000    0.941 
#    2.118    1.765   10.353    0.000    0.000    0.000 
#    0.000    0.000    0.000    0.000    0.000    0.000 
#
# Total GULP energy -189443.376438 kJ/mol
# GULP energy per Si atom -5571.864013 kJ/mol
# Density = 2.052126 g / cm^3
# Si number density = 20.568074 Si / 1000 Ang^3
#
#
#
# Elastic Constant Matrix: (Units=GPa)
#
#
# Indices 1 2 3 4 5 6 
#
# 1 90.1985 3.2689 10.3262 0.0000 0.0000 0.0000
# 2 3.2689 64.9643 16.6330 0.0000 0.0000 0.0000
# 3 10.3262 16.6330 122.5578 0.0000 0.0000 0.0000
# 4 0.0000 0.0000 0.0000 50.0850 0.0000 0.0000
# 5 0.0000 0.0000 0.0000 0.0000 14.7502 0.0000
# 6 0.0000 0.0000 0.0000 0.0000 0.0000 37.9968
#
#
#
# Elastic Compliance Matrix: (Units=1/GPa)
#
#
# Indices 1 2 3 4 5 6 
#
# 1 0.011202 -0.000334 -0.000899 0.000000 0.000000 0.000000
# 2 -0.000334 0.015957 -0.002138 0.000000 0.000000 0.000000
# 3 -0.000899 -0.002138 0.008525 0.000000 0.000000 0.000000
# 4 0.000000 0.000000 0.000000 0.019966 0.000000 0.000000
# 5 0.000000 0.000000 0.000000 0.000000 0.067796 0.000000
# 6 0.000000 0.000000 0.000000 0.000000 0.000000 0.026318
#
#
# Mechanical properties :
#
#
# Convention : Reuss Voigt Hill
#
# Bulk Modulus (GPa) = 34.54868 37.57520 36.06194
# Shear Modulus (GPa) = 30.09308 37.06590 33.57949
#
# Velocity S-wave (km/s) = 3.82919 4.24973 4.04493
# Velocity P-wave (km/s) = 6.03192 6.51066 6.27585
#
# Compressibility (1/GPa) = 0.02894467
#
# Stress axis : x y z
#
# Youngs Moduli (GPa) = 89.27281 62.66791 117.29903
#
# Poissons Ratio (x) = 0.02091 0.10540
# Poissons Ratio (y) = 0.02978 0.25073
# Poissons Ratio (z) = 0.08021 0.13395
#
# Static dielectric constant tensor:
#      x y z
#    x 1.715950 0.000000 0.000000 
#    y 0.000000 1.762390 0.000000 
#    z 0.000000 0.000000 1.696200 
# 
# From -- ./inp_files/20814.got.cif
#   From: 2010.05.17/outbox.cif.g08.bks.cpg/sg58_11_cif.got.tgz:20814.got - 2010.06.03 14:20:14.
