data_PCOD9445866
_publ_section_title
;
Structure prediction by ZEFSAII (Michael W. Deem and Ramdas Pophale) SiO2 
 PCOD9445866
Probable space group: P N N M
;
_chemical_formula_sum "Si O2"
_cell_formula_units_Z 32
_cell_length_a 13.583850
_cell_length_b 7.231799
_cell_length_c 11.532279
_cell_angle_alpha 90.000000
_cell_angle_beta 90.000000
_cell_angle_gamma 90.000000
_cell_volume 1132.881187
_symmetry_space_group_name_H-M "P N N M"
_symmetry_group_IT_number 58
_symmetry_cell_setting 'orthorhombic'
loop_
_space_group_symop_operation_xyz
x,y,z
-x,-y,z
1/2+x,1/2-y,1/2-z
1/2-x,1/2+y,1/2-z
-x,-y,-z
x,y,-z
1/2-x,1/2+y,1/2+z
1/2+x,1/2-y,1/2+z
loop_
_atom_site_type_symbol
_atom_site_label
_atom_site_fract_x
_atom_site_fract_y
_atom_site_fract_z
Si Si1 0.248893 0.820515 0.376411
Si Si2 0.224851 0.908989 0.875182
Si Si3 0.516026 0.777628 0.123529
Si Si4 0.485019 0.221629 0.627142
O O1 0.269809 0.919122 0.500000
O O2 0.275785 0.899740 0.250895
O O3 0.301062 0.623468 0.381080
O O4 0.132084 0.773559 0.376695
O O5 0.129885 0.779240 0.870915
O O6 0.276633 0.871646 0.000000
O O7 0.476738 0.709023 0.247360
O O8 0.500000 0.000000 0.122693
O O9 0.476195 0.706268 0.000000
O O10 0.518778 0.286461 0.500000
O O11 0.500000 0.000000 0.627892
#
# Coordination Sequence:
#
# PCOD9445866 Si02
#       4
#     8   8   8   8
#     4   9  17  28  42  63  90 116 143 179 221 261
#     4   9  17  28  42  63  90 116 143 179 221 261
#     4   8  13  22  37  57  79 103 134 171 207 245
#     4   8  13  22  37  57  79 103 134 171 207 245
#
# _framework density 28.246562999999998
#
# number of rings (size 3 to 8) (size 9 to 14) (size 15 to 20)
#    0.000    3.500    0.000    0.000    0.000    1.000 
#    0.000    0.000    0.000    0.000    0.000   28.000 
#    0.000  184.000    0.000    0.000    0.000    0.000 
#
# Total GULP energy -178639.665223 kJ/mol
# GULP energy per Si atom -5582.489538 kJ/mol
# Density = 2.818227 g / cm^3
# Si number density = 28.246563 Si / 1000 Ang^3
#
#
#
# Elastic Constant Matrix: (Units=GPa)
#
#
# Indices 1 2 3 4 5 6 
#
# 1 108.0916 -9.4478 42.1837 0.0000 0.0000 0.0000
# 2 -9.4478 77.1760 56.2073 0.0000 0.0000 0.0000
# 3 42.1837 56.2073 448.6046 0.0000 0.0000 0.0000
# 4 0.0000 0.0000 0.0000 -26.9946 0.0000 0.0000
# 5 0.0000 0.0000 0.0000 0.0000 -20.6351 0.0000
# 6 0.0000 0.0000 0.0000 0.0000 0.0000 24.0683
#
#
#
# Elastic Compliance Matrix: (Units=1/GPa)
#
#
# Indices 1 2 3 4 5 6 
#
# 1 0.009898 0.002079 -0.001191 0.000000 0.000000 0.000000
# 2 0.002079 0.014695 -0.002037 0.000000 0.000000 0.000000
# 3 -0.001191 -0.002037 0.002596 0.000000 0.000000 0.000000
# 4 0.000000 0.000000 0.000000 -0.037044 0.000000 0.000000
# 5 0.000000 0.000000 0.000000 0.000000 -0.048461 0.000000
# 6 0.000000 0.000000 0.000000 0.000000 0.000000 0.041548
#
#
# Mechanical properties :
#
#
# Convention : Reuss Voigt Hill
#
# Bulk Modulus (GPa) = 40.17310 90.19541 65.18425
# Shear Modulus (GPa) = -810.03844 31.61632 -389.21106
#
# Velocity S-wave (km/s) = -16.95278 3.34922 -11.75116
# Velocity P-wave (km/s) = 19.20787 6.85253 12.68829
#
# Compressibility (1/GPa) = 0.02489228
#
# Stress axis : x y z
#
# Youngs Moduli (GPa) = 101.02996 68.04893 385.15673
#
# Poissons Ratio (x) = -0.14149 0.45883
# Poissons Ratio (y) = -0.21007 0.78447
# Poissons Ratio (z) = 0.12035 0.13860
#
# Static dielectric constant tensor:
#      x y z
#    x 2.134570 0.000000 0.000000 
#    y 0.000000 2.221820 0.000000 
#    z 0.000000 0.000000 2.240370 
# 
# From -- ./inp_files/11527.got.cif
#   From: 2010.05.17/outbox.cif.g08.bks.cpg/sg58_6_cif.got.tgz:11527.got - 2010.06.03 14:20:14.
