data_PCOD9445218
_publ_section_title
;
Structure prediction by ZEFSAII (Michael W. Deem and Ramdas Pophale) SiO2 
 PCOD9445218
Probable space group: P N N M
;
_chemical_formula_sum "Si O2"
_cell_formula_units_Z 64
_cell_length_a 14.240087
_cell_length_b 11.070514
_cell_length_c 17.025759
_cell_angle_alpha 90.000000
_cell_angle_beta 90.000000
_cell_angle_gamma 90.000000
_cell_volume 2684.027182
_symmetry_space_group_name_H-M "P N N M"
_symmetry_group_IT_number 58
_symmetry_cell_setting 'orthorhombic'
loop_
_space_group_symop_operation_xyz
x,y,z
-x,-y,z
1/2+x,1/2-y,1/2-z
1/2-x,1/2+y,1/2-z
-x,-y,-z
x,y,-z
1/2-x,1/2+y,1/2+z
1/2+x,1/2-y,1/2+z
loop_
_atom_site_type_symbol
_atom_site_label
_atom_site_fract_x
_atom_site_fract_y
_atom_site_fract_z
Si Si1 0.721417 0.891554 0.648347
Si Si2 0.220847 0.991266 0.189958
Si Si3 0.335009 0.817955 0.909700
Si Si4 0.008645 0.641937 0.839593
Si Si5 0.331007 0.402065 0.084059
Si Si6 0.159440 0.216642 0.909847
Si Si7 0.586083 0.693898 0.781331
Si Si8 0.455949 0.129533 0.090336
O O1 0.728375 0.960116 0.731493
O O2 0.788774 0.777864 0.647837
O O3 0.615490 0.854783 0.629159
O O4 0.769557 0.978613 0.586366
O O5 0.165240 0.101662 0.148410
O O6 0.296864 0.942925 0.127081
O O7 0.154175 0.879555 0.220291
O O8 0.446009 0.796982 0.911515
O O9 0.301607 0.809124 0.000000
O O10 0.927454 0.691671 0.895277
O O11 0.104327 0.689541 0.659563
O O12 0.000000 0.500000 0.817228
O O13 0.007337 0.741873 0.770178
O O14 0.250976 0.301165 0.100028
O O15 0.410991 0.404552 0.149793
O O16 0.374360 0.380224 0.000000
O O17 0.156584 0.173548 0.000000
O O18 0.500000 0.000000 0.110003
O O19 0.417942 0.121739 0.000000
#
# Coordination Sequence:
#
# PCOD9445218 Si02
#       8
#     8   8   8   8   8   8   8   8
#     4  11  24  44  70 101 135 178 233 282 339 414
#     4  11  26  45  69 100 137 187 229 276 345 408
#     4  11  25  46  71 100 141 183 227 284 346 414
#     4  12  25  43  70 103 132 177 224 284 344 393
#     4  10  22  43  70  98 134 179 225 280 343 406
#     4  11  26  45  69  99 137 178 230 284 338 412
#     4  11  24  42  67  98 138 178 220 283 335 411
#     4  10  24  43  70 107 141 178 229 288 348 408
#
# _framework density 23.844764000000001
#
# number of rings (size 3 to 8) (size 9 to 14) (size 15 to 20)
#    0.000    1.125    2.500    2.250    8.750    1.750 
#    2.250    0.625    0.000    3.750    0.000    0.000 
#    0.000    0.000    0.000    0.000    0.000    0.000 
#
# Total GULP energy -356571.414359 kJ/mol
# GULP energy per Si atom -5571.428349 kJ/mol
# Density = 2.379049 g / cm^3
# Si number density = 23.844764 Si / 1000 Ang^3
#
#
#
# Elastic Constant Matrix: (Units=GPa)
#
#
# Indices 1 2 3 4 5 6 
#
# 1 53.8142 25.3553 13.6889 0.0000 0.0000 0.0000
# 2 25.3553 80.7822 40.0625 0.0000 0.0000 0.0000
# 3 13.6889 40.0625 75.3309 0.0000 0.0000 0.0000
# 4 0.0000 0.0000 0.0000 37.5039 0.0000 0.0000
# 5 0.0000 0.0000 0.0000 0.0000 7.7522 0.0000
# 6 0.0000 0.0000 0.0000 0.0000 0.0000 41.2915
#
#
#
# Elastic Compliance Matrix: (Units=1/GPa)
#
#
# Indices 1 2 3 4 5 6 
#
# 1 0.021818 -0.006631 -0.000438 0.000000 0.000000 0.000000
# 2 -0.006631 0.018829 -0.008809 0.000000 0.000000 0.000000
# 3 -0.000438 -0.008809 0.018039 0.000000 0.000000 0.000000
# 4 0.000000 0.000000 0.000000 0.026664 0.000000 0.000000
# 5 0.000000 0.000000 0.000000 0.000000 0.128996 0.000000
# 6 0.000000 0.000000 0.000000 0.000000 0.000000 0.024218
#
#
# Mechanical properties :
#
#
# Convention : Reuss Voigt Hill
#
# Bulk Modulus (GPa) = 37.13264 40.90452 39.01858
# Shear Modulus (GPa) = 17.90220 26.03090 21.96655
#
# Velocity S-wave (km/s) = 2.74301 3.30765 3.03847
# Velocity P-wave (km/s) = 5.06346 5.63730 5.35807
#
# Compressibility (1/GPa) = 0.02693049
#
# Stress axis : x y z
#
# Youngs Moduli (GPa) = 45.83352 53.11073 55.43546
#
# Poissons Ratio (x) = 0.35216 0.02430
# Poissons Ratio (y) = 0.30391 0.48831
# Poissons Ratio (z) = 0.02009 0.46783
#
# Static dielectric constant tensor:
#      x y z
#    x 1.928280 0.000000 0.000000 
#    y 0.000000 2.052330 0.000000 
#    z 0.000000 0.000000 1.951650 
# 
# From -- ./inp_files/22963.got.cif
#   From: 2010.05.17/outbox.cif.g08.bks.cpg/sg58_12_cif.got.tgz:22963.got - 2010.06.03 14:20:14.
