data_PCOD9445071
_publ_section_title
;
Structure prediction by ZEFSAII (Michael W. Deem and Ramdas Pophale) SiO2 
 PCOD9445071
Probable space group: P N N M
;
_chemical_formula_sum "Si O2"
_cell_formula_units_Z 40
_cell_length_a 6.643410
_cell_length_b 15.167634
_cell_length_c 18.788947
_cell_angle_alpha 90.000000
_cell_angle_beta 90.000000
_cell_angle_gamma 90.000000
_cell_volume 1893.264701
_symmetry_space_group_name_H-M "P N N M"
_symmetry_group_IT_number 58
_symmetry_cell_setting 'orthorhombic'
loop_
_space_group_symop_operation_xyz
x,y,z
-x,-y,z
1/2+x,1/2-y,1/2-z
1/2-x,1/2+y,1/2-z
-x,-y,-z
x,y,-z
1/2-x,1/2+y,1/2+z
1/2+x,1/2-y,1/2+z
loop_
_atom_site_type_symbol
_atom_site_label
_atom_site_fract_x
_atom_site_fract_y
_atom_site_fract_z
Si Si1 0.975278 0.662473 0.679696
Si Si2 0.632231 0.646398 0.791869
Si Si3 0.374048 0.272211 0.415991
Si Si4 0.100750 0.406797 0.084323
Si Si5 0.120634 0.086326 0.828880
O O1 0.092884 0.748912 0.707683
O O2 0.141437 0.589831 0.662148
O O3 0.819148 0.629508 0.738805
O O4 0.841190 0.699266 0.614976
O O5 0.440913 0.602582 0.753622
O O6 0.703006 0.612454 0.868151
O O7 0.383529 0.286733 0.500000
O O8 0.440706 0.171788 0.401530
O O9 0.532333 0.333021 0.374412
O O10 0.000000 0.500000 0.101881
O O11 0.147847 0.405306 0.000000
O O12 0.000000 0.000000 0.852357
#
# Coordination Sequence:
#
# PCOD9445071 Si02
#       5
#     8   8   8   8   8
#     4  11  21  39  63  92 124 163 212 261 311 379
#     4  11  21  37  64  89 123 162 206 254 315 371
#     4  10  23  42  64  90 125 169 212 260 318 379
#     4  10  22  40  63  93 128 166 210 260 317 380
#     4  11  25  40  63  97 126 162 214 262 318 378
#
# _framework density 21.127524999999999
#
# number of rings (size 3 to 8) (size 9 to 14) (size 15 to 20)
#    0.000    1.400    4.000    1.200    2.800    4.400 
#    0.000    1.000    0.000    4.200    0.000    0.000 
#    0.000    0.000    0.000    0.000    0.000    0.000 
#
# Total GULP energy -223619.178386 kJ/mol
# GULP energy per Si atom -5590.479460 kJ/mol
# Density = 2.107944 g / cm^3
# Si number density = 21.127525 Si / 1000 Ang^3
#
#
#
# Elastic Constant Matrix: (Units=GPa)
#
#
# Indices 1 2 3 4 5 6 
#
# 1 97.9605 11.8992 30.0693 0.0000 0.0000 0.0000
# 2 11.8992 80.0691 17.9617 0.0000 0.0000 0.0000
# 3 30.0693 17.9617 78.4374 0.0000 0.0000 0.0000
# 4 0.0000 0.0000 0.0000 19.7538 0.0000 0.0000
# 5 0.0000 0.0000 0.0000 0.0000 10.1898 0.0000
# 6 0.0000 0.0000 0.0000 0.0000 0.0000 20.5870
#
#
#
# Elastic Compliance Matrix: (Units=1/GPa)
#
#
# Indices 1 2 3 4 5 6 
#
# 1 0.011614 -0.000767 -0.004277 0.000000 0.000000 0.000000
# 2 -0.000767 0.013216 -0.002733 0.000000 0.000000 0.000000
# 3 -0.004277 -0.002733 0.015014 0.000000 0.000000 0.000000
# 4 0.000000 0.000000 0.000000 0.050623 0.000000 0.000000
# 5 0.000000 0.000000 0.000000 0.000000 0.098137 0.000000
# 6 0.000000 0.000000 0.000000 0.000000 0.000000 0.048574
#
#
# Mechanical properties :
#
#
# Convention : Reuss Voigt Hill
#
# Bulk Modulus (GPa) = 41.16467 41.81417 41.48942
# Shear Modulus (GPa) = 19.16970 23.20858 21.18914
#
# Velocity S-wave (km/s) = 3.01546 3.31796 3.17032
# Velocity P-wave (km/s) = 5.62585 5.87476 5.75165
#
# Compressibility (1/GPa) = 0.02429268
#
# Stress axis : x y z
#
# Youngs Moduli (GPa) = 86.10238 75.66518 66.60332
#
# Poissons Ratio (x) = 0.05800 0.28485
# Poissons Ratio (y) = 0.06601 0.18200
# Poissons Ratio (z) = 0.36824 0.20676
#
# Static dielectric constant tensor:
#      x y z
#    x 1.778850 0.000000 0.000000 
#    y 0.000000 1.779690 0.000000 
#    z 0.000000 0.000000 1.753590 
# 
# From -- ./inp_files/24184.got.cif
#   From: 2010.05.17/outbox.cif.g08.bks.cpg/sg58_13_cif.got.tgz:24184.got - 2010.06.03 14:20:14.
