data_PCOD9445576
_publ_section_title
;
Structure prediction by ZEFSAII (Michael W. Deem and Ramdas Pophale) SiO2 
 PCOD9445576
Probable space group: P N N M
;
_chemical_formula_sum "Si O2"
_cell_formula_units_Z 64
_cell_length_a 14.648824
_cell_length_b 25.228078
_cell_length_c 7.842734
_cell_angle_alpha 90.000000
_cell_angle_beta 90.000000
_cell_angle_gamma 90.000000
_cell_volume 2898.373910
_symmetry_space_group_name_H-M "P N N M"
_symmetry_group_IT_number 58
_symmetry_cell_setting 'orthorhombic'
loop_
_space_group_symop_operation_xyz
x,y,z
-x,-y,z
1/2+x,1/2-y,1/2-z
1/2-x,1/2+y,1/2-z
-x,-y,-z
x,y,-z
1/2-x,1/2+y,1/2+z
1/2+x,1/2-y,1/2+z
loop_
_atom_site_type_symbol
_atom_site_label
_atom_site_fract_x
_atom_site_fract_y
_atom_site_fract_z
Si Si1 0.041751 0.553592 0.196762
Si Si2 0.104558 0.997295 0.208427
Si Si3 0.213976 0.892592 0.207650
Si Si4 0.278289 0.192115 0.694724
Si Si5 0.760628 0.426283 0.302858
Si Si6 0.094035 0.238762 0.803248
Si Si7 0.103270 0.788403 0.208681
Si Si8 0.412012 0.857072 0.801345
O O1 0.150290 0.552307 0.208934
O O2 0.000000 0.500000 0.272700
O O3 0.998941 0.605222 0.282923
O O4 0.013285 0.556892 0.000000
O O5 0.166438 0.047647 0.258295
O O6 0.159494 0.944724 0.264244
O O7 0.100620 0.996183 0.000000
O O8 0.000000 0.000000 0.268304
O O9 0.161602 0.839160 0.262662
O O10 0.320085 0.887597 0.258067
O O11 0.212390 0.893821 0.000000
O O12 0.304636 0.179318 0.500000
O O13 0.263516 0.136870 0.787507
O O14 0.183059 0.223474 0.699237
O O15 0.351659 0.233367 0.767983
O O16 0.771403 0.441758 0.500000
O O17 0.077827 0.301646 0.794052
O O18 0.002255 0.210074 0.741605
O O19 0.110463 0.223572 0.000000
O O20 0.106061 0.787071 0.000000
O O21 0.398754 0.843816 0.000000
#
# Coordination Sequence:
#
# PCOD9445576 Si02
#       8
#     8   8   8   8   8   8   8   8
#     4  11  24  41  62  89 124 165 203 248 314 378
#     4   9  19  34  57  88 119 150 194 251 303 355
#     4   9  17  33  57  84 114 152 194 242 299 358
#     4  11  22  40  61  86 123 166 204 247 308 372
#     4  11  23  39  61  93 123 157 207 259 309 366
#     4  11  22  36  59  90 121 157 203 255 307 368
#     4   9  19  35  57  83 115 155 198 243 301 360
#     4  11  21  37  62  89 121 160 204 253 304 369
#
# _framework density 22.081347000000001
#
# number of rings (size 3 to 8) (size 9 to 14) (size 15 to 20)
#    0.000    1.750    1.250    3.375    1.750    3.000 
#    0.000    1.875    0.000    1.500    0.000    0.000 
#    0.000    0.000    0.000    0.000    0.000    0.000 
#
# Total GULP energy -357791.131270 kJ/mol
# GULP energy per Si atom -5590.486426 kJ/mol
# Density = 2.203109 g / cm^3
# Si number density = 22.081347 Si / 1000 Ang^3
#
#
#
# Elastic Constant Matrix: (Units=GPa)
#
#
# Indices 1 2 3 4 5 6 
#
# 1 77.2307 -6.0688 -1.7138 0.0000 0.0000 0.0000
# 2 -6.0688 64.5454 -3.5329 0.0000 0.0000 0.0000
# 3 -1.7138 -3.5329 33.6989 0.0000 0.0000 0.0000
# 4 0.0000 0.0000 0.0000 5.7594 0.0000 0.0000
# 5 0.0000 0.0000 0.0000 0.0000 16.8197 0.0000
# 6 0.0000 0.0000 0.0000 0.0000 0.0000 37.3101
#
#
#
# Elastic Compliance Matrix: (Units=1/GPa)
#
#
# Indices 1 2 3 4 5 6 
#
# 1 0.013066 0.001272 0.000798 0.000000 0.000000 0.000000
# 2 0.001272 0.015706 0.001711 0.000000 0.000000 0.000000
# 3 0.000798 0.001711 0.029895 0.000000 0.000000 0.000000
# 4 0.000000 0.000000 0.000000 0.173628 0.000000 0.000000
# 5 0.000000 0.000000 0.000000 0.000000 0.059454 0.000000
# 6 0.000000 0.000000 0.000000 0.000000 0.000000 0.026802
#
#
# Mechanical properties :
#
#
# Convention : Reuss Voigt Hill
#
# Bulk Modulus (GPa) = 15.09904 16.98266 16.04085
# Shear Modulus (GPa) = 15.01209 24.43054 19.72132
#
# Velocity S-wave (km/s) = 2.61023 3.32985 2.99176
# Velocity P-wave (km/s) = 3.99214 4.74252 4.38342
#
# Compressibility (1/GPa) = 0.06622940
#
# Stress axis : x y z
#
# Youngs Moduli (GPa) = 76.53514 63.66887 33.45088
#
# Poissons Ratio (x) = -0.08100 -0.02669
# Poissons Ratio (y) = -0.09737 -0.05724
# Poissons Ratio (z) = -0.06106 -0.10896
#
# Static dielectric constant tensor:
#      x y z
#    x 1.791920 0.000000 0.000000 
#    y 0.000000 1.798220 0.000000 
#    z 0.000000 0.000000 1.797940 
# 
# From -- ./inp_files/6806.got.cif
#   From: 2010.05.17/outbox.cif.g08.bks.cpg/sg58_4_cif.got.tgz:6806.got - 2010.06.03 14:20:14.
