data_PCOD9445328
_publ_section_title
;
Structure prediction by ZEFSAII (Michael W. Deem and Ramdas Pophale) SiO2 
 PCOD9445328
Probable space group: P N N M
;
_chemical_formula_sum "Si O2"
_cell_formula_units_Z 36
_cell_length_a 11.057503
_cell_length_b 6.390632
_cell_length_c 23.144479
_cell_angle_alpha 90.000000
_cell_angle_beta 90.000000
_cell_angle_gamma 90.000000
_cell_volume 1635.491474
_symmetry_space_group_name_H-M "P N N M"
_symmetry_group_IT_number 58
_symmetry_cell_setting 'orthorhombic'
loop_
_space_group_symop_operation_xyz
x,y,z
-x,-y,z
1/2+x,1/2-y,1/2-z
1/2-x,1/2+y,1/2-z
-x,-y,-z
x,y,-z
1/2-x,1/2+y,1/2+z
1/2+x,1/2-y,1/2+z
loop_
_atom_site_type_symbol
_atom_site_label
_atom_site_fract_x
_atom_site_fract_y
_atom_site_fract_z
Si Si1 0.366055 0.949136 0.716033
Si Si2 0.000000 0.000000 0.593394
Si Si3 0.121130 0.148587 0.000000
Si Si4 0.812279 0.715815 0.337154
Si Si5 0.399478 0.182433 0.000000
Si Si6 0.370657 0.608182 0.625070
O O1 0.367404 0.915559 0.784420
O O2 0.332525 0.744490 0.679612
O O3 0.500000 0.000000 0.695843
O O4 0.279096 0.131296 0.695972
O O5 0.088886 0.144640 0.630757
O O6 0.923199 0.161801 0.554074
O O7 0.114844 0.239098 0.934668
O O8 0.264384 0.088002 0.000000
O O9 0.000000 0.000000 0.000000
O O10 0.732112 0.570778 0.379176
O O11 0.500000 0.000000 0.000000
O O12 0.500000 0.500000 0.636560
#
# Coordination Sequence:
#
# PCOD9445328 Si02
#       6
#     8   4   4   8   4   8
#     4  12  26  42  67  98 137 185 231 298 361 434
#     4  11  28  42  76 110 140 191 244 300 368 445
#     4  10  23  42  74 100 137 187 234 291 364 424
#     4  12  26  43  69 103 143 181 241 290 369 439
#     4  11  23  50  74 104 149 191 247 307 364 439
#     4  11  23  45  66 100 139 185 233 293 356 426
#
# _framework density 22.011733
#
# number of rings (size 3 to 8) (size 9 to 14) (size 15 to 20)
#    0.000    0.667    4.444    2.667    4.667    3.556 
#    0.000    1.667    0.000    0.000    0.000    0.000 
#    0.000    0.000    0.000    0.000    0.000    0.000 
#
# Total GULP energy -200893.910383 kJ/mol
# GULP energy per Si atom -5580.386400 kJ/mol
# Density = 2.196163 g / cm^3
# Si number density = 22.011733 Si / 1000 Ang^3
#
#
#
# Elastic Constant Matrix: (Units=GPa)
#
#
# Indices 1 2 3 4 5 6 
#
# 1 131.0381 31.9827 21.2276 0.0000 0.0000 0.0000
# 2 31.9827 60.7382 25.6845 0.0000 0.0000 0.0000
# 3 21.2276 25.6845 129.1303 0.0000 0.0000 0.0000
# 4 0.0000 0.0000 0.0000 21.7750 0.0000 0.0000
# 5 0.0000 0.0000 0.0000 0.0000 23.3965 0.0000
# 6 0.0000 0.0000 0.0000 0.0000 0.0000 42.2299
#
#
#
# Elastic Compliance Matrix: (Units=1/GPa)
#
#
# Indices 1 2 3 4 5 6 
#
# 1 0.008795 -0.004389 -0.000573 0.000000 0.000000 0.000000
# 2 -0.004389 0.020166 -0.003290 0.000000 0.000000 0.000000
# 3 -0.000573 -0.003290 0.008493 0.000000 0.000000 0.000000
# 4 0.000000 0.000000 0.000000 0.045924 0.000000 0.000000
# 5 0.000000 0.000000 0.000000 0.000000 0.042742 0.000000
# 6 0.000000 0.000000 0.000000 0.000000 0.000000 0.023680
#
#
# Mechanical properties :
#
#
# Convention : Reuss Voigt Hill
#
# Bulk Modulus (GPa) = 47.73006 53.18846 50.45926
# Shear Modulus (GPa) = 28.85386 33.61439 31.23413
#
# Velocity S-wave (km/s) = 3.62448 3.91207 3.77102
# Velocity P-wave (km/s) = 6.26473 6.67996 6.47567
#
# Compressibility (1/GPa) = 0.02095116
#
# Stress axis : x y z
#
# Youngs Moduli (GPa) = 113.69540 49.58748 117.74945
#
# Poissons Ratio (x) = 0.21765 0.06745
# Poissons Ratio (y) = 0.49902 0.38735
# Poissons Ratio (z) = 0.06513 0.16312
#
# Static dielectric constant tensor:
#      x y z
#    x 1.778690 0.000000 0.000000 
#    y 0.000000 1.848840 0.000000 
#    z 0.000000 0.000000 1.801470 
# 
# From -- ./inp_files/31823.got.cif
#   From: 2010.05.17/outbox.cif.g08.bks.cpg/sg58_16_cif.got.tgz:31823.got - 2010.06.03 14:20:14.
