data_PCOD9445708
_publ_section_title
;
Structure prediction by ZEFSAII (Michael W. Deem and Ramdas Pophale) SiO2 
 PCOD9445708
Probable space group: P N N M
;
_chemical_formula_sum "Si O2"
_cell_formula_units_Z 40
_cell_length_a 18.855383
_cell_length_b 12.319587
_cell_length_c 8.714018
_cell_angle_alpha 90.000000
_cell_angle_beta 90.000000
_cell_angle_gamma 90.000000
_cell_volume 2024.183871
_symmetry_space_group_name_H-M "P N N M"
_symmetry_group_IT_number 58
_symmetry_cell_setting 'orthorhombic'
loop_
_space_group_symop_operation_xyz
x,y,z
-x,-y,z
1/2+x,1/2-y,1/2-z
1/2-x,1/2+y,1/2-z
-x,-y,-z
x,y,-z
1/2-x,1/2+y,1/2+z
1/2+x,1/2-y,1/2+z
loop_
_atom_site_type_symbol
_atom_site_label
_atom_site_fract_x
_atom_site_fract_y
_atom_site_fract_z
Si Si1 0.173396 0.458765 0.316805
Si Si2 0.615011 0.823468 0.682853
Si Si3 0.677445 0.601296 0.817042
Si Si4 0.428758 0.571163 0.317685
Si Si5 0.539113 0.193516 0.817190
O O1 0.184260 0.459535 0.500000
O O2 0.160395 0.579786 0.255954
O O3 0.241459 0.407134 0.236043
O O4 0.102896 0.389005 0.283694
O O5 0.620930 0.825121 0.500000
O O6 0.641477 0.708054 0.745915
O O7 0.533419 0.837808 0.733036
O O8 0.635575 0.497004 0.752764
O O9 0.671948 0.604855 0.000000
O O10 0.500000 0.500000 0.295281
O O11 0.418771 0.586041 0.500000
O O12 0.438906 0.686610 0.237347
O O13 0.526259 0.193008 0.000000
#
# Coordination Sequence:
#
# PCOD9445708 Si02
#       5
#     8   8   8   8   8
#     4  11  26  46  68  97 135 175 221 274 332 397
#     4  12  25  44  69  98 134 174 222 272 330 396
#     4  12  26  44  68  97 133 175 221 274 335 394
#     4  11  23  41  67  98 132 172 220 273 329 391
#     4  11  24  43  70 100 132 173 223 274 331 394
#
# _framework density 19.761051999999999
#
# number of rings (size 3 to 8) (size 9 to 14) (size 15 to 20)
#    0.000    0.600    2.000    6.000    2.800    6.400 
#    0.000    0.000    0.000    0.000    0.000    0.000 
#    0.000    0.000    0.000    0.000    0.000    0.000 
#
# Total GULP energy -224024.371975 kJ/mol
# GULP energy per Si atom -5600.609299 kJ/mol
# Density = 1.971607 g / cm^3
# Si number density = 19.761052 Si / 1000 Ang^3
#
#
#
# Elastic Constant Matrix: (Units=GPa)
#
#
# Indices 1 2 3 4 5 6 
#
# 1 59.6857 -11.3841 4.6414 0.0000 0.0000 0.0000
# 2 -11.3841 29.3880 -3.5661 0.0000 0.0000 0.0000
# 3 4.6414 -3.5661 36.0919 0.0000 0.0000 0.0000
# 4 0.0000 0.0000 0.0000 49.3915 0.0000 0.0000
# 5 0.0000 0.0000 0.0000 0.0000 45.7922 0.0000
# 6 0.0000 0.0000 0.0000 0.0000 0.0000 32.9622
#
#
#
# Elastic Compliance Matrix: (Units=1/GPa)
#
#
# Indices 1 2 3 4 5 6 
#
# 1 0.018189 0.006844 -0.001663 0.000000 0.000000 0.000000
# 2 0.006844 0.037016 0.002777 0.000000 0.000000 0.000000
# 3 -0.001663 0.002777 0.028195 0.000000 0.000000 0.000000
# 4 0.000000 0.000000 0.000000 0.020246 0.000000 0.000000
# 5 0.000000 0.000000 0.000000 0.000000 0.021838 0.000000
# 6 0.000000 0.000000 0.000000 0.000000 0.000000 0.030338
#
#
# Mechanical properties :
#
#
# Convention : Reuss Voigt Hill
#
# Bulk Modulus (GPa) = 10.06874 11.61644 10.84259
# Shear Modulus (GPa) = 28.89991 34.66080 31.78036
#
# Velocity S-wave (km/s) = 3.82837 4.19262 4.01463
# Velocity P-wave (km/s) = 4.96470 5.41559 5.19504
#
# Compressibility (1/GPa) = 0.09931731
#
# Stress axis : x y z
#
# Youngs Moduli (GPa) = 54.97776 27.01555 35.46687
#
# Poissons Ratio (x) = -0.18490 0.05898
# Poissons Ratio (y) = -0.37628 -0.09850
# Poissons Ratio (z) = 0.09142 -0.07503
#
# Static dielectric constant tensor:
#      x y z
#    x 1.675000 0.000000 0.000000 
#    y 0.000000 1.662880 0.000000 
#    z 0.000000 0.000000 1.655790 
# 
# From -- ./inp_files/3804.got.cif
#   From: 2010.05.17/outbox.cif.g08.bks.cpg/sg58_2_cif.got.tgz:3804.got - 2010.06.03 14:20:14.
