data_PCOD9445237
_publ_section_title
;
Structure prediction by ZEFSAII (Michael W. Deem and Ramdas Pophale) SiO2 
 PCOD9445237
Probable space group: P N N M
;
_chemical_formula_sum "Si O2"
_cell_formula_units_Z 32
_cell_length_a 5.442326
_cell_length_b 14.814374
_cell_length_c 16.799849
_cell_angle_alpha 90.000000
_cell_angle_beta 90.000000
_cell_angle_gamma 90.000000
_cell_volume 1354.481993
_symmetry_space_group_name_H-M "P N N M"
_symmetry_group_IT_number 58
_symmetry_cell_setting 'orthorhombic'
loop_
_space_group_symop_operation_xyz
x,y,z
-x,-y,z
1/2+x,1/2-y,1/2-z
1/2-x,1/2+y,1/2-z
-x,-y,-z
x,y,-z
1/2-x,1/2+y,1/2+z
1/2+x,1/2-y,1/2+z
loop_
_atom_site_type_symbol
_atom_site_label
_atom_site_fract_x
_atom_site_fract_y
_atom_site_fract_z
Si Si1 0.196679 0.695407 0.229910
Si Si2 0.246997 0.053723 0.404215
Si Si3 0.331632 0.769069 0.000000
Si Si4 0.435890 0.101439 0.118281
Si Si5 0.327760 0.713307 0.500000
O O1 0.454766 0.739646 0.260987
O O2 0.242724 0.647796 0.145124
O O3 0.114859 0.616022 0.290088
O O4 0.231177 0.061526 0.500000
O O5 0.500000 0.000000 0.386758
O O6 0.000000 0.000000 0.378264
O O7 0.358485 0.834879 0.922731
O O8 0.593122 0.720775 0.000000
O O9 0.066962 0.730400 0.000000
O O10 0.500000 0.000000 0.098637
O O11 0.203326 0.145082 0.073185
#
# Coordination Sequence:
#
# PCOD9445237 Si02
#       5
#     8   8   4   8   4
#     4  12  27  44  60 102 143 168 211 279 363 413
#     4  10  22  47  79 100 125 181 251 296 326 395
#     4   8  18  35  58  90 118 152 206 249 292 371
#     4   9  21  38  63  87 121 170 216 254 303 385
#     4   8  18  35  58  90 118 152 206 249 292 371
#
# _framework density 23.625267999999998
#
# number of rings (size 3 to 8) (size 9 to 14) (size 15 to 20)
#    1.500    0.500    0.000    3.750    3.500    2.000 
#    9.000    0.000    0.000    0.000    0.000    0.000 
#    0.000    0.000    0.000    0.000    0.000    0.000 
#
# Total GULP energy -178281.833269 kJ/mol
# GULP energy per Si atom -5571.307290 kJ/mol
# Density = 2.357150 g / cm^3
# Si number density = 23.625268 Si / 1000 Ang^3
#
#
#
# Elastic Constant Matrix: (Units=GPa)
#
#
# Indices 1 2 3 4 5 6 
#
# 1 241.6185 65.7926 26.8451 0.0000 0.0000 0.0000
# 2 65.7926 118.9099 31.5197 0.0000 0.0000 0.0000
# 3 26.8451 31.5197 121.4106 0.0000 0.0000 0.0000
# 4 0.0000 0.0000 0.0000 43.9853 0.0000 0.0000
# 5 0.0000 0.0000 0.0000 0.0000 244.1466 0.0000
# 6 0.0000 0.0000 0.0000 0.0000 0.0000 32.2530
#
#
#
# Elastic Compliance Matrix: (Units=1/GPa)
#
#
# Indices 1 2 3 4 5 6 
#
# 1 0.004892 -0.002599 -0.000407 0.000000 0.000000 0.000000
# 2 -0.002599 0.010412 -0.002128 0.000000 0.000000 0.000000
# 3 -0.000407 -0.002128 0.008879 0.000000 0.000000 0.000000
# 4 0.000000 0.000000 0.000000 0.022735 0.000000 0.000000
# 5 0.000000 0.000000 0.000000 0.000000 0.004096 0.000000
# 6 0.000000 0.000000 0.000000 0.000000 0.000000 0.031005
#
#
# Mechanical properties :
#
#
# Convention : Reuss Voigt Hill
#
# Bulk Modulus (GPa) = 71.86819 81.13932 76.50376
# Shear Modulus (GPa) = 51.58673 87.92909 69.75791
#
# Velocity S-wave (km/s) = 4.67791 6.10729 5.43975
# Velocity P-wave (km/s) = 7.72419 9.17338 8.47980
#
# Compressibility (1/GPa) = 0.01391436
#
# Stress axis : x y z
#
# Youngs Moduli (GPa) = 204.43315 96.04549 112.62450
#
# Poissons Ratio (x) = 0.24959 0.04583
# Poissons Ratio (y) = 0.53125 0.23971
# Poissons Ratio (z) = 0.08319 0.20443
#
# Static dielectric constant tensor:
#      x y z
#    x 1.909630 0.000000 0.000000 
#    y 0.000000 1.872820 0.000000 
#    z 0.000000 0.000000 1.965110 
# 
# From -- ./inp_files/24086.got.cif
#   From: 2010.05.17/outbox.cif.g08.bks.cpg/sg58_13_cif.got.tgz:24086.got - 2010.06.03 14:20:14.
