data_PCOD9445134
_publ_section_title
;
Structure prediction by ZEFSAII (Michael W. Deem and Ramdas Pophale) SiO2 
 PCOD9445134
Probable space group: P N N M
;
_chemical_formula_sum "Si O2"
_cell_formula_units_Z 58
_cell_length_a 5.147676
_cell_length_b 28.524661
_cell_length_c 17.088308
_cell_angle_alpha 90.000000
_cell_angle_beta 90.000000
_cell_angle_gamma 90.000000
_cell_volume 2509.173886
_symmetry_space_group_name_H-M "P N N M"
_symmetry_group_IT_number 58
_symmetry_cell_setting 'orthorhombic'
loop_
_space_group_symop_operation_xyz
x,y,z
-x,-y,z
1/2+x,1/2-y,1/2-z
1/2-x,1/2+y,1/2-z
-x,-y,-z
x,y,-z
1/2-x,1/2+y,1/2+z
1/2+x,1/2-y,1/2+z
loop_
_atom_site_type_symbol
_atom_site_label
_atom_site_fract_x
_atom_site_fract_y
_atom_site_fract_z
Si Si1 0.416843 0.347586 0.842470
Si Si2 0.624867 0.831696 0.909360
Si Si3 0.400552 0.109052 0.408948
Si Si4 0.811779 0.750588 0.801958
Si Si5 0.361608 0.049082 0.730751
Si Si6 0.644037 0.436592 0.613141
Si Si7 0.000000 0.500000 0.500000
Si Si8 0.260265 0.383661 0.319105
O O1 0.196227 0.378888 0.885000
O O2 0.296774 0.296143 0.842354
O O3 0.443756 0.364335 0.751299
O O4 0.694443 0.351037 0.883897
O O5 0.790179 0.793715 0.862129
O O6 0.735822 0.885081 0.904438
O O7 0.357679 0.838718 0.862261
O O8 0.594785 0.819407 0.000000
O O9 0.385395 0.099899 0.500000
O O10 0.298793 0.066296 0.355415
O O11 0.097465 0.741602 0.766956
O O12 0.141620 0.047981 0.796160
O O13 0.548099 0.088114 0.769490
O O14 0.500000 0.000000 0.727543
O O15 0.344906 0.419472 0.610185
O O16 0.802277 0.475420 0.566452
#
# Coordination Sequence:
#
# PCOD9445134 Si02
#       8
#     8   8   8   8   8   8   2   8
#     4  11  22  44  71 100 133 188 230 282 345 423
#     4  11  25  42  64 101 139 177 228 292 355 413
#     4  11  24  43  69 100 139 178 230 291 349 406
#     4  12  25  44  73 103 137 183 237 282 345 429
#     4  10  22  41  64  94 129 173 230 277 345 422
#     4  11  22  44  63  97 136 179 228 285 349 425
#     4  12  24  40  70 104 140 176 236 298 344 436
#     4  10  22  42  68  90 136 183 230 282 351 425
#
# _framework density 23.115178
#
# number of rings (size 3 to 8) (size 9 to 14) (size 15 to 20)
#    0.000    1.103    4.138    2.069    2.897    1.931 
#    0.000    2.759    0.000    2.483    0.000    0.000 
#    0.000    0.000    0.000    0.000    0.000    0.000 
#
# Total GULP energy -323138.505691 kJ/mol
# GULP energy per Si atom -5571.353546 kJ/mol
# Density = 2.306257 g / cm^3
# Si number density = 23.115178 Si / 1000 Ang^3
#
#
#
# Elastic Constant Matrix: (Units=GPa)
#
#
# Indices 1 2 3 4 5 6 
#
# 1 68.5594 -5.6992 23.6517 0.0000 0.0000 0.0000
# 2 -5.6992 69.0969 34.6253 0.0000 0.0000 0.0000
# 3 23.6517 34.6253 165.0318 0.0000 0.0000 0.0000
# 4 0.0000 0.0000 0.0000 2.6427 0.0000 0.0000
# 5 0.0000 0.0000 0.0000 0.0000 -36.6430 0.0000
# 6 0.0000 0.0000 0.0000 0.0000 0.0000 29.5479
#
#
#
# Elastic Compliance Matrix: (Units=1/GPa)
#
#
# Indices 1 2 3 4 5 6 
#
# 1 0.015790 0.002723 -0.002834 0.000000 0.000000 0.000000
# 2 0.002723 0.016642 -0.003882 0.000000 0.000000 0.000000
# 3 -0.002834 -0.003882 0.007280 0.000000 0.000000 0.000000
# 4 0.000000 0.000000 0.000000 0.378405 0.000000 0.000000
# 5 0.000000 0.000000 0.000000 0.000000 -0.027290 0.000000
# 6 0.000000 0.000000 0.000000 0.000000 0.000000 0.033843
#
#
# Mechanical properties :
#
#
# Convention : Reuss Voigt Hill
#
# Bulk Modulus (GPa) = 31.52050 45.31595 38.41823
# Shear Modulus (GPa) = 11.28077 15.78353 13.53215
#
# Velocity S-wave (km/s) = 2.21152 2.61592 2.42218
# Velocity P-wave (km/s) = 4.49299 5.36386 4.94763
#
# Compressibility (1/GPa) = 0.03172538
#
# Stress axis : x y z
#
# Youngs Moduli (GPa) = 63.33137 60.08796 137.36099
#
# Poissons Ratio (x) = -0.16360 0.38931
# Poissons Ratio (y) = -0.17243 0.53322
# Poissons Ratio (z) = 0.17949 0.23326
#
# Static dielectric constant tensor:
#      x y z
#    x 2.110860 0.000000 0.000000 
#    y 0.000000 1.991980 0.000000 
#    z 0.000000 0.000000 1.909240 
# 
# From -- ./inp_files/24494.got.cif
#   From: 2010.05.17/outbox.cif.g08.bks.cpg/sg58_13_cif.got.tgz:24494.got - 2010.06.03 14:20:14.
