data_PCOD9445706
_publ_section_title
;
Structure prediction by ZEFSAII (Michael W. Deem and Ramdas Pophale) SiO2 
 PCOD9445706
Probable space group: P N N M
;
_chemical_formula_sum "Si O2"
_cell_formula_units_Z 48
_cell_length_a 17.902611
_cell_length_b 19.317396
_cell_length_c 7.592055
_cell_angle_alpha 90.000000
_cell_angle_beta 90.000000
_cell_angle_gamma 90.000000
_cell_volume 2625.574245
_symmetry_space_group_name_H-M "P N N M"
_symmetry_group_IT_number 58
_symmetry_cell_setting 'orthorhombic'
loop_
_space_group_symop_operation_xyz
x,y,z
-x,-y,z
1/2+x,1/2-y,1/2-z
1/2-x,1/2+y,1/2-z
-x,-y,-z
x,y,-z
1/2-x,1/2+y,1/2+z
1/2+x,1/2-y,1/2+z
loop_
_atom_site_type_symbol
_atom_site_label
_atom_site_fract_x
_atom_site_fract_y
_atom_site_fract_z
Si Si1 0.535992 0.168379 0.500000
Si Si2 0.213118 0.926031 0.794045
Si Si3 0.285640 0.668443 0.500000
Si Si4 0.537639 0.925584 0.207174
Si Si5 0.464004 0.668381 0.500000
Si Si6 0.962365 0.074417 0.292826
Si Si7 0.786879 0.426024 0.794045
Si Si8 0.785644 0.668433 0.000000
O O1 0.500887 0.131144 0.330136
O O2 0.519816 0.250000 0.500000
O O3 0.625177 0.158634 0.500000
O O4 0.125194 0.929522 0.751887
O O5 0.250742 0.869029 0.669729
O O6 0.249994 0.000005 0.750000
O O7 0.223842 0.911115 0.000000
O O8 0.374818 0.658640 0.500000
O O9 0.250736 0.630983 0.669729
O O10 0.269352 0.750005 0.500000
O O11 0.625197 0.929526 0.251887
O O12 0.500000 0.000000 0.243569
O O13 0.528362 0.910445 0.000000
O O14 0.499108 0.631144 0.330136
O O15 0.971642 0.089557 0.500000
O O16 0.000000 0.000000 0.256432
O O17 0.776158 0.411107 0.000000
#
# Coordination Sequence:
#
# PCOD9445706 Si02
#       8
#     4   8   4   8   4   8   8   4
#     4  11  25  43  65  92 129 175 208 258 326 380
#     4  12  23  41  68  98 127 170 216 266 322 381
#     4  11  26  45  64  96 136 169 212 270 327 382
#     4  11  23  41  67  97 125 165 216 268 314 373
#     4  11  25  43  65  92 129 175 208 258 326 380
#     4  11  23  41  67  97 125 165 216 268 314 373
#     4  12  23  41  68  98 127 170 216 266 322 381
#     4  11  26  45  64  96 136 169 212 270 327 382
#
# _framework density 18.281715999999999
#
# number of rings (size 3 to 8) (size 9 to 14) (size 15 to 20)
#    0.000    0.667    5.000    2.500    0.000    6.667 
#    0.000    3.333    0.000    0.000    0.000    0.000 
#    0.000    0.000    0.000    0.000    0.000    0.000 
#
# Total GULP energy -268552.403741 kJ/mol
# GULP energy per Si atom -5594.841745 kJ/mol
# Density = 1.824011 g / cm^3
# Si number density = 18.281716 Si / 1000 Ang^3
#
#
#
# Elastic Constant Matrix: (Units=GPa)
#
#
# Indices 1 2 3 4 5 6 
#
# 1 150.1303 118.7193 83.1624 0.0000 0.0000 0.0000
# 2 118.7193 174.1666 116.3137 0.0000 0.0000 0.0000
# 3 83.1624 116.3137 193.7094 0.0000 0.0000 0.0000
# 4 0.0000 0.0000 0.0000 -170.3184 0.0000 0.0000
# 5 0.0000 0.0000 0.0000 0.0000 -104.3466 0.0000
# 6 0.0000 0.0000 0.0000 0.0000 0.0000 35.4622
#
#
#
# Elastic Compliance Matrix: (Units=1/GPa)
#
#
# Indices 1 2 3 4 5 6 
#
# 1 0.014477 -0.009545 -0.000484 0.000000 0.000000 0.000000
# 2 -0.009545 0.015878 -0.005437 0.000000 0.000000 0.000000
# 3 -0.000484 -0.005437 0.008635 0.000000 0.000000 0.000000
# 4 0.000000 0.000000 0.000000 -0.005871 0.000000 0.000000
# 5 0.000000 0.000000 0.000000 0.000000 -0.009583 0.000000
# 6 0.000000 0.000000 0.000000 0.000000 0.000000 0.028199
#
#
# Mechanical properties :
#
#
# Convention : Reuss Voigt Hill
#
# Bulk Modulus (GPa) = 124.08120 128.26633 126.17376
# Shear Modulus (GPa) = 58.58184 -34.51983 12.03100
#
# Velocity S-wave (km/s) = 5.66688 -4.35007 2.56811
# Velocity P-wave (km/s) = 10.52792 6.71435 8.82948
#
# Compressibility (1/GPa) = 0.00805924
#
# Stress axis : x y z
#
# Youngs Moduli (GPa) = 69.07665 62.97844 115.81434
#
# Poissons Ratio (x) = 0.60112 0.05604
# Poissons Ratio (y) = 0.65932 0.62963
# Poissons Ratio (z) = 0.03342 0.34239
#
# Static dielectric constant tensor:
#      x y z
#    x 1.603700 0.000000 0.000000 
#    y 0.000000 1.588020 0.000000 
#    z 0.000000 0.000000 1.616190 
# 
# From -- ./inp_files/5976.got.cif
#   From: 2010.05.17/outbox.cif.g08.bks.cpg/sg58_3_cif.got.tgz:5976.got - 2010.06.03 14:20:14.
