data_PCOD9445561
_publ_section_title
;
Structure prediction by ZEFSAII (Michael W. Deem and Ramdas Pophale) SiO2 
 PCOD9445561
Probable space group: P N N M
;
_chemical_formula_sum "Si O2"
_cell_formula_units_Z 56
_cell_length_a 11.883086
_cell_length_b 12.908939
_cell_length_c 18.952979
_cell_angle_alpha 90.000000
_cell_angle_beta 90.000000
_cell_angle_gamma 90.000000
_cell_volume 2907.349685
_symmetry_space_group_name_H-M "P N N M"
_symmetry_group_IT_number 58
_symmetry_cell_setting 'orthorhombic'
loop_
_space_group_symop_operation_xyz
x,y,z
-x,-y,z
1/2+x,1/2-y,1/2-z
1/2-x,1/2+y,1/2-z
-x,-y,-z
x,y,-z
1/2-x,1/2+y,1/2+z
1/2+x,1/2-y,1/2+z
loop_
_atom_site_type_symbol
_atom_site_label
_atom_site_fract_x
_atom_site_fract_y
_atom_site_fract_z
Si Si1 0.070943 0.651784 0.679927
Si Si2 0.310147 0.638808 0.076737
Si Si3 0.168116 0.755780 0.179935
Si Si4 0.276018 0.937242 0.631667
Si Si5 0.934496 0.164771 0.580121
Si Si6 0.675012 0.058592 0.207212
Si Si7 0.495975 0.874844 0.416507
O O1 0.129115 0.716844 0.743364
O O2 0.058674 0.719421 0.609800
O O3 0.146692 0.549355 0.668949
O O4 0.944007 0.620103 0.702565
O O5 0.277354 0.701501 0.145800
O O6 0.234366 0.536736 0.081424
O O7 0.441793 0.616098 0.080563
O O8 0.291063 0.690299 0.000000
O O9 0.215852 0.873905 0.183772
O O10 0.072672 0.706395 0.127190
O O11 0.151859 0.892125 0.630308
O O12 0.308239 0.967883 0.710466
O O13 0.365439 0.855408 0.602454
O O14 0.892165 0.160045 0.500000
O O15 0.515949 0.866054 0.500000
O O16 0.500000 0.000000 0.396844
#
# Coordination Sequence:
#
# PCOD9445561 Si02
#       7
#     8   8   8   8   8   8   8
#     4  11  22  41  60  86 124 161 210 252 303 379
#     4  11  22  37  59  93 128 159 200 257 319 374
#     4  12  21  37  61  89 125 157 200 255 313 370
#     4  12  21  37  61  90 126 157 200 259 313 373
#     4  11  24  40  60  87 123 168 209 252 312 373
#     4  11  23  38  62  91 119 162 208 256 308 372
#     4  11  21  34  58  91 121 152 191 243 310 371
#
# _framework density 19.26153
#
# number of rings (size 3 to 8) (size 9 to 14) (size 15 to 20)
#    0.000    0.714    7.143    2.143    0.000    1.143 
#    0.000    2.857    0.000    0.000    0.000    2.000 
#    0.000    0.000    0.000    0.000    0.000    0.000 
#
# Total GULP energy -311950.318748 kJ/mol
# GULP energy per Si atom -5570.541406 kJ/mol
# Density = 1.921769 g / cm^3
# Si number density = 19.261530 Si / 1000 Ang^3
#
#
#
# Elastic Constant Matrix: (Units=GPa)
#
#
# Indices 1 2 3 4 5 6 
#
# 1 74.7090 22.0712 -3.2066 0.0000 0.0000 0.0000
# 2 22.0712 67.3087 11.9128 0.0000 0.0000 0.0000
# 3 -3.2066 11.9128 40.3261 0.0000 0.0000 0.0000
# 4 0.0000 0.0000 0.0000 17.7919 0.0000 0.0000
# 5 0.0000 0.0000 0.0000 0.0000 25.3285 0.0000
# 6 0.0000 0.0000 0.0000 0.0000 0.0000 38.5340
#
#
#
# Elastic Compliance Matrix: (Units=1/GPa)
#
#
# Indices 1 2 3 4 5 6 
#
# 1 0.015118 -0.005455 0.002814 0.000000 0.000000 0.000000
# 2 -0.005455 0.017645 -0.005646 0.000000 0.000000 0.000000
# 3 0.002814 -0.005646 0.026690 0.000000 0.000000 0.000000
# 4 0.000000 0.000000 0.000000 0.056205 0.000000 0.000000
# 5 0.000000 0.000000 0.000000 0.000000 0.039481 0.000000
# 6 0.000000 0.000000 0.000000 0.000000 0.000000 0.025951
#
#
# Mechanical properties :
#
#
# Convention : Reuss Voigt Hill
#
# Bulk Modulus (GPa) = 23.32283 27.09984 25.21133
# Shear Modulus (GPa) = 23.58960 26.43532 25.01246
#
# Velocity S-wave (km/s) = 3.50337 3.70867 3.60748
# Velocity P-wave (km/s) = 5.33850 5.69552 5.51989
#
# Compressibility (1/GPa) = 0.04287645
#
# Stress axis : x y z
#
# Youngs Moduli (GPa) = 66.14787 56.67312 37.46788
#
# Poissons Ratio (x) = 0.30916 -0.10542
# Poissons Ratio (y) = 0.36085 0.21156
# Poissons Ratio (z) = -0.18611 0.31999
#
# Static dielectric constant tensor:
#      x y z
#    x 1.750510 0.000000 0.000000 
#    y 0.000000 1.743000 0.000000 
#    z 0.000000 0.000000 1.642300 
# 
# From -- ./inp_files/29614.got.cif
#   From: 2010.05.17/outbox.cif.g08.bks.cpg/sg58_15_cif.got.tgz:29614.got - 2010.06.03 14:20:14.
