data_PCOD9445145
_publ_section_title
;
Structure prediction by ZEFSAII (Michael W. Deem and Ramdas Pophale) SiO2 
 PCOD9445145
Probable space group: P N N M
;
_chemical_formula_sum "Si O2"
_cell_formula_units_Z 58
_cell_length_a 5.488013
_cell_length_b 24.172172
_cell_length_c 19.004589
_cell_angle_alpha 90.000000
_cell_angle_beta 90.000000
_cell_angle_gamma 90.000000
_cell_volume 2521.095453
_symmetry_space_group_name_H-M "P N N M"
_symmetry_group_IT_number 58
_symmetry_cell_setting 'orthorhombic'
loop_
_space_group_symop_operation_xyz
x,y,z
-x,-y,z
1/2+x,1/2-y,1/2-z
1/2-x,1/2+y,1/2-z
-x,-y,-z
x,y,-z
1/2-x,1/2+y,1/2+z
1/2+x,1/2-y,1/2+z
loop_
_atom_site_type_symbol
_atom_site_label
_atom_site_fract_x
_atom_site_fract_y
_atom_site_fract_z
Si Si1 0.003641 0.588948 0.880728
Si Si2 0.246946 0.530774 0.599669
Si Si3 0.146279 0.657624 0.420738
Si Si4 0.360730 0.297718 0.641257
Si Si5 0.500000 0.000000 0.500000
Si Si6 0.627709 0.661811 0.206612
Si Si7 0.317432 0.690868 0.079094
Si Si8 0.664424 0.449626 0.237648
O O1 0.916434 0.545385 0.938516
O O2 0.203016 0.629597 0.916420
O O3 0.121501 0.556533 0.816700
O O4 0.829202 0.631108 0.840062
O O5 0.500000 0.500000 0.579427
O O6 0.211417 0.593007 0.574821
O O7 0.255467 0.535364 0.684328
O O8 0.000000 0.500000 0.579280
O O9 0.157649 0.680908 0.500000
O O10 0.367347 0.679932 0.373115
O O11 0.873015 0.668740 0.391035
O O12 0.313534 0.300928 0.725508
O O13 0.365478 0.239849 0.599155
O O14 0.493228 0.695938 0.146085
O O15 0.472578 0.609535 0.236469
O O16 0.414958 0.698069 0.000000
O O17 0.500000 0.500000 0.211795
#
# Coordination Sequence:
#
# PCOD9445145 Si02
#       8
#     8   8   8   8   2   8   8   8
#     4  11  25  44  70 106 152 193 266 316 403 476
#     4  11  24  40  70 104 147 193 248 312 391 462
#     4  12  26  48  75 112 154 202 259 323 396 480
#     4  12  28  49  80 113 153 207 267 325 395 479
#     4  12  24  44  74 112 148 222 242 352 394 514
#     4  11  26  45  76 108 148 200 262 331 387 485
#     4  11  27  49  71 110 153 203 258 331 404 474
#     4  10  22  41  67 103 139 196 241 320 373 470
#
# _framework density 23.005873999999999
#
# number of rings (size 3 to 8) (size 9 to 14) (size 15 to 20)
#    0.000    0.828    2.069    3.724   13.517    0.552 
#    0.000    1.724    0.000    0.000    0.000    0.000 
#    0.000    0.000    0.000    0.000    0.000    0.000 
#
# Total GULP energy -323369.850895 kJ/mol
# GULP energy per Si atom -5575.342257 kJ/mol
# Density = 2.295351 g / cm^3
# Si number density = 23.005874 Si / 1000 Ang^3
#
#
#
# Elastic Constant Matrix: (Units=GPa)
#
#
# Indices 1 2 3 4 5 6 
#
# 1 75.6234 1.3370 19.8149 0.0000 0.0000 0.0000
# 2 1.3370 66.2019 -1.7182 0.0000 0.0000 0.0000
# 3 19.8149 -1.7182 153.8116 0.0000 0.0000 0.0000
# 4 0.0000 0.0000 0.0000 17.2146 0.0000 0.0000
# 5 0.0000 0.0000 0.0000 0.0000 1.2948 0.0000
# 6 0.0000 0.0000 0.0000 0.0000 0.0000 41.6913
#
#
#
# Elastic Compliance Matrix: (Units=1/GPa)
#
#
# Indices 1 2 3 4 5 6 
#
# 1 0.013692 -0.000322 -0.001768 0.000000 0.000000 0.000000
# 2 -0.000322 0.015117 0.000210 0.000000 0.000000 0.000000
# 3 -0.001768 0.000210 0.006732 0.000000 0.000000 0.000000
# 4 0.000000 0.000000 0.000000 0.058090 0.000000 0.000000
# 5 0.000000 0.000000 0.000000 0.000000 0.772293 0.000000
# 6 0.000000 0.000000 0.000000 0.000000 0.000000 0.023986
#
#
# Mechanical properties :
#
#
# Convention : Reuss Voigt Hill
#
# Bulk Modulus (GPa) = 31.46434 37.16715 34.31574
# Shear Modulus (GPa) = 5.52936 30.45367 17.99152
#
# Velocity S-wave (km/s) = 1.55199 3.64226 2.79953
# Velocity P-wave (km/s) = 4.11314 5.82054 5.03967
#
# Compressibility (1/GPa) = 0.03178202
#
# Stress axis : x y z
#
# Youngs Moduli (GPa) = 73.03401 66.14944 148.55497
#
# Poissons Ratio (x) = 0.02133 0.26257
# Poissons Ratio (y) = 0.02355 -0.03126
# Poissons Ratio (z) = 0.12909 -0.01392
#
# Static dielectric constant tensor:
#      x y z
#    x 2.795310 0.000000 0.000000 
#    y 0.000000 1.798780 0.000000 
#    z 0.000000 0.000000 1.875110 
# 
# From -- ./inp_files/24419.got.cif
#   From: 2010.05.17/outbox.cif.g08.bks.cpg/sg58_13_cif.got.tgz:24419.got - 2010.06.03 14:20:14.
