data_PCOD9445761
_publ_section_title
;
Structure prediction by ZEFSAII (Michael W. Deem and Ramdas Pophale) SiO2 
 PCOD9445761
Probable space group: P N N M
;
_chemical_formula_sum "Si O2"
_cell_formula_units_Z 32
_cell_length_a 17.482930
_cell_length_b 8.216962
_cell_length_c 9.983924
_cell_angle_alpha 90.000000
_cell_angle_beta 90.000000
_cell_angle_gamma 90.000000
_cell_volume 1434.256292
_symmetry_space_group_name_H-M "P N N M"
_symmetry_group_IT_number 58
_symmetry_cell_setting 'orthorhombic'
loop_
_space_group_symop_operation_xyz
x,y,z
-x,-y,z
1/2+x,1/2-y,1/2-z
1/2-x,1/2+y,1/2-z
-x,-y,-z
x,y,-z
1/2-x,1/2+y,1/2+z
1/2+x,1/2-y,1/2+z
loop_
_atom_site_type_symbol
_atom_site_label
_atom_site_fract_x
_atom_site_fract_y
_atom_site_fract_z
Si Si1 0.076857 0.556376 0.238800
Si Si2 0.344780 0.588423 0.654452
Si Si3 0.540850 0.273195 0.149150
Si Si4 0.277308 0.226065 0.647702
O O1 0.085202 0.401755 0.336740
O O2 0.152495 0.599991 0.162234
O O3 0.000000 0.500000 0.158600
O O4 0.045228 0.713893 0.318038
O O5 0.354647 0.638557 0.500000
O O6 0.422158 0.613948 0.738615
O O7 0.314169 0.404428 0.656229
O O8 0.281216 0.692300 0.733327
O O9 0.547755 0.337198 0.000000
O O10 0.241549 0.206541 0.500000
#
# Coordination Sequence:
#
# PCOD9445761 Si02
#       4
#     8   8   8   8
#     4   8  20  38  64  92 122 155 198 244 301 353
#     4  11  25  40  60  89 123 159 203 255 302 355
#     4   9  19  39  63  89 121 157 197 244 294 356
#     4  11  24  42  61  88 122 160 203 252 303 358
#
# _framework density 22.311214
#
# number of rings (size 3 to 8) (size 9 to 14) (size 15 to 20)
#    1.500    0.500    0.000    3.750    0.000   11.500 
#    0.000    3.750    0.000    0.000    0.000    0.000 
#    0.000    0.000    0.000    0.000    0.000    0.000 
#
# Total GULP energy -178427.642982 kJ/mol
# GULP energy per Si atom -5575.863843 kJ/mol
# Density = 2.226043 g / cm^3
# Si number density = 22.311214 Si / 1000 Ang^3
#
#
#
# Elastic Constant Matrix: (Units=GPa)
#
#
# Indices 1 2 3 4 5 6 
#
# 1 62.2239 15.4425 35.6109 0.0000 0.0000 0.0000
# 2 15.4425 64.7194 34.4891 0.0000 0.0000 0.0000
# 3 35.6109 34.4891 176.1371 0.0000 0.0000 0.0000
# 4 0.0000 0.0000 0.0000 9.1579 0.0000 0.0000
# 5 0.0000 0.0000 0.0000 0.0000 67.9515 0.0000
# 6 0.0000 0.0000 0.0000 0.0000 0.0000 43.8247
#
#
#
# Elastic Compliance Matrix: (Units=1/GPa)
#
#
# Indices 1 2 3 4 5 6 
#
# 1 0.018592 -0.002717 -0.003227 0.000000 0.000000 0.000000
# 2 -0.002717 0.017648 -0.002906 0.000000 0.000000 0.000000
# 3 -0.003227 -0.002906 0.006899 0.000000 0.000000 0.000000
# 4 0.000000 0.000000 0.000000 0.109196 0.000000 0.000000
# 5 0.000000 0.000000 0.000000 0.000000 0.014716 0.000000
# 6 0.000000 0.000000 0.000000 0.000000 0.000000 0.022818
#
#
# Mechanical properties :
#
#
# Convention : Reuss Voigt Hill
#
# Bulk Modulus (GPa) = 39.30916 52.68504 45.99710
# Shear Modulus (GPa) = 23.14289 38.68935 30.91612
#
# Velocity S-wave (km/s) = 3.22417 4.16874 3.72651
# Velocity P-wave (km/s) = 5.61402 6.84370 6.25913
#
# Compressibility (1/GPa) = 0.02543936
#
# Stress axis : x y z
#
# Youngs Moduli (GPa) = 53.78668 56.66246 144.95013
#
# Poissons Ratio (x) = 0.15392 0.46775
# Poissons Ratio (y) = 0.14611 0.42129
# Poissons Ratio (z) = 0.17357 0.16469
#
# Static dielectric constant tensor:
#      x y z
#    x 1.834110 0.000000 0.000000 
#    y 0.000000 1.862300 0.000000 
#    z 0.000000 0.000000 1.780590 
# 
# From -- ./inp_files/2162.got.cif
#   From: 2010.05.17/outbox.cif.g08.bks.cpg/sg58_2_cif.got.tgz:2162.got - 2010.06.03 14:20:14.
