data_PCOD9445973
_publ_section_title
;
Structure prediction by ZEFSAII (Michael W. Deem and Ramdas Pophale) SiO2 
 PCOD9445973
Probable space group: P N N M
;
_chemical_formula_sum "Si O2"
_cell_formula_units_Z 64
_cell_length_a 21.000000
_cell_length_b 18.000000
_cell_length_c 9.000000
_cell_angle_alpha 90.000000
_cell_angle_beta 90.000000
_cell_angle_gamma 90.000000
_cell_volume 3402.000000
_symmetry_space_group_name_H-M "P N N M"
_symmetry_group_IT_number 58
_symmetry_cell_setting 'orthorhombic'
loop_
_space_group_symop_operation_xyz
x,y,z
-x,-y,z
1/2+x,1/2-y,1/2-z
1/2-x,1/2+y,1/2-z
-x,-y,-z
x,y,-z
1/2-x,1/2+y,1/2+z
1/2+x,1/2-y,1/2+z
loop_
_atom_site_type_symbol
_atom_site_label
_atom_site_fract_x
_atom_site_fract_y
_atom_site_fract_z
Si Si1 0.324670 0.102301 0.679819
Si Si2 0.072896 0.475540 0.178435
Si Si3 0.024670 0.212665 0.177869
Si Si4 0.124345 0.763041 0.179917
Si Si5 0.624987 0.174010 0.177985
Si Si6 0.702224 0.479377 0.179527
Si Si7 0.058033 0.057213 0.678286
Si Si8 0.260908 0.353284 0.178776
O O1 0.321365 0.103529 0.500000
O O2 0.351109 0.181684 0.725439
O O3 0.377095 0.040279 0.716624
O O4 0.253809 0.081130 0.734071
O O5 0.094482 0.403641 0.268307
O O6 0.000000 0.500000 0.207134
O O7 0.077882 0.460597 0.000000
O O8 0.076075 0.265136 0.257964
O O9 0.041339 0.130196 0.230150
O O10 0.950368 0.227955 0.218027
O O11 0.030092 0.222008 0.000000
O O12 0.174069 0.817824 0.258651
O O13 0.129359 0.771037 0.000000
O O14 0.696385 0.178380 0.247035
O O15 0.629067 0.179019 0.000000
O O16 0.628560 0.471012 0.225512
O O17 0.732513 0.559241 0.214844
O O18 0.700592 0.474784 0.000000
O O19 0.060436 0.072836 0.500000
O O20 0.000000 0.000000 0.701035
O O21 0.257167 0.344951 0.000000
#
# Coordination Sequence:
#
# PCOD9445973 Si02
#       8
#     8   8   8   8   8   8   8   8
#     4   9  17  33  57  85 115 153 198 239 291 363
#     4  10  19  36  63  89 117 157 201 244 297 362
#     4  11  24  42  62  90 126 163 211 264 316 374
#     4  10  22  39  62  90 121 159 203 253 311 371
#     4  12  25  40  60  89 126 165 206 255 309 367
#     4   9  18  34  59  86 115 154 199 247 296 365
#     4  10  21  38  62  92 123 160 206 253 311 376
#     4  11  22  40  65  91 122 160 205 254 310 374
#
# _framework density 18.812463000000001
#
# number of rings (size 3 to 8) (size 9 to 14) (size 15 to 20)
#    0.000    1.750    1.250    3.375    1.750    4.500 
#    0.000    1.875    0.000    0.000    0.000    0.000 
#    0.000    0.000    0.000    0.000    0.000    0.000 
#
# Total GULP energy -357300.658190 kJ/mol
# GULP energy per Si atom -5582.822784 kJ/mol
# Density = 1.876965 g / cm^3
# Si number density = 18.812463 Si / 1000 Ang^3
#
#
#
# Elastic Constant Matrix: (Units=GPa)
#
#
# Indices 1 2 3 4 5 6 
#
# 1 184.9642 48.3901 46.8839 0.0000 0.0000 0.0000
# 2 48.3901 81.1694 30.2195 0.0000 0.0000 0.0000
# 3 46.8839 30.2195 62.7914 0.0000 0.0000 0.0000
# 4 0.0000 0.0000 0.0000 26.9745 0.0000 0.0000
# 5 0.0000 0.0000 0.0000 0.0000 23.6214 0.0000
# 6 0.0000 0.0000 0.0000 0.0000 0.0000 39.5931
#
#
#
# Elastic Compliance Matrix: (Units=1/GPa)
#
#
# Indices 1 2 3 4 5 6 
#
# 1 0.007146 -0.002770 -0.004002 0.000000 0.000000 0.000000
# 2 -0.002770 0.016083 -0.005672 0.000000 0.000000 0.000000
# 3 -0.004002 -0.005672 0.021644 0.000000 0.000000 0.000000
# 4 0.000000 0.000000 0.000000 0.037072 0.000000 0.000000
# 5 0.000000 0.000000 0.000000 0.000000 0.042334 0.000000
# 6 0.000000 0.000000 0.000000 0.000000 0.000000 0.025257
#
#
# Mechanical properties :
#
#
# Convention : Reuss Voigt Hill
#
# Bulk Modulus (GPa) = 50.04006 64.43466 57.23736
# Shear Modulus (GPa) = 27.61126 31.59990 29.60558
#
# Velocity S-wave (km/s) = 3.83523 4.10290 3.97132
# Velocity P-wave (km/s) = 6.80214 7.53462 7.17773
#
# Compressibility (1/GPa) = 0.01998399
#
# Stress axis : x y z
#
# Youngs Moduli (GPa) = 139.94670 62.17774 46.20250
#
# Poissons Ratio (x) = 0.17222 0.18491
# Poissons Ratio (y) = 0.38763 0.26206
# Poissons Ratio (z) = 0.56010 0.35267
#
# Static dielectric constant tensor:
#      x y z
#    x 1.654820 0.000000 0.000000 
#    y 0.000000 1.680890 0.000000 
#    z 0.000000 0.000000 1.629700 
# 
# From -- ./inp_files/9224.got.cif
#   From: 2010.05.17/outbox.ucp.g08.bks.cvg/sg58_5_cif.got.tgz:9224.got - 2010.06.11 16:41:41.
