data_PCOD9445779
_publ_section_title
;
Structure prediction by ZEFSAII (Michael W. Deem and Ramdas Pophale) SiO2 
 PCOD9445779
Probable space group: P N N M
;
_chemical_formula_sum "Si O2"
_cell_formula_units_Z 24
_cell_length_a 8.119575
_cell_length_b 8.908557
_cell_length_c 14.194213
_cell_angle_alpha 90.000000
_cell_angle_beta 90.000000
_cell_angle_gamma 90.000000
_cell_volume 1026.719898
_symmetry_space_group_name_H-M "P N N M"
_symmetry_group_IT_number 58
_symmetry_cell_setting 'orthorhombic'
loop_
_space_group_symop_operation_xyz
x,y,z
-x,-y,z
1/2+x,1/2-y,1/2-z
1/2-x,1/2+y,1/2-z
-x,-y,-z
x,y,-z
1/2-x,1/2+y,1/2+z
1/2+x,1/2-y,1/2+z
loop_
_atom_site_type_symbol
_atom_site_label
_atom_site_fract_x
_atom_site_fract_y
_atom_site_fract_z
Si Si1 0.377798 0.372467 0.332383
Si Si2 0.882498 0.631634 0.818017
Si Si3 0.811519 0.796211 0.500000
Si Si4 0.690068 0.661730 0.000000
O O1 0.500000 0.500000 0.370116
O O2 0.244627 0.431211 0.257986
O O3 0.497820 0.258108 0.276749
O O4 0.280739 0.278594 0.411272
O O5 0.787029 0.703116 0.905748
O O6 0.000000 0.500000 0.853670
O O7 0.007917 0.769498 0.500000
O O8 0.807010 0.978190 0.500000
#
# Coordination Sequence:
#
# PCOD9445779 Si02
#       4
#     8   8   4   4
#     4  12  26  43  68 105 143 175 227 292 348 400
#     4  12  24  45  70 102 135 185 232 275 343 415
#     4  11  24  45  70 103 135 181 231 284 345 405
#     4  11  24  44  76  96 133 185 240 273 329 432
#
# _framework density 23.375409000000001
#
# number of rings (size 3 to 8) (size 9 to 14) (size 15 to 20)
#    0.000    0.333    3.333    6.000    4.667    0.000 
#    0.000    2.500    0.000    0.000    0.000    0.000 
#    0.000    0.000    0.000    0.000    0.000    0.000 
#
# Total GULP energy -134274.319134 kJ/mol
# GULP energy per Si atom -5594.763297 kJ/mol
# Density = 2.332221 g / cm^3
# Si number density = 23.375409 Si / 1000 Ang^3
#
#
#
# Elastic Constant Matrix: (Units=GPa)
#
#
# Indices 1 2 3 4 5 6 
#
# 1 178.5098 54.3495 57.4599 0.0000 0.0000 0.0000
# 2 54.3495 65.8338 0.5499 0.0000 0.0000 0.0000
# 3 57.4599 0.5499 95.3831 0.0000 0.0000 0.0000
# 4 0.0000 0.0000 0.0000 22.9894 0.0000 0.0000
# 5 0.0000 0.0000 0.0000 0.0000 39.8088 0.0000
# 6 0.0000 0.0000 0.0000 0.0000 0.0000 50.9074
#
#
#
# Elastic Compliance Matrix: (Units=1/GPa)
#
#
# Indices 1 2 3 4 5 6 
#
# 1 0.010043 -0.008241 -0.006003 0.000000 0.000000 0.000000
# 2 -0.008241 0.021953 0.004838 0.000000 0.000000 0.000000
# 3 -0.006003 0.004838 0.014072 0.000000 0.000000 0.000000
# 4 0.000000 0.000000 0.000000 0.043498 0.000000 0.000000
# 5 0.000000 0.000000 0.000000 0.000000 0.025120 0.000000
# 6 0.000000 0.000000 0.000000 0.000000 0.000000 0.019644
#
#
# Mechanical properties :
#
#
# Convention : Reuss Voigt Hill
#
# Bulk Modulus (GPa) = 36.68817 62.71614 49.70216
# Shear Modulus (GPa) = 30.82099 37.89896 34.35997
#
# Velocity S-wave (km/s) = 3.63508 4.03093 3.83811
# Velocity P-wave (km/s) = 5.77475 6.96798 6.39924
#
# Compressibility (1/GPa) = 0.02725675
#
# Stress axis : x y z
#
# Youngs Moduli (GPa) = 99.56990 45.55220 71.06205
#
# Poissons Ratio (x) = 0.37540 0.42656
# Poissons Ratio (y) = 0.82056 -0.34380
# Poissons Ratio (z) = 0.59768 -0.22038
#
# Static dielectric constant tensor:
#      x y z
#    x 1.896830 0.000000 0.000000 
#    y 0.000000 1.912600 0.000000 
#    z 0.000000 0.000000 1.811220 
# 
# From -- ./inp_files/18926.got.cif
#   From: 2010.05.17/outbox.cif.g08.bks.cpg/sg58_10_cif.got.tgz:18926.got - 2010.06.03 14:20:14.
