data_PCOD9445340
_publ_section_title
;
Structure prediction by ZEFSAII (Michael W. Deem and Ramdas Pophale) SiO2 
 PCOD9445340
Probable space group: P N N M
;
_chemical_formula_sum "Si O2"
_cell_formula_units_Z 32
_cell_length_a 10.102359
_cell_length_b 10.685585
_cell_length_c 14.341271
_cell_angle_alpha 90.000000
_cell_angle_beta 90.000000
_cell_angle_gamma 90.000000
_cell_volume 1548.134694
_symmetry_space_group_name_H-M "P N N M"
_symmetry_group_IT_number 58
_symmetry_cell_setting 'orthorhombic'
loop_
_space_group_symop_operation_xyz
x,y,z
-x,-y,z
1/2+x,1/2-y,1/2-z
1/2-x,1/2+y,1/2-z
-x,-y,-z
x,y,-z
1/2-x,1/2+y,1/2+z
1/2+x,1/2-y,1/2+z
loop_
_atom_site_type_symbol
_atom_site_label
_atom_site_fract_x
_atom_site_fract_y
_atom_site_fract_z
Si Si1 0.325480 0.296952 0.603874
Si Si2 0.095645 0.884352 0.296980
Si Si3 0.155657 0.504493 0.889758
Si Si4 0.480539 0.862636 0.893002
O O1 0.384110 0.310625 0.500000
O O2 0.404091 0.363413 0.686063
O O3 0.309866 0.149733 0.624080
O O4 0.176508 0.346016 0.603457
O O5 0.046455 0.754585 0.341839
O O6 0.243591 0.919314 0.331516
O O7 0.000000 0.000000 0.323536
O O8 0.000000 0.500000 0.868402
O O9 0.172393 0.474091 0.000000
O O10 0.500000 0.000000 0.850575
O O11 0.531648 0.864102 0.000000
#
# Coordination Sequence:
#
# PCOD9445340 Si02
#       4
#     8   8   8   8
#     4  10  24  43  63  94 139 174 211 278 338 385
#     4  12  25  39  73 102 125 178 230 272 321 404
#     4  10  23  43  67  97 135 175 218 277 335 389
#     4  10  23  43  67  97 135 175 218 277 335 389
#
# _framework density 20.670036
#
# number of rings (size 3 to 8) (size 9 to 14) (size 15 to 20)
#    0.000    1.500    2.500    0.750    7.000    1.500 
#    0.000    0.000    0.000    0.000    0.000    0.000 
#    0.000    0.000    0.000    0.000    0.000    0.000 
#
# Total GULP energy -178791.422951 kJ/mol
# GULP energy per Si atom -5587.231967 kJ/mol
# Density = 2.062299 g / cm^3
# Si number density = 20.670036 Si / 1000 Ang^3
#
#
#
# Elastic Constant Matrix: (Units=GPa)
#
#
# Indices 1 2 3 4 5 6 
#
# 1 37.9524 41.4795 5.1853 0.0000 0.0000 0.0000
# 2 41.4795 153.0342 48.4076 0.0000 0.0000 0.0000
# 3 5.1853 48.4076 94.1070 0.0000 0.0000 0.0000
# 4 0.0000 0.0000 0.0000 36.0463 0.0000 0.0000
# 5 0.0000 0.0000 0.0000 0.0000 30.8653 0.0000
# 6 0.0000 0.0000 0.0000 0.0000 0.0000 22.1212
#
#
#
# Elastic Compliance Matrix: (Units=1/GPa)
#
#
# Indices 1 2 3 4 5 6 
#
# 1 0.038595 -0.011691 0.003887 0.000000 0.000000 0.000000
# 2 -0.011691 0.011345 -0.005192 0.000000 0.000000 0.000000
# 3 0.003887 -0.005192 0.013083 0.000000 0.000000 0.000000
# 4 0.000000 0.000000 0.000000 0.027742 0.000000 0.000000
# 5 0.000000 0.000000 0.000000 0.000000 0.032399 0.000000
# 6 0.000000 0.000000 0.000000 0.000000 0.000000 0.045205
#
#
# Mechanical properties :
#
#
# Convention : Reuss Voigt Hill
#
# Bulk Modulus (GPa) = 27.00368 52.80429 39.90398
# Shear Modulus (GPa) = 24.18916 30.47465 27.33191
#
# Velocity S-wave (km/s) = 3.42461 3.84388 3.64028
# Velocity P-wave (km/s) = 5.36002 6.73070 6.08408
#
# Compressibility (1/GPa) = 0.03703199
#
# Stress axis : x y z
#
# Youngs Moduli (GPa) = 25.91024 88.14107 76.43709
#
# Poissons Ratio (x) = 1.03042 -0.29710
# Poissons Ratio (y) = 0.30290 0.39685
# Poissons Ratio (z) = -0.10071 0.45761
#
# Static dielectric constant tensor:
#      x y z
#    x 1.635410 0.000000 0.000000 
#    y 0.000000 1.688440 0.000000 
#    z 0.000000 0.000000 1.792990 
# 
# From -- ./inp_files/19090.got.cif
#   From: 2010.05.17/outbox.cif.g08.bks.cpg/sg58_10_cif.got.tgz:19090.got - 2010.06.03 14:20:14.
