data_PCOD9445604
_publ_section_title
;
Structure prediction by ZEFSAII (Michael W. Deem and Ramdas Pophale) SiO2 
 PCOD9445604
Probable space group: P N N M
;
_chemical_formula_sum "Si O2"
_cell_formula_units_Z 32
_cell_length_a 12.260625
_cell_length_b 9.701477
_cell_length_c 10.821560
_cell_angle_alpha 90.000000
_cell_angle_beta 90.000000
_cell_angle_gamma 90.000000
_cell_volume 1287.183131
_symmetry_space_group_name_H-M "P N N M"
_symmetry_group_IT_number 58
_symmetry_cell_setting 'orthorhombic'
loop_
_space_group_symop_operation_xyz
x,y,z
-x,-y,z
1/2+x,1/2-y,1/2-z
1/2-x,1/2+y,1/2-z
-x,-y,-z
x,y,-z
1/2-x,1/2+y,1/2+z
1/2+x,1/2-y,1/2+z
loop_
_atom_site_type_symbol
_atom_site_label
_atom_site_fract_x
_atom_site_fract_y
_atom_site_fract_z
Si Si1 0.844422 0.464030 0.500000
Si Si2 0.269604 0.476257 0.000000
Si Si3 0.643444 0.301613 0.500000
Si Si4 0.116516 0.564400 0.221506
Si Si5 0.005698 0.164529 0.237651
Si Si6 0.988599 0.186279 0.500000
O O1 0.715163 0.438308 0.500000
O O2 0.863191 0.507480 0.355866
O O3 0.925465 0.332025 0.500000
O O4 0.212747 0.540443 0.122489
O O5 0.398648 0.437844 0.000000
O O6 0.226339 0.321357 0.000000
O O7 0.574765 0.289925 0.377713
O O8 0.098007 0.730691 0.237097
O O9 0.000000 0.500000 0.177741
O O10 0.054600 0.185930 0.373593
O O11 0.000000 0.000000 0.223473
#
# Coordination Sequence:
#
# PCOD9445604 Si02
#       6
#     4   4   4   8   8   4
#     4   9  23  39  63 100 133 155 216 279 309 368
#     4  11  22  41  69  94 130 164 223 264 314 378
#     4  11  22  42  64  97 131 169 207 271 322 374
#     4  11  21  42  70  93 125 171 214 259 322 382
#     4  11  23  41  67  94 131 168 209 261 325 382
#     4   9  23  43  62  94 132 174 208 267 316 383
#
# _framework density 24.860488
#
# number of rings (size 3 to 8) (size 9 to 14) (size 15 to 20)
#    0.000    1.500    2.500    2.250    3.500    0.000 
#    0.000    0.000    5.500    0.000    0.000    0.000 
#    0.000    0.000    0.000    0.000    0.000    0.000 
#
# Total GULP energy -178424.116932 kJ/mol
# GULP energy per Si atom -5575.753654 kJ/mol
# Density = 2.480390 g / cm^3
# Si number density = 24.860488 Si / 1000 Ang^3
#
#
#
# Elastic Constant Matrix: (Units=GPa)
#
#
# Indices 1 2 3 4 5 6 
#
# 1 86.8253 8.7555 94.6174 0.0000 0.0000 0.0000
# 2 8.7555 98.6058 30.3625 0.0000 0.0000 0.0000
# 3 94.6174 30.3625 207.8106 0.0000 0.0000 0.0000
# 4 0.0000 0.0000 0.0000 25.2929 0.0000 0.0000
# 5 0.0000 0.0000 0.0000 0.0000 -19.6732 0.0000
# 6 0.0000 0.0000 0.0000 0.0000 0.0000 21.9427
#
#
#
# Elastic Compliance Matrix: (Units=1/GPa)
#
#
# Indices 1 2 3 4 5 6 
#
# 1 0.023003 0.001238 -0.010654 0.000000 0.000000 0.000000
# 2 0.001238 0.010686 -0.002125 0.000000 0.000000 0.000000
# 3 -0.010654 -0.002125 0.009974 0.000000 0.000000 0.000000
# 4 0.000000 0.000000 0.000000 0.039537 0.000000 0.000000
# 5 0.000000 0.000000 0.000000 0.000000 -0.050830 0.000000
# 6 0.000000 0.000000 0.000000 0.000000 0.000000 0.045573
#
#
# Mechanical properties :
#
#
# Convention : Reuss Voigt Hill
#
# Bulk Modulus (GPa) = 48.59091 73.41249 61.00170
# Shear Modulus (GPa) = 46.34599 22.81288 34.57943
#
# Velocity S-wave (km/s) = 4.32237 3.03254 3.73358
# Velocity P-wave (km/s) = 6.67071 6.46959 6.57092
#
# Compressibility (1/GPa) = 0.02057998
#
# Stress axis : x y z
#
# Youngs Moduli (GPa) = 43.47261 93.58229 100.26557
#
# Poissons Ratio (x) = -0.11587 1.06826
# Poissons Ratio (y) = -0.05383 0.21306
# Poissons Ratio (z) = 0.46317 0.19886
#
# Static dielectric constant tensor:
#      x y z
#    x 2.009560 0.000000 0.000000 
#    y 0.000000 2.071140 0.000000 
#    z 0.000000 0.000000 1.880160 
# 
# From -- ./inp_files/3634.got.cif
#   From: 2010.05.17/outbox.cif.g08.bks.cpg/sg58_2_cif.got.tgz:3634.got - 2010.06.03 14:20:14.
