data_PCOD9445414
_publ_section_title
;
Structure prediction by ZEFSAII (Michael W. Deem and Ramdas Pophale) SiO2 
 PCOD9445414
Probable space group: P N N M
;
_chemical_formula_sum "Si O2"
_cell_formula_units_Z 34
_cell_length_a 22.409039
_cell_length_b 8.323050
_cell_length_c 7.740527
_cell_angle_alpha 90.000000
_cell_angle_beta 90.000000
_cell_angle_gamma 90.000000
_cell_volume 1443.697704
_symmetry_space_group_name_H-M "P N N M"
_symmetry_group_IT_number 58
_symmetry_cell_setting 'orthorhombic'
loop_
_space_group_symop_operation_xyz
x,y,z
-x,-y,z
1/2+x,1/2-y,1/2-z
1/2-x,1/2+y,1/2-z
-x,-y,-z
x,y,-z
1/2-x,1/2+y,1/2+z
1/2+x,1/2-y,1/2+z
loop_
_atom_site_type_symbol
_atom_site_label
_atom_site_fract_x
_atom_site_fract_y
_atom_site_fract_z
Si Si1 0.167807 0.938365 0.699407
Si Si2 0.289619 0.090537 0.794036
Si Si3 0.052973 0.117889 0.803525
Si Si4 0.085085 0.461328 0.307171
Si Si5 0.000000 0.500000 0.000000
O O1 0.148200 0.924500 0.500000
O O2 0.185774 0.762516 0.764597
O O3 0.228182 0.041273 0.708070
O O4 0.114052 0.019035 0.800589
O O5 0.344223 0.967551 0.768265
O O6 0.278158 0.100868 0.000000
O O7 0.063435 0.277420 0.695352
O O8 0.039435 0.178097 0.000000
O O9 0.000000 0.000000 0.749401
O O10 0.076394 0.530935 0.500000
O O11 0.048938 0.544322 0.154446
#
# Coordination Sequence:
#
# PCOD9445414 Si02
#       5
#     8   8   8   8   2
#     4  11  24  41  67  96 132 176 224 281 341 406
#     4  10  24  44  66  98 133 174 228 282 339 404
#     4  11  25  44  67  98 137 180 229 285 344 410
#     4  11  25  45  71 100 140 182 230 283 340 408
#     4  12  26  44  70 106 140 184 222 288 336 418
#
# _framework density 23.550636999999998
#
# number of rings (size 3 to 8) (size 9 to 14) (size 15 to 20)
#    0.000    1.176    1.176    3.176    4.941    7.529 
#    0.000    0.000    0.000    0.000    0.000    0.000 
#    0.000    0.000    0.000    0.000    0.000    0.000 
#
# Total GULP energy -189874.314266 kJ/mol
# GULP energy per Si atom -5584.538655 kJ/mol
# Density = 2.349703 g / cm^3
# Si number density = 23.550637 Si / 1000 Ang^3
#
#
#
# Elastic Constant Matrix: (Units=GPa)
#
#
# Indices 1 2 3 4 5 6 
#
# 1 144.1091 18.9580 42.4648 0.0000 0.0000 0.0000
# 2 18.9580 58.4644 22.6070 0.0000 0.0000 0.0000
# 3 42.4648 22.6070 105.0872 0.0000 0.0000 0.0000
# 4 0.0000 0.0000 0.0000 25.2912 0.0000 0.0000
# 5 0.0000 0.0000 0.0000 0.0000 26.8308 0.0000
# 6 0.0000 0.0000 0.0000 0.0000 0.0000 43.7180
#
#
#
# Elastic Compliance Matrix: (Units=1/GPa)
#
#
# Indices 1 2 3 4 5 6 
#
# 1 0.007990 -0.001464 -0.002914 0.000000 0.000000 0.000000
# 2 -0.001464 0.018925 -0.003479 0.000000 0.000000 0.000000
# 3 -0.002914 -0.003479 0.011442 0.000000 0.000000 0.000000
# 4 0.000000 0.000000 0.000000 0.039539 0.000000 0.000000
# 5 0.000000 0.000000 0.000000 0.000000 0.037271 0.000000
# 6 0.000000 0.000000 0.000000 0.000000 0.000000 0.022874
#
#
# Mechanical properties :
#
#
# Convention : Reuss Voigt Hill
#
# Bulk Modulus (GPa) = 44.16621 52.85782 48.51201
# Shear Modulus (GPa) = 30.99745 34.07671 32.53708
#
# Velocity S-wave (km/s) = 3.63189 3.80801 3.72099
# Velocity P-wave (km/s) = 6.03174 6.46743 6.25338
#
# Compressibility (1/GPa) = 0.02264174
#
# Stress axis : x y z
#
# Youngs Moduli (GPa) = 125.14939 52.84103 87.39807
#
# Poissons Ratio (x) = 0.07738 0.25467
# Poissons Ratio (y) = 0.18326 0.30410
# Poissons Ratio (z) = 0.36467 0.18386
#
# Static dielectric constant tensor:
#      x y z
#    x 1.865390 0.000000 0.000000 
#    y 0.000000 1.897260 0.000000 
#    z 0.000000 0.000000 1.839020 
# 
# From -- ./inp_files/2244.got.cif
#   From: 2010.05.17/outbox.cif.g08.bks.cpg/sg58_2_cif.got.tgz:2244.got - 2010.06.03 14:20:14.
