data_PCOD9445085
_publ_section_title
;
Structure prediction by ZEFSAII (Michael W. Deem and Ramdas Pophale) SiO2 
 PCOD9445085
Probable space group: P N N M
;
_chemical_formula_sum "Si O2"
_cell_formula_units_Z 48
_cell_length_a 10.312310
_cell_length_b 13.941731
_cell_length_c 18.238918
_cell_angle_alpha 90.000000
_cell_angle_beta 90.000000
_cell_angle_gamma 90.000000
_cell_volume 2622.235724
_symmetry_space_group_name_H-M "P N N M"
_symmetry_group_IT_number 58
_symmetry_cell_setting 'orthorhombic'
loop_
_space_group_symop_operation_xyz
x,y,z
-x,-y,z
1/2+x,1/2-y,1/2-z
1/2-x,1/2+y,1/2-z
-x,-y,-z
x,y,-z
1/2-x,1/2+y,1/2+z
1/2+x,1/2-y,1/2+z
loop_
_atom_site_type_symbol
_atom_site_label
_atom_site_fract_x
_atom_site_fract_y
_atom_site_fract_z
Si Si1 0.220919 0.323066 0.360363
Si Si2 0.022802 0.216773 0.882287
Si Si3 0.883163 0.574474 0.918946
Si Si4 0.303795 0.441974 0.781267
Si Si5 0.619405 0.427507 0.500000
Si Si6 0.369479 0.938538 0.000000
Si Si7 0.081895 0.152220 0.721626
O O1 0.368801 0.302615 0.385896
O O2 0.237044 0.393391 0.289795
O O3 0.146246 0.373842 0.427058
O O4 0.150629 0.225248 0.334269
O O5 0.056261 0.320264 0.912799
O O6 0.100100 0.138638 0.929228
O O7 0.067346 0.207062 0.798559
O O8 0.784585 0.562095 0.852702
O O9 0.000000 0.500000 0.911373
O O10 0.823711 0.561777 0.000000
O O11 0.436361 0.383031 0.797228
O O12 0.339726 0.553119 0.767110
O O13 0.500000 0.500000 0.500000
O O14 0.750231 0.486976 0.500000
O O15 0.500000 0.000000 0.000000
#
# Coordination Sequence:
#
# PCOD9445085 Si02
#       7
#     8   8   8   8   4   4   8
#     4  11  22  43  65  92 134 167 213 266 326 381
#     4  11  21  39  69  94 120 172 222 258 314 390
#     4  11  23  40  62  94 125 159 214 267 306 365
#     4  10  22  42  64  93 126 167 220 258 318 389
#     4  12  22  42  71  92 124 170 217 269 315 390
#     4  12  28  44  62 103 135 168 215 274 341 386
#     4  10  22  40  65  91 126 174 209 262 323 386
#
# _framework density 18.304991000000001
#
# number of rings (size 3 to 8) (size 9 to 14) (size 15 to 20)
#    0.000    1.167    4.167    2.000    2.333    2.000 
#    9.000    0.833    0.000    0.000    0.000    0.000 
#    0.000    0.000    0.000    0.000    0.000    0.000 
#
# Total GULP energy -268142.465314 kJ/mol
# GULP energy per Si atom -5586.301361 kJ/mol
# Density = 1.826333 g / cm^3
# Si number density = 18.304991 Si / 1000 Ang^3
#
#
#
# Elastic Constant Matrix: (Units=GPa)
#
#
# Indices 1 2 3 4 5 6 
#
# 1 71.5778 41.6402 46.3040 0.0000 0.0000 0.0000
# 2 41.6402 125.4049 36.3839 0.0000 0.0000 0.0000
# 3 46.3040 36.3839 98.0187 0.0000 0.0000 0.0000
# 4 0.0000 0.0000 0.0000 47.0169 0.0000 0.0000
# 5 0.0000 0.0000 0.0000 0.0000 31.5060 0.0000
# 6 0.0000 0.0000 0.0000 0.0000 0.0000 27.4580
#
#
#
# Elastic Compliance Matrix: (Units=1/GPa)
#
#
# Indices 1 2 3 4 5 6 
#
# 1 0.022543 -0.004926 -0.008821 0.000000 0.000000 0.000000
# 2 -0.004926 0.010013 -0.001390 0.000000 0.000000 0.000000
# 3 -0.008821 -0.001390 0.014885 0.000000 0.000000 0.000000
# 4 0.000000 0.000000 0.000000 0.021269 0.000000 0.000000
# 5 0.000000 0.000000 0.000000 0.000000 0.031740 0.000000
# 6 0.000000 0.000000 0.000000 0.000000 0.000000 0.036419
#
#
# Mechanical properties :
#
#
# Convention : Reuss Voigt Hill
#
# Bulk Modulus (GPa) = 58.24873 60.40641 59.32757
# Shear Modulus (GPa) = 28.92446 32.57440 30.74943
#
# Velocity S-wave (km/s) = 3.97941 4.22303 4.10303
# Velocity P-wave (km/s) = 7.28043 7.53991 7.41130
#
# Compressibility (1/GPa) = 0.01716776
#
# Stress axis : x y z
#
# Youngs Moduli (GPa) = 44.36041 99.86978 67.18238
#
# Poissons Ratio (x) = 0.49196 0.59259
# Poissons Ratio (y) = 0.21852 0.09336
# Poissons Ratio (z) = 0.39129 0.13879
#
# Static dielectric constant tensor:
#      x y z
#    x 1.621930 0.000000 0.000000 
#    y 0.000000 1.615110 0.000000 
#    z 0.000000 0.000000 1.636680 
# 
# From -- ./inp_files/25322.got.cif
#   From: 2010.05.17/outbox.cif.g08.bks.cpg/sg58_13_cif.got.tgz:25322.got - 2010.06.03 14:20:14.
