data_PCOD9445711
_publ_section_title
;
Structure prediction by ZEFSAII (Michael W. Deem and Ramdas Pophale) SiO2 
 PCOD9445711
Probable space group: P N N M
;
_chemical_formula_sum "Si O2"
_cell_formula_units_Z 56
_cell_length_a 14.363687
_cell_length_b 8.752094
_cell_length_c 20.984182
_cell_angle_alpha 90.000000
_cell_angle_beta 90.000000
_cell_angle_gamma 90.000000
_cell_volume 2637.970597
_symmetry_space_group_name_H-M "P N N M"
_symmetry_group_IT_number 58
_symmetry_cell_setting 'orthorhombic'
loop_
_space_group_symop_operation_xyz
x,y,z
-x,-y,z
1/2+x,1/2-y,1/2-z
1/2-x,1/2+y,1/2-z
-x,-y,-z
x,y,-z
1/2-x,1/2+y,1/2+z
1/2+x,1/2-y,1/2+z
loop_
_atom_site_type_symbol
_atom_site_label
_atom_site_fract_x
_atom_site_fract_y
_atom_site_fract_z
Si Si1 0.748996 0.305837 0.810250
Si Si2 0.519292 0.667821 0.072704
Si Si3 0.779472 0.088622 0.393206
Si Si4 0.080138 0.400472 0.667798
Si Si5 0.059838 0.759741 0.000000
Si Si6 0.900690 0.072978 0.866207
Si Si7 0.264833 0.120982 0.827486
Si Si8 0.631277 0.090196 0.500000
O O1 0.723189 0.414485 0.869921
O O2 0.653886 0.210167 0.797672
O O3 0.840248 0.202598 0.826999
O O4 0.766985 0.406765 0.747998
O O5 0.500000 0.500000 0.101716
O O6 0.630468 0.654898 0.071255
O O7 0.473364 0.798697 0.115367
O O8 0.483090 0.675920 0.000000
O O9 0.775730 0.198914 0.332870
O O10 0.692122 0.114150 0.437696
O O11 0.151223 0.527222 0.640611
O O12 0.000000 0.500000 0.702949
O O13 0.084261 0.854937 0.063614
O O14 0.105693 0.590566 0.000000
O O15 0.952350 0.709779 0.000000
O O16 0.828306 0.934108 0.861369
O O17 0.000000 0.000000 0.844166
#
# Coordination Sequence:
#
# PCOD9445711 Si02
#       8
#     8   8   8   8   4   8   8   4
#     4  11  25  46  69  98 143 188 235 288 350 425
#     4  11  23  41  69 100 135 181 225 269 345 430
#     4  12  21  43  69  98 137 181 229 281 352 421
#     4  11  23  44  66 102 138 173 232 289 341 408
#     4  11  23  46  72 100 142 178 237 295 358 418
#     4  11  24  46  71 104 136 182 234 297 356 409
#     4  11  26  45  68 100 140 181 233 291 349 405
#     4  11  24  40  73 105 134 184 232 292 354 422
#
# _framework density 21.228439000000002
#
# number of rings (size 3 to 8) (size 9 to 14) (size 15 to 20)
#    0.000    0.857    5.000    2.786    0.000    2.000 
#    9.000    1.429    0.000    0.000    0.000    0.000 
#    0.000    0.000    0.000    0.000    0.000    0.000 
#
# Total GULP energy -311923.322187 kJ/mol
# GULP energy per Si atom -5570.059325 kJ/mol
# Density = 2.118012 g / cm^3
# Si number density = 21.228439 Si / 1000 Ang^3
#
#
#
# Elastic Constant Matrix: (Units=GPa)
#
#
# Indices 1 2 3 4 5 6 
#
# 1 153.8624 46.4532 29.1745 0.0000 0.0000 0.0000
# 2 46.4532 101.2236 29.4481 0.0000 0.0000 0.0000
# 3 29.1745 29.4481 71.2932 0.0000 0.0000 0.0000
# 4 0.0000 0.0000 0.0000 32.7851 0.0000 0.0000
# 5 0.0000 0.0000 0.0000 0.0000 -0.1796 0.0000
# 6 0.0000 0.0000 0.0000 0.0000 0.0000 45.6805
#
#
#
# Elastic Compliance Matrix: (Units=1/GPa)
#
#
# Indices 1 2 3 4 5 6 
#
# 1 0.007774 -0.003003 -0.001941 0.000000 0.000000 0.000000
# 2 -0.003003 0.012388 -0.003888 0.000000 0.000000 0.000000
# 3 -0.001941 -0.003888 0.016427 0.000000 0.000000 0.000000
# 4 0.000000 0.000000 0.000000 0.030502 0.000000 0.000000
# 5 0.000000 0.000000 0.000000 0.000000 -5.566943 0.000000
# 6 0.000000 0.000000 0.000000 0.000000 0.000000 0.021891
#
#
# Mechanical properties :
#
#
# Convention : Reuss Voigt Hill
#
# Bulk Modulus (GPa) = 52.83980 59.61452 56.22716
# Shear Modulus (GPa) = -0.91676 30.41075 14.74700
#
# Velocity S-wave (km/s) = -0.65787 3.78901 2.63854
# Velocity P-wave (km/s) = 4.93640 6.87644 5.98554
#
# Compressibility (1/GPa) = 0.01892513
#
# Stress axis : x y z
#
# Youngs Moduli (GPa) = 128.63447 80.72068 60.87585
#
# Poissons Ratio (x) = 0.24240 0.11815
# Poissons Ratio (y) = 0.38628 0.23670
# Poissons Ratio (z) = 0.24966 0.31386
#
# Static dielectric constant tensor:
#      x y z
#    x 1.819870 0.000000 0.000000 
#    y 0.000000 1.813420 0.000000 
#    z 0.000000 0.000000 1.726980 
# 
# From -- ./inp_files/30077.got.cif
#   From: 2010.05.17/outbox.cif.g08.bks.cpg/sg58_16_cif.got.tgz:30077.got - 2010.06.03 14:20:14.
