data_PCOD9445035
_publ_section_title
;
Structure prediction by ZEFSAII (Michael W. Deem and Ramdas Pophale) SiO2 
 PCOD9445035
Probable space group: P N N M
;
_chemical_formula_sum "Si O2"
_cell_formula_units_Z 40
_cell_length_a 11.447199
_cell_length_b 18.772050
_cell_length_c 7.541662
_cell_angle_alpha 90.000000
_cell_angle_beta 90.000000
_cell_angle_gamma 90.000000
_cell_volume 1620.608078
_symmetry_space_group_name_H-M "P N N M"
_symmetry_group_IT_number 58
_symmetry_cell_setting 'orthorhombic'
loop_
_space_group_symop_operation_xyz
x,y,z
-x,-y,z
1/2+x,1/2-y,1/2-z
1/2-x,1/2+y,1/2-z
-x,-y,-z
x,y,-z
1/2-x,1/2+y,1/2+z
1/2+x,1/2-y,1/2+z
loop_
_atom_site_type_symbol
_atom_site_label
_atom_site_fract_x
_atom_site_fract_y
_atom_site_fract_z
Si Si1 0.833976 0.543351 0.708586
Si Si2 0.580965 0.306823 0.287260
Si Si3 0.375133 0.534722 0.291283
Si Si4 0.947130 0.386624 0.290521
Si Si5 0.671665 0.746189 0.696240
O O1 0.825669 0.561883 0.500000
O O2 0.709408 0.525715 0.787302
O O3 0.890939 0.464650 0.720172
O O4 0.922805 0.601094 0.783109
O O5 0.568737 0.310962 0.500000
O O6 0.618764 0.385231 0.219628
O O7 0.448349 0.288478 0.220818
O O8 0.692821 0.254184 0.258429
O O9 0.500000 0.500000 0.287692
O O10 0.339423 0.542964 0.500000
O O11 0.949199 0.367730 0.500000
O O12 0.872649 0.327770 0.195042
O O13 0.681075 0.714749 0.500000
#
# Coordination Sequence:
#
# PCOD9445035 Si02
#       5
#     8   8   8   8   8
#     4   8  14  26  50  80 102 133 182 223 268 324
#     4  10  22  40  59  82 114 151 191 237 286 338
#     4   9  16  29  53  81 105 132 178 239 284 319
#     4   9  16  30  54  79 104 139 182 229 274 323
#     4  11  23  37  57  86 116 152 194 232 285 350
#
# _framework density 24.682093999999999
#
# number of rings (size 3 to 8) (size 9 to 14) (size 15 to 20)
#    0.000    2.600    2.000    1.800    0.000    3.200 
#    0.000    6.000    0.000    0.600    0.000    0.000 
#    0.000    0.000    0.000    0.000    0.000    0.000 
#
# Total GULP energy -222721.530621 kJ/mol
# GULP energy per Si atom -5568.038266 kJ/mol
# Density = 2.462592 g / cm^3
# Si number density = 24.682094 Si / 1000 Ang^3
#
#
#
# Elastic Constant Matrix: (Units=GPa)
#
#
# Indices 1 2 3 4 5 6 
#
# 1 121.1579 48.3572 0.9532 0.0000 0.0000 0.0000
# 2 48.3572 54.1201 -6.0572 0.0000 0.0000 0.0000
# 3 0.9532 -6.0572 55.2709 0.0000 0.0000 0.0000
# 4 0.0000 0.0000 0.0000 14.4926 0.0000 0.0000
# 5 0.0000 0.0000 0.0000 0.0000 11.4788 0.0000
# 6 0.0000 0.0000 0.0000 0.0000 0.0000 41.9430
#
#
#
# Elastic Compliance Matrix: (Units=1/GPa)
#
#
# Indices 1 2 3 4 5 6 
#
# 1 0.012952 -0.011742 -0.001510 0.000000 0.000000 0.000000
# 2 -0.011742 0.029352 0.003419 0.000000 0.000000 0.000000
# 3 -0.001510 0.003419 0.018493 0.000000 0.000000 0.000000
# 4 0.000000 0.000000 0.000000 0.069001 0.000000 0.000000
# 5 0.000000 0.000000 0.000000 0.000000 0.087117 0.000000
# 6 0.000000 0.000000 0.000000 0.000000 0.000000 0.023842
#
#
# Mechanical properties :
#
#
# Convention : Reuss Voigt Hill
#
# Bulk Modulus (GPa) = 24.31231 35.22835 29.77033
# Shear Modulus (GPa) = 18.23933 26.06928 22.15430
#
# Velocity S-wave (km/s) = 2.72135 3.25345 2.99922
# Velocity P-wave (km/s) = 4.44363 5.33077 4.90729
#
# Compressibility (1/GPa) = 0.04113143
#
# Stress axis : x y z
#
# Youngs Moduli (GPa) = 77.20779 34.06957 54.07315
#
# Poissons Ratio (x) = 0.40004 0.08166
# Poissons Ratio (y) = 0.90657 -0.18489
# Poissons Ratio (z) = 0.11660 -0.11649
#
# Static dielectric constant tensor:
#      x y z
#    x 1.966820 0.000000 0.000000 
#    y 0.000000 1.947120 0.000000 
#    z 0.000000 0.000000 1.967020 
# 
# From -- ./inp_files/3808.got.cif
#   From: 2010.05.17/outbox.cif.g08.bks.cpg/sg58_2_cif.got.tgz:3808.got - 2010.06.03 14:20:14.
