data_PCOD9445919
_publ_section_title
;
Structure prediction by ZEFSAII (Michael W. Deem and Ramdas Pophale) SiO2 
 PCOD9445919
Probable space group: P N N M
;
_chemical_formula_sum "Si O2"
_cell_formula_units_Z 64
_cell_length_a 24.000000
_cell_length_b 15.000000
_cell_length_c 9.000000
_cell_angle_alpha 90.000000
_cell_angle_beta 90.000000
_cell_angle_gamma 90.000000
_cell_volume 3240.000000
_symmetry_space_group_name_H-M "P N N M"
_symmetry_group_IT_number 58
_symmetry_cell_setting 'orthorhombic'
loop_
_space_group_symop_operation_xyz
x,y,z
-x,-y,z
1/2+x,1/2-y,1/2-z
1/2-x,1/2+y,1/2-z
-x,-y,-z
x,y,-z
1/2-x,1/2+y,1/2+z
1/2+x,1/2-y,1/2+z
loop_
_atom_site_type_symbol
_atom_site_label
_atom_site_fract_x
_atom_site_fract_y
_atom_site_fract_z
Si Si1 0.375357 0.931167 0.179351
Si Si2 0.754616 0.628433 0.323591
Si Si3 0.843308 0.880657 0.171392
Si Si4 0.540138 0.712527 0.679088
Si Si5 0.110505 0.615729 0.177133
Si Si6 0.365974 0.421071 0.676781
Si Si7 0.738318 0.838926 0.327316
Si Si8 0.925553 0.753199 0.676053
O O1 0.311907 0.913348 0.235532
O O2 0.413405 0.847941 0.224938
O O3 0.397703 0.023509 0.240040
O O4 0.373681 0.932147 0.000000
O O5 0.753927 0.606268 0.500000
O O6 0.695112 0.599418 0.258464
O O7 0.754557 0.735254 0.312009
O O8 0.779305 0.892326 0.220118
O O9 0.872045 0.809779 0.277024
O O10 0.874719 0.974122 0.188235
O O11 0.846063 0.852576 0.000000
O O12 0.536189 0.706985 0.500000
O O13 0.567415 0.807429 0.718905
O O14 0.583405 0.637746 0.734266
O O15 0.479404 0.706461 0.746632
O O16 0.173486 0.648961 0.208302
O O17 0.106666 0.602574 0.000000
O O18 0.362248 0.398480 0.500000
O O19 0.746703 0.864531 0.500000
O O20 0.932198 0.754584 0.500000
#
# Coordination Sequence:
#
# PCOD9445919 Si02
#       8
#     8   8   8   8   8   8   8   8
#     4  10  21  37  59  82 112 153 191 230 280 345
#     4   9  15  31  58  83 110 150 188 219 268 342
#     4  11  22  36  59  89 117 148 191 239 279 333
#     4  10  21  40  62  83 110 149 195 240 284 336
#     4  10  21  36  60  89 117 149 186 235 287 335
#     4   9  18  34  59  86 112 147 190 228 276 341
#     4  10  18  34  59  86 119 154 185 223 283 347
#     4  11  24  42  60  80 111 154 196 238 291 342
#
# _framework density 19.753086
#
# number of rings (size 3 to 8) (size 9 to 14) (size 15 to 20)
#    0.000    2.000    2.500    1.500    0.000    4.000 
#    0.000    6.250    0.000    1.500    0.000    0.000 
#    0.000    0.000    0.000    0.000    0.000    0.000 
#
# Total GULP energy -357124.168003 kJ/mol
# GULP energy per Si atom -5580.065125 kJ/mol
# Density = 1.970813 g / cm^3
# Si number density = 19.753086 Si / 1000 Ang^3
#
#
#
# Elastic Constant Matrix: (Units=GPa)
#
#
# Indices 1 2 3 4 5 6 
#
# 1 36.6227 6.1010 -1.1721 0.0000 0.0000 0.0000
# 2 6.1010 -14.9521 15.1352 0.0000 0.0000 0.0000
# 3 -1.1721 15.1352 -3.0282 0.0000 0.0000 0.0000
# 4 0.0000 0.0000 0.0000 9.7095 0.0000 0.0000
# 5 0.0000 0.0000 0.0000 0.0000 50.7961 0.0000
# 6 0.0000 0.0000 0.0000 0.0000 0.0000 1.5007
#
#
#
# Elastic Compliance Matrix: (Units=1/GPa)
#
#
# Indices 1 2 3 4 5 6 
#
# 1 0.026972 -0.000108 -0.010979 0.000000 0.000000 0.000000
# 2 -0.000108 0.016476 0.082391 0.000000 0.000000 0.000000
# 3 -0.010979 0.082391 0.085820 0.000000 0.000000 0.000000
# 4 0.000000 0.000000 0.000000 0.102992 0.000000 0.000000
# 5 0.000000 0.000000 0.000000 0.000000 0.019687 0.000000
# 6 0.000000 0.000000 0.000000 0.000000 0.000000 0.666367
#
#
# Mechanical properties :
#
#
# Convention : Reuss Voigt Hill
#
# Bulk Modulus (GPa) = 3.67812 6.53006 5.10409
# Shear Modulus (GPa) = 5.77146 12.30647 9.03897
#
# Velocity S-wave (km/s) = 1.71118 2.49873 2.14147
# Velocity P-wave (km/s) = 2.40214 3.41144 2.95027
#
# Compressibility (1/GPa) = 0.27187773
#
# Stress axis : x y z
#
# Youngs Moduli (GPa) = 37.07539 60.69362 11.65225
#
# Poissons Ratio (x) = 0.00655 0.12793
# Poissons Ratio (y) = 0.00400 -0.96005
# Poissons Ratio (z) = 0.40705 -5.00063
#
# Static dielectric constant tensor:
#      x y z
#    x 1.690950 0.000000 0.000000 
#    y 0.000000 1.711530 0.000000 
#    z 0.000000 0.000000 1.662520 
# 
# From -- ./inp_files/6818.got.cif
#   From: 2010.05.17/outbox.ucp.g08.bks.cvg/sg58_4_cif.got.tgz:6818.got - 2010.06.11 16:41:41.
