data_PCOD9445358
_publ_section_title
;
Structure prediction by ZEFSAII (Michael W. Deem and Ramdas Pophale) SiO2 
 PCOD9445358
Probable space group: P N N M
;
_chemical_formula_sum "Si O2"
_cell_formula_units_Z 58
_cell_length_a 9.063748
_cell_length_b 12.698834
_cell_length_c 25.517243
_cell_angle_alpha 90.000000
_cell_angle_beta 90.000000
_cell_angle_gamma 90.000000
_cell_volume 2937.009950
_symmetry_space_group_name_H-M "P N N M"
_symmetry_group_IT_number 58
_symmetry_cell_setting 'orthorhombic'
loop_
_space_group_symop_operation_xyz
x,y,z
-x,-y,z
1/2+x,1/2-y,1/2-z
1/2-x,1/2+y,1/2-z
-x,-y,-z
x,y,-z
1/2-x,1/2+y,1/2+z
1/2+x,1/2-y,1/2+z
loop_
_atom_site_type_symbol
_atom_site_label
_atom_site_fract_x
_atom_site_fract_y
_atom_site_fract_z
Si Si1 0.844823 0.750232 0.561031
Si Si2 0.500000 0.500000 0.500000
Si Si3 0.075072 0.387734 0.262139
Si Si4 0.412697 0.182559 0.868603
Si Si5 0.043636 0.623717 0.940212
Si Si6 0.413204 0.758232 0.656954
Si Si7 0.617829 0.573385 0.692336
Si Si8 0.752698 0.506819 0.413840
O O1 0.884830 0.757768 0.500000
O O2 0.711804 0.834176 0.569880
O O3 0.793255 0.628254 0.571576
O O4 0.984997 0.762682 0.598757
O O5 0.625223 0.475832 0.454202
O O6 0.053906 0.320716 0.210194
O O7 0.250342 0.390784 0.271317
O O8 0.000000 0.500000 0.252969
O O9 0.003939 0.348530 0.316677
O O10 0.256508 0.225433 0.848713
O O11 0.377378 0.083415 0.907590
O O12 0.000000 0.500000 0.938201
O O13 0.950351 0.679285 0.895544
O O14 0.011479 0.659979 0.000000
O O15 0.526681 0.662585 0.662822
O O16 0.500000 0.500000 0.721226
O O17 0.693973 0.510043 0.645462
#
# Coordination Sequence:
#
# PCOD9445358 Si02
#       8
#     8   2   8   8   8   8   8   8
#     4  11  23  39  64  94 130 172 209 254 322 395
#     4  12  24  32  58 104 134 174 214 244 288 400
#     4  12  23  42  64  88 126 166 213 267 321 375
#     4  12  24  40  62  97 135 169 201 266 337 389
#     4  10  23  45  68  89 121 165 216 271 321 373
#     4  12  24  40  65  96 118 165 222 261 314 389
#     4  12  22  41  63  91 132 170 206 258 323 389
#     4  12  21  36  61  92 137 167 204 247 314 391
#
# _framework density 19.747975
#
# number of rings (size 3 to 8) (size 9 to 14) (size 15 to 20)
#    0.000    0.414    6.897    1.655    0.966    1.103 
#    0.000    4.828    0.000    2.483    0.000    0.000 
#    0.000    0.000    0.000    0.000    0.000    0.000 
#
# Total GULP energy -323112.233472 kJ/mol
# GULP energy per Si atom -5570.900577 kJ/mol
# Density = 1.970303 g / cm^3
# Si number density = 19.747975 Si / 1000 Ang^3
#
#
#
# Elastic Constant Matrix: (Units=GPa)
#
#
# Indices 1 2 3 4 5 6 
#
# 1 102.5327 32.2232 29.8345 0.0000 0.0000 0.0000
# 2 32.2232 59.8973 26.5150 0.0000 0.0000 0.0000
# 3 29.8345 26.5150 61.8159 0.0000 0.0000 0.0000
# 4 0.0000 0.0000 0.0000 13.4011 0.0000 0.0000
# 5 0.0000 0.0000 0.0000 0.0000 27.6035 0.0000
# 6 0.0000 0.0000 0.0000 0.0000 0.0000 28.7135
#
#
#
# Elastic Compliance Matrix: (Units=1/GPa)
#
#
# Indices 1 2 3 4 5 6 
#
# 1 0.012445 -0.004982 -0.003869 0.000000 0.000000 0.000000
# 2 -0.004982 0.022603 -0.007291 0.000000 0.000000 0.000000
# 3 -0.003869 -0.007291 0.021172 0.000000 0.000000 0.000000
# 4 0.000000 0.000000 0.000000 0.074621 0.000000 0.000000
# 5 0.000000 0.000000 0.000000 0.000000 0.036227 0.000000
# 6 0.000000 0.000000 0.000000 0.000000 0.000000 0.034827
#
#
# Mechanical properties :
#
#
# Convention : Reuss Voigt Hill
#
# Bulk Modulus (GPa) = 41.77930 44.59903 43.18916
# Shear Modulus (GPa) = 20.64784 22.98851 21.81817
#
# Velocity S-wave (km/s) = 3.23703 3.41558 3.32751
# Velocity P-wave (km/s) = 5.93071 6.17965 6.05646
#
# Compressibility (1/GPa) = 0.02393530
#
# Stress axis : x y z
#
# Youngs Moduli (GPa) = 80.35650 44.24220 47.23288
#
# Poissons Ratio (x) = 0.22042 0.18275
# Poissons Ratio (y) = 0.40034 0.34436
# Poissons Ratio (z) = 0.31091 0.32255
#
# Static dielectric constant tensor:
#      x y z
#    x 1.725640 0.000000 0.000000 
#    y 0.000000 1.755430 0.000000 
#    z 0.000000 0.000000 1.653120 
# 
# From -- ./inp_files/33340.got.cif
#   From: 2010.05.17/outbox.cif.g08.bks.cpg/sg58_17_cif.got.tgz:33340.got - 2010.06.03 14:20:14.
