data_PCOD9445064
_publ_section_title
;
Structure prediction by ZEFSAII (Michael W. Deem and Ramdas Pophale) SiO2 
 PCOD9445064
Probable space group: P N N M
;
_chemical_formula_sum "Si O2"
_cell_formula_units_Z 40
_cell_length_a 9.536895
_cell_length_b 19.051978
_cell_length_c 10.428246
_cell_angle_alpha 90.000000
_cell_angle_beta 90.000000
_cell_angle_gamma 90.000000
_cell_volume 1894.778028
_symmetry_space_group_name_H-M "P N N M"
_symmetry_group_IT_number 58
_symmetry_cell_setting 'orthorhombic'
loop_
_space_group_symop_operation_xyz
x,y,z
-x,-y,z
1/2+x,1/2-y,1/2-z
1/2-x,1/2+y,1/2-z
-x,-y,-z
x,y,-z
1/2-x,1/2+y,1/2+z
1/2+x,1/2-y,1/2+z
loop_
_atom_site_type_symbol
_atom_site_label
_atom_site_fract_x
_atom_site_fract_y
_atom_site_fract_z
Si Si1 0.810669 0.033369 0.639569
Si Si2 0.719267 0.220000 0.858897
Si Si3 0.261411 0.622613 0.212137
Si Si4 0.968573 0.117914 0.142468
Si Si5 0.552923 0.132949 0.651839
O O1 0.864359 0.056672 0.500000
O O2 0.901898 0.066542 0.752334
O O3 0.654775 0.065401 0.652833
O O4 0.803619 0.949897 0.645086
O O5 0.713276 0.303585 0.857381
O O6 0.877980 0.189799 0.845685
O O7 0.634280 0.189822 0.738339
O O8 0.668697 0.195011 0.000000
O O9 0.366740 0.626628 0.332401
O O10 0.094008 0.619064 0.221434
O O11 0.943971 0.090343 0.000000
O O12 0.531781 0.151356 0.500000
#
# Coordination Sequence:
#
# PCOD9445064 Si02
#       5
#     8   8   8   8   8
#     4  10  22  40  63  90 120 156 200 248 298 353
#     4  10  22  41  62  86 120 159 198 244 298 356
#     4  12  22  35  63  93 119 153 200 250 298 349
#     4  10  24  44  62  86 124 163 198 242 298 358
#     4  10  22  41  62  87 121 158 198 247 300 354
#
# _framework density 21.110652000000002
#
# number of rings (size 3 to 8) (size 9 to 14) (size 15 to 20)
#    0.000    1.600    0.000    4.200    0.000    9.600 
#    0.000    4.000    0.000    6.000    0.000    0.000 
#    0.000    0.000    0.000    0.000    0.000    0.000 
#
# Total GULP energy -223203.181311 kJ/mol
# GULP energy per Si atom -5580.079533 kJ/mol
# Density = 2.106260 g / cm^3
# Si number density = 21.110652 Si / 1000 Ang^3
#
#
#
# Elastic Constant Matrix: (Units=GPa)
#
#
# Indices 1 2 3 4 5 6 
#
# 1 139.8615 24.5881 69.7532 0.0000 0.0000 0.0000
# 2 24.5881 123.2063 60.0046 0.0000 0.0000 0.0000
# 3 69.7532 60.0046 139.6129 0.0000 0.0000 0.0000
# 4 0.0000 0.0000 0.0000 9.8078 0.0000 0.0000
# 5 0.0000 0.0000 0.0000 0.0000 25.6886 0.0000
# 6 0.0000 0.0000 0.0000 0.0000 0.0000 24.0988
#
#
#
# Elastic Compliance Matrix: (Units=1/GPa)
#
#
# Indices 1 2 3 4 5 6 
#
# 1 0.009550 0.000529 -0.004998 0.000000 0.000000 0.000000
# 2 0.000529 0.010294 -0.004689 0.000000 0.000000 0.000000
# 3 -0.004998 -0.004689 0.011675 0.000000 0.000000 0.000000
# 4 0.000000 0.000000 0.000000 0.101960 0.000000 0.000000
# 5 0.000000 0.000000 0.000000 0.000000 0.038928 0.000000
# 6 0.000000 0.000000 0.000000 0.000000 0.000000 0.041496
#
#
# Mechanical properties :
#
#
# Convention : Reuss Voigt Hill
#
# Bulk Modulus (GPa) = 75.74344 79.04141 77.39242
# Shear Modulus (GPa) = 21.13085 28.47469 24.80277
#
# Velocity S-wave (km/s) = 3.16722 3.67663 3.43139
# Velocity P-wave (km/s) = 7.02369 7.45293 7.24149
#
# Compressibility (1/GPa) = 0.01320246
#
# Stress axis : x y z
#
# Youngs Moduli (GPa) = 104.71317 97.13999 85.65255
#
# Poissons Ratio (x) = -0.05134 0.42813
# Poissons Ratio (y) = -0.05534 0.40158
# Poissons Ratio (z) = 0.52340 0.45544
#
# Static dielectric constant tensor:
#      x y z
#    x 1.780510 0.000000 0.000000 
#    y 0.000000 1.760980 0.000000 
#    z 0.000000 0.000000 1.749770 
# 
# From -- ./inp_files/12900.got.cif
#   From: 2010.05.17/outbox.cif.g08.bks.cpg/sg58_7_cif.got.tgz:12900.got - 2010.06.03 14:20:14.
