data_PCOD9445550
_publ_section_title
;
Structure prediction by ZEFSAII (Michael W. Deem and Ramdas Pophale) SiO2 
 PCOD9445550
Probable space group: P N N M
;
_chemical_formula_sum "Si O2"
_cell_formula_units_Z 64
_cell_length_a 22.613728
_cell_length_b 14.822876
_cell_length_c 8.178147
_cell_angle_alpha 90.000000
_cell_angle_beta 90.000000
_cell_angle_gamma 90.000000
_cell_volume 2741.318849
_symmetry_space_group_name_H-M "P N N M"
_symmetry_group_IT_number 58
_symmetry_cell_setting 'orthorhombic'
loop_
_space_group_symop_operation_xyz
x,y,z
-x,-y,z
1/2+x,1/2-y,1/2-z
1/2-x,1/2+y,1/2-z
-x,-y,-z
x,y,-z
1/2-x,1/2+y,1/2+z
1/2+x,1/2-y,1/2+z
loop_
_atom_site_type_symbol
_atom_site_label
_atom_site_fract_x
_atom_site_fract_y
_atom_site_fract_z
Si Si1 0.809961 0.761095 0.194388
Si Si2 0.688233 0.476692 0.699441
Si Si3 0.562152 0.985796 0.681960
Si Si4 0.815860 0.276069 0.196436
Si Si5 0.186714 0.516983 0.690841
Si Si6 0.936962 0.979834 0.811418
Si Si7 0.931910 0.784890 0.687964
Si Si8 0.443713 0.229393 0.315373
O O1 0.810226 0.869122 0.233772
O O2 0.746393 0.728727 0.261664
O O3 0.872672 0.729065 0.268023
O O4 0.810867 0.749540 0.000000
O O5 0.687337 0.485446 0.500000
O O6 0.750449 0.514407 0.763234
O O7 0.625353 0.513158 0.760531
O O8 0.555706 0.025957 0.500000
O O9 0.624804 0.018755 0.744991
O O10 0.566548 0.877817 0.673166
O O11 0.500000 0.000000 0.773091
O O12 0.813794 0.374478 0.281458
O O13 0.879767 0.233927 0.243562
O O14 0.818103 0.288050 0.000000
O O15 0.188183 0.498657 0.500000
O O16 0.932108 0.871935 0.804636
O O17 0.939534 0.011311 0.000000
O O18 0.000000 0.000000 0.730961
O O19 0.926364 0.813672 0.500000
O O20 0.996524 0.742488 0.714343
O O21 0.454313 0.263859 0.500000
#
# Coordination Sequence:
#
# PCOD9445550 Si02
#       8
#     8   8   8   8   8   8   8   8
#     4   9  16  28  46  67  93 122 155 196 240 284
#     4   7  12  23  40  64  89 113 146 186 224 266
#     4   9  18  32  49  69  93 121 155 197 243 287
#     4   9  16  27  45  69  94 120 155 198 240 279
#     4   9  15  24  41  65  93 122 152 189 232 278
#     4   9  17  31  51  71  93 125 161 194 235 286
#     4  11  21  31  47  71  99 128 161 201 238 279
#     4   9  18  32  49  69  96 128 159 194 238 289
#
# _framework density 23.346426999999998
#
# number of rings (size 3 to 8) (size 9 to 14) (size 15 to 20)
#    0.000    3.000    0.000    4.500    0.000    3.000 
#    0.000    0.625    0.000    1.500    0.000    5.250 
#    0.000    0.000    0.000    0.000    0.000    0.000 
#
# Total GULP energy -356441.392694 kJ/mol
# GULP energy per Si atom -5569.396761 kJ/mol
# Density = 2.329329 g / cm^3
# Si number density = 23.346427 Si / 1000 Ang^3
#
#
#
# Elastic Constant Matrix: (Units=GPa)
#
#
# Indices 1 2 3 4 5 6 
#
# 1 312.8086 7.5465 34.7035 0.0000 0.0000 0.0000
# 2 7.5465 51.4485 -4.9692 0.0000 0.0000 0.0000
# 3 34.7035 -4.9692 36.0190 0.0000 0.0000 0.0000
# 4 0.0000 0.0000 0.0000 -18.2053 0.0000 0.0000
# 5 0.0000 0.0000 0.0000 0.0000 20.8274 0.0000
# 6 0.0000 0.0000 0.0000 0.0000 0.0000 12.9703
#
#
#
# Elastic Compliance Matrix: (Units=1/GPa)
#
#
# Indices 1 2 3 4 5 6 
#
# 1 0.003618 -0.000879 -0.003607 0.000000 0.000000 0.000000
# 2 -0.000879 0.019913 0.003594 0.000000 0.000000 0.000000
# 3 -0.003607 0.003594 0.031735 0.000000 0.000000 0.000000
# 4 0.000000 0.000000 0.000000 -0.054929 0.000000 0.000000
# 5 0.000000 0.000000 0.000000 0.000000 0.048014 0.000000
# 6 0.000000 0.000000 0.000000 0.000000 0.000000 0.077099
#
#
# Mechanical properties :
#
#
# Convention : Reuss Voigt Hill
#
# Bulk Modulus (GPa) = 18.69810 52.75973 35.72892
# Shear Modulus (GPa) = 34.46812 27.31816 30.89314
#
# Velocity S-wave (km/s) = 3.84653 3.42442 3.64160
# Velocity P-wave (km/s) = 5.26822 6.18734 5.74619
#
# Compressibility (1/GPa) = 0.05348136
#
# Stress axis : x y z
#
# Youngs Moduli (GPa) = 276.37561 50.21835 31.51132
#
# Poissons Ratio (x) = 0.04415 0.11367
# Poissons Ratio (y) = 0.24298 -0.11326
# Poissons Ratio (z) = 0.99700 -0.18050
#
# Static dielectric constant tensor:
#      x y z
#    x 2.037500 0.000000 0.000000 
#    y 0.000000 1.942120 0.000000 
#    z 0.000000 0.000000 1.839870 
# 
# From -- ./inp_files/9402.got.cif
#   From: 2010.05.17/outbox.cif.g08.bks.cpg/sg58_5_cif.got.tgz:9402.got - 2010.06.03 14:20:14.
