data_PCOD9445349
_publ_section_title
;
Structure prediction by ZEFSAII (Michael W. Deem and Ramdas Pophale) SiO2 
 PCOD9445349
Probable space group: P N N M
;
_chemical_formula_sum "Si O2"
_cell_formula_units_Z 32
_cell_length_a 5.064677
_cell_length_b 10.674088
_cell_length_c 23.219073
_cell_angle_alpha 90.000000
_cell_angle_beta 90.000000
_cell_angle_gamma 90.000000
_cell_volume 1255.241847
_symmetry_space_group_name_H-M "P N N M"
_symmetry_group_IT_number 58
_symmetry_cell_setting 'orthorhombic'
loop_
_space_group_symop_operation_xyz
x,y,z
-x,-y,z
1/2+x,1/2-y,1/2-z
1/2-x,1/2+y,1/2-z
-x,-y,-z
x,y,-z
1/2-x,1/2+y,1/2+z
1/2+x,1/2-y,1/2+z
loop_
_atom_site_type_symbol
_atom_site_label
_atom_site_fract_x
_atom_site_fract_y
_atom_site_fract_z
Si Si1 0.252042 0.807071 0.000000
Si Si2 0.340750 0.618986 0.310689
Si Si3 0.144408 0.631780 0.811515
Si Si4 0.500000 0.500000 0.413725
Si Si5 0.238167 0.359875 0.000000
Si Si6 0.000000 0.000000 0.396046
O O1 0.155050 0.894803 0.948171
O O2 0.550875 0.756552 0.000000
O O3 0.059766 0.687473 0.000000
O O4 0.500000 0.500000 0.283469
O O5 0.154941 0.650578 0.257994
O O6 0.502875 0.741072 0.328104
O O7 0.278444 0.561030 0.372070
O O8 0.396462 0.608778 0.852637
O O9 0.000000 0.500000 0.820475
O O10 0.297819 0.437108 0.058442
#
# Coordination Sequence:
#
# PCOD9445349 Si02
#       6
#     4   8   8   4   4   4
#     4  11  24  51  70 108 145 194 252 313 373 440
#     4  10  23  44  66 108 139 195 233 304 362 450
#     4  12  25  45  73 106 151 189 249 301 378 451
#     4   9  23  42  72 100 151 191 256 296 384 441
#     4  11  28  45  76 106 149 190 255 314 373 445
#     4  11  27  44  72 106 141 201 238 308 380 447
#
# _framework density 25.493092000000001
#
# number of rings (size 3 to 8) (size 9 to 14) (size 15 to 20)
#    0.750    0.500    1.250    3.000    7.000    3.000 
#    4.500    0.000    0.000    0.000    0.000    0.000 
#    0.000    0.000    0.000    0.000    0.000    0.000 
#
# Total GULP energy -178660.248679 kJ/mol
# GULP energy per Si atom -5583.132771 kJ/mol
# Density = 2.543507 g / cm^3
# Si number density = 25.493092 Si / 1000 Ang^3
#
#
#
# Elastic Constant Matrix: (Units=GPa)
#
#
# Indices 1 2 3 4 5 6 
#
# 1 55.2178 31.1897 17.0300 0.0000 0.0000 0.0000
# 2 31.1897 142.9162 43.9265 0.0000 0.0000 0.0000
# 3 17.0300 43.9265 176.9353 0.0000 0.0000 0.0000
# 4 0.0000 0.0000 0.0000 77.9454 0.0000 0.0000
# 5 0.0000 0.0000 0.0000 0.0000 2.3167 0.0000
# 6 0.0000 0.0000 0.0000 0.0000 0.0000 22.0351
#
#
#
# Elastic Compliance Matrix: (Units=1/GPa)
#
#
# Indices 1 2 3 4 5 6 
#
# 1 0.020802 -0.004249 -0.000947 0.000000 0.000000 0.000000
# 2 -0.004249 0.008443 -0.001687 0.000000 0.000000 0.000000
# 3 -0.000947 -0.001687 0.006162 0.000000 0.000000 0.000000
# 4 0.000000 0.000000 0.000000 0.012829 0.000000 0.000000
# 5 0.000000 0.000000 0.000000 0.000000 0.431640 0.000000
# 6 0.000000 0.000000 0.000000 0.000000 0.000000 0.045382
#
#
# Mechanical properties :
#
#
# Convention : Reuss Voigt Hill
#
# Bulk Modulus (GPa) = 46.20964 62.15127 54.18046
# Shear Modulus (GPa) = 9.15351 39.32099 24.23725
#
# Velocity S-wave (km/s) = 1.89694 3.93162 3.08675
# Velocity P-wave (km/s) = 4.79203 6.71139 5.83122
#
# Compressibility (1/GPa) = 0.02164051
#
# Stress axis : x y z
#
# Youngs Moduli (GPa) = 48.07198 118.44316 162.28959
#
# Poissons Ratio (x) = 0.50322 0.15376
# Poissons Ratio (y) = 0.20424 0.27380
# Poissons Ratio (z) = 0.04554 0.19983
#
# Static dielectric constant tensor:
#      x y z
#    x 2.074890 0.000000 0.000000 
#    y 0.000000 1.565380 0.000000 
#    z 0.000000 0.000000 1.999300 
# 
# From -- ./inp_files/30796.got.cif
#   From: 2010.05.17/outbox.cif.g08.bks.cpg/sg58_16_cif.got.tgz:30796.got - 2010.06.03 14:20:14.
