data_PCOD9445152
_publ_section_title
;
Structure prediction by ZEFSAII (Michael W. Deem and Ramdas Pophale) SiO2 
 PCOD9445152
Probable space group: P N N M
;
_chemical_formula_sum "Si O2"
_cell_formula_units_Z 46
_cell_length_a 10.689220
_cell_length_b 8.380123
_cell_length_c 23.993203
_cell_angle_alpha 90.000000
_cell_angle_beta 90.000000
_cell_angle_gamma 90.000000
_cell_volume 2149.238626
_symmetry_space_group_name_H-M "P N N M"
_symmetry_group_IT_number 58
_symmetry_cell_setting 'orthorhombic'
loop_
_space_group_symop_operation_xyz
x,y,z
-x,-y,z
1/2+x,1/2-y,1/2-z
1/2-x,1/2+y,1/2-z
-x,-y,-z
x,y,-z
1/2-x,1/2+y,1/2+z
1/2+x,1/2-y,1/2+z
loop_
_atom_site_type_symbol
_atom_site_label
_atom_site_fract_x
_atom_site_fract_y
_atom_site_fract_z
Si Si1 0.308619 0.811441 0.618838
Si Si2 0.000000 0.000000 0.500000
Si Si3 0.224850 0.271414 0.500000
Si Si4 0.639341 0.542372 0.598146
Si Si5 0.500000 0.000000 0.301587
Si Si6 0.786716 0.572961 0.000000
Si Si7 0.854740 0.007719 0.307436
Si Si8 0.674764 0.733041 0.707896
O O1 0.306839 0.622231 0.623492
O O2 0.338845 0.849718 0.555437
O O3 0.179316 0.896355 0.636643
O O4 0.404392 0.903547 0.658973
O O5 0.134441 0.909306 0.500000
O O6 0.911562 0.820080 0.500000
O O7 0.266939 0.376829 0.553627
O O8 0.313864 0.115140 0.500000
O O9 0.500000 0.500000 0.575483
O O10 0.622122 0.657721 0.651262
O O11 0.576295 0.864436 0.269630
O O12 0.800529 0.104432 0.254923
O O13 0.796395 0.833103 0.308302
O O14 0.000000 0.000000 0.298917
#
# Coordination Sequence:
#
# PCOD9445152 Si02
#       8
#     8   2   4   8   4   4   8   8
#     4  11  24  42  66 103 131 180 227 272 346 407
#     4   8  24  42  70  80 142 176 222 282 336 390
#     4  10  22  42  68  99 130 182 229 275 351 402
#     4  12  23  42  67 101 140 172 221 289 340 408
#     4  10  22  41  68  96 142 173 222 286 342 402
#     4  10  23  42  70  93 132 175 227 280 336 404
#     4  11  26  43  67  96 137 178 230 273 337 414
#     4  11  24  43  68  97 136 180 220 282 347 394
#
# _framework density 21.402927999999999
#
# number of rings (size 3 to 8) (size 9 to 14) (size 15 to 20)
#    0.522    0.696    1.739    4.435    6.087    0.348 
#    0.000    3.478    0.000    0.000    0.000    0.000 
#    0.000    0.000    0.000    0.000    0.000    0.000 
#
# Total GULP energy -256202.712999 kJ/mol
# GULP energy per Si atom -5569.624196 kJ/mol
# Density = 2.135421 g / cm^3
# Si number density = 21.402928 Si / 1000 Ang^3
#
#
#
# Elastic Constant Matrix: (Units=GPa)
#
#
# Indices 1 2 3 4 5 6 
#
# 1 64.3367 34.7575 1.9264 0.0000 0.0000 0.0000
# 2 34.7575 116.2384 18.8418 0.0000 0.0000 0.0000
# 3 1.9264 18.8418 75.0759 0.0000 0.0000 0.0000
# 4 0.0000 0.0000 0.0000 15.9549 0.0000 0.0000
# 5 0.0000 0.0000 0.0000 0.0000 11.5508 0.0000
# 6 0.0000 0.0000 0.0000 0.0000 0.0000 34.1376
#
#
#
# Elastic Compliance Matrix: (Units=1/GPa)
#
#
# Indices 1 2 3 4 5 6 
#
# 1 0.018604 -0.005718 0.000958 0.000000 0.000000 0.000000
# 2 -0.005718 0.010725 -0.002545 0.000000 0.000000 0.000000
# 3 0.000958 -0.002545 0.013934 0.000000 0.000000 0.000000
# 4 0.000000 0.000000 0.000000 0.062677 0.000000 0.000000
# 5 0.000000 0.000000 0.000000 0.000000 0.086574 0.000000
# 6 0.000000 0.000000 0.000000 0.000000 0.000000 0.029293
#
#
# Mechanical properties :
#
#
# Convention : Reuss Voigt Hill
#
# Bulk Modulus (GPa) = 34.90124 40.74470 37.82297
# Shear Modulus (GPa) = 20.32774 25.67032 22.99903
#
# Velocity S-wave (km/s) = 3.08517 3.46697 3.28163
# Velocity P-wave (km/s) = 5.38824 5.92493 5.66295
#
# Compressibility (1/GPa) = 0.02865227
#
# Stress axis : x y z
#
# Youngs Moduli (GPa) = 53.75263 93.23682 71.76684
#
# Poissons Ratio (x) = 0.53314 -0.06873
# Poissons Ratio (y) = 0.30736 0.18265
# Poissons Ratio (z) = -0.05148 0.23729
#
# Static dielectric constant tensor:
#      x y z
#    x 1.868790 0.000000 0.000000 
#    y 0.000000 1.800080 0.000000 
#    z 0.000000 0.000000 1.785790 
# 
# From -- ./inp_files/31939.got.cif
#   From: 2010.05.17/outbox.cif.g08.bks.cpg/sg58_16_cif.got.tgz:31939.got - 2010.06.03 14:20:14.
