data_PCOD9445676
_publ_section_title
;
Structure prediction by ZEFSAII (Michael W. Deem and Ramdas Pophale) SiO2 
 PCOD9445676
Probable space group: P N N M
;
_chemical_formula_sum "Si O2"
_cell_formula_units_Z 44
_cell_length_a 14.844460
_cell_length_b 5.202990
_cell_length_c 31.888208
_cell_angle_alpha 90.000000
_cell_angle_beta 90.000000
_cell_angle_gamma 90.000000
_cell_volume 2462.904142
_symmetry_space_group_name_H-M "P N N M"
_symmetry_group_IT_number 58
_symmetry_cell_setting 'orthorhombic'
loop_
_space_group_symop_operation_xyz
x,y,z
-x,-y,z
1/2+x,1/2-y,1/2-z
1/2-x,1/2+y,1/2-z
-x,-y,-z
x,y,-z
1/2-x,1/2+y,1/2+z
1/2+x,1/2-y,1/2+z
loop_
_atom_site_type_symbol
_atom_site_label
_atom_site_fract_x
_atom_site_fract_y
_atom_site_fract_z
Si Si1 0.733493 0.478149 0.181733
Si Si2 0.500000 0.500000 0.293395
Si Si3 0.092777 0.334999 0.137387
Si Si4 0.440765 0.761190 0.816834
Si Si5 0.436805 0.747848 0.544978
Si Si6 0.639797 0.854110 0.757031
O O1 0.816792 0.524125 0.151403
O O2 0.654010 0.308990 0.161891
O O3 0.681290 0.724373 0.201271
O O4 0.781208 0.367441 0.223321
O O5 0.569821 0.363656 0.325478
O O6 0.438156 0.311709 0.265480
O O7 0.109514 0.235158 0.090335
O O8 0.000000 0.500000 0.136207
O O9 0.500000 0.500000 0.815781
O O10 0.596663 0.123420 0.772232
O O11 0.500000 0.000000 0.833352
O O12 0.500000 0.500000 0.544126
O O13 0.385904 0.753553 0.500000
O O14 0.500000 0.000000 0.545364
#
# Coordination Sequence:
#
# PCOD9445676 Si02
#       6
#     8   4   8   8   8   8
#     4  12  24  36  55  79 110 145 200 245 290 334
#     4  12  24  36  57  78 116 158 197 240 290 328
#     4  11  23  37  55  88 120 152 192 242 286 344
#     4  12  26  43  58  73 101 148 201 246 293 335
#     4   9  18  36  59  82 114 154 188 223 283 355
#     4  12  24  38  53  77 106 151 199 241 287 336
#
# _framework density 17.865089000000001
#
# number of rings (size 3 to 8) (size 9 to 14) (size 15 to 20)
#    0.000    0.727    6.364    2.182    2.545    0.000 
#    0.000    0.000    0.000    0.000    0.000    0.000 
#    0.000    1.455    0.000    1.091    0.000    0.364 
#
# Total GULP energy -245207.923452 kJ/mol
# GULP energy per Si atom -5572.907351 kJ/mol
# Density = 1.782443 g / cm^3
# Si number density = 17.865089 Si / 1000 Ang^3
#
#
#
# Elastic Constant Matrix: (Units=GPa)
#
#
# Indices 1 2 3 4 5 6 
#
# 1 141.9547 45.9162 31.1774 0.0000 0.0000 0.0000
# 2 45.9162 92.9290 16.3984 0.0000 0.0000 0.0000
# 3 31.1774 16.3984 91.8474 0.0000 0.0000 0.0000
# 4 0.0000 0.0000 0.0000 5.2456 0.0000 0.0000
# 5 0.0000 0.0000 0.0000 0.0000 6.4935 0.0000
# 6 0.0000 0.0000 0.0000 0.0000 0.0000 35.5066
#
#
#
# Elastic Compliance Matrix: (Units=1/GPa)
#
#
# Indices 1 2 3 4 5 6 
#
# 1 0.008828 -0.003958 -0.002290 0.000000 0.000000 0.000000
# 2 -0.003958 0.012885 -0.000957 0.000000 0.000000 0.000000
# 3 -0.002290 -0.000957 0.011836 0.000000 0.000000 0.000000
# 4 0.000000 0.000000 0.000000 0.190637 0.000000 0.000000
# 5 0.000000 0.000000 0.000000 0.000000 0.153999 0.000000
# 6 0.000000 0.000000 0.000000 0.000000 0.000000 0.028164
#
#
# Mechanical properties :
#
#
# Convention : Reuss Voigt Hill
#
# Bulk Modulus (GPa) = 52.24840 57.07945 54.66392
# Shear Modulus (GPa) = 11.70582 24.99842 18.35212
#
# Velocity S-wave (km/s) = 2.56253 3.74477 3.20857
# Velocity P-wave (km/s) = 6.16968 7.12161 6.66267
#
# Compressibility (1/GPa) = 0.01913934
#
# Stress axis : x y z
#
# Youngs Moduli (GPa) = 113.28180 77.60809 84.48936
#
# Poissons Ratio (x) = 0.30714 0.19347
# Poissons Ratio (y) = 0.44833 0.08087
# Poissons Ratio (z) = 0.25940 0.07428
#
# Static dielectric constant tensor:
#      x y z
#    x 1.649010 0.000000 0.000000 
#    y 0.000000 1.741550 0.000000 
#    z 0.000000 0.000000 1.625250 
# 
# From -- ./inp_files/34987.got.cif
#   From: 2010.05.17/outbox.cif.g08.bks.cpg/sg58_18_cif.got.tgz:34987.got - 2010.06.03 14:20:14.
