data_PCOD9445114
_publ_section_title
;
Structure prediction by ZEFSAII (Michael W. Deem and Ramdas Pophale) SiO2 
 PCOD9445114
Probable space group: P N N M
;
_chemical_formula_sum "Si O2"
_cell_formula_units_Z 32
_cell_length_a 10.923242
_cell_length_b 8.679521
_cell_length_c 14.890402
_cell_angle_alpha 90.000000
_cell_angle_beta 90.000000
_cell_angle_gamma 90.000000
_cell_volume 1411.736802
_symmetry_space_group_name_H-M "P N N M"
_symmetry_group_IT_number 58
_symmetry_cell_setting 'orthorhombic'
loop_
_space_group_symop_operation_xyz
x,y,z
-x,-y,z
1/2+x,1/2-y,1/2-z
1/2-x,1/2+y,1/2-z
-x,-y,-z
x,y,-z
1/2-x,1/2+y,1/2+z
1/2+x,1/2-y,1/2+z
loop_
_atom_site_type_symbol
_atom_site_label
_atom_site_fract_x
_atom_site_fract_y
_atom_site_fract_z
Si Si1 0.484867 0.683560 0.098801
Si Si2 0.381765 0.387093 0.602835
Si Si3 0.256517 0.683636 0.395801
Si Si4 0.959626 0.673602 0.778861
O O1 0.500000 0.500000 0.102568
O O2 0.617965 0.761671 0.107207
O O3 0.419368 0.743151 0.187012
O O4 0.433605 0.723616 0.000000
O O5 0.500000 0.500000 0.599979
O O6 0.360647 0.331194 0.500000
O O7 0.276894 0.506431 0.634124
O O8 0.424240 0.259083 0.673446
O O9 0.294538 0.683282 0.500000
O O10 0.345820 0.799776 0.344953
O O11 0.000000 0.500000 0.763794
#
# Coordination Sequence:
#
# PCOD9445114 Si02
#       4
#     8   8   8   8
#     4  10  22  41  63  86 119 164 211 259 311 373
#     4   8  15  31  55  81 113 152 195 248 303 357
#     4   9  19  38  62  87 118 160 206 254 312 369
#     4  11  22  33  56  90 125 162 207 257 307 367
#
# _framework density 22.667114000000002
#
# number of rings (size 3 to 8) (size 9 to 14) (size 15 to 20)
#    0.000    2.500    0.000    4.500    0.000    6.500 
#    0.000    0.000    0.000   12.000    0.000    0.000 
#    0.000    0.000    0.000    0.000    0.000    0.000 
#
# Total GULP energy -178818.856182 kJ/mol
# GULP energy per Si atom -5588.089256 kJ/mol
# Density = 2.261552 g / cm^3
# Si number density = 22.667114 Si / 1000 Ang^3
#
#
#
# Elastic Constant Matrix: (Units=GPa)
#
#
# Indices 1 2 3 4 5 6 
#
# 1 43.4410 2.8487 -1.4005 0.0000 0.0000 0.0000
# 2 2.8487 87.9657 41.8162 0.0000 0.0000 0.0000
# 3 -1.4005 41.8162 100.6205 0.0000 0.0000 0.0000
# 4 0.0000 0.0000 0.0000 76.9087 0.0000 0.0000
# 5 0.0000 0.0000 0.0000 0.0000 14.4529 0.0000
# 6 0.0000 0.0000 0.0000 0.0000 0.0000 38.7156
#
#
#
# Elastic Compliance Matrix: (Units=1/GPa)
#
#
# Indices 1 2 3 4 5 6 
#
# 1 0.023119 -0.001124 0.000789 0.000000 0.000000 0.000000
# 2 -0.001124 0.014221 -0.005926 0.000000 0.000000 0.000000
# 3 0.000789 -0.005926 0.012412 0.000000 0.000000 0.000000
# 4 0.000000 0.000000 0.000000 0.013002 0.000000 0.000000
# 5 0.000000 0.000000 0.000000 0.000000 0.069190 0.000000
# 6 0.000000 0.000000 0.000000 0.000000 0.000000 0.025829
#
#
# Mechanical properties :
#
#
# Convention : Reuss Voigt Hill
#
# Bulk Modulus (GPa) = 26.85948 35.39512 31.12730
# Shear Modulus (GPa) = 27.36640 38.59963 32.98301
#
# Velocity S-wave (km/s) = 3.47842 4.13109 3.81872
# Velocity P-wave (km/s) = 5.29224 6.19706 5.76244
#
# Compressibility (1/GPa) = 0.03723081
#
# Stress axis : x y z
#
# Youngs Moduli (GPa) = 43.25476 70.31659 80.56735
#
# Poissons Ratio (x) = 0.07901 -0.06355
# Poissons Ratio (y) = 0.04860 0.47743
# Poissons Ratio (z) = -0.03412 0.41668
#
# Static dielectric constant tensor:
#      x y z
#    x 1.902790 0.000000 0.000000 
#    y 0.000000 1.829270 0.000000 
#    z 0.000000 0.000000 1.870350 
# 
# From -- ./inp_files/19079.got.cif
#   From: 2010.05.17/outbox.cif.g08.bks.cpg/sg58_10_cif.got.tgz:19079.got - 2010.06.03 14:20:14.
