data_PCOD9445669
_publ_section_title
;
Structure prediction by ZEFSAII (Michael W. Deem and Ramdas Pophale) SiO2 
 PCOD9445669
Probable space group: P N N M
;
_chemical_formula_sum "Si O2"
_cell_formula_units_Z 32
_cell_length_a 13.239906
_cell_length_b 8.549644
_cell_length_c 12.990047
_cell_angle_alpha 90.000000
_cell_angle_beta 90.000000
_cell_angle_gamma 90.000000
_cell_volume 1470.427633
_symmetry_space_group_name_H-M "P N N M"
_symmetry_group_IT_number 58
_symmetry_cell_setting 'orthorhombic'
loop_
_space_group_symop_operation_xyz
x,y,z
-x,-y,z
1/2+x,1/2-y,1/2-z
1/2-x,1/2+y,1/2-z
-x,-y,-z
x,y,-z
1/2-x,1/2+y,1/2+z
1/2+x,1/2-y,1/2+z
loop_
_atom_site_type_symbol
_atom_site_label
_atom_site_fract_x
_atom_site_fract_y
_atom_site_fract_z
Si Si1 0.362241 0.919142 0.000000
Si Si2 0.012471 0.240077 0.326613
Si Si3 0.500000 0.500000 0.329499
Si Si4 0.649334 0.042233 0.500000
Si Si5 0.500000 0.000000 0.676929
Si Si6 0.632795 0.704610 0.000000
Si Si7 0.633200 0.666818 0.500000
O O1 0.410369 0.831045 0.901251
O O2 0.243369 0.904186 0.000000
O O3 0.379502 0.105573 0.000000
O O4 0.958858 0.368303 0.253670
O O5 0.930004 0.157655 0.399131
O O6 0.058980 0.116901 0.246935
O O7 0.571584 0.602587 0.402218
O O8 0.582994 0.076701 0.398332
O O9 0.650905 0.852930 0.500000
O O10 0.755651 0.131608 0.500000
#
# Coordination Sequence:
#
# PCOD9445669 Si02
#       7
#     4   8   4   4   4   4   4
#     4  11  25  44  70 101 145 180 234 300 357 424
#     4  11  23  47  71  97 143 190 235 290 356 423
#     4  11  26  45  72  98 144 191 238 293 358 416
#     4  11  26  42  70 103 142 181 243 293 357 424
#     4  11  22  47  70  94 140 193 230 291 358 416
#     4  11  25  44  70 107 139 181 238 296 356 427
#     4  11  26  46  64 105 144 182 237 301 346 428
#
# _framework density 21.762377000000001
#
# number of rings (size 3 to 8) (size 9 to 14) (size 15 to 20)
#    0.000    1.000    5.000    0.750    7.000    3.000 
#    0.000    0.000    0.000    0.000    0.000    0.000 
#    0.000    0.000    0.000    0.000    0.000    0.000 
#
# Total GULP energy -178705.584888 kJ/mol
# GULP energy per Si atom -5584.549528 kJ/mol
# Density = 2.171284 g / cm^3
# Si number density = 21.762377 Si / 1000 Ang^3
#
#
#
# Elastic Constant Matrix: (Units=GPa)
#
#
# Indices 1 2 3 4 5 6 
#
# 1 94.0032 24.4374 50.1966 0.0000 0.0000 0.0000
# 2 24.4374 104.3045 60.2708 0.0000 0.0000 0.0000
# 3 50.1966 60.2708 165.8912 0.0000 0.0000 0.0000
# 4 0.0000 0.0000 0.0000 18.7591 0.0000 0.0000
# 5 0.0000 0.0000 0.0000 0.0000 2.3996 0.0000
# 6 0.0000 0.0000 0.0000 0.0000 0.0000 44.4666
#
#
#
# Elastic Compliance Matrix: (Units=1/GPa)
#
#
# Indices 1 2 3 4 5 6 
#
# 1 0.012764 -0.000960 -0.003513 0.000000 0.000000 0.000000
# 2 -0.000960 0.012207 -0.004144 0.000000 0.000000 0.000000
# 3 -0.003513 -0.004144 0.008597 0.000000 0.000000 0.000000
# 4 0.000000 0.000000 0.000000 0.053308 0.000000 0.000000
# 5 0.000000 0.000000 0.000000 0.000000 0.416741 0.000000
# 6 0.000000 0.000000 0.000000 0.000000 0.000000 0.022489
#
#
# Mechanical properties :
#
#
# Convention : Reuss Voigt Hill
#
# Bulk Modulus (GPa) = 61.23096 70.44539 65.83817
# Shear Modulus (GPa) = 9.11104 28.41131 18.76117
#
# Velocity S-wave (km/s) = 2.04834 3.61712 2.93933
# Velocity P-wave (km/s) = 5.81304 7.06295 6.46826
#
# Compressibility (1/GPa) = 0.01633161
#
# Stress axis : x y z
#
# Youngs Moduli (GPa) = 78.34777 81.91943 116.32170
#
# Poissons Ratio (x) = 0.07867 0.40866
# Poissons Ratio (y) = 0.07524 0.48209
# Poissons Ratio (z) = 0.27525 0.33951
#
# Static dielectric constant tensor:
#      x y z
#    x 1.749590 0.000000 0.000000 
#    y 0.000000 1.914290 0.000000 
#    z 0.000000 0.000000 1.805340 
# 
# From -- ./inp_files/15228.got.cif
#   From: 2010.05.17/outbox.cif.g08.bks.cpg/sg58_8_cif.got.tgz:15228.got - 2010.06.03 14:20:14.
