data_PCOD9445936
_publ_section_title
;
Structure prediction by ZEFSAII (Michael W. Deem and Ramdas Pophale) SiO2 
 PCOD9445936
Probable space group: P N N M
;
_chemical_formula_sum "Si O2"
_cell_formula_units_Z 64
_cell_length_a 18.000000
_cell_length_b 21.000000
_cell_length_c 9.000000
_cell_angle_alpha 90.000000
_cell_angle_beta 90.000000
_cell_angle_gamma 90.000000
_cell_volume 3402.000000
_symmetry_space_group_name_H-M "P N N M"
_symmetry_group_IT_number 58
_symmetry_cell_setting 'orthorhombic'
loop_
_space_group_symop_operation_xyz
x,y,z
-x,-y,z
1/2+x,1/2-y,1/2-z
1/2-x,1/2+y,1/2-z
-x,-y,-z
x,y,-z
1/2-x,1/2+y,1/2+z
1/2+x,1/2-y,1/2+z
loop_
_atom_site_type_symbol
_atom_site_label
_atom_site_fract_x
_atom_site_fract_y
_atom_site_fract_z
Si Si1 0.527869 0.296319 0.818851
Si Si2 0.258014 0.383269 0.820165
Si Si3 0.955422 0.940304 0.326007
Si Si4 0.389969 0.827926 0.179829
Si Si5 0.823210 0.371199 0.679437
Si Si6 0.860958 0.231601 0.680490
Si Si7 0.981571 0.428541 0.319667
Si Si8 0.217814 0.028067 0.672631
O O1 0.535553 0.368866 0.764446
O O2 0.588371 0.243851 0.773455
O O3 0.447112 0.269658 0.776764
O O4 0.531158 0.297999 0.000000
O O5 0.182976 0.353646 0.757719
O O6 0.322257 0.333990 0.772290
O O7 0.267336 0.456386 0.770452
O O8 0.257920 0.384232 0.000000
O O9 0.980150 0.935605 0.500000
O O10 0.869576 0.958773 0.323047
O O11 0.000000 0.000000 0.258925
O O12 0.456258 0.876716 0.219104
O O13 0.381779 0.828972 0.000000
O O14 0.820993 0.371116 0.500000
O O15 0.822421 0.297373 0.729868
O O16 0.759499 0.416506 0.740421
O O17 0.901297 0.402947 0.727061
O O18 0.859190 0.232362 0.500000
O O19 0.980215 0.431110 0.500000
O O20 0.000000 0.500000 0.266414
O O21 0.241716 0.030557 0.500000
#
# Coordination Sequence:
#
# PCOD9445936 Si02
#       8
#     8   8   8   8   8   8   8   8
#     4   9  16  29  51  77 101 127 170 221 256 293
#     4  10  21  35  51  73 106 141 170 204 255 319
#     4   9  17  30  51  77 104 135 171 214 263 306
#     4  10  19  32  52  79 103 129 169 217 258 294
#     4  10  19  33  53  76 101 134 173 210 252 304
#     4   9  17  32  53  75 101 136 175 211 253 308
#     4   9  16  28  48  72  97 125 162 205 244 286
#     4  10  21  35  51  77 109 137 169 212 261 311
#
# _framework density 18.812463000000001
#
# number of rings (size 3 to 8) (size 9 to 14) (size 15 to 20)
#    0.000    2.500    1.250    1.500    1.750    4.500 
#    0.000    0.625    0.000    3.375    0.000    0.000 
#    0.000    0.000    0.000    0.000    0.000    0.000 
#
# Total GULP energy -356768.538630 kJ/mol
# GULP energy per Si atom -5574.508416 kJ/mol
# Density = 1.876965 g / cm^3
# Si number density = 18.812463 Si / 1000 Ang^3
#
#
#
# Elastic Constant Matrix: (Units=GPa)
#
#
# Indices 1 2 3 4 5 6 
#
# 1 24.2285 23.7348 2.2885 0.0000 0.0000 0.0000
# 2 23.7348 172.1341 10.0997 0.0000 0.0000 0.0000
# 3 2.2885 10.0997 -4.7333 0.0000 0.0000 0.0000
# 4 0.0000 0.0000 0.0000 14.8105 0.0000 0.0000
# 5 0.0000 0.0000 0.0000 0.0000 15.2595 0.0000
# 6 0.0000 0.0000 0.0000 0.0000 0.0000 38.0691
#
#
#
# Elastic Compliance Matrix: (Units=1/GPa)
#
#
# Indices 1 2 3 4 5 6 
#
# 1 0.047379 -0.007000 0.007970 0.000000 0.000000 0.000000
# 2 -0.007000 0.006197 0.009839 0.000000 0.000000 0.000000
# 3 0.007970 0.009839 -0.186420 0.000000 0.000000 0.000000
# 4 0.000000 0.000000 0.000000 0.067520 0.000000 0.000000
# 5 0.000000 0.000000 0.000000 0.000000 0.065533 0.000000
# 6 0.000000 0.000000 0.000000 0.000000 0.000000 0.026268
#
#
# Mechanical properties :
#
#
# Convention : Reuss Voigt Hill
#
# Bulk Modulus (GPa) = -8.99062 29.31949 10.16444
# Shear Modulus (GPa) = -155.20168 23.99490 -65.60339
#
# Velocity S-wave (km/s) = -9.09277 3.57526 -5.91168
# Velocity P-wave (km/s) = 10.72508 5.71509 6.41737
#
# Compressibility (1/GPa) = -0.11122708
#
# Stress axis : x y z
#
# Youngs Moduli (GPa) = 21.10653 161.35806 -5.36423
#
# Poissons Ratio (x) = 1.12958 0.04275
# Poissons Ratio (y) = 0.14776 0.05278
# Poissons Ratio (z) = -0.16822 -1.58761
#
# Static dielectric constant tensor:
#      x y z
#    x 1.651300 0.000000 0.000000 
#    y 0.000000 1.693930 0.000000 
#    z 0.000000 0.000000 1.635970 
# 
# From -- ./inp_files/8259.got.cif
#   From: 2010.05.17/outbox.ucp.g08.bks.cvg/sg58_5_cif.got.tgz:8259.got - 2010.06.11 16:41:41.
