data_PCOD9445495
_publ_section_title
;
Structure prediction by ZEFSAII (Michael W. Deem and Ramdas Pophale) SiO2 
 PCOD9445495
Probable space group: P N N M
;
_chemical_formula_sum "Si O2"
_cell_formula_units_Z 40
_cell_length_a 5.019322
_cell_length_b 21.236356
_cell_length_c 26.923103
_cell_angle_alpha 90.000000
_cell_angle_beta 90.000000
_cell_angle_gamma 90.000000
_cell_volume 2869.790326
_symmetry_space_group_name_H-M "P N N M"
_symmetry_group_IT_number 58
_symmetry_cell_setting 'orthorhombic'
loop_
_space_group_symop_operation_xyz
x,y,z
-x,-y,z
1/2+x,1/2-y,1/2-z
1/2-x,1/2+y,1/2-z
-x,-y,-z
x,y,-z
1/2-x,1/2+y,1/2+z
1/2+x,1/2-y,1/2+z
loop_
_atom_site_type_symbol
_atom_site_label
_atom_site_fract_x
_atom_site_fract_y
_atom_site_fract_z
Si Si1 0.455921 0.168390 0.248616
Si Si2 0.960550 0.214848 0.690643
Si Si3 0.425030 0.926642 0.558517
Si Si4 0.744326 0.458118 0.216836
Si Si5 0.081747 0.115988 0.617171
O O1 0.742139 0.178176 0.275165
O O2 0.426215 0.210514 0.199102
O O3 0.359147 0.096590 0.247344
O O4 0.249154 0.201120 0.286225
O O5 0.971815 0.182966 0.636952
O O6 0.421198 0.912795 0.500000
O O7 0.643386 0.884882 0.587187
O O8 0.140454 0.915556 0.583218
O O9 0.500000 0.000000 0.564777
O O10 0.500000 0.500000 0.236879
O O11 0.633754 0.424534 0.167134
O O12 0.000000 0.500000 0.203307
#
# Coordination Sequence:
#
# PCOD9445495 Si02
#       5
#     8   8   8   8   8
#     4   9  17  28  39  58  81  99 126 161 197 229
#     4   9  17  28  43  57  74 100 129 166 197 226
#     4  11  22  32  41  55  77 102 130 169 211 240
#     4  11  19  27  41  60  81 105 132 163 195 229
#     4  11  19  30  44  57  73 100 139 169 195 230
#
# _framework density 13.9383
#
# number of rings (size 3 to 8) (size 9 to 14) (size 15 to 20)
#    0.000    1.800    0.000    9.000    0.000    1.600 
#    0.000    0.000    0.000    0.000    0.000    0.000 
#    0.000    0.000    0.000    0.000    0.000   20.000 
#
# Total GULP energy -222864.769479 kJ/mol
# GULP energy per Si atom -5571.619237 kJ/mol
# Density = 1.390658 g / cm^3
# Si number density = 13.938300 Si / 1000 Ang^3
#
#
#
# Elastic Constant Matrix: (Units=GPa)
#
#
# Indices 1 2 3 4 5 6 
#
# 1 60.8390 11.1676 6.6987 0.0000 0.0000 0.0000
# 2 11.1676 68.0630 33.8062 0.0000 0.0000 0.0000
# 3 6.6987 33.8062 35.2383 0.0000 0.0000 0.0000
# 4 0.0000 0.0000 0.0000 -15.0894 0.0000 0.0000
# 5 0.0000 0.0000 0.0000 0.0000 -185.3134 0.0000
# 6 0.0000 0.0000 0.0000 0.0000 0.0000 19.4721
#
#
#
# Elastic Compliance Matrix: (Units=1/GPa)
#
#
# Indices 1 2 3 4 5 6 
#
# 1 0.016968 -0.002258 -0.001059 0.000000 0.000000 0.000000
# 2 -0.002258 0.028366 -0.026784 0.000000 0.000000 0.000000
# 3 -0.001059 -0.026784 0.054275 0.000000 0.000000 0.000000
# 4 0.000000 0.000000 0.000000 -0.066272 0.000000 0.000000
# 5 0.000000 0.000000 0.000000 0.000000 -0.005396 0.000000
# 6 0.000000 0.000000 0.000000 0.000000 0.000000 0.051356
#
#
# Mechanical properties :
#
#
# Convention : Reuss Voigt Hill
#
# Bulk Modulus (GPa) = 25.37656 29.72057 27.54857
# Shear Modulus (GPa) = 32.75792 -28.68829 2.03482
#
# Velocity S-wave (km/s) = 4.85315 -4.54170 1.20956
# Velocity P-wave (km/s) = 7.04628 2.47658 4.66458
#
# Compressibility (1/GPa) = 0.03940644
#
# Stress axis : x y z
#
# Youngs Moduli (GPa) = 58.93474 35.25338 18.42464
#
# Poissons Ratio (x) = 0.07960 0.01952
# Poissons Ratio (y) = 0.13306 0.49349
# Poissons Ratio (z) = 0.06244 0.94423
#
# Static dielectric constant tensor:
#      x y z
#    x 1.483170 0.000000 0.000000 
#    y 0.000000 1.526250 0.000000 
#    z 0.000000 0.000000 1.452990 
# 
# From -- ./inp_files/32881.got.cif
#   From: 2010.05.17/outbox.cif.g08.bks.cpg/sg58_17_cif.got.tgz:32881.got - 2010.06.03 14:20:14.
