data_PCOD9445108
_publ_section_title
;
Structure prediction by ZEFSAII (Michael W. Deem and Ramdas Pophale) SiO2 
 PCOD9445108
Probable space group: P N N M
;
_chemical_formula_sum "Si O2"
_cell_formula_units_Z 58
_cell_length_a 8.371422
_cell_length_b 17.483391
_cell_length_c 17.287268
_cell_angle_alpha 90.000000
_cell_angle_beta 90.000000
_cell_angle_gamma 90.000000
_cell_volume 2530.179136
_symmetry_space_group_name_H-M "P N N M"
_symmetry_group_IT_number 58
_symmetry_cell_setting 'orthorhombic'
loop_
_space_group_symop_operation_xyz
x,y,z
-x,-y,z
1/2+x,1/2-y,1/2-z
1/2-x,1/2+y,1/2-z
-x,-y,-z
x,y,-z
1/2-x,1/2+y,1/2+z
1/2+x,1/2-y,1/2+z
loop_
_atom_site_type_symbol
_atom_site_label
_atom_site_fract_x
_atom_site_fract_y
_atom_site_fract_z
Si Si1 0.500000 0.000000 0.500000
Si Si2 0.234054 0.286025 0.088698
Si Si3 0.666489 0.987843 0.656176
Si Si4 0.057851 0.824186 0.272519
Si Si5 0.866973 0.325483 0.911971
Si Si6 0.343388 0.800383 0.842931
Si Si7 0.876639 0.385460 0.410799
Si Si8 0.352718 0.540901 0.292728
O O1 0.370560 0.977529 0.571176
O O2 0.346068 0.333057 0.146795
O O3 0.283865 0.196714 0.094834
O O4 0.045240 0.295690 0.105105
O O5 0.262868 0.307986 0.000000
O O6 0.677510 0.897408 0.639700
O O7 0.800931 0.008576 0.717420
O O8 0.500000 0.000000 0.700055
O O9 0.193162 0.823664 0.207663
O O10 0.966502 0.743838 0.286556
O O11 0.924098 0.882022 0.243923
O O12 0.732567 0.261296 0.902452
O O13 0.875142 0.357314 0.000000
O O14 0.443106 0.865590 0.885236
O O15 0.869782 0.410527 0.500000
O O16 0.789036 0.440719 0.350901
O O17 0.500000 0.500000 0.334172
#
# Coordination Sequence:
#
# PCOD9445108 Si02
#       8
#     2   8   8   8   8   8   8   8
#     4   8  20  44  66  84 134 188 218 260 318 360
#     4   9  21  36  60  96 132 175 210 265 337 396
#     4  10  22  41  61  89 130 180 224 261 306 377
#     4  11  22  38  60  94 134 166 217 269 329 393
#     4  11  19  34  62  94 128 170 218 261 324 394
#     4  11  21  36  66  97 129 166 207 279 344 395
#     4  10  23  46  66  93 130 163 219 284 339 399
#     4  12  27  43  64  95 128 179 228 272 325 391
#
# _framework density 22.923278
#
# number of rings (size 3 to 8) (size 9 to 14) (size 15 to 20)
#    0.414    1.103    2.069    3.724    3.862    0.828 
#    1.241    1.034    0.000    2.897    0.000    0.000 
#    0.000    0.000    0.000    0.000    0.000    0.000 
#
# Total GULP energy -323536.544481 kJ/mol
# GULP energy per Si atom -5578.216284 kJ/mol
# Density = 2.287110 g / cm^3
# Si number density = 22.923278 Si / 1000 Ang^3
#
#
#
# Elastic Constant Matrix: (Units=GPa)
#
#
# Indices 1 2 3 4 5 6 
#
# 1 103.7728 7.7445 51.2659 0.0000 0.0000 0.0000
# 2 7.7445 31.7055 28.8802 0.0000 0.0000 0.0000
# 3 51.2659 28.8802 121.7514 0.0000 0.0000 0.0000
# 4 0.0000 0.0000 0.0000 23.2396 0.0000 0.0000
# 5 0.0000 0.0000 0.0000 0.0000 48.6546 0.0000
# 6 0.0000 0.0000 0.0000 0.0000 0.0000 14.9330
#
#
#
# Elastic Compliance Matrix: (Units=1/GPa)
#
#
# Indices 1 2 3 4 5 6 
#
# 1 0.012285 0.002183 -0.005690 0.000000 0.000000 0.000000
# 2 0.002183 0.040621 -0.010555 0.000000 0.000000 0.000000
# 3 -0.005690 -0.010555 0.013113 0.000000 0.000000 0.000000
# 4 0.000000 0.000000 0.000000 0.043030 0.000000 0.000000
# 5 0.000000 0.000000 0.000000 0.000000 0.020553 0.000000
# 6 0.000000 0.000000 0.000000 0.000000 0.000000 0.066966
#
#
# Mechanical properties :
#
#
# Convention : Reuss Voigt Hill
#
# Bulk Modulus (GPa) = 26.38925 48.11231 37.25078
# Shear Modulus (GPa) = 21.06820 28.65472 24.86146
#
# Velocity S-wave (km/s) = 3.03491 3.53941 3.29682
# Velocity P-wave (km/s) = 4.88036 6.14306 5.54775
#
# Compressibility (1/GPa) = 0.03789422
#
# Stress axis : x y z
#
# Youngs Moduli (GPa) = 81.40166 24.61769 76.25911
#
# Poissons Ratio (x) = -0.05373 0.43395
# Poissons Ratio (y) = -0.17768 0.80489
# Poissons Ratio (z) = 0.46322 0.25983
#
# Static dielectric constant tensor:
#      x y z
#    x 1.829880 0.000000 0.000000 
#    y 0.000000 1.917070 0.000000 
#    z 0.000000 0.000000 1.833350 
# 
# From -- ./inp_files/25513.got.cif
#   From: 2010.05.17/outbox.cif.g08.bks.cpg/sg58_13_cif.got.tgz:25513.got - 2010.06.03 14:20:14.
