data_PCOD9445110
_publ_section_title
;
Structure prediction by ZEFSAII (Michael W. Deem and Ramdas Pophale) SiO2 
 PCOD9445110
Probable space group: P N N M
;
_chemical_formula_sum "Si O2"
_cell_formula_units_Z 64
_cell_length_a 6.347126
_cell_length_b 26.286105
_cell_length_c 18.890487
_cell_angle_alpha 90.000000
_cell_angle_beta 90.000000
_cell_angle_gamma 90.000000
_cell_volume 3151.711907
_symmetry_space_group_name_H-M "P N N M"
_symmetry_group_IT_number 58
_symmetry_cell_setting 'orthorhombic'
loop_
_space_group_symop_operation_xyz
x,y,z
-x,-y,z
1/2+x,1/2-y,1/2-z
1/2-x,1/2+y,1/2-z
-x,-y,-z
x,y,-z
1/2-x,1/2+y,1/2+z
1/2+x,1/2-y,1/2+z
loop_
_atom_site_type_symbol
_atom_site_label
_atom_site_fract_x
_atom_site_fract_y
_atom_site_fract_z
Si Si1 0.576628 0.203614 0.314748
Si Si2 0.216730 0.621456 0.583200
Si Si3 0.949352 0.554974 0.320471
Si Si4 0.765361 0.715586 0.340041
Si Si5 0.309460 0.102934 0.303406
Si Si6 0.158816 0.737870 0.419094
Si Si7 0.748310 0.478854 0.084700
Si Si8 0.456587 0.390479 0.308179
O O1 0.400920 0.240096 0.346067
O O2 0.610174 0.221209 0.234091
O O3 0.483269 0.147013 0.313329
O O4 0.774078 0.218239 0.364213
O O5 0.206549 0.613399 0.500000
O O6 0.255521 0.681746 0.596253
O O7 0.403830 0.593912 0.624600
O O8 0.014799 0.598842 0.623670
O O9 0.712855 0.565721 0.295751
O O10 0.000000 0.500000 0.351223
O O11 0.092038 0.562389 0.251220
O O12 0.660650 0.661142 0.329223
O O13 0.917312 0.722994 0.406001
O O14 0.252013 0.074993 0.375217
O O15 0.105304 0.121476 0.259091
O O16 0.203640 0.751893 0.500000
O O17 0.500000 0.500000 0.103060
O O18 0.000000 0.500000 0.100813
O O19 0.746063 0.476801 0.000000
#
# Coordination Sequence:
#
# PCOD9445110 Si02
#       8
#     8   8   8   8   8   8   8   8
#     4  12  23  38  65  94 127 168 216 269 333 406
#     4  10  22  41  62  90 127 173 219 261 329 409
#     4  11  24  41  63  95 128 165 223 287 339 398
#     4  12  21  39  65  90 126 170 219 263 327 413
#     4  11  25  38  66 100 131 170 223 290 348 415
#     4  11  24  40  62  95 130 170 217 269 327 404
#     4  10  24  47  74 101 137 190 239 286 359 439
#     4  11  22  40  64  96 126 170 222 274 339 402
#
# _framework density 20.306425000000001
#
# number of rings (size 3 to 8) (size 9 to 14) (size 15 to 20)
#    0.000    1.000    5.000    1.875    3.500    3.750 
#    0.000    0.625    0.000    0.000    0.000    0.000 
#    0.000    0.000    0.000    0.000    0.000    0.000 
#
# Total GULP energy -356273.785942 kJ/mol
# GULP energy per Si atom -5566.777905 kJ/mol
# Density = 2.026021 g / cm^3
# Si number density = 20.306425 Si / 1000 Ang^3
#
#
#
# Elastic Constant Matrix: (Units=GPa)
#
#
# Indices 1 2 3 4 5 6 
#
# 1 81.4264 13.2430 14.6732 0.0000 0.0000 0.0000
# 2 13.2430 44.0400 27.1253 0.0000 0.0000 0.0000
# 3 14.6732 27.1253 50.7460 0.0000 0.0000 0.0000
# 4 0.0000 0.0000 0.0000 23.9290 0.0000 0.0000
# 5 0.0000 0.0000 0.0000 0.0000 5.8024 0.0000
# 6 0.0000 0.0000 0.0000 0.0000 0.0000 20.6778
#
#
#
# Elastic Compliance Matrix: (Units=1/GPa)
#
#
# Indices 1 2 3 4 5 6 
#
# 1 0.013124 -0.002399 -0.002512 0.000000 0.000000 0.000000
# 2 -0.002399 0.034290 -0.017635 0.000000 0.000000 0.000000
# 3 -0.002512 -0.017635 0.029859 0.000000 0.000000 0.000000
# 4 0.000000 0.000000 0.000000 0.041790 0.000000 0.000000
# 5 0.000000 0.000000 0.000000 0.000000 0.172342 0.000000
# 6 0.000000 0.000000 0.000000 0.000000 0.000000 0.048361
#
#
# Mechanical properties :
#
#
# Convention : Reuss Voigt Hill
#
# Bulk Modulus (GPa) = 31.07572 31.81061 31.44317
# Shear Modulus (GPa) = 12.63944 18.15989 15.39966
#
# Velocity S-wave (km/s) = 2.49757 2.99372 2.75683
# Velocity P-wave (km/s) = 4.86351 5.25824 5.06472
#
# Compressibility (1/GPa) = 0.03217946
#
# Stress axis : x y z
#
# Youngs Moduli (GPa) = 76.19661 29.16291 33.49059
#
# Poissons Ratio (x) = 0.06996 0.08414
# Poissons Ratio (y) = 0.18279 0.59062
# Poissons Ratio (z) = 0.19144 0.51430
#
# Static dielectric constant tensor:
#      x y z
#    x 1.919680 0.000000 0.000000 
#    y 0.000000 1.793760 0.000000 
#    z 0.000000 0.000000 1.717070 
# 
# From -- ./inp_files/28329.got.cif
#   From: 2010.05.17/outbox.cif.g08.bks.cpg/sg58_15_cif.got.tgz:28329.got - 2010.06.03 14:20:14.
