data_PCOD9445240
_publ_section_title
;
Structure prediction by ZEFSAII (Michael W. Deem and Ramdas Pophale) SiO2 
 PCOD9445240
Probable space group: P N N M
;
_chemical_formula_sum "Si O2"
_cell_formula_units_Z 64
_cell_length_a 13.670399
_cell_length_b 9.017076
_cell_length_c 24.259484
_cell_angle_alpha 90.000000
_cell_angle_beta 90.000000
_cell_angle_gamma 90.000000
_cell_volume 2990.394463
_symmetry_space_group_name_H-M "P N N M"
_symmetry_group_IT_number 58
_symmetry_cell_setting 'orthorhombic'
loop_
_space_group_symop_operation_xyz
x,y,z
-x,-y,z
1/2+x,1/2-y,1/2-z
1/2-x,1/2+y,1/2-z
-x,-y,-z
x,y,-z
1/2-x,1/2+y,1/2+z
1/2+x,1/2-y,1/2+z
loop_
_atom_site_type_symbol
_atom_site_label
_atom_site_fract_x
_atom_site_fract_y
_atom_site_fract_z
Si Si1 0.615731 0.377396 0.333783
Si Si2 0.651101 0.363762 0.213177
Si Si3 0.268023 0.784012 0.064362
Si Si4 0.809046 0.177022 0.659265
Si Si5 0.391432 0.478755 0.063059
Si Si6 0.636838 0.860107 0.249801
Si Si7 0.399442 0.915187 0.844892
Si Si8 0.587456 0.716758 0.641136
O O1 0.589293 0.372879 0.268812
O O2 0.711385 0.276797 0.342172
O O3 0.526448 0.316350 0.370349
O O4 0.627710 0.553264 0.341971
O O5 0.690686 0.513745 0.185604
O O6 0.755634 0.301587 0.233462
O O7 0.598549 0.257177 0.171044
O O8 0.331299 0.632237 0.064488
O O9 0.324575 0.905986 0.103039
O O10 0.163842 0.742882 0.093178
O O11 0.257063 0.829582 0.000000
O O12 0.888232 0.255002 0.698590
O O13 0.841051 0.149470 0.597532
O O14 0.500000 0.500000 0.086334
O O15 0.401342 0.432714 0.000000
O O16 0.584225 0.834108 0.307768
O O17 0.633855 0.013359 0.215210
O O18 0.500000 0.000000 0.859058
#
# Coordination Sequence:
#
# PCOD9445240 Si02
#       8
#     8   8   8   8   8   8   8   8
#     4  10  23  37  66 102 138 179 224 282 357 413
#     4  11  20  39  60  94 139 174 218 274 340 418
#     4  11  24  46  70  93 135 190 238 293 351 418
#     4  11  21  37  65  97 129 176 222 276 339 411
#     4  10  23  43  67  93 127 176 230 285 349 417
#     4  11  21  35  63  96 135 171 213 272 343 411
#     4  12  25  39  62 102 139 178 232 288 351 430
#     4  11  21  44  65  98 141 181 230 285 345 422
#
# _framework density 21.401859999999999
#
# number of rings (size 3 to 8) (size 9 to 14) (size 15 to 20)
#    0.000    1.125    3.750    3.750    1.750    1.250 
#    0.000    7.500    0.000    1.500    0.000    0.000 
#    0.000    0.000    0.000    0.000    0.000    0.000 
#
# Total GULP energy -356328.219068 kJ/mol
# GULP energy per Si atom -5567.628423 kJ/mol
# Density = 2.135315 g / cm^3
# Si number density = 21.401860 Si / 1000 Ang^3
#
#
#
# Elastic Constant Matrix: (Units=GPa)
#
#
# Indices 1 2 3 4 5 6 
#
# 1 78.6920 16.1485 33.4166 0.0000 0.0000 0.0000
# 2 16.1485 72.1194 32.2647 0.0000 0.0000 0.0000
# 3 33.4166 32.2647 106.9238 0.0000 0.0000 0.0000
# 4 0.0000 0.0000 0.0000 18.1310 0.0000 0.0000
# 5 0.0000 0.0000 0.0000 0.0000 20.1554 0.0000
# 6 0.0000 0.0000 0.0000 0.0000 0.0000 34.6644
#
#
#
# Elastic Compliance Matrix: (Units=1/GPa)
#
#
# Indices 1 2 3 4 5 6 
#
# 1 0.014780 -0.001437 -0.004186 0.000000 0.000000 0.000000
# 2 -0.001437 0.016170 -0.004430 0.000000 0.000000 0.000000
# 3 -0.004186 -0.004430 0.011997 0.000000 0.000000 0.000000
# 4 0.000000 0.000000 0.000000 0.055154 0.000000 0.000000
# 5 0.000000 0.000000 0.000000 0.000000 0.049614 0.000000
# 6 0.000000 0.000000 0.000000 0.000000 0.000000 0.028848
#
#
# Mechanical properties :
#
#
# Convention : Reuss Voigt Hill
#
# Bulk Modulus (GPa) = 43.77955 46.82163 45.30059
# Shear Modulus (GPa) = 24.47587 26.31720 25.39653
#
# Velocity S-wave (km/s) = 3.38543 3.51047 3.44852
# Velocity P-wave (km/s) = 5.98180 6.19322 6.08843
#
# Compressibility (1/GPa) = 0.02284172
#
# Stress axis : x y z
#
# Youngs Moduli (GPa) = 67.65878 61.84449 83.35154
#
# Poissons Ratio (x) = 0.08887 0.34887
# Poissons Ratio (y) = 0.09722 0.36926
# Poissons Ratio (z) = 0.28319 0.27398
#
# Static dielectric constant tensor:
#      x y z
#    x 1.888980 0.000000 0.000000 
#    y 0.000000 1.896320 0.000000 
#    z 0.000000 0.000000 1.872510 
# 
# From -- ./inp_files/32236.got.cif
#   From: 2010.05.17/outbox.cif.g08.bks.cpg/sg58_17_cif.got.tgz:32236.got - 2010.06.03 14:20:14.
