data_PCOD9445361
_publ_section_title
;
Structure prediction by ZEFSAII (Michael W. Deem and Ramdas Pophale) SiO2 
 PCOD9445361
Probable space group: P N N M
;
_chemical_formula_sum "Si O2"
_cell_formula_units_Z 40
_cell_length_a 5.188508
_cell_length_b 9.798738
_cell_length_c 29.364122
_cell_angle_alpha 90.000000
_cell_angle_beta 90.000000
_cell_angle_gamma 90.000000
_cell_volume 1492.896349
_symmetry_space_group_name_H-M "P N N M"
_symmetry_group_IT_number 58
_symmetry_cell_setting 'orthorhombic'
loop_
_space_group_symop_operation_xyz
x,y,z
-x,-y,z
1/2+x,1/2-y,1/2-z
1/2-x,1/2+y,1/2-z
-x,-y,-z
x,y,-z
1/2-x,1/2+y,1/2+z
1/2+x,1/2-y,1/2+z
loop_
_atom_site_type_symbol
_atom_site_label
_atom_site_fract_x
_atom_site_fract_y
_atom_site_fract_z
Si Si1 0.695800 0.192043 0.649993
Si Si2 0.079355 0.842456 0.449781
Si Si3 0.685268 0.658096 0.756677
Si Si4 0.199608 0.361360 0.663328
Si Si5 0.747553 0.079651 0.063108
O O1 0.762389 0.095021 0.693416
O O2 0.403904 0.237540 0.657347
O O3 0.749433 0.167010 0.596388
O O4 0.909623 0.307009 0.660977
O O5 0.198968 0.811721 0.500000
O O6 0.834884 0.737840 0.445122
O O7 0.000000 0.000000 0.450743
O O8 0.402929 0.723731 0.751038
O O9 0.741035 0.570915 0.711538
O O10 0.251720 0.440500 0.617359
O O11 0.500000 0.000000 0.046296
O O12 0.000000 0.000000 0.046864
#
# Coordination Sequence:
#
# PCOD9445361 Si02
#       5
#     8   8   8   8   8
#     4   9  17  34  59  89 125 165 213 265 318 381
#     4  10  23  45  71  98 131 174 223 276 334 394
#     4   8  14  26  52  86 121 162 206 254 311 378
#     4   9  17  33  58  91 128 166 208 257 320 387
#     4  11  23  42  68  99 135 173 217 272 333 399
#
# _framework density 26.793555000000001
#
# number of rings (size 3 to 8) (size 9 to 14) (size 15 to 20)
#    0.000    2.600    0.000    2.400    0.000    0.800 
#    0.000   18.000    0.000   31.200    0.000    0.000 
#    0.000    0.000    0.000    0.000    0.000    0.000 
#
# Total GULP energy -223148.756639 kJ/mol
# GULP energy per Si atom -5578.718916 kJ/mol
# Density = 2.673257 g / cm^3
# Si number density = 26.793555 Si / 1000 Ang^3
#
#
#
# Elastic Constant Matrix: (Units=GPa)
#
#
# Indices 1 2 3 4 5 6 
#
# 1 146.3719 69.9608 17.7371 0.0000 0.0000 0.0000
# 2 69.9608 129.4350 27.1643 0.0000 0.0000 0.0000
# 3 17.7371 27.1643 303.2126 0.0000 0.0000 0.0000
# 4 0.0000 0.0000 0.0000 11.7534 0.0000 0.0000
# 5 0.0000 0.0000 0.0000 0.0000 31.4327 0.0000
# 6 0.0000 0.0000 0.0000 0.0000 0.0000 37.1480
#
#
#
# Elastic Compliance Matrix: (Units=1/GPa)
#
#
# Indices 1 2 3 4 5 6 
#
# 1 0.009214 -0.004961 -0.000095 0.000000 0.000000 0.000000
# 2 -0.004961 0.010544 -0.000654 0.000000 0.000000 0.000000
# 3 -0.000095 -0.000654 0.003362 0.000000 0.000000 0.000000
# 4 0.000000 0.000000 0.000000 0.085082 0.000000 0.000000
# 5 0.000000 0.000000 0.000000 0.000000 0.031814 0.000000
# 6 0.000000 0.000000 0.000000 0.000000 0.000000 0.026919
#
#
# Mechanical properties :
#
#
# Convention : Reuss Voigt Hill
#
# Bulk Modulus (GPa) = 85.45782 89.86043 87.65912
# Shear Modulus (GPa) = 27.43387 47.01062 37.22225
#
# Velocity S-wave (km/s) = 3.20331 4.19328 3.73127
# Velocity P-wave (km/s) = 6.75617 7.55352 7.16594
#
# Compressibility (1/GPa) = 0.01170168
#
# Stress axis : x y z
#
# Youngs Moduli (GPa) = 108.52600 94.83618 297.42570
#
# Poissons Ratio (x) = 0.47044 0.02814
# Poissons Ratio (y) = 0.53835 0.19466
# Poissons Ratio (z) = 0.01027 0.06207
#
# Static dielectric constant tensor:
#      x y z
#    x 2.060330 0.000000 0.000000 
#    y 0.000000 2.118090 0.000000 
#    z 0.000000 0.000000 2.195360 
# 
# From -- ./inp_files/34090.got.cif
#   From: 2010.05.17/outbox.cif.g08.bks.cpg/sg58_18_cif.got.tgz:34090.got - 2010.06.03 14:20:14.
