data_PCOD9445320
_publ_section_title
;
Structure prediction by ZEFSAII (Michael W. Deem and Ramdas Pophale) SiO2 
 PCOD9445320
Probable space group: P N N M
;
_chemical_formula_sum "Si O2"
_cell_formula_units_Z 64
_cell_length_a 8.777673
_cell_length_b 14.966418
_cell_length_c 22.704324
_cell_angle_alpha 90.000000
_cell_angle_beta 90.000000
_cell_angle_gamma 90.000000
_cell_volume 2982.674382
_symmetry_space_group_name_H-M "P N N M"
_symmetry_group_IT_number 58
_symmetry_cell_setting 'orthorhombic'
loop_
_space_group_symop_operation_xyz
x,y,z
-x,-y,z
1/2+x,1/2-y,1/2-z
1/2-x,1/2+y,1/2-z
-x,-y,-z
x,y,-z
1/2-x,1/2+y,1/2+z
1/2+x,1/2-y,1/2+z
loop_
_atom_site_type_symbol
_atom_site_label
_atom_site_fract_x
_atom_site_fract_y
_atom_site_fract_z
Si Si1 0.842533 0.947254 0.867059
Si Si2 0.651626 0.403471 0.888771
Si Si3 0.881716 0.578751 0.643711
Si Si4 0.715821 0.598547 0.114054
Si Si5 0.346859 0.643984 0.248225
Si Si6 0.708981 0.660216 0.754596
Si Si7 0.760650 0.719123 0.567175
Si Si8 0.589972 0.268534 0.570365
O O1 0.800418 0.924873 0.799179
O O2 0.830218 0.854058 0.900505
O O3 0.734619 0.020838 0.895281
O O4 0.000000 0.000000 0.866213
O O5 0.467720 0.397085 0.896097
O O6 0.737739 0.495521 0.904091
O O7 0.678897 0.386549 0.818805
O O8 0.710637 0.323841 0.928078
O O9 0.804167 0.614663 0.702890
O O10 0.891500 0.668993 0.605272
O O11 0.000000 0.500000 0.657010
O O12 0.737444 0.610944 0.183957
O O13 0.821806 0.676527 0.086822
O O14 0.528345 0.656871 0.256899
O O15 0.261823 0.737204 0.258743
O O16 0.764552 0.688260 0.500000
O O17 0.586096 0.715601 0.591158
O O18 0.588176 0.274309 0.500000
#
# Coordination Sequence:
#
# PCOD9445320 Si02
#       8
#     8   8   8   8   8   8   8   8
#     4  12  23  43  68  95 134 175 210 265 333 396
#     4  10  23  42  66  94 132 168 211 272 333 394
#     4  12  27  43  65 100 138 170 218 268 329 401
#     4  10  23  43  66  97 127 168 218 269 331 395
#     4  11  22  37  67  94 135 169 208 265 326 394
#     4  11  22  40  63  99 133 169 209 264 330 392
#     4  11  25  46  66  93 131 172 220 276 325 380
#     4  11  25  44  67  95 127 171 227 273 320 387
#
# _framework density 21.457253999999999
#
# number of rings (size 3 to 8) (size 9 to 14) (size 15 to 20)
#    0.000    1.000    5.000    0.750    5.250    2.500 
#    2.250    2.500    0.000    0.000    0.000    0.000 
#    0.000    0.000    0.000    0.000    0.000    0.000 
#
# Total GULP energy -356815.676959 kJ/mol
# GULP energy per Si atom -5575.244952 kJ/mol
# Density = 2.140842 g / cm^3
# Si number density = 21.457254 Si / 1000 Ang^3
#
#
#
# Elastic Constant Matrix: (Units=GPa)
#
#
# Indices 1 2 3 4 5 6 
#
# 1 23.6046 12.0587 9.2340 0.0000 0.0000 0.0000
# 2 12.0587 117.8377 3.3567 0.0000 0.0000 0.0000
# 3 9.2340 3.3567 50.8829 0.0000 0.0000 0.0000
# 4 0.0000 0.0000 0.0000 20.8134 0.0000 0.0000
# 5 0.0000 0.0000 0.0000 0.0000 -9.1089 0.0000
# 6 0.0000 0.0000 0.0000 0.0000 0.0000 41.2530
#
#
#
# Elastic Compliance Matrix: (Units=1/GPa)
#
#
# Indices 1 2 3 4 5 6 
#
# 1 0.048044 -0.004677 -0.008410 0.000000 0.000000 0.000000
# 2 -0.004677 0.008958 0.000258 0.000000 0.000000 0.000000
# 3 -0.008410 0.000258 0.021162 0.000000 0.000000 0.000000
# 4 0.000000 0.000000 0.000000 0.048046 0.000000 0.000000
# 5 0.000000 0.000000 0.000000 0.000000 -0.109782 0.000000
# 6 0.000000 0.000000 0.000000 0.000000 0.000000 0.024241
#
#
# Mechanical properties :
#
#
# Convention : Reuss Voigt Hill
#
# Bulk Modulus (GPa) = 19.04583 26.84712 22.94648
# Shear Modulus (GPa) = 59.64588 21.76989 40.70788
#
# Velocity S-wave (km/s) = 5.27806 3.18869 4.36037
# Velocity P-wave (km/s) = 6.78523 5.10843 6.00564
#
# Compressibility (1/GPa) = 0.05250492
#
# Stress axis : x y z
#
# Youngs Moduli (GPa) = 20.81429 111.63819 47.25404
#
# Poissons Ratio (x) = 0.52212 0.39742
# Poissons Ratio (y) = 0.09735 -0.01218
# Poissons Ratio (z) = 0.17505 -0.02878
#
# Static dielectric constant tensor:
#      x y z
#    x 2.907200 0.000000 0.000000 
#    y 0.000000 1.696580 0.000000 
#    z 0.000000 0.000000 1.749720 
# 
# From -- ./inp_files/31642.got.cif
#   From: 2010.05.17/outbox.cif.g08.bks.cpg/sg58_16_cif.got.tgz:31642.got - 2010.06.03 14:20:14.
