data_PCOD9445017
_publ_section_title
;
Structure prediction by ZEFSAII (Michael W. Deem and Ramdas Pophale) SiO2 
 PCOD9445017
Probable space group: P N N M
;
_chemical_formula_sum "Si O2"
_cell_formula_units_Z 48
_cell_length_a 8.349599
_cell_length_b 8.276233
_cell_length_c 32.418015
_cell_angle_alpha 90.000000
_cell_angle_beta 90.000000
_cell_angle_gamma 90.000000
_cell_volume 2240.189442
_symmetry_space_group_name_H-M "P N N M"
_symmetry_group_IT_number 58
_symmetry_cell_setting 'orthorhombic'
loop_
_space_group_symop_operation_xyz
x,y,z
-x,-y,z
1/2+x,1/2-y,1/2-z
1/2-x,1/2+y,1/2-z
-x,-y,-z
x,y,-z
1/2-x,1/2+y,1/2+z
1/2+x,1/2-y,1/2+z
loop_
_atom_site_type_symbol
_atom_site_label
_atom_site_fract_x
_atom_site_fract_y
_atom_site_fract_z
Si Si1 0.264032 0.723210 0.386670
Si Si2 0.215362 0.874741 0.699815
Si Si3 0.368041 0.731020 0.228389
Si Si4 0.318139 0.444699 0.953506
Si Si5 0.319728 0.426079 0.334365
Si Si6 0.401849 0.149796 0.392005
O O1 0.225747 0.848178 0.349167
O O2 0.172725 0.781218 0.426753
O O3 0.236171 0.554476 0.364514
O O4 0.448297 0.733710 0.402826
O O5 0.353224 0.774288 0.723294
O O6 0.050690 0.791106 0.714920
O O7 0.210372 0.060342 0.714547
O O8 0.277023 0.880218 0.206448
O O9 0.500000 0.500000 0.955610
O O10 0.206096 0.571065 0.927818
O O11 0.255314 0.424769 0.000000
O O12 0.500000 0.500000 0.327694
O O13 0.313588 0.257000 0.358884
O O14 0.500000 0.000000 0.373133
#
# Coordination Sequence:
#
# PCOD9445017 Si02
#       6
#     8   8   8   8   8   8
#     4  10  22  39  63  94 126 167 219 265 330 388
#     4  11  26  42  63  96 129 175 222 275 330 393
#     4  11  25  42  64  90 131 174 222 276 326 390
#     4  10  22  41  66  97 131 169 219 272 332 404
#     4  10  22  40  64  92 130 168 220 270 326 391
#     4   9  19  37  64  89 119 166 212 261 319 385
#
# _framework density 21.426759000000001
#
# number of rings (size 3 to 8) (size 9 to 14) (size 15 to 20)
#    0.000    1.833    0.000    3.000   11.667    5.667 
#    0.000    0.833    0.000    8.000    0.000    0.000 
#    0.000    0.000    0.000    0.000    0.000    0.000 
#
# Total GULP energy -267672.502929 kJ/mol
# GULP energy per Si atom -5576.510478 kJ/mol
# Density = 2.137799 g / cm^3
# Si number density = 21.426759 Si / 1000 Ang^3
#
#
#
# Elastic Constant Matrix: (Units=GPa)
#
#
# Indices 1 2 3 4 5 6 
#
# 1 46.9254 21.7719 18.1911 0.0000 0.0000 0.0000
# 2 21.7719 96.4549 40.2617 0.0000 0.0000 0.0000
# 3 18.1911 40.2617 96.2276 0.0000 0.0000 0.0000
# 4 0.0000 0.0000 0.0000 24.9658 0.0000 0.0000
# 5 0.0000 0.0000 0.0000 0.0000 32.4135 0.0000
# 6 0.0000 0.0000 0.0000 0.0000 0.0000 31.8834
#
#
#
# Elastic Compliance Matrix: (Units=1/GPa)
#
#
# Indices 1 2 3 4 5 6 
#
# 1 0.024409 -0.004342 -0.002798 0.000000 0.000000 0.000000
# 2 -0.004342 0.013334 -0.004758 0.000000 0.000000 0.000000
# 3 -0.002798 -0.004758 0.012912 0.000000 0.000000 0.000000
# 4 0.000000 0.000000 0.000000 0.040055 0.000000 0.000000
# 5 0.000000 0.000000 0.000000 0.000000 0.030851 0.000000
# 6 0.000000 0.000000 0.000000 0.000000 0.000000 0.031364
#
#
# Mechanical properties :
#
#
# Convention : Reuss Voigt Hill
#
# Bulk Modulus (GPa) = 37.23081 44.45080 40.84080
# Shear Modulus (GPa) = 26.92895 28.47810 27.70353
#
# Velocity S-wave (km/s) = 3.54897 3.64962 3.59965
# Velocity P-wave (km/s) = 5.84869 6.20888 6.03147
#
# Compressibility (1/GPa) = 0.02685948
#
# Stress axis : x y z
#
# Youngs Moduli (GPa) = 40.96768 74.99821 77.44930
#
# Poissons Ratio (x) = 0.32563 0.21669
# Poissons Ratio (y) = 0.17788 0.36850
# Poissons Ratio (z) = 0.11462 0.35684
#
# Static dielectric constant tensor:
#      x y z
#    x 1.831190 0.000000 0.000000 
#    y 0.000000 1.855140 0.000000 
#    z 0.000000 0.000000 1.813920 
# 
# From -- ./inp_files/34595.got.cif
#   From: 2010.05.17/outbox.cif.g08.bks.cpg/sg58_18_cif.got.tgz:34595.got - 2010.06.03 14:20:14.
