data_PCOD9445551
_publ_section_title
;
Structure prediction by ZEFSAII (Michael W. Deem and Ramdas Pophale) SiO2 
 PCOD9445551
Probable space group: P N N M
;
_chemical_formula_sum "Si O2"
_cell_formula_units_Z 40
_cell_length_a 18.782149
_cell_length_b 14.015079
_cell_length_c 7.920601
_cell_angle_alpha 90.000000
_cell_angle_beta 90.000000
_cell_angle_gamma 90.000000
_cell_volume 2084.965955
_symmetry_space_group_name_H-M "P N N M"
_symmetry_group_IT_number 58
_symmetry_cell_setting 'orthorhombic'
loop_
_space_group_symop_operation_xyz
x,y,z
-x,-y,z
1/2+x,1/2-y,1/2-z
1/2-x,1/2+y,1/2-z
-x,-y,-z
x,y,-z
1/2-x,1/2+y,1/2+z
1/2+x,1/2-y,1/2+z
loop_
_atom_site_type_symbol
_atom_site_label
_atom_site_fract_x
_atom_site_fract_y
_atom_site_fract_z
Si Si1 0.967763 0.099781 0.706190
Si Si2 0.974530 0.697738 0.296658
Si Si3 0.169011 0.408897 0.800024
Si Si4 0.183974 0.821078 0.293432
Si Si5 0.624465 0.880305 0.796825
O O1 0.968984 0.098461 0.500000
O O2 0.885941 0.118650 0.756136
O O3 0.012228 0.193295 0.759819
O O4 0.000000 0.000000 0.765636
O O5 0.977302 0.698219 0.500000
O O6 0.900037 0.652421 0.247655
O O7 0.042990 0.636327 0.237369
O O8 0.242359 0.364994 0.729884
O O9 0.155828 0.518309 0.751425
O O10 0.175436 0.405629 0.000000
O O11 0.184934 0.820802 0.500000
O O12 0.169644 0.711808 0.239888
O O13 0.622469 0.877060 0.000000
#
# Coordination Sequence:
#
# PCOD9445551 Si02
#       5
#     8   8   8   8   8
#     4   8  14  28  51  73  92 120 162 206 236 267
#     4   9  18  32  51  73  95 126 167 201 232 281
#     4  11  21  31  48  75 103 126 152 196 249 290
#     4   8  17  32  46  66  97 127 153 189 242 290
#     4   9  18  35  53  66  91 131 167 196 231 282
#
# _framework density 19.184965999999999
#
# number of rings (size 3 to 8) (size 9 to 14) (size 15 to 20)
#    0.000    3.000    0.000    3.600    0.000    4.800 
#    0.000    4.000    0.000    3.000    0.000    0.000 
#    0.000    0.000    0.000    0.000    0.000    0.000 
#
# Total GULP energy -223049.250984 kJ/mol
# GULP energy per Si atom -5576.231275 kJ/mol
# Density = 1.914130 g / cm^3
# Si number density = 19.184966 Si / 1000 Ang^3
#
#
#
# Elastic Constant Matrix: (Units=GPa)
#
#
# Indices 1 2 3 4 5 6 
#
# 1 193.7255 152.9272 10.4427 0.0000 0.0000 0.0000
# 2 152.9272 180.3339 12.0171 0.0000 0.0000 0.0000
# 3 10.4427 12.0171 16.2398 0.0000 0.0000 0.0000
# 4 0.0000 0.0000 0.0000 45.1230 0.0000 0.0000
# 5 0.0000 0.0000 0.0000 0.0000 14.6503 0.0000
# 6 0.0000 0.0000 0.0000 0.0000 0.0000 23.9266
#
#
#
# Elastic Compliance Matrix: (Units=1/GPa)
#
#
# Indices 1 2 3 4 5 6 
#
# 1 0.015616 -0.013226 -0.000255 0.000000 0.000000 0.000000
# 2 -0.013226 0.017034 -0.004100 0.000000 0.000000 0.000000
# 3 -0.000255 -0.004100 0.064775 0.000000 0.000000 0.000000
# 4 0.000000 0.000000 0.000000 0.022162 0.000000 0.000000
# 5 0.000000 0.000000 0.000000 0.000000 0.068258 0.000000
# 6 0.000000 0.000000 0.000000 0.000000 0.000000 0.041794
#
#
# Mechanical properties :
#
#
# Convention : Reuss Voigt Hill
#
# Bulk Modulus (GPa) = 16.06075 82.34148 49.20112
# Shear Modulus (GPa) = 17.50965 31.06746 24.28856
#
# Velocity S-wave (km/s) = 3.02433 4.02850 3.56198
# Velocity P-wave (km/s) = 4.53708 8.04061 6.52827
#
# Compressibility (1/GPa) = 0.06226358
#
# Stress axis : x y z
#
# Youngs Moduli (GPa) = 64.03576 58.70463 15.43798
#
# Poissons Ratio (x) = 0.77643 0.00393
# Poissons Ratio (y) = 0.84693 0.06330
# Poissons Ratio (z) = 0.01632 0.24071
#
# Static dielectric constant tensor:
#      x y z
#    x 1.668880 0.000000 0.000000 
#    y 0.000000 1.662290 0.000000 
#    z 0.000000 0.000000 1.703200 
# 
# From -- ./inp_files/3784.got.cif
#   From: 2010.05.17/outbox.cif.g08.bks.cpg/sg58_2_cif.got.tgz:3784.got - 2010.06.03 14:20:14.
