data_PCOD9445725
_publ_section_title
;
Structure prediction by ZEFSAII (Michael W. Deem and Ramdas Pophale) SiO2 
 PCOD9445725
Probable space group: P N N M
;
_chemical_formula_sum "Si O2"
_cell_formula_units_Z 32
_cell_length_a 5.178298
_cell_length_b 19.815592
_cell_length_c 12.864149
_cell_angle_alpha 90.000000
_cell_angle_beta 90.000000
_cell_angle_gamma 90.000000
_cell_volume 1320.003713
_symmetry_space_group_name_H-M "P N N M"
_symmetry_group_IT_number 58
_symmetry_cell_setting 'orthorhombic'
loop_
_space_group_symop_operation_xyz
x,y,z
-x,-y,z
1/2+x,1/2-y,1/2-z
1/2-x,1/2+y,1/2-z
-x,-y,-z
x,y,-z
1/2-x,1/2+y,1/2+z
1/2+x,1/2-y,1/2+z
loop_
_atom_site_type_symbol
_atom_site_label
_atom_site_fract_x
_atom_site_fract_y
_atom_site_fract_z
Si Si1 0.797070 0.407712 0.615173
Si Si2 0.250734 0.039922 0.661685
Si Si3 0.697169 0.676871 0.332012
Si Si4 0.548117 0.317169 0.885573
O O1 0.784806 0.437893 0.500000
O O2 0.751673 0.456680 0.712121
O O3 0.573621 0.350699 0.624368
O O4 0.073262 0.372658 0.633986
O O5 0.224780 0.116524 0.625063
O O6 0.500000 0.000000 0.626763
O O7 0.000000 0.000000 0.627094
O O8 0.657841 0.678084 0.207547
O O9 0.780459 0.750796 0.367727
O O10 0.430242 0.314548 0.000000
#
# Coordination Sequence:
#
# PCOD9445725 Si02
#       4
#     8   8   8   8
#     4  11  23  43  71 100 134 172 213 275 342 389
#     4  11  25  43  62  94 137 178 229 271 304 383
#     4  11  24  43  69 106 134 158 218 280 329 402
#     4  11  24  45  72  97 133 178 214 269 339 389
#
# _framework density 24.242356999999998
#
# number of rings (size 3 to 8) (size 9 to 14) (size 15 to 20)
#    0.000    1.000    0.000    8.250    0.000    4.000 
#    0.000   27.500    0.000    0.000    0.000    0.000 
#    0.000    0.000    0.000    0.000    0.000    0.000 
#
# Total GULP energy -179468.205736 kJ/mol
# GULP energy per Si atom -5608.381429 kJ/mol
# Density = 2.418718 g / cm^3
# Si number density = 24.242357 Si / 1000 Ang^3
#
#
#
# Elastic Constant Matrix: (Units=GPa)
#
#
# Indices 1 2 3 4 5 6 
#
# 1 112.2328 26.2581 15.1475 0.0000 0.0000 0.0000
# 2 26.2581 83.5535 -12.6409 0.0000 0.0000 0.0000
# 3 15.1475 -12.6409 180.4537 0.0000 0.0000 0.0000
# 4 0.0000 0.0000 0.0000 -20.6832 0.0000 0.0000
# 5 0.0000 0.0000 0.0000 0.0000 74.1887 0.0000
# 6 0.0000 0.0000 0.0000 0.0000 0.0000 19.9852
#
#
#
# Elastic Compliance Matrix: (Units=1/GPa)
#
#
# Indices 1 2 3 4 5 6 
#
# 1 0.009810 -0.003242 -0.001051 0.000000 0.000000 0.000000
# 2 -0.003242 0.013168 0.001195 0.000000 0.000000 0.000000
# 3 -0.001051 0.001195 0.005713 0.000000 0.000000 0.000000
# 4 0.000000 0.000000 0.000000 -0.048348 0.000000 0.000000
# 5 0.000000 0.000000 0.000000 0.000000 0.013479 0.000000
# 6 0.000000 0.000000 0.000000 0.000000 0.000000 0.050037
#
#
# Mechanical properties :
#
#
# Convention : Reuss Voigt Hill
#
# Bulk Modulus (GPa) = 44.45299 48.19660 46.32480
# Shear Modulus (GPa) = 86.87480 37.86317 62.36899
#
# Velocity S-wave (km/s) = 5.99281 3.95632 5.07771
# Velocity P-wave (km/s) = 8.14013 6.38704 7.31628
#
# Compressibility (1/GPa) = 0.02249567
#
# Stress axis : x y z
#
# Youngs Moduli (GPa) = 101.93308 75.94183 175.02537
#
# Poissons Ratio (x) = 0.24621 0.18388
# Poissons Ratio (y) = 0.33047 -0.20908
# Poissons Ratio (z) = 0.10709 -0.09072
#
# Static dielectric constant tensor:
#      x y z
#    x 1.868230 0.000000 0.000000 
#    y 0.000000 1.854150 0.000000 
#    z 0.000000 0.000000 1.966640 
# 
# From -- ./inp_files/18267.got.cif
#   From: 2010.05.17/outbox.cif.g08.bks.cpg/sg58_10_cif.got.tgz:18267.got - 2010.06.03 14:20:14.
