data_PCOD9445918
_publ_section_title
;
Structure prediction by ZEFSAII (Michael W. Deem and Ramdas Pophale) SiO2 
 PCOD9445918
Probable space group: P N N M
;
_chemical_formula_sum "Si O2"
_cell_formula_units_Z 64
_cell_length_a 21.000000
_cell_length_b 21.000000
_cell_length_c 9.000000
_cell_angle_alpha 90.000000
_cell_angle_beta 90.000000
_cell_angle_gamma 90.000000
_cell_volume 3969.000000
_symmetry_space_group_name_H-M "P N N M"
_symmetry_group_IT_number 58
_symmetry_cell_setting 'orthorhombic'
loop_
_space_group_symop_operation_xyz
x,y,z
-x,-y,z
1/2+x,1/2-y,1/2-z
1/2-x,1/2+y,1/2-z
-x,-y,-z
x,y,-z
1/2-x,1/2+y,1/2+z
1/2+x,1/2-y,1/2+z
loop_
_atom_site_type_symbol
_atom_site_label
_atom_site_fract_x
_atom_site_fract_y
_atom_site_fract_z
Si Si1 0.575573 0.199995 0.179248
Si Si2 0.689971 0.709556 0.819272
Si Si3 0.224990 0.071396 0.177167
Si Si4 0.805953 0.792225 0.679811
Si Si5 0.877944 0.434862 0.323100
Si Si6 0.376485 0.931131 0.323720
Si Si7 0.930074 0.297113 0.319738
Si Si8 0.776260 0.064771 0.323131
O O1 0.628817 0.253449 0.217083
O O2 0.593562 0.131469 0.248843
O O3 0.502988 0.217326 0.224176
O O4 0.576736 0.193380 0.000000
O O5 0.747862 0.749884 0.746882
O O6 0.624056 0.745572 0.776365
O O7 0.693870 0.633894 0.779104
O O8 0.696524 0.712828 0.000000
O O9 0.197426 0.135693 0.253984
O O10 0.301838 0.073916 0.199032
O O11 0.204440 0.001802 0.242513
O O12 0.212743 0.073361 0.000000
O O13 0.800444 0.795363 0.500000
O O14 0.889079 0.441929 0.500000
O O15 0.897734 0.500693 0.243835
O O16 0.911025 0.369118 0.271681
O O17 0.388207 0.930223 0.500000
O O18 0.299902 0.927813 0.299475
O O19 0.928365 0.298117 0.500000
O O20 0.787177 0.056587 0.500000
#
# Coordination Sequence:
#
# PCOD9445918 Si02
#       8
#     8   8   8   8   8   8   8   8
#     4  10  21  35  51  73 102 137 173 209 250 300
#     4  10  18  34  57  78 100 132 173 213 255 300
#     4  10  19  32  53  77 102 133 171 210 254 304
#     4  11  21  32  51  78 106 133 167 212 257 301
#     4   9  17  31  51  72  98 134 174 210 245 295
#     4  10  19  31  48  72 105 138 169 207 251 300
#     4   9  18  34  54  74  98 133 176 213 247 295
#     4   9  18  31  51  78 105 130 163 212 261 301
#
# _framework density 16.124969
#
# number of rings (size 3 to 8) (size 9 to 14) (size 15 to 20)
#    0.000    2.250    2.500    1.125    0.000    2.500 
#    0.000    3.750    0.000    0.750    0.000    5.250 
#    0.000    0.000    0.000    0.000    0.000    0.000 
#
# Total GULP energy -356784.247838 kJ/mol
# GULP energy per Si atom -5574.753872 kJ/mol
# Density = 1.608827 g / cm^3
# Si number density = 16.124969 Si / 1000 Ang^3
#
#
#
# Elastic Constant Matrix: (Units=GPa)
#
#
# Indices 1 2 3 4 5 6 
#
# 1 103.2639 73.6581 34.0458 0.0000 0.0000 0.0000
# 2 73.6581 180.6571 51.7088 0.0000 0.0000 0.0000
# 3 34.0458 51.7088 46.9831 0.0000 0.0000 0.0000
# 4 0.0000 0.0000 0.0000 34.2452 0.0000 0.0000
# 5 0.0000 0.0000 0.0000 0.0000 17.4731 0.0000
# 6 0.0000 0.0000 0.0000 0.0000 0.0000 27.1403
#
#
#
# Elastic Compliance Matrix: (Units=1/GPa)
#
#
# Indices 1 2 3 4 5 6 
#
# 1 0.014704 -0.004300 -0.005922 0.000000 0.000000 0.000000
# 2 -0.004300 0.009338 -0.007162 0.000000 0.000000 0.000000
# 3 -0.005922 -0.007162 0.033458 0.000000 0.000000 0.000000
# 4 0.000000 0.000000 0.000000 0.029201 0.000000 0.000000
# 5 0.000000 0.000000 0.000000 0.000000 0.057231 0.000000
# 6 0.000000 0.000000 0.000000 0.000000 0.000000 0.036846
#
#
# Mechanical properties :
#
#
# Convention : Reuss Voigt Hill
#
# Bulk Modulus (GPa) = 43.99126 72.19216 58.09171
# Shear Modulus (GPa) = 22.40912 27.20449 24.80680
#
# Velocity S-wave (km/s) = 3.73193 4.11189 3.92651
# Velocity P-wave (km/s) = 6.77572 8.21043 7.52734
#
# Compressibility (1/GPa) = 0.02273179
#
# Stress axis : x y z
#
# Youngs Moduli (GPa) = 68.01041 107.08463 29.88810
#
# Poissons Ratio (x) = 0.46045 0.17701
# Poissons Ratio (y) = 0.29243 0.21405
# Poissons Ratio (z) = 0.40279 0.76693
#
# Static dielectric constant tensor:
#      x y z
#    x 1.542670 0.000000 0.000000 
#    y 0.000000 1.535560 0.000000 
#    z 0.000000 0.000000 1.544380 
# 
# From -- ./inp_files/8312.got.cif
#   From: 2010.05.17/outbox.ucp.g08.bks.cvg/sg58_5_cif.got.tgz:8312.got - 2010.06.11 16:41:41.
