data_PCOD9445351
_publ_section_title
;
Structure prediction by ZEFSAII (Michael W. Deem and Ramdas Pophale) SiO2 
 PCOD9445351
Probable space group: P N N M
;
_chemical_formula_sum "Si O2"
_cell_formula_units_Z 32
_cell_length_a 10.077318
_cell_length_b 17.518125
_cell_length_c 8.163466
_cell_angle_alpha 90.000000
_cell_angle_beta 90.000000
_cell_angle_gamma 90.000000
_cell_volume 1441.143319
_symmetry_space_group_name_H-M "P N N M"
_symmetry_group_IT_number 58
_symmetry_cell_setting 'orthorhombic'
loop_
_space_group_symop_operation_xyz
x,y,z
-x,-y,z
1/2+x,1/2-y,1/2-z
1/2-x,1/2+y,1/2-z
-x,-y,-z
x,y,-z
1/2-x,1/2+y,1/2+z
1/2+x,1/2-y,1/2+z
loop_
_atom_site_type_symbol
_atom_site_label
_atom_site_fract_x
_atom_site_fract_y
_atom_site_fract_z
Si Si1 0.899449 0.571053 0.500000
Si Si2 0.454197 0.328403 0.188378
Si Si3 0.896660 0.067019 0.000000
Si Si4 0.739781 0.797023 0.690326
Si Si5 0.487831 0.091811 0.677529
O O1 0.753598 0.538798 0.500000
O O2 0.928176 0.617234 0.665569
O O3 0.000000 0.500000 0.500000
O O4 0.415785 0.386033 0.332540
O O5 0.348829 0.259856 0.203411
O O6 0.605428 0.303173 0.227928
O O7 0.453724 0.357517 0.000000
O O8 0.000000 0.000000 0.000000
O O9 0.728828 0.771990 0.500000
O O10 0.662153 0.878321 0.700384
O O11 0.534108 0.121565 0.500000
O O12 0.500000 0.000000 0.670728
#
# Coordination Sequence:
#
# PCOD9445351 Si02
#       5
#     4   8   4   8   8
#     4  10  24  42  70 102 132 179 238 274 355 418
#     4  11  27  46  72 104 142 193 235 300 361 430
#     4  12  30  50  70 106 151 185 245 300 366 432
#     4  10  23  44  68 102 142 180 242 285 357 431
#     4   9  20  38  66  99 135 178 230 290 343 415
#
# _framework density 22.204592999999999
#
# number of rings (size 3 to 8) (size 9 to 14) (size 15 to 20)
#    0.000    1.750    1.250    0.000   14.000    1.500 
#    0.000    0.000    0.000    0.000    0.000    0.000 
#    0.000    0.000    0.000    0.000    0.000    0.000 
#
# Total GULP energy -178754.816131 kJ/mol
# GULP energy per Si atom -5586.088004 kJ/mol
# Density = 2.215405 g / cm^3
# Si number density = 22.204593 Si / 1000 Ang^3
#
#
#
# Elastic Constant Matrix: (Units=GPa)
#
#
# Indices 1 2 3 4 5 6 
#
# 1 172.5216 40.3166 67.6972 0.0000 0.0000 0.0000
# 2 40.3166 76.7037 31.8128 0.0000 0.0000 0.0000
# 3 67.6972 31.8128 151.4413 0.0000 0.0000 0.0000
# 4 0.0000 0.0000 0.0000 -18.7355 0.0000 0.0000
# 5 0.0000 0.0000 0.0000 0.0000 24.4139 0.0000
# 6 0.0000 0.0000 0.0000 0.0000 0.0000 31.5122
#
#
#
# Elastic Compliance Matrix: (Units=1/GPa)
#
#
# Indices 1 2 3 4 5 6 
#
# 1 0.007545 -0.002812 -0.002782 0.000000 0.000000 0.000000
# 2 -0.002812 0.015329 -0.001963 0.000000 0.000000 0.000000
# 3 -0.002782 -0.001963 0.008259 0.000000 0.000000 0.000000
# 4 0.000000 0.000000 0.000000 -0.053375 0.000000 0.000000
# 5 0.000000 0.000000 0.000000 0.000000 0.040960 0.000000
# 6 0.000000 0.000000 0.000000 0.000000 0.000000 0.031734
#
#
# Mechanical properties :
#
#
# Convention : Reuss Voigt Hill
#
# Bulk Modulus (GPa) = 62.42475 75.59108 69.00791
# Shear Modulus (GPa) = 70.51415 24.82747 47.67081
#
# Velocity S-wave (km/s) = 5.64141 3.34746 4.63848
# Velocity P-wave (km/s) = 8.40288 7.00411 7.73518
#
# Compressibility (1/GPa) = 0.01601929
#
# Stress axis : x y z
#
# Youngs Moduli (GPa) = 132.53425 65.23399 121.07565
#
# Poissons Ratio (x) = 0.18344 0.33685
# Poissons Ratio (y) = 0.37268 0.23769
# Poissons Ratio (z) = 0.36873 0.12807
#
# Static dielectric constant tensor:
#      x y z
#    x 1.770770 0.000000 0.000000 
#    y 0.000000 1.739080 0.000000 
#    z 0.000000 0.000000 1.907210 
# 
# From -- ./inp_files/2200.got.cif
#   From: 2010.05.17/outbox.cif.g08.bks.cpg/sg58_2_cif.got.tgz:2200.got - 2010.06.03 14:20:14.
