data_PCOD9445999
_publ_section_title
;
Structure prediction by ZEFSAII (Michael W. Deem and Ramdas Pophale) SiO2 
 PCOD9445999
Probable space group: P N N M
;
_chemical_formula_sum "Si O2"
_cell_formula_units_Z 64
_cell_length_a 24.000000
_cell_length_b 15.000000
_cell_length_c 9.000000
_cell_angle_alpha 90.000000
_cell_angle_beta 90.000000
_cell_angle_gamma 90.000000
_cell_volume 3240.000000
_symmetry_space_group_name_H-M "P N N M"
_symmetry_group_IT_number 58
_symmetry_cell_setting 'orthorhombic'
loop_
_space_group_symop_operation_xyz
x,y,z
-x,-y,z
1/2+x,1/2-y,1/2-z
1/2-x,1/2+y,1/2-z
-x,-y,-z
x,y,-z
1/2-x,1/2+y,1/2+z
1/2+x,1/2-y,1/2+z
loop_
_atom_site_type_symbol
_atom_site_label
_atom_site_fract_x
_atom_site_fract_y
_atom_site_fract_z
Si Si1 0.054474 0.443944 0.321135
Si Si2 0.612907 0.646430 0.325905
Si Si3 0.194691 0.193146 0.825106
Si Si4 0.196136 0.700952 0.167188
Si Si5 0.672270 0.008941 0.328206
Si Si6 0.712356 0.513401 0.678712
Si Si7 0.915982 0.751653 0.321849
Si Si8 0.499714 0.399153 0.821459
O O1 0.058432 0.454232 0.500000
O O2 0.113731 0.471419 0.250878
O O3 0.050496 0.338563 0.286687
O O4 0.000000 0.500000 0.271742
O O5 0.599630 0.630499 0.500000
O O6 0.641359 0.741876 0.311026
O O7 0.660608 0.575911 0.281202
O O8 0.558491 0.640825 0.228457
O O9 0.255520 0.226875 0.779939
O O10 0.145293 0.245608 0.746271
O O11 0.196715 0.088364 0.778084
O O12 0.186231 0.196777 0.000000
O O13 0.181130 0.597669 0.176986
O O14 0.217365 0.719679 0.000000
O O15 0.670208 0.038205 0.500000
O O16 0.728990 0.042897 0.250216
O O17 0.719091 0.515431 0.500000
O O18 0.910863 0.755864 0.500000
O O19 0.949773 0.837913 0.267215
O O20 0.500000 0.500000 0.764691
O O21 0.503171 0.401024 0.000000
#
# Coordination Sequence:
#
# PCOD9445999 Si02
#       8
#     8   8   8   8   8   8   8   8
#     4  10  23  41  60  80 107 150 198 238 281 341
#     4  10  21  36  58  84 112 148 190 229 275 337
#     4  10  20  35  57  86 115 146 189 234 277 330
#     4   9  20  37  56  82 116 151 182 225 286 345
#     4  10  21  37  58  84 115 147 185 235 290 335
#     4   9  19  36  57  84 117 152 186 225 276 341
#     4  10  22  39  59  83 115 154 191 233 288 343
#     4  10  22  39  59  86 117 149 187 233 286 339
#
# _framework density 19.753086
#
# number of rings (size 3 to 8) (size 9 to 14) (size 15 to 20)
#    0.000    2.250    0.000    1.500    3.500    3.500 
#    0.000    0.000    0.000    0.000    0.000    0.000 
#    0.000    0.000    0.000    0.000    0.000    0.000 
#
# Total GULP energy -357195.326479 kJ/mol
# GULP energy per Si atom -5581.176976 kJ/mol
# Density = 1.970813 g / cm^3
# Si number density = 19.753086 Si / 1000 Ang^3
#
#
#
# Elastic Constant Matrix: (Units=GPa)
#
#
# Indices 1 2 3 4 5 6 
#
# 1 64.2887 9.9728 12.3293 0.0000 0.0000 0.0000
# 2 9.9728 40.0685 15.3111 0.0000 0.0000 0.0000
# 3 12.3293 15.3111 2.5159 0.0000 0.0000 0.0000
# 4 0.0000 0.0000 0.0000 16.2815 0.0000 0.0000
# 5 0.0000 0.0000 0.0000 0.0000 32.5880 0.0000
# 6 0.0000 0.0000 0.0000 0.0000 0.0000 14.6073
#
#
#
# Elastic Compliance Matrix: (Units=1/GPa)
#
#
# Indices 1 2 3 4 5 6 
#
# 1 0.011967 -0.014659 0.030568 0.000000 0.000000 0.000000
# 2 -0.014659 -0.000872 0.077142 0.000000 0.000000 0.000000
# 3 0.030568 0.077142 -0.221788 0.000000 0.000000 0.000000
# 4 0.000000 0.000000 0.000000 0.061419 0.000000 0.000000
# 5 0.000000 0.000000 0.000000 0.000000 0.030686 0.000000
# 6 0.000000 0.000000 0.000000 0.000000 0.000000 0.068459
#
#
# Mechanical properties :
#
#
# Convention : Reuss Voigt Hill
#
# Bulk Modulus (GPa) = -40.66368 20.23328 -10.21520
# Shear Modulus (GPa) = -20.45590 17.31271 -1.57160
#
# Velocity S-wave (km/s) = -3.22153 2.96371 -0.89294
# Velocity P-wave (km/s) = 5.87098 4.68794 2.49916
#
# Compressibility (1/GPa) = -0.02459197
#
# Stress axis : x y z
#
# Youngs Moduli (GPa) = 83.56640 -1146.91646 -4.50880
#
# Poissons Ratio (x) = -16.81270 0.13782
# Poissons Ratio (y) = 1.22500 0.34782
# Poissons Ratio (z) = -2.55444 88.47549
#
# Static dielectric constant tensor:
#      x y z
#    x 1.639630 0.000000 0.000000 
#    y 0.000000 1.738420 0.000000 
#    z 0.000000 0.000000 1.677170 
# 
# From -- ./inp_files/10002.got.cif
#   From: 2010.05.17/outbox.ucp.g08.bks.cvg/sg58_6_cif.got.tgz:10002.got - 2010.06.11 16:41:41.
