data_PCOD9445894
_publ_section_title
;
Structure prediction by ZEFSAII (Michael W. Deem and Ramdas Pophale) SiO2 
 PCOD9445894
Probable space group: P N N M
;
_chemical_formula_sum "Si O2"
_cell_formula_units_Z 48
_cell_length_a 13.059344
_cell_length_b 11.154169
_cell_length_c 13.860518
_cell_angle_alpha 90.000000
_cell_angle_beta 90.000000
_cell_angle_gamma 90.000000
_cell_volume 2019.008017
_symmetry_space_group_name_H-M "P N N M"
_symmetry_group_IT_number 58
_symmetry_cell_setting 'orthorhombic'
loop_
_space_group_symop_operation_xyz
x,y,z
-x,-y,z
1/2+x,1/2-y,1/2-z
1/2-x,1/2+y,1/2-z
-x,-y,-z
x,y,-z
1/2-x,1/2+y,1/2+z
1/2+x,1/2-y,1/2+z
loop_
_atom_site_type_symbol
_atom_site_label
_atom_site_fract_x
_atom_site_fract_y
_atom_site_fract_z
Si Si1 0.102331 0.924169 0.391004
Si Si2 0.397669 0.575832 0.391004
Si Si3 0.179336 0.542593 0.112492
Si Si4 0.320664 0.957407 0.887508
Si Si5 0.361982 0.196208 0.792222
Si Si6 0.138018 0.303792 0.792222
O O1 0.126165 0.880131 0.500000
O O2 0.201345 0.006632 0.364807
O O3 0.076658 0.811136 0.324613
O O4 0.000000 0.000000 0.393374
O O5 0.500000 0.500000 0.393374
O O6 0.373835 0.619869 0.500000
O O7 0.298655 0.493368 0.364807
O O8 0.423342 0.688864 0.324613
O O9 0.141803 0.647159 0.183437
O O10 0.120092 0.420966 0.142374
O O11 0.170153 0.570647 0.000000
O O12 0.358197 0.852841 0.816563
O O13 0.379908 0.079034 0.857626
O O14 0.329847 0.929353 0.000000
O O15 0.250000 0.250000 0.814217
#
# Coordination Sequence:
#
# PCOD9445894 Si02
#       6
#     8   8   8   8   8   8
#     4   9  17  31  54  85 119 153 196 255 307 346
#     4   9  17  31  54  85 119 153 196 255 307 346
#     4   9  17  30  50  78 114 160 208 245 290 357
#     4   9  17  30  50  78 114 160 208 245 290 357
#     4   9  17  30  48  78 116 156 201 243 293 350
#     4   9  17  30  48  78 116 156 201 243 293 350
#
# _framework density 23.774051
#
# number of rings (size 3 to 8) (size 9 to 14) (size 15 to 20)
#    0.000    3.000    0.000    1.000    0.000    4.667 
#    0.000   13.333    0.000    1.000    0.000   39.667 
#    0.000   98.667    0.000    0.000    0.000   11.667 
#
# Total GULP energy -268150.368781 kJ/mol
# GULP energy per Si atom -5586.466016 kJ/mol
# Density = 2.371994 g / cm^3
# Si number density = 23.774051 Si / 1000 Ang^3
#
#
#
# Elastic Constant Matrix: (Units=GPa)
#
#
# Indices 1 2 3 4 5 6 
#
# 1 44.5382 28.5428 36.8160 0.0000 0.0000 0.0000
# 2 28.5428 128.4720 89.6421 0.0000 0.0000 0.0000
# 3 36.8160 89.6421 186.5542 0.0000 0.0000 0.0000
# 4 0.0000 0.0000 0.0000 25.6159 0.0000 0.0000
# 5 0.0000 0.0000 0.0000 0.0000 11.8813 0.0000
# 6 0.0000 0.0000 0.0000 0.0000 0.0000 22.5046
#
#
#
# Elastic Compliance Matrix: (Units=1/GPa)
#
#
# Indices 1 2 3 4 5 6 
#
# 1 0.027860 -0.003540 -0.003797 0.000000 0.000000 0.000000
# 2 -0.003540 0.012160 -0.005144 0.000000 0.000000 0.000000
# 3 -0.003797 -0.005144 0.008582 0.000000 0.000000 0.000000
# 4 0.000000 0.000000 0.000000 0.039038 0.000000 0.000000
# 5 0.000000 0.000000 0.000000 0.000000 0.084166 0.000000
# 6 0.000000 0.000000 0.000000 0.000000 0.000000 0.044435
#
#
# Mechanical properties :
#
#
# Convention : Reuss Voigt Hill
#
# Bulk Modulus (GPa) = 42.30418 74.39625 58.35022
# Shear Modulus (GPa) = 20.07360 25.63794 22.85577
#
# Velocity S-wave (km/s) = 2.90892 3.28746 3.10397
# Velocity P-wave (km/s) = 5.39586 6.76542 6.11908
#
# Compressibility (1/GPa) = 0.02363832
#
# Stress axis : x y z
#
# Youngs Moduli (GPa) = 35.89362 82.23798 116.52840
#
# Poissons Ratio (x) = 0.29115 0.44245
# Poissons Ratio (y) = 0.12708 0.59946
# Poissons Ratio (z) = 0.13629 0.42306
#
# Static dielectric constant tensor:
#      x y z
#    x 2.038900 0.000000 0.000000 
#    y 0.000000 1.911010 0.000000 
#    z 0.000000 0.000000 1.890100 
# 
# From -- ./inp_files/22105.got.cif
#   From: 2010.05.17/outbox.cif.g08.bks.cpg/sg58_12_cif.got.tgz:22105.got - 2010.06.03 14:20:14.
