data_PCOD9445456
_publ_section_title
;
Structure prediction by ZEFSAII (Michael W. Deem and Ramdas Pophale) SiO2 
 PCOD9445456
Probable space group: P N N M
;
_chemical_formula_sum "Si O2"
_cell_formula_units_Z 52
_cell_length_a 9.557370
_cell_length_b 13.895641
_cell_length_c 18.753512
_cell_angle_alpha 90.000000
_cell_angle_beta 90.000000
_cell_angle_gamma 90.000000
_cell_volume 2490.574834
_symmetry_space_group_name_H-M "P N N M"
_symmetry_group_IT_number 58
_symmetry_cell_setting 'orthorhombic'
loop_
_space_group_symop_operation_xyz
x,y,z
-x,-y,z
1/2+x,1/2-y,1/2-z
1/2-x,1/2+y,1/2-z
-x,-y,-z
x,y,-z
1/2-x,1/2+y,1/2+z
1/2+x,1/2-y,1/2+z
loop_
_atom_site_type_symbol
_atom_site_label
_atom_site_fract_x
_atom_site_fract_y
_atom_site_fract_z
Si Si1 0.826034 0.171729 0.000000
Si Si2 0.175858 0.631292 0.676655
Si Si3 0.911838 0.697091 0.381168
Si Si4 0.703887 0.669785 0.747159
Si Si5 0.337811 0.004192 0.685161
Si Si6 0.609453 0.413588 0.083997
Si Si7 0.488829 0.611610 0.373073
O O1 0.703043 0.167304 0.938461
O O2 0.945092 0.173313 0.936298
O O3 0.156516 0.729897 0.720345
O O4 0.168298 0.547229 0.734894
O O5 0.327639 0.632615 0.641858
O O6 0.048824 0.631217 0.621381
O O7 0.833956 0.688906 0.305417
O O8 0.949083 0.808602 0.396642
O O9 0.761190 0.598192 0.807517
O O10 0.578793 0.625726 0.699463
O O11 0.246180 0.068448 0.631861
O O12 0.500000 0.000000 0.663763
O O13 0.500000 0.500000 0.096566
O O14 0.646007 0.412873 0.000000
O O15 0.500000 0.500000 0.395615
#
# Coordination Sequence:
#
# PCOD9445456 Si02
#       7
#     4   8   8   8   8   8   8
#     4  10  25  44  66  90 135 182 222 287 343 413
#     4  12  24  39  69 104 132 176 232 286 341 408
#     4  11  22  44  67  95 139 179 225 287 347 403
#     4  11  23  41  66 101 136 174 220 284 350 399
#     4  12  25  41  68 107 140 173 229 290 344 409
#     4  11  25  46  72  97 136 193 233 273 345 423
#     4  11  24  43  68  96 132 179 229 276 347 416
#
# _framework density 20.878713000000001
#
# number of rings (size 3 to 8) (size 9 to 14) (size 15 to 20)
#    0.000    0.769    5.385    2.077    2.154    0.923 
#    0.000    0.769    5.077    0.000    0.000    0.000 
#    0.000    0.000    0.000    0.000    0.000    0.000 
#
# Total GULP energy -289814.807853 kJ/mol
# GULP energy per Si atom -5573.361689 kJ/mol
# Density = 2.083119 g / cm^3
# Si number density = 20.878713 Si / 1000 Ang^3
#
#
#
# Elastic Constant Matrix: (Units=GPa)
#
#
# Indices 1 2 3 4 5 6 
#
# 1 159.6436 -1.1495 45.5125 0.0000 0.0000 0.0000
# 2 -1.1495 28.1834 -0.8122 0.0000 0.0000 0.0000
# 3 45.5125 -0.8122 57.6904 0.0000 0.0000 0.0000
# 4 0.0000 0.0000 0.0000 19.3271 0.0000 0.0000
# 5 0.0000 0.0000 0.0000 0.0000 31.4179 0.0000
# 6 0.0000 0.0000 0.0000 0.0000 0.0000 22.5707
#
#
#
# Elastic Compliance Matrix: (Units=1/GPa)
#
#
# Indices 1 2 3 4 5 6 
#
# 1 0.008082 0.000146 -0.006374 0.000000 0.000000 0.000000
# 2 0.000146 0.035499 0.000385 0.000000 0.000000 0.000000
# 3 -0.006374 0.000385 0.022368 0.000000 0.000000 0.000000
# 4 0.000000 0.000000 0.000000 0.051741 0.000000 0.000000
# 5 0.000000 0.000000 0.000000 0.000000 0.031829 0.000000
# 6 0.000000 0.000000 0.000000 0.000000 0.000000 0.044305
#
#
# Mechanical properties :
#
#
# Convention : Reuss Voigt Hill
#
# Bulk Modulus (GPa) = 18.42909 36.95766 27.69338
# Shear Modulus (GPa) = 22.36154 28.12758 25.24456
#
# Velocity S-wave (km/s) = 3.27620 3.67439 3.48099
# Velocity P-wave (km/s) = 4.81219 5.97838 5.42670
#
# Compressibility (1/GPa) = 0.05426203
#
# Stress axis : x y z
#
# Youngs Moduli (GPa) = 123.72921 28.16986 44.70702
#
# Poissons Ratio (x) = -0.00411 0.28496
# Poissons Ratio (y) = -0.01806 -0.01719
# Poissons Ratio (z) = 0.78865 -0.01083
#
# Static dielectric constant tensor:
#      x y z
#    x 1.761450 0.000000 0.000000 
#    y 0.000000 1.783860 0.000000 
#    z 0.000000 0.000000 1.717400 
# 
# From -- ./inp_files/28906.got.cif
#   From: 2010.05.17/outbox.cif.g08.bks.cpg/sg58_15_cif.got.tgz:28906.got - 2010.06.03 14:20:14.
