data_PCOD9445093
_publ_section_title
;
Structure prediction by ZEFSAII (Michael W. Deem and Ramdas Pophale) SiO2 
 PCOD9445093
Probable space group: P N N M
;
_chemical_formula_sum "Si O2"
_cell_formula_units_Z 48
_cell_length_a 14.283200
_cell_length_b 5.437656
_cell_length_c 32.374804
_cell_angle_alpha 90.000000
_cell_angle_beta 90.000000
_cell_angle_gamma 90.000000
_cell_volume 2514.458052
_symmetry_space_group_name_H-M "P N N M"
_symmetry_group_IT_number 58
_symmetry_cell_setting 'orthorhombic'
loop_
_space_group_symop_operation_xyz
x,y,z
-x,-y,z
1/2+x,1/2-y,1/2-z
1/2-x,1/2+y,1/2-z
-x,-y,-z
x,y,-z
1/2-x,1/2+y,1/2+z
1/2+x,1/2-y,1/2+z
loop_
_atom_site_type_symbol
_atom_site_label
_atom_site_fract_x
_atom_site_fract_y
_atom_site_fract_z
Si Si1 0.172097 0.083275 0.298362
Si Si2 0.904171 0.162330 0.090984
Si Si3 0.849883 0.724199 0.210431
Si Si4 0.939423 0.252188 0.000000
Si Si5 0.556490 0.742646 0.850841
Si Si6 0.500000 0.000000 0.654691
Si Si7 0.733393 0.007822 0.142788
O O1 0.133148 0.209340 0.257568
O O2 0.181881 0.249740 0.339418
O O3 0.278583 0.005248 0.288939
O O4 0.102388 0.857933 0.308230
O O5 0.812023 0.034863 0.108281
O O6 0.925886 0.375561 0.123992
O O7 0.888318 0.249088 0.044137
O O8 0.000000 0.000000 0.091670
O O9 0.943487 0.679825 0.184629
O O10 0.789084 0.915498 0.183530
O O11 0.000000 0.500000 0.000000
O O12 0.000000 0.000000 0.000000
O O13 0.500000 0.500000 0.866457
O O14 0.500000 0.000000 0.847006
O O15 0.653051 0.822900 0.873021
#
# Coordination Sequence:
#
# PCOD9445093 Si02
#       7
#     8   8   8   4   8   4   8
#     4  11  22  39  60  82 121 163 218 268 321 360
#     4  11  22  40  62  96 132 168 212 255 320 391
#     4  11  23  36  56  83 121 170 211 269 313 372
#     4  10  22  40  66  96 132 171 204 259 314 390
#     4  11  24  44  62  87 117 158 216 273 322 373
#     4  12  22  35  62  90 126 170 220 251 322 376
#     4  11  22  39  61  87 121 167 211 267 316 379
#
# _framework density 19.089601999999999
#
# number of rings (size 3 to 8) (size 9 to 14) (size 15 to 20)
#    0.000    1.000    7.500    0.000    0.000    1.333 
#    3.000    0.000    0.000    0.000    0.000    1.167 
#    0.000    0.167    0.000    0.000    0.000    0.000 
#
# Total GULP energy -267439.253471 kJ/mol
# GULP energy per Si atom -5571.651114 kJ/mol
# Density = 1.904615 g / cm^3
# Si number density = 19.089602 Si / 1000 Ang^3
#
#
#
# Elastic Constant Matrix: (Units=GPa)
#
#
# Indices 1 2 3 4 5 6 
#
# 1 113.2489 47.0213 45.0625 0.0000 0.0000 0.0000
# 2 47.0213 88.7553 28.1862 0.0000 0.0000 0.0000
# 3 45.0625 28.1862 112.4603 0.0000 0.0000 0.0000
# 4 0.0000 0.0000 0.0000 12.8706 0.0000 0.0000
# 5 0.0000 0.0000 0.0000 0.0000 10.6726 0.0000
# 6 0.0000 0.0000 0.0000 0.0000 0.0000 17.2298
#
#
#
# Elastic Compliance Matrix: (Units=1/GPa)
#
#
# Indices 1 2 3 4 5 6 
#
# 1 0.012568 -0.005497 -0.003658 0.000000 0.000000 0.000000
# 2 -0.005497 0.014645 -0.001468 0.000000 0.000000 0.000000
# 3 -0.003658 -0.001468 0.010726 0.000000 0.000000 0.000000
# 4 0.000000 0.000000 0.000000 0.077697 0.000000 0.000000
# 5 0.000000 0.000000 0.000000 0.000000 0.093698 0.000000
# 6 0.000000 0.000000 0.000000 0.000000 0.000000 0.058039
#
#
# Mechanical properties :
#
#
# Convention : Reuss Voigt Hill
#
# Bulk Modulus (GPa) = 59.90526 61.66716 60.78621
# Shear Modulus (GPa) = 16.99626 21.10090 19.04858
#
# Velocity S-wave (km/s) = 2.98710 3.32830 3.16231
# Velocity P-wave (km/s) = 6.58378 6.86617 6.72646
#
# Compressibility (1/GPa) = 0.01669302
#
# Stress axis : x y z
#
# Youngs Moduli (GPa) = 79.56734 68.28193 93.23262
#
# Poissons Ratio (x) = 0.37532 0.34108
# Poissons Ratio (y) = 0.43735 0.13687
# Poissons Ratio (z) = 0.29108 0.10024
#
# Static dielectric constant tensor:
#      x y z
#    x 1.696770 0.000000 0.000000 
#    y 0.000000 1.805700 0.000000 
#    z 0.000000 0.000000 1.626480 
# 
# From -- ./inp_files/34167.got.cif
#   From: 2010.05.17/outbox.cif.g08.bks.cpg/sg58_18_cif.got.tgz:34167.got - 2010.06.03 14:20:14.
