data_PCOD9445281
_publ_section_title
;
Structure prediction by ZEFSAII (Michael W. Deem and Ramdas Pophale) SiO2 
 PCOD9445281
Probable space group: P N N M
;
_chemical_formula_sum "Si O2"
_cell_formula_units_Z 40
_cell_length_a 27.220715
_cell_length_b 9.463216
_cell_length_c 7.751701
_cell_angle_alpha 90.000000
_cell_angle_beta 90.000000
_cell_angle_gamma 90.000000
_cell_volume 1996.803339
_symmetry_space_group_name_H-M "P N N M"
_symmetry_group_IT_number 58
_symmetry_cell_setting 'orthorhombic'
loop_
_space_group_symop_operation_xyz
x,y,z
-x,-y,z
1/2+x,1/2-y,1/2-z
1/2-x,1/2+y,1/2-z
-x,-y,-z
x,y,-z
1/2-x,1/2+y,1/2+z
1/2+x,1/2-y,1/2+z
loop_
_atom_site_type_symbol
_atom_site_label
_atom_site_fract_x
_atom_site_fract_y
_atom_site_fract_z
Si Si1 0.380475 0.003461 0.307178
Si Si2 0.713349 0.818771 0.205764
Si Si3 0.450865 0.092395 0.000000
Si Si4 0.100030 0.181004 0.796170
Si Si5 0.479919 0.655891 0.000000
Si Si6 0.807160 0.993191 0.207777
O O1 0.400113 0.025312 0.500000
O O2 0.330177 0.088865 0.286816
O O3 0.418273 0.057864 0.165527
O O4 0.374239 0.835029 0.283475
O O5 0.765060 0.883943 0.267113
O O6 0.705879 0.652936 0.241305
O O7 0.710596 0.838860 0.000000
O O8 0.500000 0.000000 0.000000
O O9 0.471913 0.248234 0.000000
O O10 0.053775 0.183003 0.668612
O O11 0.139252 0.062621 0.738262
O O12 0.087461 0.160286 0.000000
O O13 0.500000 0.500000 0.000000
O O14 0.807865 0.987815 0.000000
#
# Coordination Sequence:
#
# PCOD9445281 Si02
#       6
#     8   8   4   8   4   8
#     4  11  23  42  69  96 133 172 215 275 332 386
#     4  11  23  40  65  97 133 173 218 269 325 396
#     4  12  24  46  68 100 130 170 234 272 322 402
#     4  10  23  44  66  94 131 171 218 269 328 393
#     4  12  28  44  68  96 132 176 220 278 336 378
#     4  10  23  41  62  94 133 171 218 268 324 396
#
# _framework density 20.032017
#
# number of rings (size 3 to 8) (size 9 to 14) (size 15 to 20)
#    0.000    1.200    3.000    1.800    4.200    4.800 
#    0.000    0.000    0.000    0.000    0.000    0.000 
#    0.000    0.000    0.000    0.000    0.000    0.000 
#
# Total GULP energy -223571.972188 kJ/mol
# GULP energy per Si atom -5589.299305 kJ/mol
# Density = 1.998642 g / cm^3
# Si number density = 20.032017 Si / 1000 Ang^3
#
#
#
# Elastic Constant Matrix: (Units=GPa)
#
#
# Indices 1 2 3 4 5 6 
#
# 1 52.6401 1.2204 30.7044 0.0000 0.0000 0.0000
# 2 1.2204 98.9636 15.5511 0.0000 0.0000 0.0000
# 3 30.7044 15.5511 90.1724 0.0000 0.0000 0.0000
# 4 0.0000 0.0000 0.0000 29.2968 0.0000 0.0000
# 5 0.0000 0.0000 0.0000 0.0000 -62.4581 0.0000
# 6 0.0000 0.0000 0.0000 0.0000 0.0000 47.1815
#
#
#
# Elastic Compliance Matrix: (Units=1/GPa)
#
#
# Indices 1 2 3 4 5 6 
#
# 1 0.023802 0.001007 -0.008279 0.000000 0.000000 0.000000
# 2 0.001007 0.010429 -0.002142 0.000000 0.000000 0.000000
# 3 -0.008279 -0.002142 0.014278 0.000000 0.000000 0.000000
# 4 0.000000 0.000000 0.000000 0.034133 0.000000 0.000000
# 5 0.000000 0.000000 0.000000 0.000000 -0.016011 0.000000
# 6 0.000000 0.000000 0.000000 0.000000 0.000000 0.021195
#
#
# Mechanical properties :
#
#
# Convention : Reuss Voigt Hill
#
# Bulk Modulus (GPa) = 33.68852 37.41423 35.55138
# Shear Modulus (GPa) = 42.90112 15.75739 29.32926
#
# Velocity S-wave (km/s) = 4.63279 2.80770 3.83053
# Velocity P-wave (km/s) = 6.74321 5.40635 6.11145
#
# Compressibility (1/GPa) = 0.02968370
#
# Stress axis : x y z
#
# Youngs Moduli (GPa) = 42.01251 95.88810 70.03710
#
# Poissons Ratio (x) = -0.09659 0.57981
# Poissons Ratio (y) = -0.04232 0.14999
# Poissons Ratio (z) = 0.34781 0.20535
#
# Static dielectric constant tensor:
#      x y z
#    x 1.644460 0.000000 0.000000 
#    y 0.000000 1.642300 0.000000 
#    z 0.000000 0.000000 1.709550 
# 
# From -- ./inp_files/10278.got.cif
#   From: 2010.05.17/outbox.cif.g08.bks.cpg/sg58_6_cif.got.tgz:10278.got - 2010.06.03 14:20:14.
