data_PCOD9445566
_publ_section_title
;
Structure prediction by ZEFSAII (Michael W. Deem and Ramdas Pophale) SiO2 
 PCOD9445566
Probable space group: P N N M
;
_chemical_formula_sum "Si O2"
_cell_formula_units_Z 32
_cell_length_a 7.075274
_cell_length_b 12.501193
_cell_length_c 17.281929
_cell_angle_alpha 90.000000
_cell_angle_beta 90.000000
_cell_angle_gamma 90.000000
_cell_volume 1528.575660
_symmetry_space_group_name_H-M "P N N M"
_symmetry_group_IT_number 58
_symmetry_cell_setting 'orthorhombic'
loop_
_space_group_symop_operation_xyz
x,y,z
-x,-y,z
1/2+x,1/2-y,1/2-z
1/2-x,1/2+y,1/2-z
-x,-y,-z
x,y,-z
1/2-x,1/2+y,1/2+z
1/2+x,1/2-y,1/2+z
loop_
_atom_site_type_symbol
_atom_site_label
_atom_site_fract_x
_atom_site_fract_y
_atom_site_fract_z
Si Si1 0.126921 0.228786 0.585446
Si Si2 0.126714 0.897372 0.689951
Si Si3 0.041040 0.337791 0.088824
Si Si4 0.082428 0.886443 0.125981
O O1 0.048708 0.208440 0.500000
O O2 0.313659 0.153877 0.597064
O O3 0.221107 0.345909 0.589393
O O4 0.979262 0.203133 0.651225
O O5 0.332117 0.898610 0.650692
O O6 0.121110 0.887311 0.782083
O O7 0.000000 0.000000 0.669009
O O8 0.060647 0.209615 0.103736
O O9 0.089334 0.364635 0.000000
O O10 0.000000 0.000000 0.102343
#
# Coordination Sequence:
#
# PCOD9445566 Si02
#       4
#     8   8   8   8
#     4   9  20  35  55  80 108 140 176 219 264 313
#     4  11  21  35  56  81 110 141 175 218 266 317
#     4   9  20  35  55  80 108 140 176 219 264 313
#     4   9  19  37  58  79 106 141 177 220 268 311
#
# _framework density 20.934522000000001
#
# number of rings (size 3 to 8) (size 9 to 14) (size 15 to 20)
#    1.500    1.000    0.000    2.250    0.000    5.000 
#    0.000    3.750    0.000    3.000    0.000    0.000 
#    0.000    0.000    0.000    0.000    0.000    0.000 
#
# Total GULP energy -178207.654192 kJ/mol
# GULP energy per Si atom -5568.989194 kJ/mol
# Density = 2.088687 g / cm^3
# Si number density = 20.934522 Si / 1000 Ang^3
#
#
#
# Elastic Constant Matrix: (Units=GPa)
#
#
# Indices 1 2 3 4 5 6 
#
# 1 38.9038 -10.4651 15.3782 0.0000 0.0000 0.0000
# 2 -10.4651 57.2103 -1.0168 0.0000 0.0000 0.0000
# 3 15.3782 -1.0168 74.2461 0.0000 0.0000 0.0000
# 4 0.0000 0.0000 0.0000 26.9458 0.0000 0.0000
# 5 0.0000 0.0000 0.0000 0.0000 22.5767 0.0000
# 6 0.0000 0.0000 0.0000 0.0000 0.0000 24.8376
#
#
#
# Elastic Compliance Matrix: (Units=1/GPa)
#
#
# Indices 1 2 3 4 5 6 
#
# 1 0.029516 0.005292 -0.006041 0.000000 0.000000 0.000000
# 2 0.005292 0.018432 -0.000844 0.000000 0.000000 0.000000
# 3 -0.006041 -0.000844 0.014708 0.000000 0.000000 0.000000
# 4 0.000000 0.000000 0.000000 0.037111 0.000000 0.000000
# 5 0.000000 0.000000 0.000000 0.000000 0.044294 0.000000
# 6 0.000000 0.000000 0.000000 0.000000 0.000000 0.040262
#
#
# Mechanical properties :
#
#
# Convention : Reuss Voigt Hill
#
# Bulk Modulus (GPa) = 16.81493 19.79476 18.30484
# Shear Modulus (GPa) = 24.11584 25.96960 25.04272
#
# Velocity S-wave (km/s) = 3.39774 3.52592 3.46242
# Velocity P-wave (km/s) = 4.84174 5.10414 4.97467
#
# Compressibility (1/GPa) = 0.05947095
#
# Stress axis : x y z
#
# Youngs Moduli (GPa) = 33.88008 54.25238 67.98831
#
# Poissons Ratio (x) = -0.28709 0.41072
# Poissons Ratio (y) = -0.17929 0.05736
# Poissons Ratio (z) = 0.20467 0.04577
#
# Static dielectric constant tensor:
#      x y z
#    x 1.763550 0.000000 0.000000 
#    y 0.000000 1.796420 0.000000 
#    z 0.000000 0.000000 1.713360 
# 
# From -- ./inp_files/12619.got.cif
#   From: 2010.05.17/outbox.cif.g08.bks.cpg/sg58_7_cif.got.tgz:12619.got - 2010.06.03 14:20:14.
