data_PCOD9445497
_publ_section_title
;
Structure prediction by ZEFSAII (Michael W. Deem and Ramdas Pophale) SiO2 
 PCOD9445497
Probable space group: P N N M
;
_chemical_formula_sum "Si O2"
_cell_formula_units_Z 64
_cell_length_a 19.673108
_cell_length_b 23.679001
_cell_length_c 8.798184
_cell_angle_alpha 90.000000
_cell_angle_beta 90.000000
_cell_angle_gamma 90.000000
_cell_volume 4098.542023
_symmetry_space_group_name_H-M "P N N M"
_symmetry_group_IT_number 58
_symmetry_cell_setting 'orthorhombic'
loop_
_space_group_symop_operation_xyz
x,y,z
-x,-y,z
1/2+x,1/2-y,1/2-z
1/2-x,1/2+y,1/2-z
-x,-y,-z
x,y,-z
1/2-x,1/2+y,1/2+z
1/2+x,1/2-y,1/2+z
loop_
_atom_site_type_symbol
_atom_site_label
_atom_site_fract_x
_atom_site_fract_y
_atom_site_fract_z
Si Si1 0.854443 0.059993 0.318554
Si Si2 0.369151 0.563188 0.319120
Si Si3 0.217831 0.161754 0.317233
Si Si4 0.134605 0.276912 0.681551
Si Si5 0.497596 0.379393 0.817988
Si Si6 0.846474 0.270577 0.184415
Si Si7 0.233048 0.843047 0.183581
Si Si8 0.003961 0.753505 0.182140
O O1 0.850819 0.053734 0.500000
O O2 0.795068 0.100824 0.259441
O O3 0.926160 0.090598 0.281592
O O4 0.853322 0.999095 0.241359
O O5 0.374342 0.563345 0.500000
O O6 0.312274 0.607586 0.264549
O O7 0.440067 0.584858 0.248171
O O8 0.217462 0.152936 0.500000
O O9 0.169256 0.215868 0.287056
O O10 0.293090 0.181498 0.267496
O O11 0.124881 0.279840 0.500000
O O12 0.190685 0.323658 0.724440
O O13 0.062640 0.279262 0.763056
O O14 0.499012 0.316623 0.749796
O O15 0.504723 0.375914 0.000000
O O16 0.815435 0.209688 0.228833
O O17 0.924511 0.273978 0.232583
O O18 0.844898 0.271303 0.000000
O O19 0.229677 0.847914 0.000000
O O20 0.004094 0.757533 0.000000
#
# Coordination Sequence:
#
# PCOD9445497 Si02
#       8
#     8   8   8   8   8   8   8   8
#     4  11  23  36  51  71  97 133 171 209 248 290
#     4  12  24  35  50  72  97 131 172 211 245 287
#     4   9  17  33  52  69  96 132 166 201 243 295
#     4   9  18  31  50  72 100 135 163 196 249 297
#     4  11  22  35  48  68 100 135 170 203 241 288
#     4   8  16  30  50  73  98 130 162 198 248 294
#     4   9  17  33  52  71  97 131 167 203 244 293
#     4  11  19  29  50  77 102 130 166 203 242 290
#
# _framework density 15.615308000000001
#
# number of rings (size 3 to 8) (size 9 to 14) (size 15 to 20)
#    0.000    2.000    2.500    4.125    0.000    3.500 
#    0.000    3.125    0.000    0.000    0.000    0.875 
#    0.000    7.000    0.000    0.000    0.000    0.000 
#
# Total GULP energy -357141.837421 kJ/mol
# GULP energy per Si atom -5580.341210 kJ/mol
# Density = 1.557977 g / cm^3
# Si number density = 15.615308 Si / 1000 Ang^3
#
#
#
# Elastic Constant Matrix: (Units=GPa)
#
#
# Indices 1 2 3 4 5 6 
#
# 1 120.7022 50.7215 42.3451 0.0000 0.0000 0.0000
# 2 50.7215 71.2960 30.6791 0.0000 0.0000 0.0000
# 3 42.3451 30.6791 38.2481 0.0000 0.0000 0.0000
# 4 0.0000 0.0000 0.0000 15.3240 0.0000 0.0000
# 5 0.0000 0.0000 0.0000 0.0000 10.5511 0.0000
# 6 0.0000 0.0000 0.0000 0.0000 0.0000 18.2532
#
#
#
# Elastic Compliance Matrix: (Units=1/GPa)
#
#
# Indices 1 2 3 4 5 6 
#
# 1 0.014748 -0.005293 -0.012082 0.000000 0.000000 0.000000
# 2 -0.005293 0.023318 -0.012844 0.000000 0.000000 0.000000
# 3 -0.012082 -0.012844 0.049823 0.000000 0.000000 0.000000
# 4 0.000000 0.000000 0.000000 0.065257 0.000000 0.000000
# 5 0.000000 0.000000 0.000000 0.000000 0.094777 0.000000
# 6 0.000000 0.000000 0.000000 0.000000 0.000000 0.054785
#
#
# Mechanical properties :
#
#
# Convention : Reuss Voigt Hill
#
# Bulk Modulus (GPa) = 36.42734 53.08194 44.75464
# Shear Modulus (GPa) = 13.43017 15.92571 14.67794
#
# Velocity S-wave (km/s) = 2.93587 3.19702 3.06922
# Velocity P-wave (km/s) = 5.90517 6.90617 6.42519
#
# Compressibility (1/GPa) = 0.02745191
#
# Stress axis : x y z
#
# Youngs Moduli (GPa) = 67.80754 42.88477 20.07086
#
# Poissons Ratio (x) = 0.22698 0.24249
# Poissons Ratio (y) = 0.35890 0.25779
# Poissons Ratio (z) = 0.81924 0.55081
#
# Static dielectric constant tensor:
#      x y z
#    x 1.534310 0.000000 0.000000 
#    y 0.000000 1.489710 0.000000 
#    z 0.000000 0.000000 1.521180 
# 
# From -- ./inp_files/9406.got.cif
#   From: 2010.05.17/outbox.cif.g08.bks.cpg/sg58_5_cif.got.tgz:9406.got - 2010.06.03 14:20:14.
