data_PCOD9445174
_publ_section_title
;
Structure prediction by ZEFSAII (Michael W. Deem and Ramdas Pophale) SiO2 
 PCOD9445174
Probable space group: P N N M
;
_chemical_formula_sum "Si O2"
_cell_formula_units_Z 32
_cell_length_a 8.855839
_cell_length_b 11.820954
_cell_length_c 12.186542
_cell_angle_alpha 90.000000
_cell_angle_beta 90.000000
_cell_angle_gamma 90.000000
_cell_volume 1275.741635
_symmetry_space_group_name_H-M "P N N M"
_symmetry_group_IT_number 58
_symmetry_cell_setting 'orthorhombic'
loop_
_space_group_symop_operation_xyz
x,y,z
-x,-y,z
1/2+x,1/2-y,1/2-z
1/2-x,1/2+y,1/2-z
-x,-y,-z
x,y,-z
1/2-x,1/2+y,1/2+z
1/2+x,1/2-y,1/2+z
loop_
_atom_site_type_symbol
_atom_site_label
_atom_site_fract_x
_atom_site_fract_y
_atom_site_fract_z
Si Si1 0.549978 0.866441 0.000000
Si Si2 0.930146 0.124873 0.500000
Si Si3 0.311629 0.560531 0.622426
Si Si4 0.442779 0.245336 0.629740
Si Si5 0.270371 0.862852 0.717755
O O1 0.470883 0.743374 0.000000
O O2 0.665059 0.862725 0.898395
O O3 0.500000 0.000000 0.000000
O O4 0.826378 0.130529 0.607551
O O5 0.000000 0.000000 0.500000
O O6 0.328477 0.504922 0.500000
O O7 0.456299 0.638634 0.640934
O O8 0.265165 0.476098 0.715723
O O9 0.423095 0.223364 0.500000
O O10 0.556306 0.155637 0.684522
O O11 0.290487 0.267874 0.696563
#
# Coordination Sequence:
#
# PCOD9445174 Si02
#       5
#     4   4   8   8   8
#     4  10  22  42  66 105 144 191 250 314 361 466
#     4  12  24  44  69 110 151 188 248 310 389 444
#     4   9  20  40  65  95 131 185 250 304 362 446
#     4  11  23  45  65  99 145 183 256 309 372 451
#     4  12  23  41  71 102 143 199 235 320 378 458
#
# _framework density 25.083449000000002
#
# number of rings (size 3 to 8) (size 9 to 14) (size 15 to 20)
#    0.750    0.500    3.750    3.000    3.500    2.000 
#    2.250    0.000    0.000    1.500    0.000    0.000 
#    0.000    0.000    0.000    0.000    0.000    0.000 
#
# Total GULP energy -178683.768347 kJ/mol
# GULP energy per Si atom -5583.867761 kJ/mol
# Density = 2.502636 g / cm^3
# Si number density = 25.083449 Si / 1000 Ang^3
#
#
#
# Elastic Constant Matrix: (Units=GPa)
#
#
# Indices 1 2 3 4 5 6 
#
# 1 50.8275 6.5784 19.7231 0.0000 0.0000 0.0000
# 2 6.5784 131.6251 37.5763 0.0000 0.0000 0.0000
# 3 19.7231 37.5763 173.0871 0.0000 0.0000 0.0000
# 4 0.0000 0.0000 0.0000 37.6759 0.0000 0.0000
# 5 0.0000 0.0000 0.0000 0.0000 47.2798 0.0000
# 6 0.0000 0.0000 0.0000 0.0000 0.0000 31.9374
#
#
#
# Elastic Compliance Matrix: (Units=1/GPa)
#
#
# Indices 1 2 3 4 5 6 
#
# 1 0.020603 -0.000383 -0.002264 0.000000 0.000000 0.000000
# 2 -0.000383 0.008106 -0.001716 0.000000 0.000000 0.000000
# 3 -0.002264 -0.001716 0.006408 0.000000 0.000000 0.000000
# 4 0.000000 0.000000 0.000000 0.026542 0.000000 0.000000
# 5 0.000000 0.000000 0.000000 0.000000 0.021151 0.000000
# 6 0.000000 0.000000 0.000000 0.000000 0.000000 0.031311
#
#
# Mechanical properties :
#
#
# Convention : Reuss Voigt Hill
#
# Bulk Modulus (GPa) = 37.89402 53.69947 45.79674
# Shear Modulus (GPa) = 37.98078 42.82273 40.40175
#
# Velocity S-wave (km/s) = 3.89546 4.13632 4.01770
# Velocity P-wave (km/s) = 5.94751 6.65335 6.31030
#
# Compressibility (1/GPa) = 0.02638939
#
# Stress axis : x y z
#
# Youngs Moduli (GPa) = 48.53738 123.35887 156.05376
#
# Poissons Ratio (x) = 0.04728 0.35338
# Poissons Ratio (y) = 0.01860 0.26782
# Poissons Ratio (z) = 0.10991 0.21171
#
# Static dielectric constant tensor:
#      x y z
#    x 2.039370 0.000000 0.000000 
#    y 0.000000 2.170830 0.000000 
#    z 0.000000 0.000000 1.873990 
# 
# From -- ./inp_files/13808.got.cif
#   From: 2010.05.17/outbox.cif.g08.bks.cpg/sg58_7_cif.got.tgz:13808.got - 2010.06.03 14:20:14.
