data_PCOD9445000
_publ_section_title
;
Structure prediction by ZEFSAII (Michael W. Deem and Ramdas Pophale) SiO2 
 PCOD9445000
Probable space group: P N N M
;
_chemical_formula_sum "Si O2"
_cell_formula_units_Z 52
_cell_length_a 30.413009
_cell_length_b 9.903655
_cell_length_c 7.466564
_cell_angle_alpha 90.000000
_cell_angle_beta 90.000000
_cell_angle_gamma 90.000000
_cell_volume 2248.928693
_symmetry_space_group_name_H-M "P N N M"
_symmetry_group_IT_number 58
_symmetry_cell_setting 'orthorhombic'
loop_
_space_group_symop_operation_xyz
x,y,z
-x,-y,z
1/2+x,1/2-y,1/2-z
1/2-x,1/2+y,1/2-z
-x,-y,-z
x,y,-z
1/2-x,1/2+y,1/2+z
1/2+x,1/2-y,1/2+z
loop_
_atom_site_type_symbol
_atom_site_label
_atom_site_fract_x
_atom_site_fract_y
_atom_site_fract_z
Si Si1 0.037265 0.688738 0.716481
Si Si2 0.344258 0.842000 0.290958
Si Si3 0.058881 0.385128 0.284365
Si Si4 0.884431 0.125290 0.206609
Si Si5 0.667592 0.509109 0.000000
Si Si6 0.781047 0.891051 0.208822
Si Si7 0.180645 0.636932 0.783915
O O1 0.038342 0.690377 0.500000
O O2 0.056862 0.542744 0.774929
O O3 0.067099 0.811339 0.781026
O O4 0.986333 0.685708 0.773491
O O5 0.332523 0.846143 0.500000
O O6 0.395990 0.818319 0.274851
O O7 0.312853 0.727160 0.215009
O O8 0.334704 0.990505 0.216370
O O9 0.058554 0.387363 0.500000
O O10 0.870964 0.009391 0.342122
O O11 0.852571 0.247121 0.276688
O O12 0.875360 0.092993 0.000000
O O13 0.706147 0.511050 0.158703
O O14 0.730853 0.846510 0.228395
O O15 0.789353 0.920362 0.000000
O O16 0.178125 0.638544 0.000000
#
# Coordination Sequence:
#
# PCOD9445000 Si02
#       7
#     8   8   8   8   4   8   8
#     4   9  17  34  55  95 132 164 201 254 313 380
#     4  10  22  39  61  91 129 159 203 259 312 376
#     4   9  18  31  59  91 132 166 198 246 321 385
#     4  11  23  38  66  95 127 168 211 250 313 383
#     4  12  26  46  62  84 130 167 215 272 309 350
#     4  11  26  43  64  90 119 168 215 260 313 371
#     4  10  22  40  62  95 126 161 206 251 315 379
#
# _framework density 23.122119999999999
#
# number of rings (size 3 to 8) (size 9 to 14) (size 15 to 20)
#    0.000    1.846    3.077    1.385    4.308    1.231 
#    0.000    1.538    0.000    1.846    0.000    3.231 
#    0.000    0.000    0.000    0.000    0.000    0.000 
#
# Total GULP energy -289719.483743 kJ/mol
# GULP energy per Si atom -5571.528534 kJ/mol
# Density = 2.306949 g / cm^3
# Si number density = 23.122120 Si / 1000 Ang^3
#
#
#
# Elastic Constant Matrix: (Units=GPa)
#
#
# Indices 1 2 3 4 5 6 
#
# 1 134.7929 24.0624 -9.8560 0.0000 0.0000 0.0000
# 2 24.0624 40.0846 1.7355 0.0000 0.0000 0.0000
# 3 -9.8560 1.7355 120.7833 0.0000 0.0000 0.0000
# 4 0.0000 0.0000 0.0000 -33.9537 0.0000 0.0000
# 5 0.0000 0.0000 0.0000 0.0000 32.2499 0.0000
# 6 0.0000 0.0000 0.0000 0.0000 0.0000 22.7476
#
#
#
# Elastic Compliance Matrix: (Units=1/GPa)
#
#
# Indices 1 2 3 4 5 6 
#
# 1 0.008378 -0.005062 0.000756 0.000000 0.000000 0.000000
# 2 -0.005062 0.028021 -0.000816 0.000000 0.000000 0.000000
# 3 0.000756 -0.000816 0.008353 0.000000 0.000000 0.000000
# 4 0.000000 0.000000 0.000000 -0.029452 0.000000 0.000000
# 5 0.000000 0.000000 0.000000 0.000000 0.031008 0.000000
# 6 0.000000 0.000000 0.000000 0.000000 0.000000 0.043961
#
#
# Mechanical properties :
#
#
# Convention : Reuss Voigt Hill
#
# Bulk Modulus (GPa) = 28.97768 36.39383 32.68575
# Shear Modulus (GPa) = 44.63751 22.85670 33.74711
#
# Velocity S-wave (km/s) = 4.39852 3.14749 3.82451
# Velocity P-wave (km/s) = 6.19320 5.38358 5.80252
#
# Compressibility (1/GPa) = 0.03450932
#
# Stress axis : x y z
#
# Youngs Moduli (GPa) = 119.36458 35.68737 119.72136
#
# Poissons Ratio (x) = 0.18064 -0.09055
# Poissons Ratio (y) = 0.60420 0.09765
# Poissons Ratio (z) = -0.09028 0.02911
#
# Static dielectric constant tensor:
#      x y z
#    x 1.853470 0.000000 0.000000 
#    y 0.000000 2.042900 0.000000 
#    z 0.000000 0.000000 1.895170 
# 
# From -- ./inp_files/10399.got.cif
#   From: 2010.05.17/outbox.cif.g08.bks.cpg/sg58_6_cif.got.tgz:10399.got - 2010.06.03 14:20:14.
