data_PCOD9445803
_publ_section_title
;
Structure prediction by ZEFSAII (Michael W. Deem and Ramdas Pophale) SiO2 
 PCOD9445803
Probable space group: P N N M
;
_chemical_formula_sum "Si O2"
_cell_formula_units_Z 24
_cell_length_a 10.524680
_cell_length_b 9.418973
_cell_length_c 10.327147
_cell_angle_alpha 90.000000
_cell_angle_beta 90.000000
_cell_angle_gamma 90.000000
_cell_volume 1023.747398
_symmetry_space_group_name_H-M "P N N M"
_symmetry_group_IT_number 58
_symmetry_cell_setting 'orthorhombic'
loop_
_space_group_symop_operation_xyz
x,y,z
-x,-y,z
1/2+x,1/2-y,1/2-z
1/2-x,1/2+y,1/2-z
-x,-y,-z
x,y,-z
1/2-x,1/2+y,1/2+z
1/2+x,1/2-y,1/2+z
loop_
_atom_site_type_symbol
_atom_site_label
_atom_site_fract_x
_atom_site_fract_y
_atom_site_fract_z
Si Si1 0.131768 0.920127 0.648614
Si Si2 0.372869 0.594095 0.500000
Si Si3 0.294167 0.704997 0.229344
Si Si4 0.879420 0.602885 0.500000
O O1 0.132206 0.873992 0.500000
O O2 0.167051 0.792651 0.741357
O O3 0.230365 0.048416 0.673275
O O4 0.000000 0.000000 0.674901
O O5 0.500000 0.500000 0.500000
O O6 0.360730 0.685117 0.368812
O O7 0.248903 0.491444 0.500000
O O8 0.373599 0.794439 0.124864
O O9 0.000000 0.500000 0.500000
#
# Coordination Sequence:
#
# PCOD9445803 Si02
#       4
#     8   4   8   4
#     4  11  25  45  76 108 149 200 253 308 381 459
#     4  12  28  49  76 111 152 197 252 321 383 445
#     4  12  25  46  75 108 150 194 250 311 380 448
#     4  12  30  45  75 114 151 198 256 311 379 463
#
# _framework density 23.443283000000001
#
# number of rings (size 3 to 8) (size 9 to 14) (size 15 to 20)
#    0.000    0.333    6.667    1.000    4.667    0.000 
#    0.000    0.833    0.000    0.000    0.000    0.000 
#    0.000    0.000    0.000    0.000    0.000    0.000 
#
# Total GULP energy -134437.545900 kJ/mol
# GULP energy per Si atom -5601.564413 kJ/mol
# Density = 2.338992 g / cm^3
# Si number density = 23.443283 Si / 1000 Ang^3
#
#
#
# Elastic Constant Matrix: (Units=GPa)
#
#
# Indices 1 2 3 4 5 6 
#
# 1 113.7997 41.2014 32.1333 0.0000 0.0000 0.0000
# 2 41.2014 77.4647 25.7917 0.0000 0.0000 0.0000
# 3 32.1333 25.7917 175.6822 0.0000 0.0000 0.0000
# 4 0.0000 0.0000 0.0000 64.8319 0.0000 0.0000
# 5 0.0000 0.0000 0.0000 0.0000 24.0280 0.0000
# 6 0.0000 0.0000 0.0000 0.0000 0.0000 43.6559
#
#
#
# Elastic Compliance Matrix: (Units=1/GPa)
#
#
# Indices 1 2 3 4 5 6 
#
# 1 0.011129 -0.005511 -0.001227 0.000000 0.000000 0.000000
# 2 -0.005511 0.016301 -0.001385 0.000000 0.000000 0.000000
# 3 -0.001227 -0.001385 0.006120 0.000000 0.000000 0.000000
# 4 0.000000 0.000000 0.000000 0.015425 0.000000 0.000000
# 5 0.000000 0.000000 0.000000 0.000000 0.041618 0.000000
# 6 0.000000 0.000000 0.000000 0.000000 0.000000 0.022906
#
#
# Mechanical properties :
#
#
# Convention : Reuss Voigt Hill
#
# Bulk Modulus (GPa) = 57.78680 62.79992 60.29336
# Shear Modulus (GPa) = 36.89698 44.35784 40.62741
#
# Velocity S-wave (km/s) = 3.97152 4.35459 4.16746
# Velocity P-wave (km/s) = 6.76268 7.22007 6.99511
#
# Compressibility (1/GPa) = 0.01730499
#
# Stress axis : x y z
#
# Youngs Moduli (GPa) = 89.85632 61.34466 163.40413
#
# Poissons Ratio (x) = 0.33806 0.20042
# Poissons Ratio (y) = 0.49518 0.22635
# Poissons Ratio (z) = 0.11021 0.08498
#
# Static dielectric constant tensor:
#      x y z
#    x 1.953070 0.000000 0.000000 
#    y 0.000000 1.918760 0.000000 
#    z 0.000000 0.000000 1.882740 
# 
# From -- ./inp_files/12163.got.cif
#   From: 2010.05.17/outbox.cif.g08.bks.cpg/sg58_7_cif.got.tgz:12163.got - 2010.06.03 14:20:14.
