data_PCOD9445886
_publ_section_title
;
Structure prediction by ZEFSAII (Michael W. Deem and Ramdas Pophale) SiO2 
 PCOD9445886
Probable space group: P N N M
;
_chemical_formula_sum "Si O2"
_cell_formula_units_Z 48
_cell_length_a 15.520121
_cell_length_b 20.593445
_cell_length_c 7.482764
_cell_angle_alpha 90.000000
_cell_angle_beta 90.000000
_cell_angle_gamma 90.000000
_cell_volume 2391.586841
_symmetry_space_group_name_H-M "P N N M"
_symmetry_group_IT_number 58
_symmetry_cell_setting 'orthorhombic'
loop_
_space_group_symop_operation_xyz
x,y,z
-x,-y,z
1/2+x,1/2-y,1/2-z
1/2-x,1/2+y,1/2-z
-x,-y,-z
x,y,-z
1/2-x,1/2+y,1/2+z
1/2+x,1/2-y,1/2+z
loop_
_atom_site_type_symbol
_atom_site_label
_atom_site_fract_x
_atom_site_fract_y
_atom_site_fract_z
Si Si1 0.695901 0.664185 0.785887
Si Si2 0.492579 0.303937 0.219016
Si Si3 0.612040 0.187023 0.786565
Si Si4 0.065678 0.056943 0.282026
Si Si5 0.230353 0.982721 0.284713
Si Si6 0.421291 0.958127 0.211757
O O1 0.607319 0.696537 0.723279
O O2 0.786356 0.698297 0.744350
O O3 0.703498 0.589525 0.720318
O O4 0.689774 0.660422 0.000000
O O5 0.550009 0.243622 0.281215
O O6 0.533858 0.372541 0.275433
O O7 0.493473 0.303164 0.000000
O O8 0.589371 0.115078 0.714911
O O9 0.600894 0.184870 0.000000
O O10 0.064637 0.057841 0.500000
O O11 0.160865 0.035350 0.223852
O O12 0.000000 0.000000 0.227787
O O13 0.226420 0.981197 0.500000
O O14 0.329280 0.992846 0.234419
O O15 0.500000 0.000000 0.286153
O O16 0.436367 0.950975 0.000000
#
# Coordination Sequence:
#
# PCOD9445886 Si02
#       6
#     8   8   8   8   8   8
#     4   9  16  29  49  69  89 118 151 183 223 269
#     4   9  16  28  47  68  92 121 151 182 222 275
#     4   9  18  32  48  66  90 122 155 185 220 266
#     4   9  14  24  45  73  96 113 141 182 227 272
#     4   9  16  27  48  73  92 112 144 188 230 266
#     4   9  18  33  49  63  87 125 161 186 216 263
#
# _framework density 20.070354999999999
#
# number of rings (size 3 to 8) (size 9 to 14) (size 15 to 20)
#    0.000    3.000    1.667    0.000    0.000    0.333 
#    3.000    0.833    0.000    1.500    0.000    0.000 
#    0.000    0.000    0.000    0.000    0.000    0.000 
#
# Total GULP energy -267706.147957 kJ/mol
# GULP energy per Si atom -5577.211416 kJ/mol
# Density = 2.002467 g / cm^3
# Si number density = 20.070355 Si / 1000 Ang^3
#
#
#
# Elastic Constant Matrix: (Units=GPa)
#
#
# Indices 1 2 3 4 5 6 
#
# 1 222.8189 115.5546 0.0600 0.0000 0.0000 0.0000
# 2 115.5546 104.8323 6.0389 0.0000 0.0000 0.0000
# 3 0.0600 6.0389 54.1885 0.0000 0.0000 0.0000
# 4 0.0000 0.0000 0.0000 -0.4269 0.0000 0.0000
# 5 0.0000 0.0000 0.0000 0.0000 75.6333 0.0000
# 6 0.0000 0.0000 0.0000 0.0000 0.0000 35.9027
#
#
#
# Elastic Compliance Matrix: (Units=1/GPa)
#
#
# Indices 1 2 3 4 5 6 
#
# 1 0.010567 -0.011722 0.001295 0.000000 0.000000 0.000000
# 2 -0.011722 0.022604 -0.002506 0.000000 0.000000 0.000000
# 3 0.001295 -0.002506 0.018732 0.000000 0.000000 0.000000
# 4 0.000000 0.000000 0.000000 -2.342740 0.000000 0.000000
# 5 0.000000 0.000000 0.000000 0.000000 0.013222 0.000000
# 6 0.000000 0.000000 0.000000 0.000000 0.000000 0.027853
#
#
# Mechanical properties :
#
#
# Convention : Reuss Voigt Hill
#
# Bulk Modulus (GPa) = 38.40838 69.46075 53.93456
# Shear Modulus (GPa) = -2.25712 39.56759 18.65524
#
# Velocity S-wave (km/s) = -1.06162 4.44491 3.05206
# Velocity P-wave (km/s) = 4.20425 7.81196 6.27306
#
# Compressibility (1/GPa) = 0.02603599
#
# Stress axis : x y z
#
# Youngs Moduli (GPa) = 94.63710 44.23921 53.38475
#
# Poissons Ratio (x) = 0.51857 -0.06911
# Poissons Ratio (y) = 1.10934 0.13379
# Poissons Ratio (z) = -0.12252 0.11087
#
# Static dielectric constant tensor:
#      x y z
#    x 1.700520 0.000000 0.000000 
#    y 0.000000 1.688210 0.000000 
#    z 0.000000 0.000000 1.769850 
# 
# From -- ./inp_files/4221.got.cif
#   From: 2010.05.17/outbox.cif.g08.bks.cpg/sg58_3_cif.got.tgz:4221.got - 2010.06.03 14:20:14.
