data_PCOD9445602
_publ_section_title
;
Structure prediction by ZEFSAII (Michael W. Deem and Ramdas Pophale) SiO2 
 PCOD9445602
Probable space group: P N N M
;
_chemical_formula_sum "Si O2"
_cell_formula_units_Z 38
_cell_length_a 6.619035
_cell_length_b 15.218369
_cell_length_c 19.074363
_cell_angle_alpha 90.000000
_cell_angle_beta 90.000000
_cell_angle_gamma 90.000000
_cell_volume 1921.378077
_symmetry_space_group_name_H-M "P N N M"
_symmetry_group_IT_number 58
_symmetry_cell_setting 'orthorhombic'
loop_
_space_group_symop_operation_xyz
x,y,z
-x,-y,z
1/2+x,1/2-y,1/2-z
1/2-x,1/2+y,1/2-z
-x,-y,-z
x,y,-z
1/2-x,1/2+y,1/2+z
1/2+x,1/2-y,1/2+z
loop_
_atom_site_type_symbol
_atom_site_label
_atom_site_fract_x
_atom_site_fract_y
_atom_site_fract_z
Si Si1 0.000000 0.000000 0.000000
Si Si2 0.500000 0.000000 0.228285
Si Si3 0.130270 0.224375 0.166928
Si Si4 0.779184 0.102595 0.880276
Si Si5 0.784397 0.352590 0.191182
Si Si6 0.519530 0.270199 0.080323
O O1 0.840532 0.032856 0.061347
O O2 0.369394 0.936207 0.178409
O O3 0.656402 0.945172 0.275590
O O4 0.217144 0.210548 0.244609
O O5 0.309574 0.235633 0.111988
O O6 0.986934 0.141337 0.151525
O O7 0.990618 0.309928 0.163003
O O8 0.670375 0.187143 0.914177
O O9 0.614997 0.343819 0.131612
O O10 0.500105 0.298124 0.000000
#
# Coordination Sequence:
#
# PCOD9445602 Si02
#       6
#     2   4   8   8   8   8
#     4  12  24  38  56 100 142 174 202 258 344 412
#     4  12  24  43  63 102 136 168 220 290 328 386
#     4  11  21  42  66  92 122 176 225 259 314 406
#     4  11  25  38  62  95 135 172 209 260 334 397
#     4  11  22  40  67  94 125 171 227 273 325 390
#     4  11  24  43  65  92 130 173 221 273 328 396
#
# _framework density 19.777471999999999
#
# number of rings (size 3 to 8) (size 9 to 14) (size 15 to 20)
#    0.000    0.842    5.263    2.526    1.474    1.263 
#    0.000    0.526    0.000    1.263    0.000    0.000 
#    0.000    0.000    0.000    0.000    0.000    0.000 
#
# Total GULP energy -211814.780283 kJ/mol
# GULP energy per Si atom -5574.073165 kJ/mol
# Density = 1.973246 g / cm^3
# Si number density = 19.777472 Si / 1000 Ang^3
#
#
#
# Elastic Constant Matrix: (Units=GPa)
#
#
# Indices 1 2 3 4 5 6 
#
# 1 95.8260 4.8920 46.9029 0.0000 0.0000 0.0000
# 2 4.8920 32.9488 23.8719 0.0000 0.0000 0.0000
# 3 46.9029 23.8719 143.0639 0.0000 0.0000 0.0000
# 4 0.0000 0.0000 0.0000 -12.9162 0.0000 0.0000
# 5 0.0000 0.0000 0.0000 0.0000 10.9623 0.0000
# 6 0.0000 0.0000 0.0000 0.0000 0.0000 29.5655
#
#
#
# Elastic Compliance Matrix: (Units=1/GPa)
#
#
# Indices 1 2 3 4 5 6 
#
# 1 0.012476 0.001264 -0.004301 0.000000 0.000000 0.000000
# 2 0.001264 0.034652 -0.006196 0.000000 0.000000 0.000000
# 3 -0.004301 -0.006196 0.009434 0.000000 0.000000 0.000000
# 4 0.000000 0.000000 0.000000 -0.077422 0.000000 0.000000
# 5 0.000000 0.000000 0.000000 0.000000 0.091222 0.000000
# 6 0.000000 0.000000 0.000000 0.000000 0.000000 0.033823
#
#
# Mechanical properties :
#
#
# Convention : Reuss Voigt Hill
#
# Bulk Modulus (GPa) = 26.25038 47.01913 36.63476
# Shear Modulus (GPa) = 36.94107 18.60044 27.77076
#
# Velocity S-wave (km/s) = 4.32654 3.07006 3.75128
# Velocity P-wave (km/s) = 6.18548 6.03264 6.10954
#
# Compressibility (1/GPa) = 0.03809469
#
# Stress axis : x y z
#
# Youngs Moduli (GPa) = 80.15180 28.85843 105.99999
#
# Poissons Ratio (x) = -0.03647 0.45593
# Poissons Ratio (y) = -0.10130 0.65682
# Poissons Ratio (z) = 0.34475 0.17882
#
# Static dielectric constant tensor:
#      x y z
#    x 1.704480 0.000000 0.000000 
#    y 0.000000 1.720040 0.000000 
#    z 0.000000 0.000000 1.686580 
# 
# From -- ./inp_files/24202.got.cif
#   From: 2010.05.17/outbox.cif.g08.bks.cpg/sg58_13_cif.got.tgz:24202.got - 2010.06.03 14:20:14.
