data_PCOD9445533
_publ_section_title
;
Structure prediction by ZEFSAII (Michael W. Deem and Ramdas Pophale) SiO2 
 PCOD9445533
Probable space group: P N N M
;
_chemical_formula_sum "Si O2"
_cell_formula_units_Z 48
_cell_length_a 6.509997
_cell_length_b 14.513331
_cell_length_c 25.917794
_cell_angle_alpha 90.000000
_cell_angle_beta 90.000000
_cell_angle_gamma 90.000000
_cell_volume 2448.758307
_symmetry_space_group_name_H-M "P N N M"
_symmetry_group_IT_number 58
_symmetry_cell_setting 'orthorhombic'
loop_
_space_group_symop_operation_xyz
x,y,z
-x,-y,z
1/2+x,1/2-y,1/2-z
1/2-x,1/2+y,1/2-z
-x,-y,-z
x,y,-z
1/2-x,1/2+y,1/2+z
1/2+x,1/2-y,1/2+z
loop_
_atom_site_type_symbol
_atom_site_label
_atom_site_fract_x
_atom_site_fract_y
_atom_site_fract_z
Si Si1 0.280245 0.620925 0.752587
Si Si2 0.237007 0.271139 0.126015
Si Si3 0.399518 0.593246 0.861358
Si Si4 0.951474 0.391459 0.939754
Si Si5 0.983053 0.397797 0.650600
Si Si6 0.871906 0.196404 0.196216
O O1 0.280748 0.571725 0.807871
O O2 0.232857 0.727390 0.767660
O O3 0.508246 0.619843 0.729017
O O4 0.125210 0.593769 0.707339
O O5 0.418048 0.334584 0.149341
O O6 0.139775 0.327957 0.078995
O O7 0.343865 0.172324 0.117725
O O8 0.048435 0.249271 0.164212
O O9 0.500000 0.500000 0.881382
O O10 0.243072 0.630885 0.903746
O O11 0.000000 0.500000 0.931091
O O12 0.909208 0.378327 0.000000
O O13 0.202657 0.350996 0.660636
O O14 0.000000 0.500000 0.628840
#
# Coordination Sequence:
#
# PCOD9445533 Si02
#       6
#     8   8   8   8   8   8
#     4  11  21  33  56  83 122 164 210 251 304 361
#     4  11  22  41  61  86 124 166 205 259 318 373
#     4  12  24  37  60  91 128 168 208 257 318 384
#     4  11  24  42  65  94 125 160 211 269 329 394
#     4  11  25  38  58  88 127 173 217 258 307 374
#     4  11  20  37  57  83 123 164 212 259 302 365
#
# _framework density 19.601773000000001
#
# number of rings (size 3 to 8) (size 9 to 14) (size 15 to 20)
#    0.000    0.833    6.667    1.000    2.333    3.667 
#    0.000    0.000    0.000    0.500    0.000    4.667 
#    0.000    0.000    0.000    0.000    0.000    0.000 
#
# Total GULP energy -268070.866555 kJ/mol
# GULP energy per Si atom -5584.809720 kJ/mol
# Density = 1.955716 g / cm^3
# Si number density = 19.601773 Si / 1000 Ang^3
#
#
#
# Elastic Constant Matrix: (Units=GPa)
#
#
# Indices 1 2 3 4 5 6 
#
# 1 105.9917 36.4065 35.7225 0.0000 0.0000 0.0000
# 2 36.4065 108.0336 15.0527 0.0000 0.0000 0.0000
# 3 35.7225 15.0527 76.1933 0.0000 0.0000 0.0000
# 4 0.0000 0.0000 0.0000 19.7897 0.0000 0.0000
# 5 0.0000 0.0000 0.0000 0.0000 15.5552 0.0000
# 6 0.0000 0.0000 0.0000 0.0000 0.0000 33.5918
#
#
#
# Elastic Compliance Matrix: (Units=1/GPa)
#
#
# Indices 1 2 3 4 5 6 
#
# 1 0.012339 -0.003447 -0.005104 0.000000 0.000000 0.000000
# 2 -0.003447 0.010481 -0.000455 0.000000 0.000000 0.000000
# 3 -0.005104 -0.000455 0.015607 0.000000 0.000000 0.000000
# 4 0.000000 0.000000 0.000000 0.050531 0.000000 0.000000
# 5 0.000000 0.000000 0.000000 0.000000 0.064287 0.000000
# 6 0.000000 0.000000 0.000000 0.000000 0.000000 0.029769
#
#
# Mechanical properties :
#
#
# Convention : Reuss Voigt Hill
#
# Bulk Modulus (GPa) = 48.98029 51.62022 50.30026
# Shear Modulus (GPa) = 24.05794 27.32313 25.69054
#
# Velocity S-wave (km/s) = 3.50713 3.73756 3.62418
# Velocity P-wave (km/s) = 6.43754 6.70951 6.57493
#
# Compressibility (1/GPa) = 0.02041637
#
# Stress axis : x y z
#
# Youngs Moduli (GPa) = 81.04465 95.40783 64.07271
#
# Poissons Ratio (x) = 0.32887 0.32703
# Poissons Ratio (y) = 0.27936 0.02913
# Poissons Ratio (z) = 0.41365 0.04337
#
# Static dielectric constant tensor:
#      x y z
#    x 1.717340 0.000000 0.000000 
#    y 0.000000 1.721610 0.000000 
#    z 0.000000 0.000000 1.660630 
# 
# From -- ./inp_files/32787.got.cif
#   From: 2010.05.17/outbox.cif.g08.bks.cpg/sg58_17_cif.got.tgz:32787.got - 2010.06.03 14:20:14.
