data_PCOD9445225
_publ_section_title
;
Structure prediction by ZEFSAII (Michael W. Deem and Ramdas Pophale) SiO2 
 PCOD9445225
Probable space group: P N N M
;
_chemical_formula_sum "Si O2"
_cell_formula_units_Z 32
_cell_length_a 7.497254
_cell_length_b 6.389361
_cell_length_c 33.354729
_cell_angle_alpha 90.000000
_cell_angle_beta 90.000000
_cell_angle_gamma 90.000000
_cell_volume 1597.780320
_symmetry_space_group_name_H-M "P N N M"
_symmetry_group_IT_number 58
_symmetry_cell_setting 'orthorhombic'
loop_
_space_group_symop_operation_xyz
x,y,z
-x,-y,z
1/2+x,1/2-y,1/2-z
1/2-x,1/2+y,1/2-z
-x,-y,-z
x,y,-z
1/2-x,1/2+y,1/2+z
1/2+x,1/2-y,1/2+z
loop_
_atom_site_type_symbol
_atom_site_label
_atom_site_fract_x
_atom_site_fract_y
_atom_site_fract_z
Si Si1 0.580949 0.745058 0.500000
Si Si2 0.000000 0.000000 0.847142
Si Si3 0.299205 0.253558 0.196271
Si Si4 0.000000 0.000000 0.370081
Si Si5 0.500000 0.000000 0.738800
Si Si6 0.153686 0.673551 0.088828
O O1 0.500000 0.500000 0.500000
O O2 0.672321 0.742919 0.456448
O O3 0.500000 0.000000 0.500000
O O4 0.915591 0.168071 0.877332
O O5 0.160236 0.079934 0.819134
O O6 0.418068 0.325580 0.159215
O O7 0.427895 0.180459 0.231852
O O8 0.167431 0.434257 0.211936
O O9 0.840280 0.916444 0.396773
O O10 0.000000 0.500000 0.087957
#
# Coordination Sequence:
#
# PCOD9445225 Si02
#       6
#     4   4   8   4   4   8
#     4  10  22  43  74 105 147 194 235 289 362 433
#     4  12  22  42  70  94 136 176 230 290 346 418
#     4  12  24  41  64  95 131 178 231 286 351 418
#     4  12  24  42  68 102 136 176 234 288 348 420
#     4  12  24  42  60  90 134 172 226 286 350 414
#     4  11  23  44  68 102 142 178 232 284 352 421
#
# _framework density 20.027784
#
# number of rings (size 3 to 8) (size 9 to 14) (size 15 to 20)
#    0.000    0.500    3.750    6.000    0.000    0.500 
#    0.000    0.000    0.000    4.500    0.000    0.000 
#    0.000    0.000    0.000    0.000    0.000    0.000 
#
# Total GULP energy -178481.351165 kJ/mol
# GULP energy per Si atom -5577.542224 kJ/mol
# Density = 1.998220 g / cm^3
# Si number density = 20.027784 Si / 1000 Ang^3
#
#
#
# Elastic Constant Matrix: (Units=GPa)
#
#
# Indices 1 2 3 4 5 6 
#
# 1 130.0179 29.6674 43.9492 0.0000 0.0000 0.0000
# 2 29.6674 55.2010 24.3493 0.0000 0.0000 0.0000
# 3 43.9492 24.3493 114.9806 0.0000 0.0000 0.0000
# 4 0.0000 0.0000 0.0000 78.8231 0.0000 0.0000
# 5 0.0000 0.0000 0.0000 0.0000 67.2624 0.0000
# 6 0.0000 0.0000 0.0000 0.0000 0.0000 46.9850
#
#
#
# Elastic Compliance Matrix: (Units=1/GPa)
#
#
# Indices 1 2 3 4 5 6 
#
# 1 0.009530 -0.003877 -0.002821 0.000000 0.000000 0.000000
# 2 -0.003877 0.021560 -0.003084 0.000000 0.000000 0.000000
# 3 -0.002821 -0.003084 0.010429 0.000000 0.000000 0.000000
# 4 0.000000 0.000000 0.000000 0.012687 0.000000 0.000000
# 5 0.000000 0.000000 0.000000 0.000000 0.014867 0.000000
# 6 0.000000 0.000000 0.000000 0.000000 0.000000 0.021283
#
#
# Mechanical properties :
#
#
# Convention : Reuss Voigt Hill
#
# Bulk Modulus (GPa) = 45.55125 55.12568 50.33847
# Shear Modulus (GPa) = 42.64853 52.09633 47.37243
#
# Velocity S-wave (km/s) = 4.61962 5.10573 4.86875
# Velocity P-wave (km/s) = 7.15877 7.89572 7.53626
#
# Compressibility (1/GPa) = 0.02195329
#
# Stress axis : x y z
#
# Youngs Moduli (GPa) = 104.93565 46.38311 95.88997
#
# Poissons Ratio (x) = 0.17983 0.27055
# Poissons Ratio (y) = 0.40684 0.29570
# Poissons Ratio (z) = 0.29607 0.14303
#
# Static dielectric constant tensor:
#      x y z
#    x 1.689540 0.000000 0.000000 
#    y 0.000000 1.849500 0.000000 
#    z 0.000000 0.000000 1.686890 
# 
# From -- ./inp_files/34404.got.cif
#   From: 2010.05.17/outbox.cif.g08.bks.cpg/sg58_18_cif.got.tgz:34404.got - 2010.06.03 14:20:14.
