data_PCOD9445133
_publ_section_title
;
Structure prediction by ZEFSAII (Michael W. Deem and Ramdas Pophale) SiO2 
 PCOD9445133
Probable space group: P N N M
;
_chemical_formula_sum "Si O2"
_cell_formula_units_Z 64
_cell_length_a 15.176383
_cell_length_b 7.535287
_cell_length_c 26.606304
_cell_angle_alpha 90.000000
_cell_angle_beta 90.000000
_cell_angle_gamma 90.000000
_cell_volume 3042.654396
_symmetry_space_group_name_H-M "P N N M"
_symmetry_group_IT_number 58
_symmetry_cell_setting 'orthorhombic'
loop_
_space_group_symop_operation_xyz
x,y,z
-x,-y,z
1/2+x,1/2-y,1/2-z
1/2-x,1/2+y,1/2-z
-x,-y,-z
x,y,-z
1/2-x,1/2+y,1/2+z
1/2+x,1/2-y,1/2+z
loop_
_atom_site_type_symbol
_atom_site_label
_atom_site_fract_x
_atom_site_fract_y
_atom_site_fract_z
Si Si1 0.211020 0.502073 0.941258
Si Si2 0.996139 0.706612 0.371299
Si Si3 0.212459 0.660394 0.787354
Si Si4 0.596063 0.090516 0.645755
Si Si5 0.845539 0.321817 0.440725
Si Si6 0.707096 0.176097 0.881770
Si Si7 0.388571 0.644875 0.723739
Si Si8 0.444139 0.278403 0.230314
O O1 0.125428 0.436003 0.911168
O O2 0.286718 0.353255 0.933415
O O3 0.243522 0.689468 0.919105
O O4 0.194578 0.517437 0.000000
O O5 0.054627 0.713915 0.421498
O O6 0.047582 0.814421 0.328371
O O7 0.000000 0.500000 0.354365
O O8 0.893188 0.750055 0.374793
O O9 0.175966 0.504409 0.823234
O O10 0.239346 0.811231 0.828969
O O11 0.297553 0.652490 0.752708
O O12 0.135440 0.657970 0.745830
O O13 0.601984 0.290050 0.666910
O O14 0.500000 0.000000 0.654238
O O15 0.845136 0.368417 0.500000
O O16 0.806911 0.483027 0.406800
O O17 0.458659 0.772538 0.752221
O O18 0.418896 0.446810 0.735576
#
# Coordination Sequence:
#
# PCOD9445133 Si02
#       8
#     8   8   8   8   8   8   8   8
#     4  10  24  43  68  96 125 167 218 277 336 389
#     4  10  23  38  63  94 130 176 217 266 322 395
#     4  11  23  39  62  92 125 174 210 258 326 381
#     4  11  24  43  64  91 126 167 217 267 324 396
#     4  10  23  41  66  98 130 171 221 274 332 390
#     4  10  22  41  64  93 133 173 218 266 329 390
#     4  11  24  39  60  92 127 167 212 263 315 383
#     4  11  24  38  61  90 130 171 211 260 319 389
#
# _framework density 21.034267
#
# number of rings (size 3 to 8) (size 9 to 14) (size 15 to 20)
#    0.000    1.500    2.500    1.125    8.750    4.500 
#    0.000    1.250    0.000    0.000    0.000    6.125 
#    0.000    0.000    0.000    0.000    0.000    0.000 
#
# Total GULP energy -356759.546804 kJ/mol
# GULP energy per Si atom -5574.367919 kJ/mol
# Density = 2.098639 g / cm^3
# Si number density = 21.034267 Si / 1000 Ang^3
#
#
#
# Elastic Constant Matrix: (Units=GPa)
#
#
# Indices 1 2 3 4 5 6 
#
# 1 89.8850 25.7279 32.8253 0.0000 0.0000 0.0000
# 2 25.7279 32.4423 24.0759 0.0000 0.0000 0.0000
# 3 32.8253 24.0759 84.7573 0.0000 0.0000 0.0000
# 4 0.0000 0.0000 0.0000 32.9481 0.0000 0.0000
# 5 0.0000 0.0000 0.0000 0.0000 27.9631 0.0000
# 6 0.0000 0.0000 0.0000 0.0000 0.0000 17.3288
#
#
#
# Elastic Compliance Matrix: (Units=1/GPa)
#
#
# Indices 1 2 3 4 5 6 
#
# 1 0.015001 -0.009611 -0.003080 0.000000 0.000000 0.000000
# 2 -0.009611 0.045215 -0.009121 0.000000 0.000000 0.000000
# 3 -0.003080 -0.009121 0.015582 0.000000 0.000000 0.000000
# 4 0.000000 0.000000 0.000000 0.030351 0.000000 0.000000
# 5 0.000000 0.000000 0.000000 0.000000 0.035761 0.000000
# 6 0.000000 0.000000 0.000000 0.000000 0.000000 0.057707
#
#
# Mechanical properties :
#
#
# Convention : Reuss Voigt Hill
#
# Bulk Modulus (GPa) = 31.08096 41.37143 36.22620
# Shear Modulus (GPa) = 19.68767 23.94503 21.81635
#
# Velocity S-wave (km/s) = 3.06270 3.37765 3.22402
# Velocity P-wave (km/s) = 5.22640 5.90954 5.57844
#
# Compressibility (1/GPa) = 0.03217404
#
# Stress axis : x y z
#
# Youngs Moduli (GPa) = 66.66266 22.11662 64.17619
#
# Poissons Ratio (x) = 0.21256 0.19764
# Poissons Ratio (y) = 0.64068 0.58538
# Poissons Ratio (z) = 0.20529 0.20174
#
# Static dielectric constant tensor:
#      x y z
#    x 1.966600 0.000000 0.000000 
#    y 0.000000 1.829460 0.000000 
#    z 0.000000 0.000000 1.773590 
# 
# From -- ./inp_files/32229.got.cif
#   From: 2010.05.17/outbox.cif.g08.bks.cpg/sg58_17_cif.got.tgz:32229.got - 2010.06.03 14:20:14.
