data_PCOD9445671
_publ_section_title
;
Structure prediction by ZEFSAII (Michael W. Deem and Ramdas Pophale) SiO2 
 PCOD9445671
Probable space group: P N N M
;
_chemical_formula_sum "Si O2"
_cell_formula_units_Z 32
_cell_length_a 9.628856
_cell_length_b 11.083839
_cell_length_c 13.769157
_cell_angle_alpha 90.000000
_cell_angle_beta 90.000000
_cell_angle_gamma 90.000000
_cell_volume 1469.509008
_symmetry_space_group_name_H-M "P N N M"
_symmetry_group_IT_number 58
_symmetry_cell_setting 'orthorhombic'
loop_
_space_group_symop_operation_xyz
x,y,z
-x,-y,z
1/2+x,1/2-y,1/2-z
1/2-x,1/2+y,1/2-z
-x,-y,-z
x,y,-z
1/2-x,1/2+y,1/2+z
1/2+x,1/2-y,1/2+z
loop_
_atom_site_type_symbol
_atom_site_label
_atom_site_fract_x
_atom_site_fract_y
_atom_site_fract_z
Si Si1 0.919958 0.614318 0.298370
Si Si2 0.407375 0.618871 0.882706
Si Si3 0.867994 0.077021 0.110200
Si Si4 0.411245 0.141159 0.610422
O O1 0.950764 0.749598 0.339256
O O2 0.761415 0.581464 0.318564
O O3 0.000000 0.500000 0.345025
O O4 0.967272 0.614923 0.186478
O O5 0.500000 0.500000 0.859717
O O6 0.244213 0.604381 0.855273
O O7 0.410663 0.632339 0.000000
O O8 0.912017 0.214848 0.104513
O O9 0.826989 0.038012 0.000000
O O10 0.000000 0.000000 0.140644
O O11 0.426238 0.099467 0.500000
#
# Coordination Sequence:
#
# PCOD9445671 Si02
#       4
#     8   8   8   8
#     4  11  23  36  62 100 132 166 215 274 327 383
#     4   9  20  41  67  93 129 177 221 266 326 395
#     4   9  20  41  66  91 126 172 218 268 330 397
#     4   9  20  39  62  92 130 174 223 271 324 389
#
# _framework density 21.775980000000001
#
# number of rings (size 3 to 8) (size 9 to 14) (size 15 to 20)
#    0.000    2.500    0.000    2.250    0.000   11.500 
#    0.000    0.000    0.000   21.750    0.000    0.000 
#    0.000    0.000    0.000    0.000    0.000    0.000 
#
# Total GULP energy -178437.358796 kJ/mol
# GULP energy per Si atom -5576.167462 kJ/mol
# Density = 2.172642 g / cm^3
# Si number density = 21.775980 Si / 1000 Ang^3
#
#
#
# Elastic Constant Matrix: (Units=GPa)
#
#
# Indices 1 2 3 4 5 6 
#
# 1 144.4354 89.5336 53.6006 0.0000 0.0000 0.0000
# 2 89.5336 168.1214 31.3179 0.0000 0.0000 0.0000
# 3 53.6006 31.3179 117.3884 0.0000 0.0000 0.0000
# 4 0.0000 0.0000 0.0000 54.8455 0.0000 0.0000
# 5 0.0000 0.0000 0.0000 0.0000 29.1498 0.0000
# 6 0.0000 0.0000 0.0000 0.0000 0.0000 54.4181
#
#
#
# Elastic Compliance Matrix: (Units=1/GPa)
#
#
# Indices 1 2 3 4 5 6 
#
# 1 0.011830 -0.005571 -0.003915 0.000000 0.000000 0.000000
# 2 -0.005571 0.008882 0.000174 0.000000 0.000000 0.000000
# 3 -0.003915 0.000174 0.010260 0.000000 0.000000 0.000000
# 4 0.000000 0.000000 0.000000 0.018233 0.000000 0.000000
# 5 0.000000 0.000000 0.000000 0.000000 0.034306 0.000000
# 6 0.000000 0.000000 0.000000 0.000000 0.000000 0.018376
#
#
# Mechanical properties :
#
#
# Convention : Reuss Voigt Hill
#
# Bulk Modulus (GPa) = 80.98487 86.53883 83.76185
# Shear Modulus (GPa) = 40.11970 44.71554 42.41762
#
# Velocity S-wave (km/s) = 4.29696 4.53640 4.41830
# Velocity P-wave (km/s) = 7.86697 8.20154 8.03600
#
# Compressibility (1/GPa) = 0.01234799
#
# Stress axis : x y z
#
# Youngs Moduli (GPa) = 84.53346 112.58326 97.46461
#
# Poissons Ratio (x) = 0.62715 0.38161
# Poissons Ratio (y) = 0.47090 -0.01695
# Poissons Ratio (z) = 0.33098 -0.01957
#
# Static dielectric constant tensor:
#      x y z
#    x 2.231120 0.000000 0.000000 
#    y 0.000000 1.841550 0.000000 
#    z 0.000000 0.000000 1.833560 
# 
# From -- ./inp_files/19087.got.cif
#   From: 2010.05.17/outbox.cif.g08.bks.cpg/sg58_10_cif.got.tgz:19087.got - 2010.06.03 14:20:14.
