data_PCOD9445277
_publ_section_title
;
Structure prediction by ZEFSAII (Michael W. Deem and Ramdas Pophale) SiO2 
 PCOD9445277
Probable space group: P N N M
;
_chemical_formula_sum "Si O2"
_cell_formula_units_Z 56
_cell_length_a 21.925487
_cell_length_b 14.948831
_cell_length_c 8.851617
_cell_angle_alpha 90.000000
_cell_angle_beta 90.000000
_cell_angle_gamma 90.000000
_cell_volume 2901.209526
_symmetry_space_group_name_H-M "P N N M"
_symmetry_group_IT_number 58
_symmetry_cell_setting 'orthorhombic'
loop_
_space_group_symop_operation_xyz
x,y,z
-x,-y,z
1/2+x,1/2-y,1/2-z
1/2-x,1/2+y,1/2-z
-x,-y,-z
x,y,-z
1/2-x,1/2+y,1/2+z
1/2+x,1/2-y,1/2+z
loop_
_atom_site_type_symbol
_atom_site_label
_atom_site_fract_x
_atom_site_fract_y
_atom_site_fract_z
Si Si1 0.717866 0.189745 0.319526
Si Si2 0.750173 0.890502 0.180259
Si Si3 0.598460 0.098547 0.181128
Si Si4 0.383183 0.091551 0.679437
Si Si5 0.677416 0.571601 0.680494
Si Si6 0.018329 0.717358 0.681086
Si Si7 0.456644 0.418511 0.818154
O O1 0.714197 0.178131 0.500000
O O2 0.719125 0.295351 0.284809
O O3 0.661077 0.140546 0.242384
O O4 0.779813 0.145308 0.258662
O O5 0.686286 0.898945 0.265692
O O6 0.792853 0.974857 0.215366
O O7 0.737502 0.892342 0.000000
O O8 0.542056 0.162264 0.223162
O O9 0.591088 0.000091 0.249570
O O10 0.601413 0.091779 0.000000
O O11 0.385572 0.086743 0.500000
O O12 0.423671 0.173219 0.739291
O O13 0.678688 0.584213 0.500000
O O14 0.609117 0.576021 0.741474
O O15 0.026261 0.708896 0.500000
O O16 0.014131 0.822118 0.717337
O O17 0.500000 0.500000 0.771162
O O18 0.448772 0.423511 0.000000
#
# Coordination Sequence:
#
# PCOD9445277 Si02
#       7
#     8   8   8   8   8   8   8
#     4  11  23  40  63  93 125 163 207 258 312 367
#     4  10  23  41  62  88 126 166 201 248 313 372
#     4  11  23  40  63  91 124 163 206 255 313 377
#     4  12  24  39  63  95 125 161 209 257 309 369
#     4  11  23  41  64  92 125 166 206 252 310 370
#     4  10  23  42  63  88 123 168 207 251 315 373
#     4  10  23  43  66  92 125 165 211 262 310 365
#
# _framework density 19.302294
#
# number of rings (size 3 to 8) (size 9 to 14) (size 15 to 20)
#    0.000    1.286    1.429    3.857    2.000    8.857 
#    0.000    0.000    0.000    0.000    0.000    0.000 
#    0.000    0.000    0.000    0.000    0.000    0.000 
#
# Total GULP energy -313275.341276 kJ/mol
# GULP energy per Si atom -5594.202523 kJ/mol
# Density = 1.925836 g / cm^3
# Si number density = 19.302294 Si / 1000 Ang^3
#
#
#
# Elastic Constant Matrix: (Units=GPa)
#
#
# Indices 1 2 3 4 5 6 
#
# 1 42.4737 -4.1013 4.9831 0.0000 0.0000 0.0000
# 2 -4.1013 100.7507 25.8706 0.0000 0.0000 0.0000
# 3 4.9831 25.8706 24.0174 0.0000 0.0000 0.0000
# 4 0.0000 0.0000 0.0000 24.0977 0.0000 0.0000
# 5 0.0000 0.0000 0.0000 0.0000 31.1851 0.0000
# 6 0.0000 0.0000 0.0000 0.0000 0.0000 27.4122
#
#
#
# Elastic Compliance Matrix: (Units=1/GPa)
#
#
# Indices 1 2 3 4 5 6 
#
# 1 0.024870 0.003231 -0.008640 0.000000 0.000000 0.000000
# 2 0.003231 0.014140 -0.015902 0.000000 0.000000 0.000000
# 3 -0.008640 -0.015902 0.060558 0.000000 0.000000 0.000000
# 4 0.000000 0.000000 0.000000 0.041498 0.000000 0.000000
# 5 0.000000 0.000000 0.000000 0.000000 0.032067 0.000000
# 6 0.000000 0.000000 0.000000 0.000000 0.000000 0.036480
#
#
# Mechanical properties :
#
#
# Convention : Reuss Voigt Hill
#
# Bulk Modulus (GPa) = 17.56052 24.52741 21.04397
# Shear Modulus (GPa) = 18.43548 25.90495 22.17021
#
# Velocity S-wave (km/s) = 3.09381 3.66740 3.39275
# Velocity P-wave (km/s) = 4.67756 5.53784 5.12578
#
# Compressibility (1/GPa) = 0.05694591
#
# Stress axis : x y z
#
# Youngs Moduli (GPa) = 40.20968 70.72019 16.51312
#
# Poissons Ratio (x) = -0.22850 0.14268
# Poissons Ratio (y) = -0.12992 0.26259
# Poissons Ratio (z) = 0.34742 1.12457
#
# Static dielectric constant tensor:
#      x y z
#    x 1.630060 0.000000 0.000000 
#    y 0.000000 1.670500 0.000000 
#    z 0.000000 0.000000 1.646940 
# 
# From -- ./inp_files/8972.got.cif
#   From: 2010.05.17/outbox.cif.g08.bks.cpg/sg58_5_cif.got.tgz:8972.got - 2010.06.03 14:20:14.
