data_PCOD9445668
_publ_section_title
;
Structure prediction by ZEFSAII (Michael W. Deem and Ramdas Pophale) SiO2 
 PCOD9445668
Probable space group: P N N M
;
_chemical_formula_sum "Si O2"
_cell_formula_units_Z 32
_cell_length_a 12.353264
_cell_length_b 9.675950
_cell_length_c 12.943012
_cell_angle_alpha 90.000000
_cell_angle_beta 90.000000
_cell_angle_gamma 90.000000
_cell_volume 1547.072592
_symmetry_space_group_name_H-M "P N N M"
_symmetry_group_IT_number 58
_symmetry_cell_setting 'orthorhombic'
loop_
_space_group_symop_operation_xyz
x,y,z
-x,-y,z
1/2+x,1/2-y,1/2-z
1/2-x,1/2+y,1/2-z
-x,-y,-z
x,y,-z
1/2-x,1/2+y,1/2+z
1/2+x,1/2-y,1/2+z
loop_
_atom_site_type_symbol
_atom_site_label
_atom_site_fract_x
_atom_site_fract_y
_atom_site_fract_z
Si Si1 0.615041 0.371476 0.000000
Si Si2 0.483126 0.761001 0.674915
Si Si3 0.500000 0.500000 0.184387
Si Si4 0.092693 0.670270 0.500000
Si Si5 0.176276 0.296513 0.000000
Si Si6 0.500000 0.000000 0.825395
Si Si7 0.142650 0.628705 0.000000
O O1 0.595437 0.460269 0.895871
O O2 0.518293 0.259481 0.000000
O O3 0.735526 0.315042 0.000000
O O4 0.519603 0.630787 0.742474
O O5 0.382420 0.731800 0.599937
O O6 0.576855 0.818957 0.599765
O O7 0.451232 0.881980 0.753544
O O8 0.197827 0.763848 0.500000
O O9 0.086265 0.573431 0.600235
O O10 0.150754 0.461248 0.000000
#
# Coordination Sequence:
#
# PCOD9445668 Si02
#       7
#     4   8   4   4   4   4   4
#     4  11  24  46  64  96 143 174 213 283 340 391
#     4  11  23  47  70 101 136 179 229 276 338 405
#     4  11  24  45  66 100 140 177 230 277 332 404
#     4  11  25  45  67 102 138 174 232 278 334 408
#     4  11  23  45  71 100 136 178 223 285 336 403
#     4  11  22  47  68  98 138 179 230 275 334 412
#     4  11  24  43  72  98 140 178 221 279 343 402
#
# _framework density 20.684225999999999
#
# number of rings (size 3 to 8) (size 9 to 14) (size 15 to 20)
#    0.000    1.000    5.000    2.250    0.000    4.000 
#   18.000    0.000    0.000    0.000    0.000    0.000 
#    0.000    0.000    0.000    0.000    0.000    0.000 
#
# Total GULP energy -178882.932718 kJ/mol
# GULP energy per Si atom -5590.091647 kJ/mol
# Density = 2.063715 g / cm^3
# Si number density = 20.684226 Si / 1000 Ang^3
#
#
#
# Elastic Constant Matrix: (Units=GPa)
#
#
# Indices 1 2 3 4 5 6 
#
# 1 138.9872 37.6260 48.8182 0.0000 0.0000 0.0000
# 2 37.6260 124.5355 71.0101 0.0000 0.0000 0.0000
# 3 48.8182 71.0101 160.6823 0.0000 0.0000 0.0000
# 4 0.0000 0.0000 0.0000 29.9747 0.0000 0.0000
# 5 0.0000 0.0000 0.0000 0.0000 10.3525 0.0000
# 6 0.0000 0.0000 0.0000 0.0000 0.0000 20.5791
#
#
#
# Elastic Compliance Matrix: (Units=1/GPa)
#
#
# Indices 1 2 3 4 5 6 
#
# 1 0.008238 -0.001420 -0.001876 0.000000 0.000000 0.000000
# 2 -0.001420 0.010980 -0.004421 0.000000 0.000000 0.000000
# 3 -0.001876 -0.004421 0.008747 0.000000 0.000000 0.000000
# 4 0.000000 0.000000 0.000000 0.033362 0.000000 0.000000
# 5 0.000000 0.000000 0.000000 0.000000 0.096595 0.000000
# 6 0.000000 0.000000 0.000000 0.000000 0.000000 0.048593
#
#
# Mechanical properties :
#
#
# Convention : Reuss Voigt Hill
#
# Bulk Modulus (GPa) = 79.79179 82.12373 80.95776
# Shear Modulus (GPa) = 22.11184 29.96464 26.03824
#
# Velocity S-wave (km/s) = 3.27313 3.81027 3.55187
# Velocity P-wave (km/s) = 7.27629 7.69073 7.48638
#
# Compressibility (1/GPa) = 0.01253262
#
# Stress axis : x y z
#
# Youngs Moduli (GPa) = 121.38942 91.07878 114.32508
#
# Poissons Ratio (x) = 0.12929 0.21442
# Poissons Ratio (y) = 0.17231 0.50542
# Poissons Ratio (z) = 0.22767 0.40265
#
# Static dielectric constant tensor:
#      x y z
#    x 1.715410 0.000000 0.000000 
#    y 0.000000 1.773600 0.000000 
#    z 0.000000 0.000000 1.741810 
# 
# From -- ./inp_files/13839.got.cif
#   From: 2010.05.17/outbox.cif.g08.bks.cpg/sg58_7_cif.got.tgz:13839.got - 2010.06.03 14:20:14.
