data_PCOD9445323
_publ_section_title
;
Structure prediction by ZEFSAII (Michael W. Deem and Ramdas Pophale) SiO2 
 PCOD9445323
Probable space group: P N N M
;
_chemical_formula_sum "Si O2"
_cell_formula_units_Z 32
_cell_length_a 9.151381
_cell_length_b 14.486103
_cell_length_c 9.184819
_cell_angle_alpha 90.000000
_cell_angle_beta 90.000000
_cell_angle_gamma 90.000000
_cell_volume 1217.611687
_symmetry_space_group_name_H-M "P N N M"
_symmetry_group_IT_number 58
_symmetry_cell_setting 'orthorhombic'
loop_
_space_group_symop_operation_xyz
x,y,z
-x,-y,z
1/2+x,1/2-y,1/2-z
1/2-x,1/2+y,1/2-z
-x,-y,-z
x,y,-z
1/2-x,1/2+y,1/2+z
1/2+x,1/2-y,1/2+z
loop_
_atom_site_type_symbol
_atom_site_label
_atom_site_fract_x
_atom_site_fract_y
_atom_site_fract_z
Si Si1 0.557162 0.646798 0.000000
Si Si2 0.259915 0.529032 0.000000
Si Si3 0.964583 0.804686 0.831331
Si Si4 0.198407 0.557009 0.307110
Si Si5 0.613038 0.143624 0.846762
O O1 0.551988 0.685689 0.172628
O O2 0.409134 0.586904 0.000000
O O3 0.691597 0.576368 0.000000
O O4 0.170868 0.556792 0.862444
O O5 0.845726 0.887254 0.837213
O O6 0.880382 0.710243 0.790459
O O7 0.024692 0.799131 0.000000
O O8 0.209999 0.448956 0.344803
O O9 0.051717 0.604653 0.360164
O O10 0.643007 0.195310 0.000000
#
# Coordination Sequence:
#
# PCOD9445323 Si02
#       5
#     4   4   8   8   8
#     4   9  20  44  62  97 131 173 214 277 329 389
#     4   9  20  39  68  90 131 170 222 274 329 390
#     4  11  23  42  67  99 136 178 227 276 338 400
#     4  10  23  42  67  94 132 180 222 277 339 403
#     4  11  23  42  66  97 135 177 228 279 337 397
#
# _framework density 26.280957999999998
#
# number of rings (size 3 to 8) (size 9 to 14) (size 15 to 20)
#    0.000    1.750    1.250    3.000    3.500    3.000 
#    0.000   15.000    0.000    0.000    0.000    0.000 
#    0.000    0.000    0.000    0.000    0.000    0.000 
#
# Total GULP energy -178272.667424 kJ/mol
# GULP energy per Si atom -5571.020857 kJ/mol
# Density = 2.622114 g / cm^3
# Si number density = 26.280958 Si / 1000 Ang^3
#
#
#
# Elastic Constant Matrix: (Units=GPa)
#
#
# Indices 1 2 3 4 5 6 
#
# 1 80.9266 25.5573 34.3087 0.0000 0.0000 0.0000
# 2 25.5573 106.7621 56.3116 0.0000 0.0000 0.0000
# 3 34.3087 56.3116 284.2614 0.0000 0.0000 0.0000
# 4 0.0000 0.0000 0.0000 9098.8099 0.0000 0.0000
# 5 0.0000 0.0000 0.0000 0.0000 25.2939 0.0000
# 6 0.0000 0.0000 0.0000 0.0000 0.0000 21.2102
#
#
#
# Elastic Compliance Matrix: (Units=1/GPa)
#
#
# Indices 1 2 3 4 5 6 
#
# 1 0.013679 -0.002684 -0.001119 0.000000 0.000000 0.000000
# 2 -0.002684 0.010986 -0.001852 0.000000 0.000000 0.000000
# 3 -0.001119 -0.001852 0.004020 0.000000 0.000000 0.000000
# 4 0.000000 0.000000 0.000000 0.000110 0.000000 0.000000
# 5 0.000000 0.000000 0.000000 0.000000 0.039535 0.000000
# 6 0.000000 0.000000 0.000000 0.000000 0.000000 0.047147
#
#
# Mechanical properties :
#
#
# Convention : Reuss Voigt Hill
#
# Bulk Modulus (GPa) = 57.55884 78.25614 67.90749
# Shear Modulus (GPa) = 37.71301 1852.78098 945.24699
#
# Velocity S-wave (km/s) = 3.79224 26.58045 18.98554
# Velocity P-wave (km/s) = 6.41277 31.17481 22.50547
#
# Compressibility (1/GPa) = 0.01737353
#
# Stress axis : x y z
#
# Youngs Moduli (GPa) = 73.10428 91.02306 248.76077
#
# Poissons Ratio (x) = 0.24433 0.27842
# Poissons Ratio (y) = 0.19623 0.46080
# Poissons Ratio (z) = 0.08182 0.16861
#
# Static dielectric constant tensor:
#      x y z
#    x 2.035160 0.000000 0.000000 
#    y 0.000000 2.091300 0.000000 
#    z 0.000000 0.000000 2.188450 
# 
# From -- ./inp_files/3604.got.cif
#   From: 2010.05.17/outbox.cif.g08.bks.cpg/sg58_2_cif.got.tgz:3604.got - 2010.06.03 14:20:14.
