data_PCOD9445011
_publ_section_title
;
Structure prediction by ZEFSAII (Michael W. Deem and Ramdas Pophale) SiO2 
 PCOD9445011
Probable space group: P N N M
;
_chemical_formula_sum "Si O2"
_cell_formula_units_Z 28
_cell_length_a 15.303402
_cell_length_b 5.350614
_cell_length_c 15.591702
_cell_angle_alpha 90.000000
_cell_angle_beta 90.000000
_cell_angle_gamma 90.000000
_cell_volume 1276.689051
_symmetry_space_group_name_H-M "P N N M"
_symmetry_group_IT_number 58
_symmetry_cell_setting 'orthorhombic'
loop_
_space_group_symop_operation_xyz
x,y,z
-x,-y,z
1/2+x,1/2-y,1/2-z
1/2-x,1/2+y,1/2-z
-x,-y,-z
x,y,-z
1/2-x,1/2+y,1/2+z
1/2+x,1/2-y,1/2+z
loop_
_atom_site_type_symbol
_atom_site_label
_atom_site_fract_x
_atom_site_fract_y
_atom_site_fract_z
Si Si1 0.470413 0.245057 0.861368
Si Si2 0.000000 0.500000 0.200520
Si Si3 0.166567 0.701753 0.101647
Si Si4 0.274435 0.193665 0.102805
O O1 0.500000 0.500000 0.901826
O O2 0.367069 0.217736 0.850184
O O3 0.500000 0.000000 0.910397
O O4 0.522662 0.214912 0.770725
O O5 0.923851 0.378201 0.145382
O O6 0.226775 0.458108 0.113727
O O7 0.215498 0.956205 0.130988
O O8 0.150798 0.735450 0.000000
O O9 0.291237 0.161621 0.000000
#
# Coordination Sequence:
#
# PCOD9445011 Si02
#       4
#     8   4   8   8
#     4  10  23  39  58  91 118 159 199 243 309 359
#     4  10  25  38  61  86 128 154 204 242 307 362
#     4  10  22  39  63  88 117 158 202 250 300 354
#     4  10  22  40  62  89 118 156 203 250 300 355
#
# _framework density 21.931728
#
# number of rings (size 3 to 8) (size 9 to 14) (size 15 to 20)
#    0.857    1.143    0.000    2.143    4.000    3.429 
#    0.000    4.286    0.000    0.000    0.000    0.000 
#    0.000    0.000    0.000    0.000    0.000    0.000 
#
# Total GULP energy -156038.031838 kJ/mol
# GULP energy per Si atom -5572.786851 kJ/mol
# Density = 2.188181 g / cm^3
# Si number density = 21.931728 Si / 1000 Ang^3
#
#
#
# Elastic Constant Matrix: (Units=GPa)
#
#
# Indices 1 2 3 4 5 6 
#
# 1 77.7422 33.6128 24.7465 0.0000 0.0000 0.0000
# 2 33.6128 164.3596 27.2807 0.0000 0.0000 0.0000
# 3 24.7465 27.2807 41.8258 0.0000 0.0000 0.0000
# 4 0.0000 0.0000 0.0000 -165.7300 0.0000 0.0000
# 5 0.0000 0.0000 0.0000 0.0000 46.1421 0.0000
# 6 0.0000 0.0000 0.0000 0.0000 0.0000 32.6904
#
#
#
# Elastic Compliance Matrix: (Units=1/GPa)
#
#
# Indices 1 2 3 4 5 6 
#
# 1 0.016389 -0.001954 -0.008422 0.000000 0.000000 0.000000
# 2 -0.001954 0.007056 -0.003446 0.000000 0.000000 0.000000
# 3 -0.008422 -0.003446 0.031139 0.000000 0.000000 0.000000
# 4 0.000000 0.000000 0.000000 -0.006034 0.000000 0.000000
# 5 0.000000 0.000000 0.000000 0.000000 0.021672 0.000000
# 6 0.000000 0.000000 0.000000 0.000000 0.000000 0.030590
#
#
# Mechanical properties :
#
#
# Convention : Reuss Voigt Hill
#
# Bulk Modulus (GPa) = 37.11974 50.57860 43.84917
# Shear Modulus (GPa) = 36.38054 -4.16032 16.11011
#
# Velocity S-wave (km/s) = 4.07727 -1.37879 2.71321
# Velocity P-wave (km/s) = 6.25519 4.53621 5.46372
#
# Compressibility (1/GPa) = 0.02693984
#
# Stress axis : x y z
#
# Youngs Moduli (GPa) = 61.01796 141.72801 32.11357
#
# Poissons Ratio (x) = 0.27689 0.27047
# Poissons Ratio (y) = 0.11921 0.11067
# Poissons Ratio (z) = 0.51390 0.48842
#
# Static dielectric constant tensor:
#      x y z
#    x 1.817330 0.000000 0.000000 
#    y 0.000000 1.846350 0.000000 
#    z 0.000000 0.000000 1.822570 
# 
# From -- ./inp_files/24023.got.cif
#   From: 2010.05.17/outbox.cif.g08.bks.cpg/sg58_13_cif.got.tgz:24023.got - 2010.06.03 14:20:14.
