data_PCOD9445469
_publ_section_title
;
Structure prediction by ZEFSAII (Michael W. Deem and Ramdas Pophale) SiO2 
 PCOD9445469
Probable space group: P N N M
;
_chemical_formula_sum "Si O2"
_cell_formula_units_Z 34
_cell_length_a 5.515178
_cell_length_b 13.149370
_cell_length_c 20.724330
_cell_angle_alpha 90.000000
_cell_angle_beta 90.000000
_cell_angle_gamma 90.000000
_cell_volume 1502.951543
_symmetry_space_group_name_H-M "P N N M"
_symmetry_group_IT_number 58
_symmetry_cell_setting 'orthorhombic'
loop_
_space_group_symop_operation_xyz
x,y,z
-x,-y,z
1/2+x,1/2-y,1/2-z
1/2-x,1/2+y,1/2-z
-x,-y,-z
x,y,-z
1/2-x,1/2+y,1/2+z
1/2+x,1/2-y,1/2+z
loop_
_atom_site_type_symbol
_atom_site_label
_atom_site_fract_x
_atom_site_fract_y
_atom_site_fract_z
Si Si1 0.500000 0.000000 0.500000
Si Si2 0.989767 0.613184 0.771081
Si Si3 0.857632 0.752625 0.653407
Si Si4 0.179263 0.905140 0.394786
Si Si5 0.252037 0.438739 0.576105
O O1 0.603162 0.076958 0.443446
O O2 0.972329 0.695763 0.715001
O O3 0.767571 0.600934 0.820940
O O4 0.000000 0.500000 0.742687
O O5 0.203544 0.654089 0.817352
O O6 0.717758 0.663136 0.617780
O O7 0.036314 0.800061 0.600222
O O8 0.000000 0.000000 0.407676
O O9 0.500000 0.500000 0.587381
O O10 0.237614 0.415270 0.500000
O O11 0.000000 0.500000 0.591536
#
# Coordination Sequence:
#
# PCOD9445469 Si02
#       5
#     2   8   8   8   8
#     4  12  26  48  76 106 156 202 264 326 396 470
#     4  12  25  45  69 108 149 192 257 316 386 473
#     4  12  26  43  76 106 147 206 252 318 398 474
#     4  12  25  47  71 106 151 199 254 321 391 474
#     4  10  25  50  75 109 150 195 259 325 384 463
#
# _framework density 22.622152
#
# number of rings (size 3 to 8) (size 9 to 14) (size 15 to 20)
#    0.000    0.471    5.882    1.059    4.941    2.824 
#    2.118    0.000    0.000    0.000    0.000    0.000 
#    0.000    0.000    0.000    0.000    0.000    0.000 
#
# Total GULP energy -189351.289194 kJ/mol
# GULP energy per Si atom -5569.155565 kJ/mol
# Density = 2.257066 g / cm^3
# Si number density = 22.622152 Si / 1000 Ang^3
#
#
#
# Elastic Constant Matrix: (Units=GPa)
#
#
# Indices 1 2 3 4 5 6 
#
# 1 64.9580 22.3230 26.7117 0.0000 0.0000 0.0000
# 2 22.3230 103.1334 51.1252 0.0000 0.0000 0.0000
# 3 26.7117 51.1252 91.3662 0.0000 0.0000 0.0000
# 4 0.0000 0.0000 0.0000 19.1834 0.0000 0.0000
# 5 0.0000 0.0000 0.0000 0.0000 -47.0192 0.0000
# 6 0.0000 0.0000 0.0000 0.0000 0.0000 17.7467
#
#
#
# Elastic Compliance Matrix: (Units=1/GPa)
#
#
# Indices 1 2 3 4 5 6 
#
# 1 0.017725 -0.001754 -0.004200 0.000000 0.000000 0.000000
# 2 -0.001754 0.013592 -0.007093 0.000000 0.000000 0.000000
# 3 -0.004200 -0.007093 0.016142 0.000000 0.000000 0.000000
# 4 0.000000 0.000000 0.000000 0.052128 0.000000 0.000000
# 5 0.000000 0.000000 0.000000 0.000000 -0.021268 0.000000
# 6 0.000000 0.000000 0.000000 0.000000 0.000000 0.056348
#
#
# Mechanical properties :
#
#
# Convention : Reuss Voigt Hill
#
# Bulk Modulus (GPa) = 46.80817 51.08638 48.94727
# Shear Modulus (GPa) = 29.78268 8.60203 19.19235
#
# Velocity S-wave (km/s) = 3.63233 1.95211 2.91587
# Velocity P-wave (km/s) = 6.19096 5.26426 5.74632
#
# Compressibility (1/GPa) = 0.02136379
#
# Stress axis : x y z
#
# Youngs Moduli (GPa) = 56.41854 73.57354 61.95119
#
# Poissons Ratio (x) = 0.12907 0.26021
# Poissons Ratio (y) = 0.09897 0.43940
# Poissons Ratio (z) = 0.23698 0.52183
#
# Static dielectric constant tensor:
#      x y z
#    x 1.996870 0.000000 0.000000 
#    y 0.000000 1.862470 0.000000 
#    z 0.000000 0.000000 1.874440 
# 
# From -- ./inp_files/30817.got.cif
#   From: 2010.05.17/outbox.cif.g08.bks.cpg/sg58_16_cif.got.tgz:30817.got - 2010.06.03 14:20:14.
