data_PCOD9445154
_publ_section_title
;
Structure prediction by ZEFSAII (Michael W. Deem and Ramdas Pophale) SiO2 
 PCOD9445154
Probable space group: P N N M
;
_chemical_formula_sum "Si O2"
_cell_formula_units_Z 48
_cell_length_a 15.749941
_cell_length_b 9.043642
_cell_length_c 15.598259
_cell_angle_alpha 90.000000
_cell_angle_beta 90.000000
_cell_angle_gamma 90.000000
_cell_volume 2221.766533
_symmetry_space_group_name_H-M "P N N M"
_symmetry_group_IT_number 58
_symmetry_cell_setting 'orthorhombic'
loop_
_space_group_symop_operation_xyz
x,y,z
-x,-y,z
1/2+x,1/2-y,1/2-z
1/2-x,1/2+y,1/2-z
-x,-y,-z
x,y,-z
1/2-x,1/2+y,1/2+z
1/2+x,1/2-y,1/2+z
loop_
_atom_site_type_symbol
_atom_site_label
_atom_site_fract_x
_atom_site_fract_y
_atom_site_fract_z
Si Si1 0.012684 0.823105 0.405140
Si Si2 0.357584 0.568762 0.407123
Si Si3 0.378468 0.231551 0.596188
Si Si4 0.959389 0.739956 0.217627
Si Si5 0.187747 0.494968 0.200867
Si Si6 0.801906 0.264516 0.650760
O O1 0.982242 0.773808 0.500000
O O2 0.111441 0.777965 0.395537
O O3 0.969933 0.758774 0.319241
O O4 0.000000 0.000000 0.401218
O O5 0.401405 0.590245 0.500000
O O6 0.339105 0.395151 0.399611
O O7 0.414800 0.619889 0.327810
O O8 0.274647 0.671166 0.405849
O O9 0.412101 0.209923 0.500000
O O10 0.452558 0.222292 0.666997
O O11 0.312587 0.103238 0.619278
O O12 0.896823 0.603972 0.200056
O O13 0.186294 0.603560 0.281393
O O14 0.265626 0.381520 0.197649
#
# Coordination Sequence:
#
# PCOD9445154 Si02
#       6
#     8   8   8   8   8   8
#     4  11  25  44  69  98 132 178 229 277 329 390
#     4  10  22  41  69 101 134 176 218 271 340 407
#     4  11  22  39  66 103 137 169 215 271 338 408
#     4  11  23  41  67  97 136 174 219 275 335 403
#     4  11  25  40  66  96 131 177 220 276 340 395
#     4  11  24  43  68  94 136 176 229 273 333 401
#
# _framework density 21.604430000000001
#
# number of rings (size 3 to 8) (size 9 to 14) (size 15 to 20)
#    0.000    1.167    1.667    4.000    4.667    6.000 
#    0.000    2.500    0.000    0.000    0.000    0.000 
#    0.000    0.000    0.000    0.000    0.000    0.000 
#
# Total GULP energy -268238.737086 kJ/mol
# GULP energy per Si atom -5588.307023 kJ/mol
# Density = 2.155526 g / cm^3
# Si number density = 21.604430 Si / 1000 Ang^3
#
#
#
# Elastic Constant Matrix: (Units=GPa)
#
#
# Indices 1 2 3 4 5 6 
#
# 1 33.4583 12.4111 13.7773 0.0000 0.0000 0.0000
# 2 12.4111 104.9593 33.6340 0.0000 0.0000 0.0000
# 3 13.7773 33.6340 152.6747 0.0000 0.0000 0.0000
# 4 0.0000 0.0000 0.0000 23.9589 0.0000 0.0000
# 5 0.0000 0.0000 0.0000 0.0000 19.0185 0.0000
# 6 0.0000 0.0000 0.0000 0.0000 0.0000 28.0583
#
#
#
# Elastic Compliance Matrix: (Units=1/GPa)
#
#
# Indices 1 2 3 4 5 6 
#
# 1 0.031935 -0.003069 -0.002206 0.000000 0.000000 0.000000
# 2 -0.003069 0.010546 -0.002046 0.000000 0.000000 0.000000
# 3 -0.002206 -0.002046 0.007200 0.000000 0.000000 0.000000
# 4 0.000000 0.000000 0.000000 0.041738 0.000000 0.000000
# 5 0.000000 0.000000 0.000000 0.000000 0.052580 0.000000
# 6 0.000000 0.000000 0.000000 0.000000 0.000000 0.035640
#
#
# Mechanical properties :
#
#
# Convention : Reuss Voigt Hill
#
# Bulk Modulus (GPa) = 28.54043 45.63746 37.08895
# Shear Modulus (GPa) = 24.27643 29.62515 26.95079
#
# Velocity S-wave (km/s) = 3.35577 3.70706 3.53578
# Velocity P-wave (km/s) = 5.31545 6.28435 5.82010
#
# Compressibility (1/GPa) = 0.03503801
#
# Stress axis : x y z
#
# Youngs Moduli (GPa) = 31.31386 94.82099 138.89455
#
# Poissons Ratio (x) = 0.29104 0.30634
# Poissons Ratio (y) = 0.09611 0.28422
# Poissons Ratio (z) = 0.06907 0.19404
#
# Static dielectric constant tensor:
#      x y z
#    x 1.806050 0.000000 0.000000 
#    y 0.000000 1.767610 0.000000 
#    z 0.000000 0.000000 1.823620 
# 
# From -- ./inp_files/22761.got.cif
#   From: 2010.05.17/outbox.cif.g08.bks.cpg/sg58_12_cif.got.tgz:22761.got - 2010.06.03 14:20:14.
