data_PCOD9445357
_publ_section_title
;
Structure prediction by ZEFSAII (Michael W. Deem and Ramdas Pophale) SiO2 
 PCOD9445357
Probable space group: P N N M
;
_chemical_formula_sum "Si O2"
_cell_formula_units_Z 48
_cell_length_a 18.187892
_cell_length_b 8.431981
_cell_length_c 16.308622
_cell_angle_alpha 90.000000
_cell_angle_beta 90.000000
_cell_angle_gamma 90.000000
_cell_volume 2501.089614
_symmetry_space_group_name_H-M "P N N M"
_symmetry_group_IT_number 58
_symmetry_cell_setting 'orthorhombic'
loop_
_space_group_symop_operation_xyz
x,y,z
-x,-y,z
1/2+x,1/2-y,1/2-z
1/2-x,1/2+y,1/2-z
-x,-y,-z
x,y,-z
1/2-x,1/2+y,1/2+z
1/2+x,1/2-y,1/2+z
loop_
_atom_site_type_symbol
_atom_site_label
_atom_site_fract_x
_atom_site_fract_y
_atom_site_fract_z
Si Si1 0.220043 0.515511 0.164525
Si Si2 0.941330 0.645214 0.343519
Si Si3 0.703728 0.600412 0.000000
Si Si4 0.942158 0.639885 0.838658
Si Si5 0.771562 0.929925 0.000000
Si Si6 0.555928 0.350341 0.500000
Si Si7 0.562199 0.372059 0.000000
Si Si8 0.234061 0.381739 0.337751
O O1 0.255952 0.442874 0.083982
O O2 0.137238 0.446907 0.161639
O O3 0.254725 0.457102 0.250261
O O4 0.234698 0.703299 0.160935
O O5 0.952875 0.715968 0.251890
O O6 0.947004 0.764157 0.419430
O O7 0.854694 0.601582 0.343848
O O8 0.000000 0.500000 0.352411
O O9 0.708907 0.792248 0.000000
O O10 0.634889 0.480849 0.000000
O O11 0.000000 0.500000 0.845073
O O12 0.955132 0.753231 0.915658
O O13 0.762975 0.029575 0.082637
O O14 0.856140 0.876512 0.000000
O O15 0.500000 0.500000 0.500000
O O16 0.500000 0.500000 0.000000
#
# Coordination Sequence:
#
# PCOD9445357 Si02
#       8
#     8   8   4   8   4   4   4   8
#     4  11  22  43  68  95 127 168 218 277 334 395
#     4  10  23  45  66  92 130 173 217 263 330 402
#     4  12  23  42  64  93 134 168 216 276 324 389
#     4  10  23  45  67  91 128 175 217 266 331 396
#     4  12  26  41  62  99 131 171 220 271 330 394
#     4  12  27  41  64  94 135 172 218 274 320 390
#     4  12  26  40  66  96 132 173 215 272 325 388
#     4  11  24  41  69  96 127 170 218 274 335 397
#
# _framework density 19.191635999999999
#
# number of rings (size 3 to 8) (size 9 to 14) (size 15 to 20)
#    0.000    1.000    3.333    2.500    7.000    0.667 
#    3.000    0.000    0.000    0.000    0.000    0.000 
#    0.000    0.000    0.000    0.000    0.000    0.000 
#
# Total GULP energy -267630.248268 kJ/mol
# GULP energy per Si atom -5575.630172 kJ/mol
# Density = 1.914796 g / cm^3
# Si number density = 19.191636 Si / 1000 Ang^3
#
#
#
# Elastic Constant Matrix: (Units=GPa)
#
#
# Indices 1 2 3 4 5 6 
#
# 1 61.7517 16.2125 39.0607 0.0000 0.0000 0.0000
# 2 16.2125 104.4805 71.4690 0.0000 0.0000 0.0000
# 3 39.0607 71.4690 198.1152 0.0000 0.0000 0.0000
# 4 0.0000 0.0000 0.0000 -25.3375 0.0000 0.0000
# 5 0.0000 0.0000 0.0000 0.0000 40.6111 0.0000
# 6 0.0000 0.0000 0.0000 0.0000 0.0000 33.5215
#
#
#
# Elastic Compliance Matrix: (Units=1/GPa)
#
#
# Indices 1 2 3 4 5 6 
#
# 1 0.018521 -0.000499 -0.003471 0.000000 0.000000 0.000000
# 2 -0.000499 0.012720 -0.004490 0.000000 0.000000 0.000000
# 3 -0.003471 -0.004490 0.007352 0.000000 0.000000 0.000000
# 4 0.000000 0.000000 0.000000 -0.039467 0.000000 0.000000
# 5 0.000000 0.000000 0.000000 0.000000 0.024624 0.000000
# 6 0.000000 0.000000 0.000000 0.000000 0.000000 0.029832
#
#
# Mechanical properties :
#
#
# Convention : Reuss Voigt Hill
#
# Bulk Modulus (GPa) = 46.14516 68.64799 57.39657
# Shear Modulus (GPa) = 64.32781 25.59936 44.96359
#
# Velocity S-wave (km/s) = 5.79581 3.65620 4.84558
# Velocity P-wave (km/s) = 8.29971 7.32606 7.82804
#
# Compressibility (1/GPa) = 0.02167074
#
# Stress axis : x y z
#
# Youngs Moduli (GPa) = 53.99324 78.61515 136.01989
#
# Poissons Ratio (x) = 0.03925 0.47219
# Poissons Ratio (y) = 0.02696 0.61077
# Poissons Ratio (z) = 0.18744 0.35301
#
# Static dielectric constant tensor:
#      x y z
#    x 1.606740 0.000000 0.000000 
#    y 0.000000 1.674730 0.000000 
#    z 0.000000 0.000000 2.483860 
# 
# From -- ./inp_files/19926.got.cif
#   From: 2010.05.17/outbox.cif.g08.bks.cpg/sg58_10_cif.got.tgz:19926.got - 2010.06.03 14:20:14.
