data_PCOD9445407
_publ_section_title
;
Structure prediction by ZEFSAII (Michael W. Deem and Ramdas Pophale) SiO2 
 PCOD9445407
Probable space group: P N N M
;
_chemical_formula_sum "Si O2"
_cell_formula_units_Z 32
_cell_length_a 6.094462
_cell_length_b 10.911431
_cell_length_c 22.807408
_cell_angle_alpha 90.000000
_cell_angle_beta 90.000000
_cell_angle_gamma 90.000000
_cell_volume 1516.676703
_symmetry_space_group_name_H-M "P N N M"
_symmetry_group_IT_number 58
_symmetry_cell_setting 'orthorhombic'
loop_
_space_group_symop_operation_xyz
x,y,z
-x,-y,z
1/2+x,1/2-y,1/2-z
1/2-x,1/2+y,1/2-z
-x,-y,-z
x,y,-z
1/2-x,1/2+y,1/2+z
1/2+x,1/2-y,1/2+z
loop_
_atom_site_type_symbol
_atom_site_label
_atom_site_fract_x
_atom_site_fract_y
_atom_site_fract_z
Si Si1 0.861393 0.165365 0.672143
Si Si2 0.249889 0.433286 0.500000
Si Si3 0.500000 0.000000 0.381129
Si Si4 0.751146 0.769842 0.399914
Si Si5 0.484903 0.638927 0.696903
O O1 0.739516 0.294925 0.679959
O O2 0.012933 0.175695 0.615369
O O3 0.979090 0.142193 0.733687
O O4 0.687458 0.058049 0.660039
O O5 0.500000 0.500000 0.500000
O O6 0.249694 0.341883 0.444462
O O7 0.000000 0.500000 0.500000
O O8 0.403605 0.115520 0.416333
O O9 0.665475 0.717391 0.337707
O O10 0.500000 0.500000 0.676461
#
# Coordination Sequence:
#
# PCOD9445407 Si02
#       5
#     8   4   4   8   8
#     4  11  23  41  64 110 141 190 232 313 364 463
#     4  12  32  55  79 111 151 198 266 315 360 450
#     4  10  24  43  72 102 146 177 256 294 386 458
#     4  11  25  46  72 102 146 192 241 309 374 433
#     4  11  23  37  66 100 146 187 243 287 383 444
#
# _framework density 21.098763000000002
#
# number of rings (size 3 to 8) (size 9 to 14) (size 15 to 20)
#    0.000    1.000    2.500    3.000   14.000    0.500 
#    0.000    2.500    0.000    0.000    0.000    0.000 
#    0.000    0.000    0.000    0.000    0.000    0.000 
#
# Total GULP energy -178535.690425 kJ/mol
# GULP energy per Si atom -5579.240326 kJ/mol
# Density = 2.105074 g / cm^3
# Si number density = 21.098763 Si / 1000 Ang^3
#
#
#
# Elastic Constant Matrix: (Units=GPa)
#
#
# Indices 1 2 3 4 5 6 
#
# 1 109.3875 60.1187 38.3995 0.0000 0.0000 0.0000
# 2 60.1187 158.3577 28.1607 0.0000 0.0000 0.0000
# 3 38.3995 28.1607 79.8657 0.0000 0.0000 0.0000
# 4 0.0000 0.0000 0.0000 40.6898 0.0000 0.0000
# 5 0.0000 0.0000 0.0000 0.0000 14.6480 0.0000
# 6 0.0000 0.0000 0.0000 0.0000 0.0000 49.9665
#
#
#
# Elastic Compliance Matrix: (Units=1/GPa)
#
#
# Indices 1 2 3 4 5 6 
#
# 1 0.013105 -0.004112 -0.004851 0.000000 0.000000 0.000000
# 2 -0.004112 0.008028 -0.000853 0.000000 0.000000 0.000000
# 3 -0.004851 -0.000853 0.015154 0.000000 0.000000 0.000000
# 4 0.000000 0.000000 0.000000 0.024576 0.000000 0.000000
# 5 0.000000 0.000000 0.000000 0.000000 0.068269 0.000000
# 6 0.000000 0.000000 0.000000 0.000000 0.000000 0.020013
#
#
# Mechanical properties :
#
#
# Convention : Reuss Voigt Hill
#
# Bulk Modulus (GPa) = 60.04681 66.77429 63.41055
# Shear Modulus (GPa) = 28.68136 35.78966 32.23551
#
# Velocity S-wave (km/s) = 3.69098 4.12307 3.91300
# Velocity P-wave (km/s) = 6.83273 7.37452 7.10878
#
# Compressibility (1/GPa) = 0.01665367
#
# Stress axis : x y z
#
# Youngs Moduli (GPa) = 76.30784 124.56680 65.98858
#
# Poissons Ratio (x) = 0.51228 0.32009
# Poissons Ratio (y) = 0.31382 0.05631
# Poissons Ratio (z) = 0.37015 0.10630
#
# Static dielectric constant tensor:
#      x y z
#    x 1.888830 0.000000 0.000000 
#    y 0.000000 1.752360 0.000000 
#    z 0.000000 0.000000 1.726410 
# 
# From -- ./inp_files/27944.got.cif
#   From: 2010.05.17/outbox.cif.g08.bks.cpg/sg58_14_cif.got.tgz:27944.got - 2010.06.03 14:20:14.
