data_PCOD9445382
_publ_section_title
;
Structure prediction by ZEFSAII (Michael W. Deem and Ramdas Pophale) SiO2 
 PCOD9445382
Probable space group: P N N M
;
_chemical_formula_sum "Si O2"
_cell_formula_units_Z 56
_cell_length_a 15.488273
_cell_length_b 8.416697
_cell_length_c 19.352728
_cell_angle_alpha 90.000000
_cell_angle_beta 90.000000
_cell_angle_gamma 90.000000
_cell_volume 2522.823575
_symmetry_space_group_name_H-M "P N N M"
_symmetry_group_IT_number 58
_symmetry_cell_setting 'orthorhombic'
loop_
_space_group_symop_operation_xyz
x,y,z
-x,-y,z
1/2+x,1/2-y,1/2-z
1/2-x,1/2+y,1/2-z
-x,-y,-z
x,y,-z
1/2-x,1/2+y,1/2+z
1/2+x,1/2-y,1/2+z
loop_
_atom_site_type_symbol
_atom_site_label
_atom_site_fract_x
_atom_site_fract_y
_atom_site_fract_z
Si Si1 0.578253 0.088490 0.144669
Si Si2 0.963197 0.779505 0.109132
Si Si3 0.703642 0.814227 0.798748
Si Si4 0.230285 0.204193 0.351758
Si Si5 0.864354 0.103210 0.073579
Si Si6 0.526349 0.671577 0.764383
Si Si7 0.297043 0.880895 0.417902
O O1 0.640611 0.228455 0.118105
O O2 0.521216 0.181967 0.200099
O O3 0.500000 0.000000 0.103229
O O4 0.647898 0.968996 0.179388
O O5 0.992626 0.815617 0.186639
O O6 0.899239 0.633984 0.098149
O O7 0.054547 0.777611 0.071665
O O8 0.907611 0.931840 0.084252
O O9 0.765058 0.830998 0.731096
O O10 0.627817 0.693768 0.775620
O O11 0.752258 0.746494 0.865965
O O12 0.300395 0.340765 0.367853
O O13 0.260970 0.049442 0.392891
O O14 0.817990 0.104600 0.000000
O O15 0.500000 0.500000 0.792700
O O16 0.282898 0.854377 0.500000
#
# Coordination Sequence:
#
# PCOD9445382 Si02
#       7
#     8   8   8   8   8   8   8
#     4  10  24  40  66  97 129 169 226 294 345 404
#     4  11  20  39  60  93 136 181 228 260 343 423
#     4  11  22  41  66  97 131 178 233 281 339 416
#     4  12  22  41  64  98 132 178 235 286 350 412
#     4  11  22  37  61  93 138 182 224 274 335 426
#     4  11  19  37  65 102 132 170 226 289 339 400
#     4  12  27  43  67 101 144 184 225 290 358 422
#
# _framework density 22.197351000000001
#
# number of rings (size 3 to 8) (size 9 to 14) (size 15 to 20)
#    0.000    0.857    2.857    6.429    0.000    0.571 
#    0.000    2.143    0.000   19.714    0.000    0.000 
#    0.000    0.000    0.000    0.000    0.000    0.000 
#
# Total GULP energy -312578.132752 kJ/mol
# GULP energy per Si atom -5581.752371 kJ/mol
# Density = 2.214683 g / cm^3
# Si number density = 22.197351 Si / 1000 Ang^3
#
#
#
# Elastic Constant Matrix: (Units=GPa)
#
#
# Indices 1 2 3 4 5 6 
#
# 1 125.9089 31.5875 32.1669 0.0000 0.0000 0.0000
# 2 31.5875 68.1962 9.1907 0.0000 0.0000 0.0000
# 3 32.1669 9.1907 99.5060 0.0000 0.0000 0.0000
# 4 0.0000 0.0000 0.0000 22.0988 0.0000 0.0000
# 5 0.0000 0.0000 0.0000 0.0000 22.8509 0.0000
# 6 0.0000 0.0000 0.0000 0.0000 0.0000 49.1021
#
#
#
# Elastic Compliance Matrix: (Units=1/GPa)
#
#
# Indices 1 2 3 4 5 6 
#
# 1 0.009676 -0.004111 -0.002748 0.000000 0.000000 0.000000
# 2 -0.004111 0.016595 -0.000204 0.000000 0.000000 0.000000
# 3 -0.002748 -0.000204 0.010957 0.000000 0.000000 0.000000
# 4 0.000000 0.000000 0.000000 0.045251 0.000000 0.000000
# 5 0.000000 0.000000 0.000000 0.000000 0.043762 0.000000
# 6 0.000000 0.000000 0.000000 0.000000 0.000000 0.020366
#
#
# Mechanical properties :
#
#
# Convention : Reuss Voigt Hill
#
# Bulk Modulus (GPa) = 43.28708 48.83348 46.06028
# Shear Modulus (GPa) = 29.68525 33.52143 31.60334
#
# Velocity S-wave (km/s) = 3.66092 3.89029 3.77735
# Velocity P-wave (km/s) = 6.11663 6.49820 6.31030
#
# Compressibility (1/GPa) = 0.02310158
#
# Stress axis : x y z
#
# Youngs Moduli (GPa) = 103.35101 60.25791 91.26719
#
# Poissons Ratio (x) = 0.24774 0.25081
# Poissons Ratio (y) = 0.42491 0.01860
# Poissons Ratio (z) = 0.28402 0.01228
#
# Static dielectric constant tensor:
#      x y z
#    x 1.843880 0.000000 0.000000 
#    y 0.000000 1.906070 0.000000 
#    z 0.000000 0.000000 1.825200 
# 
# From -- ./inp_files/30006.got.cif
#   From: 2010.05.17/outbox.cif.g08.bks.cpg/sg58_16_cif.got.tgz:30006.got - 2010.06.03 14:20:14.
