data_PCOD9445366
_publ_section_title
;
Structure prediction by ZEFSAII (Michael W. Deem and Ramdas Pophale) SiO2 
 PCOD9445366
Probable space group: P N N M
;
_chemical_formula_sum "Si O2"
_cell_formula_units_Z 32
_cell_length_a 19.425869
_cell_length_b 4.905528
_cell_length_c 13.364433
_cell_angle_alpha 90.000000
_cell_angle_beta 90.000000
_cell_angle_gamma 90.000000
_cell_volume 1273.552207
_symmetry_space_group_name_H-M "P N N M"
_symmetry_group_IT_number 58
_symmetry_cell_setting 'orthorhombic'
loop_
_space_group_symop_operation_xyz
x,y,z
-x,-y,z
1/2+x,1/2-y,1/2-z
1/2-x,1/2+y,1/2-z
-x,-y,-z
x,y,-z
1/2-x,1/2+y,1/2+z
1/2+x,1/2-y,1/2+z
loop_
_atom_site_type_symbol
_atom_site_label
_atom_site_fract_x
_atom_site_fract_y
_atom_site_fract_z
Si Si1 0.953076 0.763623 0.181834
Si Si2 0.719318 0.989060 0.805759
Si Si3 0.857186 0.780902 0.000000
Si Si4 0.720426 0.775037 0.500000
Si Si5 0.422961 0.875137 0.884873
O O1 0.894983 0.702608 0.101813
O O2 0.928462 0.843056 0.294112
O O3 0.000000 0.500000 0.191967
O O4 0.000000 0.000000 0.139439
O O5 0.759166 0.711136 0.779208
O O6 0.638759 0.944706 0.834843
O O7 0.745164 0.151164 0.902656
O O8 0.788455 0.596774 0.000000
O O9 0.851299 0.107811 0.000000
O O10 0.500000 0.000000 0.893099
O O11 0.405407 0.792642 0.000000
#
# Coordination Sequence:
#
# PCOD9445366 Si02
#       5
#     8   8   4   4   8
#     4  11  23  41  66 100 137 185 240 293 364 435
#     4  12  26  47  74 106 148 195 248 313 370 451
#     4  12  24  43  70  98 143 186 237 310 359 436
#     4  12  24  43  67 102 134 182 243 288 373 424
#     4  10  23  46  73 107 151 196 246 309 379 455
#
# _framework density 25.126570999999998
#
# number of rings (size 3 to 8) (size 9 to 14) (size 15 to 20)
#    0.000    0.750    1.250    6.750    0.000    6.500 
#    0.000    5.000    0.000    0.000    0.000    0.000 
#    0.000    0.000    0.000    0.000    0.000    0.000 
#
# Total GULP energy -178531.649002 kJ/mol
# GULP energy per Si atom -5579.114031 kJ/mol
# Density = 2.506938 g / cm^3
# Si number density = 25.126571 Si / 1000 Ang^3
#
#
#
# Elastic Constant Matrix: (Units=GPa)
#
#
# Indices 1 2 3 4 5 6 
#
# 1 125.1349 24.7150 57.4403 0.0000 0.0000 0.0000
# 2 24.7150 109.8728 14.8373 0.0000 0.0000 0.0000
# 3 57.4403 14.8373 178.6658 0.0000 0.0000 0.0000
# 4 0.0000 0.0000 0.0000 18.5351 0.0000 0.0000
# 5 0.0000 0.0000 0.0000 0.0000 51.3076 0.0000
# 6 0.0000 0.0000 0.0000 0.0000 0.0000 30.0241
#
#
#
# Elastic Compliance Matrix: (Units=1/GPa)
#
#
# Indices 1 2 3 4 5 6 
#
# 1 0.009708 -0.001782 -0.002973 0.000000 0.000000 0.000000
# 2 -0.001782 0.009532 -0.000219 0.000000 0.000000 0.000000
# 3 -0.002973 -0.000219 0.006571 0.000000 0.000000 0.000000
# 4 0.000000 0.000000 0.000000 0.053952 0.000000 0.000000
# 5 0.000000 0.000000 0.000000 0.000000 0.019490 0.000000
# 6 0.000000 0.000000 0.000000 0.000000 0.000000 0.033307
#
#
# Mechanical properties :
#
#
# Convention : Reuss Voigt Hill
#
# Bulk Modulus (GPa) = 63.03941 67.51763 65.27852
# Shear Modulus (GPa) = 33.83059 41.08541 37.45800
#
# Velocity S-wave (km/s) = 3.67332 4.04807 3.86524
# Velocity P-wave (km/s) = 6.56767 6.98416 6.77911
#
# Compressibility (1/GPa) = 0.01586309
#
# Stress axis : x y z
#
# Youngs Moduli (GPa) = 103.00645 104.91133 152.18295
#
# Poissons Ratio (x) = 0.18698 0.45246
# Poissons Ratio (y) = 0.18359 0.03326
# Poissons Ratio (z) = 0.30625 0.02293
#
# Static dielectric constant tensor:
#      x y z
#    x 2.081370 0.000000 0.000000 
#    y 0.000000 1.936140 0.000000 
#    z 0.000000 0.000000 2.035190 
# 
# From -- ./inp_files/22526.got.cif
#   From: 2010.05.17/outbox.cif.g08.bks.cpg/sg58_12_cif.got.tgz:22526.got - 2010.06.03 14:20:14.
