data_PCOD9445205
_publ_section_title
;
Structure prediction by ZEFSAII (Michael W. Deem and Ramdas Pophale) SiO2 
 PCOD9445205
Probable space group: P N N M
;
_chemical_formula_sum "Si O2"
_cell_formula_units_Z 38
_cell_length_a 10.852250
_cell_length_b 16.394573
_cell_length_c 9.722010
_cell_angle_alpha 90.000000
_cell_angle_beta 90.000000
_cell_angle_gamma 90.000000
_cell_volume 1729.720622
_symmetry_space_group_name_H-M "P N N M"
_symmetry_group_IT_number 58
_symmetry_cell_setting 'orthorhombic'
loop_
_space_group_symop_operation_xyz
x,y,z
-x,-y,z
1/2+x,1/2-y,1/2-z
1/2-x,1/2+y,1/2-z
-x,-y,-z
x,y,-z
1/2-x,1/2+y,1/2+z
1/2+x,1/2-y,1/2+z
loop_
_atom_site_type_symbol
_atom_site_label
_atom_site_fract_x
_atom_site_fract_y
_atom_site_fract_z
Si Si1 0.292135 0.843090 0.744293
Si Si2 0.400533 0.324473 0.000000
Si Si3 0.199440 0.656616 0.500000
Si Si4 0.718816 0.951568 0.500000
Si Si5 0.000000 0.000000 0.500000
Si Si6 0.278739 0.240426 0.500000
Si Si7 0.138246 0.515385 0.298299
Si Si8 0.064603 0.275755 0.000000
O O1 0.177994 0.837230 0.639704
O O2 0.406891 0.827354 0.639573
O O3 0.291789 0.930184 0.819435
O O4 0.281472 0.776454 0.862540
O O5 0.410073 0.224699 0.000000
O O6 0.498633 0.397120 0.000000
O O7 0.190509 0.595321 0.371563
O O8 0.328484 0.706052 0.500000
O O9 0.733711 0.855523 0.500000
O O10 0.645750 0.974028 0.364106
O O11 0.849154 0.998353 0.500000
O O12 0.426474 0.257572 0.500000
O O13 0.000000 0.500000 0.345025
#
# Coordination Sequence:
#
# PCOD9445205 Si02
#       8
#     8   4   4   4   2   4   8   4
#     4  10  22  43  64  99 138 171 236 280 343 420
#     4  10  22  46  64  93 140 182 216 292 348 402
#     4  10  24  42  65  98 139 174 223 283 359 401
#     4  12  24  42  65 104 126 182 235 278 347 410
#     4  12  24  42  72  94 136 184 230 290 334 416
#     4  12  25  42  73 104 133 186 237 278 354 422
#     4  12  23  42  68  98 134 179 231 284 345 416
#     4  10  23  47  67  96 144 184 223 304 337 412
#
# _framework density 21.968865999999998
#
# number of rings (size 3 to 8) (size 9 to 14) (size 15 to 20)
#    0.000    1.263    2.105    5.684    0.000    5.053 
#    0.000    2.105    0.000    0.000    0.000    0.000 
#    0.000    0.000    0.000    0.000    0.000    0.000 
#
# Total GULP energy -211779.263737 kJ/mol
# GULP energy per Si atom -5573.138519 kJ/mol
# Density = 2.191886 g / cm^3
# Si number density = 21.968866 Si / 1000 Ang^3
#
#
#
# Elastic Constant Matrix: (Units=GPa)
#
#
# Indices 1 2 3 4 5 6 
#
# 1 65.4980 15.6299 24.9177 0.0000 0.0000 0.0000
# 2 15.6299 135.4734 5.5272 0.0000 0.0000 0.0000
# 3 24.9177 5.5272 100.2389 0.0000 0.0000 0.0000
# 4 0.0000 0.0000 0.0000 42.2796 0.0000 0.0000
# 5 0.0000 0.0000 0.0000 0.0000 4.1117 0.0000
# 6 0.0000 0.0000 0.0000 0.0000 0.0000 39.8210
#
#
#
# Elastic Compliance Matrix: (Units=1/GPa)
#
#
# Indices 1 2 3 4 5 6 
#
# 1 0.017301 -0.001825 -0.004200 0.000000 0.000000 0.000000
# 2 -0.001825 0.007591 0.000035 0.000000 0.000000 0.000000
# 3 -0.004200 0.000035 0.011018 0.000000 0.000000 0.000000
# 4 0.000000 0.000000 0.000000 0.023652 0.000000 0.000000
# 5 0.000000 0.000000 0.000000 0.000000 0.243207 0.000000
# 6 0.000000 0.000000 0.000000 0.000000 0.000000 0.025112
#
#
# Mechanical properties :
#
#
# Convention : Reuss Voigt Hill
#
# Bulk Modulus (GPa) = 41.78795 43.70664 42.74729
# Shear Modulus (GPa) = 14.37452 34.25151 24.31302
#
# Velocity S-wave (km/s) = 2.56073 3.95282 3.33032
# Velocity P-wave (km/s) = 5.27313 6.38522 5.85563
#
# Compressibility (1/GPa) = 0.02393035
#
# Stress axis : x y z
#
# Youngs Moduli (GPa) = 57.80038 131.74165 90.75801
#
# Poissons Ratio (x) = 0.24039 0.38119
# Poissons Ratio (y) = 0.10547 -0.00318
# Poissons Ratio (z) = 0.24277 -0.00462
#
# Static dielectric constant tensor:
#      x y z
#    x 1.813730 0.000000 0.000000 
#    y 0.000000 1.839350 0.000000 
#    z 0.000000 0.000000 1.748350 
# 
# From -- ./inp_files/3878.got.cif
#   From: 2010.05.17/outbox.cif.g08.bks.cpg/sg58_2_cif.got.tgz:3878.got - 2010.06.03 14:20:14.
