data_PCOD9445191
_publ_section_title
;
Structure prediction by ZEFSAII (Michael W. Deem and Ramdas Pophale) SiO2 
 PCOD9445191
Probable space group: P N N M
;
_chemical_formula_sum "Si O2"
_cell_formula_units_Z 16
_cell_length_a 9.133084
_cell_length_b 5.100596
_cell_length_c 14.077680
_cell_angle_alpha 90.000000
_cell_angle_beta 90.000000
_cell_angle_gamma 90.000000
_cell_volume 655.797063
_symmetry_space_group_name_H-M "P N N M"
_symmetry_group_IT_number 58
_symmetry_cell_setting 'orthorhombic'
loop_
_space_group_symop_operation_xyz
x,y,z
-x,-y,z
1/2+x,1/2-y,1/2-z
1/2-x,1/2+y,1/2-z
-x,-y,-z
x,y,-z
1/2-x,1/2+y,1/2+z
1/2+x,1/2-y,1/2+z
loop_
_atom_site_type_symbol
_atom_site_label
_atom_site_fract_x
_atom_site_fract_y
_atom_site_fract_z
Si Si1 0.395188 0.750854 0.303556
Si Si2 0.328977 0.929550 0.897830
O O1 0.500000 0.500000 0.304171
O O2 0.269834 0.685892 0.379497
O O3 0.500000 0.000000 0.319609
O O4 0.318817 0.767908 0.199757
O O5 0.500000 0.000000 0.901471
O O6 0.288067 0.810963 0.000000
#
# Coordination Sequence:
#
# PCOD9445191 Si02
#       2
#     8   8
#     4  11  24  44  68  98 139 179 223 280 338 401
#     4  10  22  42  69  98 132 178 227 276 335 402
#
# _framework density 24.397791999999999
#
# number of rings (size 3 to 8) (size 9 to 14) (size 15 to 20)
#    0.000    1.500    0.000    6.000    0.000    3.000 
#    0.000   22.500    0.000    1.500    0.000    0.000 
#    0.000    0.000    0.000    0.000    0.000    0.000 
#
# Total GULP energy -89466.838987 kJ/mol
# GULP energy per Si atom -5591.677437 kJ/mol
# Density = 2.434226 g / cm^3
# Si number density = 24.397792 Si / 1000 Ang^3
#
#
#
# Elastic Constant Matrix: (Units=GPa)
#
#
# Indices 1 2 3 4 5 6 
#
# 1 157.2156 68.4916 55.8358 0.0000 0.0000 0.0000
# 2 68.4916 147.8793 23.1444 0.0000 0.0000 0.0000
# 3 55.8358 23.1444 142.3244 0.0000 0.0000 0.0000
# 4 0.0000 0.0000 0.0000 33.0755 0.0000 0.0000
# 5 0.0000 0.0000 0.0000 0.0000 -52.1098 0.0000
# 6 0.0000 0.0000 0.0000 0.0000 0.0000 9.8216
#
#
#
# Elastic Compliance Matrix: (Units=1/GPa)
#
#
# Indices 1 2 3 4 5 6 
#
# 1 0.009024 -0.003720 -0.002935 0.000000 0.000000 0.000000
# 2 -0.003720 0.008472 0.000082 0.000000 0.000000 0.000000
# 3 -0.002935 0.000082 0.008164 0.000000 0.000000 0.000000
# 4 0.000000 0.000000 0.000000 0.030234 0.000000 0.000000
# 5 0.000000 0.000000 0.000000 0.000000 -0.019190 0.000000
# 6 0.000000 0.000000 0.000000 0.000000 0.000000 0.101816
#
#
# Mechanical properties :
#
#
# Convention : Reuss Voigt Hill
#
# Bulk Modulus (GPa) = 79.91378 82.48476 81.19927
# Shear Modulus (GPa) = 32.08446 18.15396 25.11921
#
# Velocity S-wave (km/s) = 3.63030 2.73075 3.21217
# Velocity P-wave (km/s) = 7.09914 6.61999 6.86375
#
# Compressibility (1/GPa) = 0.01251349
#
# Stress axis : x y z
#
# Youngs Moduli (GPa) = 110.81793 118.02927 122.48229
#
# Poissons Ratio (x) = 0.43908 0.35951
# Poissons Ratio (y) = 0.41225 -0.01000
# Poissons Ratio (z) = 0.32527 -0.00964
#
# Static dielectric constant tensor:
#      x y z
#    x 1.934220 0.000000 0.000000 
#    y 0.000000 1.950430 0.000000 
#    z 0.000000 0.000000 1.931260 
# 
# From -- ./inp_files/11191.got.cif
#   From: 2010.05.17/outbox.cif.g08.bks.cpg/sg58_6_cif.got.tgz:11191.got - 2010.06.03 14:20:14.
