data_PCOD9445780
_publ_section_title
;
Structure prediction by ZEFSAII (Michael W. Deem and Ramdas Pophale) SiO2 
 PCOD9445780
Probable space group: P N N M
;
_chemical_formula_sum "Si O2"
_cell_formula_units_Z 34
_cell_length_a 18.954404
_cell_length_b 8.008142
_cell_length_c 9.678597
_cell_angle_alpha 90.000000
_cell_angle_beta 90.000000
_cell_angle_gamma 90.000000
_cell_volume 1469.109968
_symmetry_space_group_name_H-M "P N N M"
_symmetry_group_IT_number 58
_symmetry_cell_setting 'orthorhombic'
loop_
_space_group_symop_operation_xyz
x,y,z
-x,-y,z
1/2+x,1/2-y,1/2-z
1/2-x,1/2+y,1/2-z
-x,-y,-z
x,y,-z
1/2-x,1/2+y,1/2+z
1/2+x,1/2-y,1/2+z
loop_
_atom_site_type_symbol
_atom_site_label
_atom_site_fract_x
_atom_site_fract_y
_atom_site_fract_z
Si Si1 0.341151 0.557049 0.151598
Si Si2 0.791812 0.238466 0.160126
Si Si3 0.605473 0.943026 0.839478
Si Si4 0.500000 0.500000 0.500000
Si Si5 0.522967 0.268753 0.234881
O O1 0.291291 0.720686 0.164467
O O2 0.317583 0.432402 0.271472
O O3 0.422534 0.606542 0.160640
O O4 0.325194 0.482960 0.000000
O O5 0.828819 0.380856 0.251340
O O6 0.814135 0.243662 0.000000
O O7 0.548918 0.790557 0.836927
O O8 0.568185 0.097424 0.763400
O O9 0.620066 0.983473 0.000000
O O10 0.505930 0.354776 0.379171
#
# Coordination Sequence:
#
# PCOD9445780 Si02
#       5
#     8   8   8   2   8
#     4  11  24  45  68  99 139 188 238 292 349 431
#     4  11  26  43  70 104 141 183 236 294 360 420
#     4  11  24  46  74 103 138 189 239 300 349 425
#     4  12  28  42  62 112 136 186 218 300 360 410
#     4  11  25  43  72  99 141 184 242 284 358 419
#
# _framework density 23.143263000000001
#
# number of rings (size 3 to 8) (size 9 to 14) (size 15 to 20)
#    0.000    0.941    0.000    6.353    8.235    4.706 
#    0.000    6.471    0.000    0.000    0.000    0.000 
#    0.000    0.000    0.000    0.000    0.000    0.000 
#
# Total GULP energy -189686.114910 kJ/mol
# GULP energy per Si atom -5579.003380 kJ/mol
# Density = 2.309059 g / cm^3
# Si number density = 23.143263 Si / 1000 Ang^3
#
#
#
# Elastic Constant Matrix: (Units=GPa)
#
#
# Indices 1 2 3 4 5 6 
#
# 1 90.7484 6.2739 36.4080 0.0000 0.0000 0.0000
# 2 6.2739 113.7900 61.5874 0.0000 0.0000 0.0000
# 3 36.4080 61.5874 179.0547 0.0000 0.0000 0.0000
# 4 0.0000 0.0000 0.0000 46.8191 0.0000 0.0000
# 5 0.0000 0.0000 0.0000 0.0000 -9.9836 0.0000
# 6 0.0000 0.0000 0.0000 0.0000 0.0000 41.3676
#
#
#
# Elastic Compliance Matrix: (Units=1/GPa)
#
#
# Indices 1 2 3 4 5 6 
#
# 1 0.012059 0.000814 -0.002732 0.000000 0.000000 0.000000
# 2 0.000814 0.010853 -0.003899 0.000000 0.000000 0.000000
# 3 -0.002732 -0.003899 0.007481 0.000000 0.000000 0.000000
# 4 0.000000 0.000000 0.000000 0.021359 0.000000 0.000000
# 5 0.000000 0.000000 0.000000 0.000000 -0.100164 0.000000
# 6 0.000000 0.000000 0.000000 0.000000 0.000000 0.024174
#
#
# Mechanical properties :
#
#
# Convention : Reuss Voigt Hill
#
# Bulk Modulus (GPa) = 53.30386 65.79241 59.54814
# Shear Modulus (GPa) = -787.32750 34.26219 -376.53266
#
# Velocity S-wave (km/s) = -18.46445 3.85182 -12.76909
# Velocity P-wave (km/s) = 20.77255 6.94781 13.84245
#
# Compressibility (1/GPa) = 0.01876037
#
# Stress axis : x y z
#
# Youngs Moduli (GPa) = 82.92370 92.13798 133.66623
#
# Poissons Ratio (x) = -0.07498 0.36517
# Poissons Ratio (y) = -0.06748 0.52110
# Poissons Ratio (z) = 0.22654 0.35920
#
# Static dielectric constant tensor:
#      x y z
#    x 1.899730 0.000000 0.000000 
#    y 0.000000 1.922050 0.000000 
#    z 0.000000 0.000000 1.769740 
# 
# From -- ./inp_files/8657.got.cif
#   From: 2010.05.17/outbox.cif.g08.bks.cpg/sg58_5_cif.got.tgz:8657.got - 2010.06.03 14:20:14.
