data_PCOD9445639
_publ_section_title
;
Structure prediction by ZEFSAII (Michael W. Deem and Ramdas Pophale) SiO2 
 PCOD9445639
Probable space group: P N N M
;
_chemical_formula_sum "Si O2"
_cell_formula_units_Z 24
_cell_length_a 4.846993
_cell_length_b 14.202813
_cell_length_c 15.138138
_cell_angle_alpha 90.000000
_cell_angle_beta 90.000000
_cell_angle_gamma 90.000000
_cell_volume 1042.123577
_symmetry_space_group_name_H-M "P N N M"
_symmetry_group_IT_number 58
_symmetry_cell_setting 'orthorhombic'
loop_
_space_group_symop_operation_xyz
x,y,z
-x,-y,z
1/2+x,1/2-y,1/2-z
1/2-x,1/2+y,1/2-z
-x,-y,-z
x,y,-z
1/2-x,1/2+y,1/2+z
1/2+x,1/2-y,1/2+z
loop_
_atom_site_type_symbol
_atom_site_label
_atom_site_fract_x
_atom_site_fract_y
_atom_site_fract_z
Si Si1 0.000000 0.500000 0.143744
Si Si2 0.711476 0.625674 0.000000
Si Si3 0.500000 0.500000 0.255829
Si Si4 0.791452 0.264609 0.000000
Si Si5 0.291686 0.296500 0.698209
O O1 0.829056 0.571973 0.084109
O O2 0.756108 0.456446 0.201394
O O3 0.385380 0.637767 0.000000
O O4 0.878049 0.723243 0.000000
O O5 0.634583 0.592236 0.299581
O O6 0.718926 0.223408 0.904270
O O7 0.549957 0.236241 0.735436
#
# Coordination Sequence:
#
# PCOD9445639 Si02
#       5
#     4   4   4   4   8
#     4  11  22  38  64  97 132 170 220 285 346 395
#     4  11  22  38  64  97 131 168 219 285 346 395
#     4  12  24  42  66  96 136 178 226 271 330 401
#     4  12  24  42  66  96 135 176 225 271 330 401
#     4  12  26  45  70  99 136 180 226 280 336 398
#
# _framework density 23.029896999999998
#
# number of rings (size 3 to 8) (size 9 to 14) (size 15 to 20)
#    0.000    0.333    0.000   12.000    0.000    3.333 
#    0.000    1.667    0.000    8.000    0.000    0.000 
#    0.000    0.000    0.000    0.000    0.000    0.000 
#
# Total GULP energy -134114.920747 kJ/mol
# GULP energy per Si atom -5588.121698 kJ/mol
# Density = 2.297748 g / cm^3
# Si number density = 23.029897 Si / 1000 Ang^3
#
#
#
# Elastic Constant Matrix: (Units=GPa)
#
#
# Indices 1 2 3 4 5 6 
#
# 1 135.1730 28.7849 33.7445 0.0000 0.0000 0.0000
# 2 28.7849 127.3425 58.7167 0.0000 0.0000 0.0000
# 3 33.7445 58.7167 150.6691 0.0000 0.0000 0.0000
# 4 0.0000 0.0000 0.0000 2.2769 0.0000 0.0000
# 5 0.0000 0.0000 0.0000 0.0000 10.3296 0.0000
# 6 0.0000 0.0000 0.0000 0.0000 0.0000 37.6757
#
#
#
# Elastic Compliance Matrix: (Units=1/GPa)
#
#
# Indices 1 2 3 4 5 6 
#
# 1 0.007982 -0.001195 -0.001322 0.000000 0.000000 0.000000
# 2 -0.001195 0.009752 -0.003533 0.000000 0.000000 0.000000
# 3 -0.001322 -0.003533 0.008310 0.000000 0.000000 0.000000
# 4 0.000000 0.000000 0.000000 0.439191 0.000000 0.000000
# 5 0.000000 0.000000 0.000000 0.000000 0.096809 0.000000
# 6 0.000000 0.000000 0.000000 0.000000 0.000000 0.026542
#
#
# Mechanical properties :
#
#
# Convention : Reuss Voigt Hill
#
# Bulk Modulus (GPa) = 71.71127 72.85298 72.28213
# Shear Modulus (GPa) = 8.25991 29.51902 18.88946
#
# Velocity S-wave (km/s) = 1.89589 3.58407 2.86705
# Velocity P-wave (km/s) = 5.99987 6.98786 6.51263
#
# Compressibility (1/GPa) = 0.01394481
#
# Stress axis : x y z
#
# Youngs Moduli (GPa) = 125.27548 102.54484 120.33797
#
# Poissons Ratio (x) = 0.12251 0.15911
# Poissons Ratio (y) = 0.14967 0.42513
# Poissons Ratio (z) = 0.16564 0.36227
#
# Static dielectric constant tensor:
#      x y z
#    x 1.841880 0.000000 0.000000 
#    y 0.000000 1.961400 0.000000 
#    z 0.000000 0.000000 1.886200 
# 
# From -- ./inp_files/18184.got.cif
#   From: 2010.05.17/outbox.cif.g08.bks.cpg/sg58_10_cif.got.tgz:18184.got - 2010.06.03 14:20:14.
