data_PCOD9445429
_publ_section_title
;
Structure prediction by ZEFSAII (Michael W. Deem and Ramdas Pophale) SiO2 
 PCOD9445429
Probable space group: P N N M
;
_chemical_formula_sum "Si O2"
_cell_formula_units_Z 48
_cell_length_a 16.311297
_cell_length_b 5.476803
_cell_length_c 22.245931
_cell_angle_alpha 90.000000
_cell_angle_beta 90.000000
_cell_angle_gamma 90.000000
_cell_volume 1987.312669
_symmetry_space_group_name_H-M "P N N M"
_symmetry_group_IT_number 58
_symmetry_cell_setting 'orthorhombic'
loop_
_space_group_symop_operation_xyz
x,y,z
-x,-y,z
1/2+x,1/2-y,1/2-z
1/2-x,1/2+y,1/2-z
-x,-y,-z
x,y,-z
1/2-x,1/2+y,1/2+z
1/2+x,1/2-y,1/2+z
loop_
_atom_site_type_symbol
_atom_site_label
_atom_site_fract_x
_atom_site_fract_y
_atom_site_fract_z
Si Si1 0.617854 0.431072 0.236026
Si Si2 0.919733 0.872472 0.608488
Si Si3 0.925532 0.687926 0.146998
Si Si4 0.335467 0.477493 0.567103
Si Si5 0.800472 0.320999 0.190280
Si Si6 0.153054 0.650453 0.433608
O O1 0.566320 0.345485 0.178955
O O2 0.566058 0.341199 0.292782
O O3 0.708645 0.324788 0.216372
O O4 0.643625 0.704573 0.256754
O O5 0.888107 0.610094 0.585310
O O6 0.858385 0.103178 0.604333
O O7 0.000000 0.000000 0.580253
O O8 0.909104 0.846661 0.087778
O O9 0.838348 0.571097 0.166986
O O10 0.000000 0.500000 0.139174
O O11 0.350241 0.364932 0.500000
O O12 0.315530 0.327731 0.628216
O O13 0.249596 0.615077 0.561394
O O14 0.120055 0.704138 0.500000
#
# Coordination Sequence:
#
# PCOD9445429 Si02
#       6
#     8   8   8   8   8   8
#     4  11  24  39  65  98 135 182 235 287 353 439
#     4  12  27  42  69 104 145 188 238 301 369 432
#     4  11  26  43  68 102 142 180 231 301 373 428
#     4  10  24  45  70 100 133 183 244 299 357 440
#     4  11  22  43  70  93 129 183 229 287 351 433
#     4  11  25  46  70 101 141 191 248 299 355 435
#
# _framework density 24.153219
#
# number of rings (size 3 to 8) (size 9 to 14) (size 15 to 20)
#    0.000    1.000    3.333    2.000    7.000    5.000 
#    0.000    0.833    0.000    0.000    0.000    0.000 
#    0.000    0.000    0.000    0.000    0.000    0.000 
#
# Total GULP energy -267236.295041 kJ/mol
# GULP energy per Si atom -5567.422813 kJ/mol
# Density = 2.409825 g / cm^3
# Si number density = 24.153219 Si / 1000 Ang^3
#
#
#
# Elastic Constant Matrix: (Units=GPa)
#
#
# Indices 1 2 3 4 5 6 
#
# 1 87.8791 8.2345 10.1769 0.0000 0.0000 0.0000
# 2 8.2345 58.1584 19.4588 0.0000 0.0000 0.0000
# 3 10.1769 19.4588 111.0457 0.0000 0.0000 0.0000
# 4 0.0000 0.0000 0.0000 14.9950 0.0000 0.0000
# 5 0.0000 0.0000 0.0000 0.0000 -2.2601 0.0000
# 6 0.0000 0.0000 0.0000 0.0000 0.0000 47.4227
#
#
#
# Elastic Compliance Matrix: (Units=1/GPa)
#
#
# Indices 1 2 3 4 5 6 
#
# 1 0.011603 -0.001367 -0.000824 0.000000 0.000000 0.000000
# 2 -0.001367 0.018426 -0.003104 0.000000 0.000000 0.000000
# 3 -0.000824 -0.003104 0.009625 0.000000 0.000000 0.000000
# 4 0.000000 0.000000 0.000000 0.066689 0.000000 0.000000
# 5 0.000000 0.000000 0.000000 0.000000 -0.442459 0.000000
# 6 0.000000 0.000000 0.000000 0.000000 0.000000 0.021087
#
#
# Mechanical properties :
#
#
# Convention : Reuss Voigt Hill
#
# Bulk Modulus (GPa) = 34.40601 36.98042 35.69322
# Shear Modulus (GPa) = -16.96342 26.64572 4.84115
#
# Velocity S-wave (km/s) = -2.65302 3.32504 1.41729
# Velocity P-wave (km/s) = 2.21160 5.48500 4.18189
#
# Compressibility (1/GPa) = 0.02906469
#
# Stress axis : x y z
#
# Youngs Moduli (GPa) = 86.18630 54.26996 103.89991
#
# Poissons Ratio (x) = 0.07420 0.08559
# Poissons Ratio (y) = 0.11783 0.32246
# Poissons Ratio (z) = 0.07100 0.16843
#
# Static dielectric constant tensor:
#      x y z
#    x 2.016660 0.000000 0.000000 
#    y 0.000000 2.289510 0.000000 
#    z 0.000000 0.000000 2.014090 
# 
# From -- ./inp_files/32304.got.cif
#   From: 2010.05.17/outbox.cif.g08.bks.cpg/sg58_17_cif.got.tgz:32304.got - 2010.06.03 14:20:14.
