data_PCOD9445157
_publ_section_title
;
Structure prediction by ZEFSAII (Michael W. Deem and Ramdas Pophale) SiO2 
 PCOD9445157
Probable space group: P N N M
;
_chemical_formula_sum "Si O2"
_cell_formula_units_Z 64
_cell_length_a 34.535679
_cell_length_b 12.107811
_cell_length_c 8.758477
_cell_angle_alpha 90.000000
_cell_angle_beta 90.000000
_cell_angle_gamma 90.000000
_cell_volume 3662.370068
_symmetry_space_group_name_H-M "P N N M"
_symmetry_group_IT_number 58
_symmetry_cell_setting 'orthorhombic'
loop_
_space_group_symop_operation_xyz
x,y,z
-x,-y,z
1/2+x,1/2-y,1/2-z
1/2-x,1/2+y,1/2-z
-x,-y,-z
x,y,-z
1/2-x,1/2+y,1/2+z
1/2+x,1/2-y,1/2+z
loop_
_atom_site_type_symbol
_atom_site_label
_atom_site_fract_x
_atom_site_fract_y
_atom_site_fract_z
Si Si1 0.034990 0.853445 0.183017
Si Si2 0.550887 0.391677 0.684732
Si Si3 0.609192 0.738990 0.182348
Si Si4 0.813265 0.637889 0.818102
Si Si5 0.768063 0.203226 0.817931
Si Si6 0.631569 0.314895 0.817345
Si Si7 0.169795 0.952426 0.683479
Si Si8 0.821913 0.394451 0.316166
O O1 0.067022 0.770935 0.246282
O O2 0.990324 0.837938 0.229823
O O3 0.047216 0.978603 0.227219
O O4 0.035660 0.850087 0.000000
O O5 0.554455 0.386121 0.500000
O O6 0.588154 0.339045 0.761918
O O7 0.634602 0.630616 0.224465
O O8 0.636191 0.842236 0.225280
O O9 0.605382 0.738393 0.000000
O O10 0.774877 0.692417 0.746841
O O11 0.849597 0.710009 0.763214
O O12 0.816298 0.513994 0.754698
O O13 0.810449 0.636896 0.000000
O O14 0.792617 0.095363 0.766785
O O15 0.790368 0.307687 0.746108
O O16 0.767541 0.212277 0.000000
O O17 0.657152 0.423776 0.778871
O O18 0.632446 0.301684 0.000000
O O19 0.175692 0.944080 0.500000
O O20 0.819219 0.398712 0.500000
#
# Coordination Sequence:
#
# PCOD9445157 Si02
#       8
#     8   8   8   8   8   8   8   8
#     4   9  17  29  50  80 116 152 186 226 275 333
#     4   9  18  32  49  78 118 154 187 228 278 333
#     4   9  17  32  55  82 111 143 181 227 276 327
#     4  12  26  42  60  82 111 149 191 234 283 338
#     4  11  23  39  61  86 112 145 185 232 283 333
#     4  11  22  37  57  82 114 152 191 233 283 338
#     4   9  19  35  54  80 114 147 184 228 276 333
#     4  10  22  42  61  82 113 146 187 236 282 334
#
# _framework density 17.475023
#
# number of rings (size 3 to 8) (size 9 to 14) (size 15 to 20)
#    0.000    2.000    1.250    4.500    1.750    4.000 
#    0.000    1.250    0.000    0.750    0.000    5.250 
#    0.000    0.000    0.000    0.000    0.000    0.000 
#
# Total GULP energy -357332.471645 kJ/mol
# GULP energy per Si atom -5583.319869 kJ/mol
# Density = 1.743525 g / cm^3
# Si number density = 17.475023 Si / 1000 Ang^3
#
#
#
# Elastic Constant Matrix: (Units=GPa)
#
#
# Indices 1 2 3 4 5 6 
#
# 1 128.3996 47.3080 41.3918 0.0000 0.0000 0.0000
# 2 47.3080 80.1433 32.4144 0.0000 0.0000 0.0000
# 3 41.3918 32.4144 63.6628 0.0000 0.0000 0.0000
# 4 0.0000 0.0000 0.0000 48.6267 0.0000 0.0000
# 5 0.0000 0.0000 0.0000 0.0000 33.2346 0.0000
# 6 0.0000 0.0000 0.0000 0.0000 0.0000 19.7162
#
#
#
# Elastic Compliance Matrix: (Units=1/GPa)
#
#
# Indices 1 2 3 4 5 6 
#
# 1 0.011029 -0.004546 -0.004856 0.000000 0.000000 0.000000
# 2 -0.004546 0.017588 -0.005999 0.000000 0.000000 0.000000
# 3 -0.004856 -0.005999 0.021919 0.000000 0.000000 0.000000
# 4 0.000000 0.000000 0.000000 0.020565 0.000000 0.000000
# 5 0.000000 0.000000 0.000000 0.000000 0.030089 0.000000
# 6 0.000000 0.000000 0.000000 0.000000 0.000000 0.050720
#
#
# Mechanical properties :
#
#
# Convention : Reuss Voigt Hill
#
# Bulk Modulus (GPa) = 50.67528 57.15935 53.91732
# Shear Modulus (GPa) = 26.41468 30.38826 28.40147
#
# Velocity S-wave (km/s) = 3.89211 4.17460 4.03583
# Velocity P-wave (km/s) = 7.01852 7.48442 7.25521
#
# Compressibility (1/GPa) = 0.01973349
#
# Stress axis : x y z
#
# Youngs Moduli (GPa) = 90.67412 56.85843 45.62187
#
# Poissons Ratio (x) = 0.25848 0.22153
# Poissons Ratio (y) = 0.41221 0.27369
# Poissons Ratio (z) = 0.44029 0.34110
#
# Static dielectric constant tensor:
#      x y z
#    x 1.595640 0.000000 0.000000 
#    y 0.000000 1.577390 0.000000 
#    z 0.000000 0.000000 1.582410 
# 
# From -- ./inp_files/10966.got.cif
#   From: 2010.05.17/outbox.cif.g08.bks.cpg/sg58_6_cif.got.tgz:10966.got - 2010.06.03 14:20:14.
