data_PCOD9445891
_publ_section_title
;
Structure prediction by ZEFSAII (Michael W. Deem and Ramdas Pophale) SiO2 
 PCOD9445891
Probable space group: P N N M
;
_chemical_formula_sum "Si O2"
_cell_formula_units_Z 64
_cell_length_a 17.991027
_cell_length_b 23.412175
_cell_length_c 7.753249
_cell_angle_alpha 90.000000
_cell_angle_beta 90.000000
_cell_angle_gamma 90.000000
_cell_volume 3265.738821
_symmetry_space_group_name_H-M "P N N M"
_symmetry_group_IT_number 58
_symmetry_cell_setting 'orthorhombic'
loop_
_space_group_symop_operation_xyz
x,y,z
-x,-y,z
1/2+x,1/2-y,1/2-z
1/2-x,1/2+y,1/2-z
-x,-y,-z
x,y,-z
1/2-x,1/2+y,1/2+z
1/2+x,1/2-y,1/2+z
loop_
_atom_site_type_symbol
_atom_site_label
_atom_site_fract_x
_atom_site_fract_y
_atom_site_fract_z
Si Si1 0.733539 0.513699 0.708423
Si Si2 0.086625 0.275462 0.294510
Si Si3 0.958714 0.554439 0.198174
Si Si4 0.937931 0.335370 0.195008
Si Si5 0.790748 0.392396 0.208388
Si Si6 0.680552 0.118855 0.804616
Si Si7 0.073720 0.030591 0.793583
Si Si8 0.129091 0.150444 0.291842
O O1 0.731990 0.517814 0.500000
O O2 0.787785 0.460017 0.748960
O O3 0.758566 0.576114 0.775291
O O4 0.651703 0.495501 0.772501
O O5 0.098696 0.275698 0.500000
O O6 0.144151 0.323859 0.223727
O O7 0.104019 0.212378 0.227730
O O8 0.000639 0.293352 0.269528
O O9 0.890353 0.576816 0.306494
O O10 0.000000 0.500000 0.270173
O O11 0.018029 0.604957 0.188727
O O12 0.933987 0.542062 0.000000
O O13 0.859219 0.354009 0.275728
O O14 0.923437 0.315021 0.000000
O O15 0.712026 0.366505 0.267647
O O16 0.794520 0.389579 0.000000
O O17 0.704494 0.132987 0.000000
O O18 0.076310 0.098065 0.758437
O O19 0.074954 0.022671 0.000000
O O20 0.000000 0.000000 0.725382
O O21 0.131136 0.152417 0.500000
#
# Coordination Sequence:
#
# PCOD9445891 Si02
#       8
#     8   8   8   8   8   8   8   8
#     4   9  17  29  46  69  95 121 150 187 232 280
#     4   9  18  32  47  64  91 126 159 190 227 273
#     4   9  16  25  38  58  86 117 145 177 217 258
#     4   9  17  28  43  65  91 118 152 191 227 269
#     4   9  17  30  48  69  91 117 153 194 234 277
#     4   9  17  28  42  61  87 119 151 181 216 263
#     4   9  18  33  52  74  97 119 149 193 243 287
#     4   9  18  33  52  71  92 122 158 194 233 278
#
# _framework density 19.597403
#
# number of rings (size 3 to 8) (size 9 to 14) (size 15 to 20)
#    0.000    3.000    0.000    0.750    0.000    3.000 
#    0.000    3.750    0.000    4.500    0.000    3.500 
#    0.000    0.000    0.000    0.000    0.000    0.000 
#
# Total GULP energy -356289.195349 kJ/mol
# GULP energy per Si atom -5567.018677 kJ/mol
# Density = 1.955280 g / cm^3
# Si number density = 19.597403 Si / 1000 Ang^3
#
#
#
# Elastic Constant Matrix: (Units=GPa)
#
#
# Indices 1 2 3 4 5 6 
#
# 1 90.1978 74.3496 2.7658 0.0000 0.0000 0.0000
# 2 74.3496 143.9845 1.8676 0.0000 0.0000 0.0000
# 3 2.7658 1.8676 29.4863 0.0000 0.0000 0.0000
# 4 0.0000 0.0000 0.0000 15.2927 0.0000 0.0000
# 5 0.0000 0.0000 0.0000 0.0000 13.2039 0.0000
# 6 0.0000 0.0000 0.0000 0.0000 0.0000 25.5510
#
#
#
# Elastic Compliance Matrix: (Units=1/GPa)
#
#
# Indices 1 2 3 4 5 6 
#
# 1 0.019344 -0.009973 -0.001183 0.000000 0.000000 0.000000
# 2 -0.009973 0.012093 0.000170 0.000000 0.000000 0.000000
# 3 -0.001183 0.000170 0.034014 0.000000 0.000000 0.000000
# 4 0.000000 0.000000 0.000000 0.065391 0.000000 0.000000
# 5 0.000000 0.000000 0.000000 0.000000 0.075735 0.000000
# 6 0.000000 0.000000 0.000000 0.000000 0.000000 0.039137
#
#
# Mechanical properties :
#
#
# Convention : Reuss Voigt Hill
#
# Bulk Modulus (GPa) = 23.00009 46.84828 34.92419
# Shear Modulus (GPa) = 17.71918 23.12190 20.42054
#
# Velocity S-wave (km/s) = 3.01019 3.43861 3.23151
# Velocity P-wave (km/s) = 4.88297 6.30259 5.63764
#
# Compressibility (1/GPa) = 0.04347809
#
# Stress axis : x y z
#
# Youngs Moduli (GPa) = 51.69563 82.69278 29.39942
#
# Poissons Ratio (x) = 0.82472 0.03477
# Poissons Ratio (y) = 0.51558 -0.00498
# Poissons Ratio (z) = 0.06114 -0.01402
#
# Static dielectric constant tensor:
#      x y z
#    x 1.716660 0.000000 0.000000 
#    y 0.000000 1.697140 0.000000 
#    z 0.000000 0.000000 1.758920 
# 
# From -- ./inp_files/8301.got.cif
#   From: 2010.05.17/outbox.cif.g08.bks.cpg/sg58_5_cif.got.tgz:8301.got - 2010.06.03 14:20:14.
