data_PCOD9445333
_publ_section_title
;
Structure prediction by ZEFSAII (Michael W. Deem and Ramdas Pophale) SiO2 
 PCOD9445333
Probable space group: P N N M
;
_chemical_formula_sum "Si O2"
_cell_formula_units_Z 56
_cell_length_a 14.825537
_cell_length_b 10.296221
_cell_length_c 19.638227
_cell_angle_alpha 90.000000
_cell_angle_beta 90.000000
_cell_angle_gamma 90.000000
_cell_volume 2997.716543
_symmetry_space_group_name_H-M "P N N M"
_symmetry_group_IT_number 58
_symmetry_cell_setting 'orthorhombic'
loop_
_space_group_symop_operation_xyz
x,y,z
-x,-y,z
1/2+x,1/2-y,1/2-z
1/2-x,1/2+y,1/2-z
-x,-y,-z
x,y,-z
1/2-x,1/2+y,1/2+z
1/2+x,1/2-y,1/2+z
loop_
_atom_site_type_symbol
_atom_site_label
_atom_site_fract_x
_atom_site_fract_y
_atom_site_fract_z
Si Si1 0.079682 0.189172 0.812403
Si Si2 0.454033 0.860696 0.079094
Si Si3 0.274594 0.541343 0.075124
Si Si4 0.189170 0.271233 0.678602
Si Si5 0.417264 0.909357 0.420888
Si Si6 0.428625 0.384355 0.124383
Si Si7 0.118463 0.892575 0.216279
O O1 0.127252 0.247762 0.744975
O O2 0.099379 0.282369 0.875604
O O3 0.970913 0.181842 0.808912
O O4 0.113104 0.039513 0.812836
O O5 0.366158 0.860497 0.126467
O O6 0.521247 0.748629 0.106441
O O7 0.500000 0.000000 0.083309
O O8 0.433756 0.833097 0.000000
O O9 0.298725 0.638451 0.135975
O O10 0.172671 0.495053 0.081840
O O11 0.341082 0.418485 0.080614
O O12 0.286622 0.601332 0.000000
O O13 0.286624 0.327430 0.698185
O O14 0.435182 0.874756 0.500000
O O15 0.500000 0.000000 0.396516
O O16 0.500000 0.500000 0.112548
O O17 0.397004 0.392780 0.202522
#
# Coordination Sequence:
#
# PCOD9445333 Si02
#       7
#     8   8   8   8   8   8   8
#     4  11  22  43  62  93 130 161 218 267 319 392
#     4  11  25  43  62  94 137 173 216 275 334 394
#     4  11  22  38  64  95 122 165 221 264 314 386
#     4  12  23  38  63  96 127 173 212 266 326 389
#     4  10  23  43  65  92 126 165 218 275 326 382
#     4  12  20  43  65  92 126 166 216 268 317 386
#     4  11  22  40  63  92 131 166 214 263 325 391
#
# _framework density 18.680885
#
# number of rings (size 3 to 8) (size 9 to 14) (size 15 to 20)
#    0.000    0.857    5.714    2.571    0.000    3.429 
#    0.000    5.000    0.000    0.000    0.000    0.000 
#    0.000    0.000    0.000    0.000    0.000    0.000 
#
# Total GULP energy -312727.854507 kJ/mol
# GULP energy per Si atom -5584.425973 kJ/mol
# Density = 1.863837 g / cm^3
# Si number density = 18.680885 Si / 1000 Ang^3
#
#
#
# Elastic Constant Matrix: (Units=GPa)
#
#
# Indices 1 2 3 4 5 6 
#
# 1 120.1218 35.1764 17.0748 0.0000 0.0000 0.0000
# 2 35.1764 88.6783 41.0671 0.0000 0.0000 0.0000
# 3 17.0748 41.0671 82.0269 0.0000 0.0000 0.0000
# 4 0.0000 0.0000 0.0000 51.6793 0.0000 0.0000
# 5 0.0000 0.0000 0.0000 0.0000 -229.5202 0.0000
# 6 0.0000 0.0000 0.0000 0.0000 0.0000 24.1448
#
#
#
# Elastic Compliance Matrix: (Units=1/GPa)
#
#
# Indices 1 2 3 4 5 6 
#
# 1 0.009420 -0.003682 -0.000117 0.000000 0.000000 0.000000
# 2 -0.003682 0.016120 -0.007304 0.000000 0.000000 0.000000
# 3 -0.000117 -0.007304 0.015872 0.000000 0.000000 0.000000
# 4 0.000000 0.000000 0.000000 0.019350 0.000000 0.000000
# 5 0.000000 0.000000 0.000000 0.000000 -0.004357 0.000000
# 6 0.000000 0.000000 0.000000 0.000000 0.000000 0.041417
#
#
# Mechanical properties :
#
#
# Convention : Reuss Voigt Hill
#
# Bulk Modulus (GPa) = 52.06997 53.05150 52.56073
# Shear Modulus (GPa) = 39.54735 -17.57196 10.98769
#
# Velocity S-wave (km/s) = 4.60607 -3.07031 2.42787
# Velocity P-wave (km/s) = 7.49812 3.98640 6.00471
#
# Compressibility (1/GPa) = 0.01920493
#
# Stress axis : x y z
#
# Youngs Moduli (GPa) = 106.15844 62.03521 63.00290
#
# Poissons Ratio (x) = 0.22843 0.00739
# Poissons Ratio (y) = 0.39091 0.46017
# Poissons Ratio (z) = 0.01245 0.45310
#
# Static dielectric constant tensor:
#      x y z
#    x 1.657200 0.000000 0.000000 
#    y 0.000000 1.640530 0.000000 
#    z 0.000000 0.000000 1.663150 
# 
# From -- ./inp_files/30003.got.cif
#   From: 2010.05.17/outbox.cif.g08.bks.cpg/sg58_16_cif.got.tgz:30003.got - 2010.06.03 14:20:14.
