data_PCOD9445427
_publ_section_title
;
Structure prediction by ZEFSAII (Michael W. Deem and Ramdas Pophale) SiO2 
 PCOD9445427
Probable space group: P N N M
;
_chemical_formula_sum "Si O2"
_cell_formula_units_Z 34
_cell_length_a 17.128545
_cell_length_b 11.222154
_cell_length_c 7.531297
_cell_angle_alpha 90.000000
_cell_angle_beta 90.000000
_cell_angle_gamma 90.000000
_cell_volume 1447.659657
_symmetry_space_group_name_H-M "P N N M"
_symmetry_group_IT_number 58
_symmetry_cell_setting 'orthorhombic'
loop_
_space_group_symop_operation_xyz
x,y,z
-x,-y,z
1/2+x,1/2-y,1/2-z
1/2-x,1/2+y,1/2-z
-x,-y,-z
x,y,-z
1/2-x,1/2+y,1/2+z
1/2+x,1/2-y,1/2+z
loop_
_atom_site_type_symbol
_atom_site_label
_atom_site_fract_x
_atom_site_fract_y
_atom_site_fract_z
Si Si1 0.027421 0.295820 0.709223
Si Si2 0.500000 0.000000 0.500000
Si Si3 0.745593 0.515259 0.197846
Si Si4 0.694535 0.274987 0.208032
Si Si5 0.073294 0.918953 0.786783
O O1 0.036567 0.327023 0.500000
O O2 0.951674 0.213636 0.733382
O O3 0.021785 0.403495 0.843332
O O4 0.104800 0.221789 0.767596
O O5 0.748296 0.382463 0.283939
O O6 0.779783 0.637569 0.275347
O O7 0.653112 0.540785 0.198436
O O8 0.780693 0.509215 0.000000
O O9 0.694813 0.302510 0.000000
O O10 0.083396 0.924968 0.000000
O O11 0.000000 0.000000 0.733789
#
# Coordination Sequence:
#
# PCOD9445427 Si02
#       5
#     8   2   8   8   8
#     4  11  24  45  72  98 142 186 231 288 354 418
#     4  12  26  44  66 106 140 184 228 296 342 424
#     4  11  24  41  69  99 136 182 234 289 348 418
#     4  10  24  45  66  98 137 184 231 289 349 419
#     4  11  22  40  71 103 132 175 233 290 345 414
#
# _framework density 23.486184000000002
#
# number of rings (size 3 to 8) (size 9 to 14) (size 15 to 20)
#    0.000    1.176    3.529    1.765    1.647    4.706 
#    4.235    2.353    0.000    0.000    0.000    0.000 
#    0.000    0.000    0.000    0.000    0.000    0.000 
#
# Total GULP energy -189354.598831 kJ/mol
# GULP energy per Si atom -5569.252907 kJ/mol
# Density = 2.343273 g / cm^3
# Si number density = 23.486184 Si / 1000 Ang^3
#
#
#
# Elastic Constant Matrix: (Units=GPa)
#
#
# Indices 1 2 3 4 5 6 
#
# 1 -73.1816 43.5332 24.4668 0.0000 0.0000 0.0000
# 2 43.5332 141.6986 10.6588 0.0000 0.0000 0.0000
# 3 24.4668 10.6588 91.5213 0.0000 0.0000 0.0000
# 4 0.0000 0.0000 0.0000 29.4870 0.0000 0.0000
# 5 0.0000 0.0000 0.0000 0.0000 17.4926 0.0000
# 6 0.0000 0.0000 0.0000 0.0000 0.0000 25.5642
#
#
#
# Elastic Compliance Matrix: (Units=1/GPa)
#
#
# Indices 1 2 3 4 5 6 
#
# 1 -0.010928 0.003165 0.002553 0.000000 0.000000 0.000000
# 2 0.003165 0.006203 -0.001569 0.000000 0.000000 0.000000
# 3 0.002553 -0.001569 0.010427 0.000000 0.000000 0.000000
# 4 0.000000 0.000000 0.000000 0.033913 0.000000 0.000000
# 5 0.000000 0.000000 0.000000 0.000000 0.057167 0.000000
# 6 0.000000 0.000000 0.000000 0.000000 0.000000 0.039117
#
#
# Mechanical properties :
#
#
# Convention : Reuss Voigt Hill
#
# Bulk Modulus (GPa) = 71.42647 35.26178 53.34412
# Shear Modulus (GPa) = 37.80258 19.93408 28.86833
#
# Velocity S-wave (km/s) = 4.01629 2.91651 3.50974
# Velocity P-wave (km/s) = 7.21011 5.13690 6.25993
#
# Compressibility (1/GPa) = 0.01400041
#
# Stress axis : x y z
#
# Youngs Moduli (GPa) = -91.50651 161.21894 95.90812
#
# Poissons Ratio (x) = -0.51032 -0.24484
# Poissons Ratio (y) = 0.28965 0.15044
# Poissons Ratio (z) = 0.23360 0.25289
#
# Static dielectric constant tensor:
#      x y z
#    x 1.874940 0.000000 0.000000 
#    y 0.000000 1.975470 0.000000 
#    z 0.000000 0.000000 1.845200 
# 
# From -- ./inp_files/5135.got.cif
#   From: 2010.05.17/outbox.cif.g08.bks.cpg/sg58_3_cif.got.tgz:5135.got - 2010.06.03 14:20:14.
