data_PCOD9445291
_publ_section_title
;
Structure prediction by ZEFSAII (Michael W. Deem and Ramdas Pophale) SiO2 
 PCOD9445291
Probable space group: P N N M
;
_chemical_formula_sum "Si O2"
_cell_formula_units_Z 40
_cell_length_a 5.753339
_cell_length_b 13.724617
_cell_length_c 23.277050
_cell_angle_alpha 90.000000
_cell_angle_beta 90.000000
_cell_angle_gamma 90.000000
_cell_volume 1838.011133
_symmetry_space_group_name_H-M "P N N M"
_symmetry_group_IT_number 58
_symmetry_cell_setting 'orthorhombic'
loop_
_space_group_symop_operation_xyz
x,y,z
-x,-y,z
1/2+x,1/2-y,1/2-z
1/2-x,1/2+y,1/2-z
-x,-y,-z
x,y,-z
1/2-x,1/2+y,1/2+z
1/2+x,1/2-y,1/2+z
loop_
_atom_site_type_symbol
_atom_site_label
_atom_site_fract_x
_atom_site_fract_y
_atom_site_fract_z
Si Si1 0.910806 0.262872 0.935497
Si Si2 0.755582 0.445935 0.743058
Si Si3 0.887804 0.899998 0.636610
Si Si4 0.716144 0.769014 0.159641
Si Si5 0.540939 0.113887 0.937807
O O1 0.713576 0.339860 0.916722
O O2 0.802854 0.153932 0.936988
O O3 0.073672 0.264649 0.880408
O O4 0.996749 0.285124 0.000000
O O5 0.500000 0.500000 0.733199
O O6 0.780438 0.430175 0.811393
O O7 0.736692 0.339895 0.712741
O O8 0.000000 0.500000 0.724090
O O9 0.067637 0.827871 0.669269
O O10 0.000000 0.000000 0.615791
O O11 0.575916 0.837586 0.116001
O O12 0.500000 0.000000 0.935218
O O13 0.445206 0.147959 0.000000
#
# Coordination Sequence:
#
# PCOD9445291 Si02
#       5
#     8   8   8   8   8
#     4  10  23  41  67 100 137 185 243 296 362 433
#     4  11  28  46  74 108 145 184 238 294 366 440
#     4  10  26  45  67  94 136 185 241 304 356 422
#     4  11  24  39  69  97 140 178 230 287 362 425
#     4   9  19  37  60  92 135 177 224 281 345 422
#
# _framework density 21.762653
#
# number of rings (size 3 to 8) (size 9 to 14) (size 15 to 20)
#    0.000    1.800    0.000    1.200   16.800    1.200 
#    0.000    4.000    0.000    0.000    0.000    0.000 
#    0.000    0.000    0.000    0.000    0.000    0.000 
#
# Total GULP energy -222825.085778 kJ/mol
# GULP energy per Si atom -5570.627144 kJ/mol
# Density = 2.171312 g / cm^3
# Si number density = 21.762653 Si / 1000 Ang^3
#
#
#
# Elastic Constant Matrix: (Units=GPa)
#
#
# Indices 1 2 3 4 5 6 
#
# 1 75.3902 46.7801 21.4006 0.0000 0.0000 0.0000
# 2 46.7801 120.2566 21.8892 0.0000 0.0000 0.0000
# 3 21.4006 21.8892 48.1194 0.0000 0.0000 0.0000
# 4 0.0000 0.0000 0.0000 23.7265 0.0000 0.0000
# 5 0.0000 0.0000 0.0000 0.0000 28.3054 0.0000
# 6 0.0000 0.0000 0.0000 0.0000 0.0000 21.6740
#
#
#
# Elastic Compliance Matrix: (Units=1/GPa)
#
#
# Indices 1 2 3 4 5 6 
#
# 1 0.018716 -0.006286 -0.005464 0.000000 0.000000 0.000000
# 2 -0.006286 0.011177 -0.002289 0.000000 0.000000 0.000000
# 3 -0.005464 -0.002289 0.024253 0.000000 0.000000 0.000000
# 4 0.000000 0.000000 0.000000 0.042147 0.000000 0.000000
# 5 0.000000 0.000000 0.000000 0.000000 0.035329 0.000000
# 6 0.000000 0.000000 0.000000 0.000000 0.000000 0.046138
#
#
# Mechanical properties :
#
#
# Convention : Reuss Voigt Hill
#
# Bulk Modulus (GPa) = 38.36107 47.10066 42.73086
# Shear Modulus (GPa) = 23.30696 24.98760 24.14728
#
# Velocity S-wave (km/s) = 3.27611 3.39217 3.33464
# Velocity P-wave (km/s) = 5.65471 6.08541 5.87401
#
# Compressibility (1/GPa) = 0.02606810
#
# Stress axis : x y z
#
# Youngs Moduli (GPa) = 53.43058 89.46606 41.23191
#
# Poissons Ratio (x) = 0.56237 0.22530
# Poissons Ratio (y) = 0.33586 0.09438
# Poissons Ratio (z) = 0.29196 0.20478
#
# Static dielectric constant tensor:
#      x y z
#    x 1.993250 0.000000 0.000000 
#    y 0.000000 1.789050 0.000000 
#    z 0.000000 0.000000 1.879400 
# 
# From -- ./inp_files/32653.got.cif
#   From: 2010.05.17/outbox.cif.g08.bks.cpg/sg58_17_cif.got.tgz:32653.got - 2010.06.03 14:20:14.
