data_PCOD9445938
_publ_section_title
;
Structure prediction by ZEFSAII (Michael W. Deem and Ramdas Pophale) SiO2 
 PCOD9445938
Probable space group: P N N M
;
_chemical_formula_sum "Si O2"
_cell_formula_units_Z 64
_cell_length_a 21.000000
_cell_length_b 18.000000
_cell_length_c 9.000000
_cell_angle_alpha 90.000000
_cell_angle_beta 90.000000
_cell_angle_gamma 90.000000
_cell_volume 3402.000000
_symmetry_space_group_name_H-M "P N N M"
_symmetry_group_IT_number 58
_symmetry_cell_setting 'orthorhombic'
loop_
_space_group_symop_operation_xyz
x,y,z
-x,-y,z
1/2+x,1/2-y,1/2-z
1/2-x,1/2+y,1/2-z
-x,-y,-z
x,y,-z
1/2-x,1/2+y,1/2+z
1/2+x,1/2-y,1/2+z
loop_
_atom_site_type_symbol
_atom_site_label
_atom_site_fract_x
_atom_site_fract_y
_atom_site_fract_z
Si Si1 0.175469 0.334179 0.324987
Si Si2 0.249627 0.101045 0.834319
Si Si3 0.549533 0.245279 0.178255
Si Si4 0.096463 0.106589 0.828701
Si Si5 0.094526 0.953617 0.327170
Si Si6 0.296059 0.232378 0.667381
Si Si7 0.247195 0.957375 0.331277
Si Si8 0.081329 0.792011 0.321409
O O1 0.174294 0.358421 0.500000
O O2 0.104783 0.311346 0.275593
O O3 0.225228 0.265962 0.320758
O O4 0.208377 0.389570 0.210894
O O5 0.173588 0.110645 0.821566
O O6 0.287338 0.148481 0.715656
O O7 0.261751 0.016553 0.795598
O O8 0.268855 0.122775 0.000000
O O9 0.571079 0.326038 0.232159
O O10 0.476085 0.237966 0.226839
O O11 0.550574 0.243885 0.000000
O O12 0.077933 0.026541 0.764190
O O13 0.077431 0.114148 0.000000
O O14 0.077467 0.965094 0.500000
O O15 0.171438 0.942294 0.321428
O O16 0.066702 0.876162 0.270179
O O17 0.317706 0.242549 0.500000
O O18 0.349309 0.269384 0.768204
O O19 0.258240 0.983577 0.500000
O O20 0.082103 0.794762 0.500000
#
# Coordination Sequence:
#
# PCOD9445938 Si02
#       8
#     8   8   8   8   8   8   8   8
#     4  10  20  34  54  80 107 140 178 219 267 316
#     4  10  20  34  54  80 110 141 177 221 268 321
#     4  10  21  37  55  75 107 147 184 220 263 322
#     4  10  20  32  50  76 107 142 180 221 264 310
#     4   9  18  32  50  73 104 141 181 217 257 314
#     4  11  21  34  56  82 109 140 178 226 272 316
#     4  10  19  32  54  81 108 138 175 222 269 314
#     4  10  21  37  55  77 106 145 186 221 265 320
#
# _framework density 18.812463000000001
#
# number of rings (size 3 to 8) (size 9 to 14) (size 15 to 20)
#    0.000    2.000    2.500    1.500    0.000    4.000 
#    0.000    2.500    0.000    0.750    0.000    5.250 
#    0.000    0.000    0.000    0.000    0.000    0.000 
#
# Total GULP energy -356591.280926 kJ/mol
# GULP energy per Si atom -5571.738764 kJ/mol
# Density = 1.876965 g / cm^3
# Si number density = 18.812463 Si / 1000 Ang^3
#
#
#
# Elastic Constant Matrix: (Units=GPa)
#
#
# Indices 1 2 3 4 5 6 
#
# 1 3.4206 2.9472 4.3658 0.0000 0.0000 0.0000
# 2 2.9472 21.8719 -4.9308 0.0000 0.0000 0.0000
# 3 4.3658 -4.9308 -36.7259 0.0000 0.0000 0.0000
# 4 0.0000 0.0000 0.0000 12.4362 0.0000 0.0000
# 5 0.0000 0.0000 0.0000 0.0000 23.5086 0.0000
# 6 0.0000 0.0000 0.0000 0.0000 0.0000 14.5936
#
#
#
# Elastic Compliance Matrix: (Units=1/GPa)
#
#
# Indices 1 2 3 4 5 6 
#
# 1 0.270838 -0.028377 0.036006 0.000000 0.000000 0.000000
# 2 -0.028377 0.047351 -0.009731 0.000000 0.000000 0.000000
# 3 0.036006 -0.009731 -0.021642 0.000000 0.000000 0.000000
# 4 0.000000 0.000000 0.000000 0.080410 0.000000 0.000000
# 5 0.000000 0.000000 0.000000 0.000000 0.042538 0.000000
# 6 0.000000 0.000000 0.000000 0.000000 0.000000 0.068523
#
#
# Mechanical properties :
#
#
# Convention : Reuss Voigt Hill
#
# Bulk Modulus (GPa) = 3.42063 -0.74101 1.33981
# Shear Modulus (GPa) = 8.47932 9.18665 8.83298
#
# Velocity S-wave (km/s) = 2.12534 2.21221 2.16921
# Velocity P-wave (km/s) = 2.80089 2.47597 2.64343
#
# Compressibility (1/GPa) = 0.29234358
#
# Stress axis : x y z
#
# Youngs Moduli (GPa) = 3.69224 21.11895 -46.20634
#
# Poissons Ratio (x) = 0.59930 1.66371
# Poissons Ratio (y) = 0.10478 -0.44962
# Poissons Ratio (z) = -0.13294 0.20550
#
# Static dielectric constant tensor:
#      x y z
#    x 1.669130 0.000000 0.000000 
#    y 0.000000 1.664720 0.000000 
#    z 0.000000 0.000000 1.621970 
# 
# From -- ./inp_files/8243.got.cif
#   From: 2010.05.17/outbox.ucp.g08.bks.cvg/sg58_5_cif.got.tgz:8243.got - 2010.06.11 16:41:41.
