data_PCOD9445862
_publ_section_title
;
Structure prediction by ZEFSAII (Michael W. Deem and Ramdas Pophale) SiO2 
 PCOD9445862
Probable space group: P N N M
;
_chemical_formula_sum "Si O2"
_cell_formula_units_Z 48
_cell_length_a 7.052822
_cell_length_b 30.435946
_cell_length_c 10.452718
_cell_angle_alpha 90.000000
_cell_angle_beta 90.000000
_cell_angle_gamma 90.000000
_cell_volume 2243.773229
_symmetry_space_group_name_H-M "P N N M"
_symmetry_group_IT_number 58
_symmetry_cell_setting 'orthorhombic'
loop_
_space_group_symop_operation_xyz
x,y,z
-x,-y,z
1/2+x,1/2-y,1/2-z
1/2-x,1/2+y,1/2-z
-x,-y,-z
x,y,-z
1/2-x,1/2+y,1/2+z
1/2+x,1/2-y,1/2+z
loop_
_atom_site_type_symbol
_atom_site_label
_atom_site_fract_x
_atom_site_fract_y
_atom_site_fract_z
Si Si1 0.897150 0.131198 0.352951
Si Si2 0.052612 0.701776 0.142520
Si Si3 0.845685 0.395090 0.854546
Si Si4 0.275000 0.036491 0.145209
Si Si5 0.507918 0.272601 0.857303
Si Si6 0.325968 0.438413 0.354635
O O1 0.834887 0.124596 0.500000
O O2 0.888502 0.183416 0.323252
O O3 0.802135 0.099082 0.250753
O O4 0.121637 0.118156 0.350700
O O5 0.039863 0.649941 0.169864
O O6 0.277343 0.710828 0.134150
O O7 0.990775 0.734712 0.252638
O O8 0.974481 0.710886 0.000000
O O9 0.870831 0.432447 0.749305
O O10 0.885039 0.409794 0.000000
O O11 0.050672 0.049145 0.146209
O O12 0.279722 0.984448 0.171849
O O13 0.342226 0.044217 0.000000
O O14 0.451951 0.257285 0.000000
O O15 0.282093 0.424002 0.500000
#
# Coordination Sequence:
#
# PCOD9445862 Si02
#       6
#     8   8   8   8   8   8
#     4   8  14  24  36  51  74 103 133 166 203 242
#     4   9  18  31  45  63  87 113 144 181 216 253
#     4   8  14  24  36  51  74 103 133 166 203 242
#     4   8  13  20  30  47  72 100 130 163 197 237
#     4   9  18  31  45  63  87 113 144 181 216 253
#     4   8  13  20  30  47  72 100 130 163 197 237
#
# _framework density 21.392537000000001
#
# number of rings (size 3 to 8) (size 9 to 14) (size 15 to 20)
#    0.000    3.667    0.000    3.000    0.000    2.667 
#    0.000    6.667    0.000    0.000    0.000    0.000 
#    0.000    1.333    0.000   14.667    0.000   24.000 
#
# Total GULP energy -268001.721032 kJ/mol
# GULP energy per Si atom -5583.369188 kJ/mol
# Density = 2.134385 g / cm^3
# Si number density = 21.392537 Si / 1000 Ang^3
#
#
#
# Elastic Constant Matrix: (Units=GPa)
#
#
# Indices 1 2 3 4 5 6 
#
# 1 66.5776 30.3526 29.4785 0.0000 0.0000 0.0000
# 2 30.3526 153.0588 159.2323 0.0000 0.0000 0.0000
# 3 29.4785 159.2323 196.9991 0.0000 0.0000 0.0000
# 4 0.0000 0.0000 0.0000 47.4828 0.0000 0.0000
# 5 0.0000 0.0000 0.0000 0.0000 16.5707 0.0000
# 6 0.0000 0.0000 0.0000 0.0000 0.0000 37.9318
#
#
#
# Elastic Compliance Matrix: (Units=1/GPa)
#
#
# Indices 1 2 3 4 5 6 
#
# 1 0.016551 -0.004435 0.001108 0.000000 0.000000 0.000000
# 2 -0.004435 0.042251 -0.033487 0.000000 0.000000 0.000000
# 3 0.001108 -0.033487 0.031978 0.000000 0.000000 0.000000
# 4 0.000000 0.000000 0.000000 0.021060 0.000000 0.000000
# 5 0.000000 0.000000 0.000000 0.000000 0.060348 0.000000
# 6 0.000000 0.000000 0.000000 0.000000 0.000000 0.026363
#
#
# Mechanical properties :
#
#
# Convention : Reuss Voigt Hill
#
# Bulk Modulus (GPa) = 58.30377 94.97360 76.63869
# Shear Modulus (GPa) = 17.99230 33.56853 25.78042
#
# Velocity S-wave (km/s) = 2.90324 3.96557 3.47524
# Velocity P-wave (km/s) = 6.20901 8.09072 7.21150
#
# Compressibility (1/GPa) = 0.01715155
#
# Stress axis : x y z
#
# Youngs Moduli (GPa) = 60.41802 23.66815 31.27172
#
# Poissons Ratio (x) = 0.10497 -0.03465
# Poissons Ratio (y) = 0.26795 1.04720
# Poissons Ratio (z) = -0.06694 0.79258
#
# Static dielectric constant tensor:
#      x y z
#    x 1.888540 0.000000 0.000000 
#    y 0.000000 1.730040 0.000000 
#    z 0.000000 0.000000 1.739170 
# 
# From -- ./inp_files/4316.got.cif
#   From: 2010.05.17/outbox.cif.g08.bks.cpg/sg58_3_cif.got.tgz:4316.got - 2010.06.03 14:20:14.
