data_PCOD9445144
_publ_section_title
;
Structure prediction by ZEFSAII (Michael W. Deem and Ramdas Pophale) SiO2 
 PCOD9445144
Probable space group: P N N M
;
_chemical_formula_sum "Si O2"
_cell_formula_units_Z 32
_cell_length_a 27.024339
_cell_length_b 5.278904
_cell_length_c 10.327745
_cell_angle_alpha 90.000000
_cell_angle_beta 90.000000
_cell_angle_gamma 90.000000
_cell_volume 1473.344651
_symmetry_space_group_name_H-M "P N N M"
_symmetry_group_IT_number 58
_symmetry_cell_setting 'orthorhombic'
loop_
_space_group_symop_operation_xyz
x,y,z
-x,-y,z
1/2+x,1/2-y,1/2-z
1/2-x,1/2+y,1/2-z
-x,-y,-z
x,y,-z
1/2-x,1/2+y,1/2+z
1/2+x,1/2-y,1/2+z
loop_
_atom_site_type_symbol
_atom_site_label
_atom_site_fract_x
_atom_site_fract_y
_atom_site_fract_z
Si Si1 0.057049 0.445128 0.146721
Si Si2 0.143696 0.819097 0.864366
Si Si3 0.129678 0.202042 0.646950
Si Si4 0.718035 0.022106 0.249944
O O1 0.089140 0.701280 0.138493
O O2 0.084427 0.297932 0.262793
O O3 0.000000 0.500000 0.174469
O O4 0.059708 0.330805 0.000000
O O5 0.183011 0.591045 0.861530
O O6 0.149762 0.970786 0.732600
O O7 0.151060 0.962673 0.000000
O O8 0.115489 0.143387 0.500000
O O9 0.175936 0.396418 0.647055
O O10 0.747506 0.280253 0.284240
#
# Coordination Sequence:
#
# PCOD9445144 Si02
#       4
#     8   8   8   8
#     4   9  20  41  67  94 127 174 229 281 333 396
#     4  10  22  41  66  94 128 169 222 277 328 394
#     4  11  24  41  64  97 139 175 218 276 340 407
#     4  11  23  45  65 100 130 177 226 278 330 390
#
# _framework density 21.719290000000001
#
# number of rings (size 3 to 8) (size 9 to 14) (size 15 to 20)
#    0.000    1.750    2.500    0.750    0.000    8.500 
#    0.000    5.000    0.000    0.000    0.000    0.000 
#    0.000    0.000    0.000    0.000    0.000    0.000 
#
# Total GULP energy -178201.704688 kJ/mol
# GULP energy per Si atom -5568.803271 kJ/mol
# Density = 2.166986 g / cm^3
# Si number density = 21.719290 Si / 1000 Ang^3
#
#
#
# Elastic Constant Matrix: (Units=GPa)
#
#
# Indices 1 2 3 4 5 6 
#
# 1 169.3526 51.4574 44.9400 0.0000 0.0000 0.0000
# 2 51.4574 98.9221 46.3220 0.0000 0.0000 0.0000
# 3 44.9400 46.3220 194.0321 0.0000 0.0000 0.0000
# 4 0.0000 0.0000 0.0000 23.7646 0.0000 0.0000
# 5 0.0000 0.0000 0.0000 0.0000 -74.6221 0.0000
# 6 0.0000 0.0000 0.0000 0.0000 0.0000 -85.8958
#
#
#
# Elastic Compliance Matrix: (Units=1/GPa)
#
#
# Indices 1 2 3 4 5 6 
#
# 1 0.007140 -0.003310 -0.000864 0.000000 0.000000 0.000000
# 2 -0.003310 0.012915 -0.002317 0.000000 0.000000 0.000000
# 3 -0.000864 -0.002317 0.005907 0.000000 0.000000 0.000000
# 4 0.000000 0.000000 0.000000 0.042079 0.000000 0.000000
# 5 0.000000 0.000000 0.000000 0.000000 -0.013401 0.000000
# 6 0.000000 0.000000 0.000000 0.000000 0.000000 -0.011642
#
#
# Mechanical properties :
#
#
# Convention : Reuss Voigt Hill
#
# Bulk Modulus (GPa) = 77.02874 83.08285 80.05579
# Shear Modulus (GPa) = 82.91129 -6.04484 38.43322
#
# Velocity S-wave (km/s) = 6.18522 -1.67009 4.21116
# Velocity P-wave (km/s) = 9.30332 5.88363 7.78360
#
# Compressibility (1/GPa) = 0.01298217
#
# Stress axis : x y z
#
# Youngs Moduli (GPa) = 140.06439 77.42694 169.29392
#
# Poissons Ratio (x) = 0.25625 0.14619
# Poissons Ratio (y) = 0.46355 0.39222
# Poissons Ratio (z) = 0.12095 0.17938
#
# Static dielectric constant tensor:
#      x y z
#    x 1.662210 0.000000 0.000000 
#    y 0.000000 1.908230 0.000000 
#    z 0.000000 0.000000 1.797220 
# 
# From -- ./inp_files/10570.got.cif
#   From: 2010.05.17/outbox.cif.g08.bks.cpg/sg58_6_cif.got.tgz:10570.got - 2010.06.03 14:20:14.
