data_PCOD9445558
_publ_section_title
;
Structure prediction by ZEFSAII (Michael W. Deem and Ramdas Pophale) SiO2 
 PCOD9445558
Probable space group: P N N M
;
_chemical_formula_sum "Si O2"
_cell_formula_units_Z 40
_cell_length_a 11.510496
_cell_length_b 8.992449
_cell_length_c 19.309677
_cell_angle_alpha 90.000000
_cell_angle_beta 90.000000
_cell_angle_gamma 90.000000
_cell_volume 1998.697324
_symmetry_space_group_name_H-M "P N N M"
_symmetry_group_IT_number 58
_symmetry_cell_setting 'orthorhombic'
loop_
_space_group_symop_operation_xyz
x,y,z
-x,-y,z
1/2+x,1/2-y,1/2-z
1/2-x,1/2+y,1/2-z
-x,-y,-z
x,y,-z
1/2-x,1/2+y,1/2+z
1/2+x,1/2-y,1/2+z
loop_
_atom_site_type_symbol
_atom_site_label
_atom_site_fract_x
_atom_site_fract_y
_atom_site_fract_z
Si Si1 0.325401 0.728168 0.369657
Si Si2 0.558414 0.154283 0.230088
Si Si3 0.453272 0.165392 0.577141
Si Si4 0.698834 0.604243 0.332381
Si Si5 0.894725 0.109997 0.676663
O O1 0.394131 0.762353 0.297765
O O2 0.424176 0.750530 0.425677
O O3 0.296083 0.554330 0.370100
O O4 0.218712 0.846972 0.368763
O O5 0.669469 0.149486 0.180999
O O6 0.457686 0.235406 0.189312
O O7 0.500000 0.000000 0.250599
O O8 0.400422 0.155489 0.500000
O O9 0.371162 0.262994 0.628619
O O10 0.500000 0.000000 0.597353
O O11 0.647774 0.570320 0.254932
O O12 0.000000 0.000000 0.654384
#
# Coordination Sequence:
#
# PCOD9445558 Si02
#       5
#     8   8   8   8   8
#     4  11  22  35  59  86 119 157 195 239 294 355
#     4  11  21  35  55  88 126 153 185 240 299 356
#     4  11  25  42  60  83 112 151 201 249 294 347
#     4  11  22  36  58  87 118 157 197 237 295 356
#     4  11  21  34  55  91 125 154 187 235 302 360
#
# _framework density 20.013036
#
# number of rings (size 3 to 8) (size 9 to 14) (size 15 to 20)
#    0.000    1.000    6.000    1.200    2.800    1.600 
#    0.000    0.000    0.000    2.400    0.000    0.000 
#    0.000    0.000    0.000    0.000    0.000    0.000 
#
# Total GULP energy -222699.439281 kJ/mol
# GULP energy per Si atom -5567.485982 kJ/mol
# Density = 1.996749 g / cm^3
# Si number density = 20.013036 Si / 1000 Ang^3
#
#
#
# Elastic Constant Matrix: (Units=GPa)
#
#
# Indices 1 2 3 4 5 6 
#
# 1 76.8167 -6.5890 9.6064 0.0000 0.0000 0.0000
# 2 -6.5890 74.5600 16.2456 0.0000 0.0000 0.0000
# 3 9.6064 16.2456 46.2223 0.0000 0.0000 0.0000
# 4 0.0000 0.0000 0.0000 3.4032 0.0000 0.0000
# 5 0.0000 0.0000 0.0000 0.0000 19.4361 0.0000
# 6 0.0000 0.0000 0.0000 0.0000 0.0000 40.0690
#
#
#
# Elastic Compliance Matrix: (Units=1/GPa)
#
#
# Indices 1 2 3 4 5 6 
#
# 1 0.013628 0.001973 -0.003526 0.000000 0.000000 0.000000
# 2 0.001973 0.014810 -0.005615 0.000000 0.000000 0.000000
# 3 -0.003526 -0.005615 0.024341 0.000000 0.000000 0.000000
# 4 0.000000 0.000000 0.000000 0.293839 0.000000 0.000000
# 5 0.000000 0.000000 0.000000 0.000000 0.051451 0.000000
# 6 0.000000 0.000000 0.000000 0.000000 0.000000 0.024957
#
#
# Mechanical properties :
#
#
# Convention : Reuss Voigt Hill
#
# Bulk Modulus (GPa) = 26.01297 26.23610 26.12454
# Shear Modulus (GPa) = 11.10678 24.47075 17.78876
#
# Velocity S-wave (km/s) = 2.35835 3.50056 2.98461
# Velocity P-wave (km/s) = 4.52128 5.42923 4.99593
#
# Compressibility (1/GPa) = 0.03844236
#
# Stress axis : x y z
#
# Youngs Moduli (GPa) = 73.37788 67.52297 41.08330
#
# Poissons Ratio (x) = -0.13319 0.14484
# Poissons Ratio (y) = -0.14474 0.23069
# Poissons Ratio (z) = 0.25870 0.37915
#
# Static dielectric constant tensor:
#      x y z
#    x 1.659590 0.000000 0.000000 
#    y 0.000000 1.796390 0.000000 
#    z 0.000000 0.000000 1.819170 
# 
# From -- ./inp_files/24942.got.cif
#   From: 2010.05.17/outbox.cif.g08.bks.cpg/sg58_13_cif.got.tgz:24942.got - 2010.06.03 14:20:14.
