data_PCOD9445373
_publ_section_title
;
Structure prediction by ZEFSAII (Michael W. Deem and Ramdas Pophale) SiO2 
 PCOD9445373
Probable space group: P N N M
;
_chemical_formula_sum "Si O2"
_cell_formula_units_Z 56
_cell_length_a 11.709226
_cell_length_b 14.000564
_cell_length_c 14.093088
_cell_angle_alpha 90.000000
_cell_angle_beta 90.000000
_cell_angle_gamma 90.000000
_cell_volume 2310.361205
_symmetry_space_group_name_H-M "P N N M"
_symmetry_group_IT_number 58
_symmetry_cell_setting 'orthorhombic'
loop_
_space_group_symop_operation_xyz
x,y,z
-x,-y,z
1/2+x,1/2-y,1/2-z
1/2-x,1/2+y,1/2-z
-x,-y,-z
x,y,-z
1/2-x,1/2+y,1/2+z
1/2+x,1/2-y,1/2+z
loop_
_atom_site_type_symbol
_atom_site_label
_atom_site_fract_x
_atom_site_fract_y
_atom_site_fract_z
Si Si1 0.851951 0.133888 0.800547
Si Si2 0.879992 0.718598 0.388259
Si Si3 0.754598 0.617292 0.892435
Si Si4 0.065691 0.233123 0.890825
Si Si5 0.232400 0.611212 0.108459
Si Si6 0.719117 0.447596 0.390391
Si Si7 0.062613 0.596099 0.275409
O O1 0.740209 0.170392 0.857769
O O2 0.829161 0.150212 0.689822
O O3 0.964810 0.185427 0.833709
O O4 0.851375 0.021591 0.826314
O O5 0.902588 0.704087 0.500000
O O6 0.849028 0.830453 0.372058
O O7 0.978045 0.670586 0.325578
O O8 0.755908 0.502866 0.889152
O O9 0.878038 0.664302 0.869612
O O10 0.725409 0.647303 0.000000
O O11 0.169658 0.158560 0.882098
O O12 0.860718 0.365264 0.811526
O O13 0.028676 0.235190 0.000000
O O14 0.152291 0.557839 0.353829
O O15 0.198364 0.637053 0.000000
O O16 0.710442 0.477443 0.500000
O O17 0.000000 0.500000 0.242004
#
# Coordination Sequence:
#
# PCOD9445373 Si02
#       7
#     8   8   8   8   8   8   8
#     4  12  23  42  74 109 148 194 252 313 383 453
#     4  11  25  44  72 110 149 191 245 316 384 456
#     4  10  23  48  76 108 151 204 261 313 373 454
#     4  10  24  46  75 107 145 196 254 317 380 453
#     4  10  24  49  76 108 149 200 262 311 370 458
#     4  11  23  43  72 110 152 194 246 310 386 459
#     4  12  24  45  75 112 151 198 248 313 391 455
#
# _framework density 24.238634999999999
#
# number of rings (size 3 to 8) (size 9 to 14) (size 15 to 20)
#    0.000    1.143    2.857    2.143    2.000    4.286 
#    0.000    5.000    0.000    5.143    0.000    0.000 
#    0.000    0.000    0.000    0.000    0.000    0.000 
#
# Total GULP energy -313809.446043 kJ/mol
# GULP energy per Si atom -5603.740108 kJ/mol
# Density = 2.418347 g / cm^3
# Si number density = 24.238635 Si / 1000 Ang^3
#
#
#
# Elastic Constant Matrix: (Units=GPa)
#
#
# Indices 1 2 3 4 5 6 
#
# 1 81.8076 46.1385 62.1139 0.0000 0.0000 0.0000
# 2 46.1385 139.4072 46.5514 0.0000 0.0000 0.0000
# 3 62.1139 46.5514 189.8766 0.0000 0.0000 0.0000
# 4 0.0000 0.0000 0.0000 32.5790 0.0000 0.0000
# 5 0.0000 0.0000 0.0000 0.0000 22.7343 0.0000
# 6 0.0000 0.0000 0.0000 0.0000 0.0000 43.6062
#
#
#
# Elastic Compliance Matrix: (Units=1/GPa)
#
#
# Indices 1 2 3 4 5 6 
#
# 1 0.018510 -0.004470 -0.004959 0.000000 0.000000 0.000000
# 2 -0.004470 0.008892 -0.000718 0.000000 0.000000 0.000000
# 3 -0.004959 -0.000718 0.007065 0.000000 0.000000 0.000000
# 4 0.000000 0.000000 0.000000 0.030695 0.000000 0.000000
# 5 0.000000 0.000000 0.000000 0.000000 0.043986 0.000000
# 6 0.000000 0.000000 0.000000 0.000000 0.000000 0.022933
#
#
# Mechanical properties :
#
#
# Convention : Reuss Voigt Hill
#
# Bulk Modulus (GPa) = 70.55649 80.07767 75.31708
# Shear Modulus (GPa) = 31.82682 36.86974 34.34828
#
# Velocity S-wave (km/s) = 3.62755 3.90438 3.76851
# Velocity P-wave (km/s) = 6.83504 7.30989 7.07645
#
# Compressibility (1/GPa) = 0.01417304
#
# Stress axis : x y z
#
# Youngs Moduli (GPa) = 54.02372 112.45580 141.54510
#
# Poissons Ratio (x) = 0.50270 0.70197
# Poissons Ratio (y) = 0.24150 0.10160
# Poissons Ratio (z) = 0.26792 0.08072
#
# Static dielectric constant tensor:
#      x y z
#    x 1.897970 0.000000 0.000000 
#    y 0.000000 1.993310 0.000000 
#    z 0.000000 0.000000 1.924110 
# 
# From -- ./inp_files/15666.got.cif
#   From: 2010.05.17/outbox.cif.g08.bks.cpg/sg58_8_cif.got.tgz:15666.got - 2010.06.03 14:20:14.
