data_PCOD9445507
_publ_section_title
;
Structure prediction by ZEFSAII (Michael W. Deem and Ramdas Pophale) SiO2 
 PCOD9445507
Probable space group: P N N M
;
_chemical_formula_sum "Si O2"
_cell_formula_units_Z 40
_cell_length_a 7.711017
_cell_length_b 17.151427
_cell_length_c 13.733615
_cell_angle_alpha 90.000000
_cell_angle_beta 90.000000
_cell_angle_gamma 90.000000
_cell_volume 1816.338499
_symmetry_space_group_name_H-M "P N N M"
_symmetry_group_IT_number 58
_symmetry_cell_setting 'orthorhombic'
loop_
_space_group_symop_operation_xyz
x,y,z
-x,-y,z
1/2+x,1/2-y,1/2-z
1/2-x,1/2+y,1/2-z
-x,-y,-z
x,y,-z
1/2-x,1/2+y,1/2+z
1/2+x,1/2-y,1/2+z
loop_
_atom_site_type_symbol
_atom_site_label
_atom_site_fract_x
_atom_site_fract_y
_atom_site_fract_z
Si Si1 0.106780 0.620753 0.888059
Si Si2 0.173044 0.053963 0.109779
Si Si3 0.178776 0.267946 0.614231
Si Si4 0.049581 0.125598 0.706205
Si Si5 0.685515 0.075366 0.762881
O O1 0.148000 0.713765 0.875539
O O2 0.297906 0.588779 0.859965
O O3 0.965677 0.588158 0.814664
O O4 0.354302 0.776454 0.000000
O O5 0.124114 0.123124 0.183465
O O6 0.308361 0.000164 0.167880
O O7 0.223737 0.075400 0.000000
O O8 0.000000 0.000000 0.103361
O O9 0.436068 0.105465 0.500000
O O10 0.035287 0.212858 0.665000
O O11 0.187630 0.349959 0.665908
O O12 0.869880 0.081174 0.707648
#
# Coordination Sequence:
#
# PCOD9445507 Si02
#       5
#     8   8   8   8   8
#     4   9  21  37  54  81 112 146 187 228 278 330
#     4   9  19  36  59  87 114 146 185 231 286 334
#     4   9  19  37  57  81 114 148 185 235 279 324
#     4   9  20  37  56  80 118 146 181 230 275 333
#     4  11  19  35  62  83 110 148 188 232 280 337
#
# _framework density 22.022327000000001
#
# number of rings (size 3 to 8) (size 9 to 14) (size 15 to 20)
#    1.200    1.400    0.000    1.800    0.000    3.200 
#    0.000    7.000    0.000    9.000    0.000    0.000 
#    0.000    0.000    0.000    0.000    0.000    0.000 
#
# Total GULP energy -223106.628970 kJ/mol
# GULP energy per Si atom -5577.665724 kJ/mol
# Density = 2.197220 g / cm^3
# Si number density = 22.022327 Si / 1000 Ang^3
#
#
#
# Elastic Constant Matrix: (Units=GPa)
#
#
# Indices 1 2 3 4 5 6 
#
# 1 72.8949 4.5883 35.8671 0.0000 0.0000 0.0000
# 2 4.5883 67.8502 41.4492 0.0000 0.0000 0.0000
# 3 35.8671 41.4492 158.9019 0.0000 0.0000 0.0000
# 4 0.0000 0.0000 0.0000 22.5242 0.0000 0.0000
# 5 0.0000 0.0000 0.0000 0.0000 12.1757 0.0000
# 6 0.0000 0.0000 0.0000 0.0000 0.0000 14.8474
#
#
#
# Elastic Compliance Matrix: (Units=1/GPa)
#
#
# Indices 1 2 3 4 5 6 
#
# 1 0.015528 0.001298 -0.003843 0.000000 0.000000 0.000000
# 2 0.001298 0.017641 -0.004894 0.000000 0.000000 0.000000
# 3 -0.003843 -0.004894 0.008437 0.000000 0.000000 0.000000
# 4 0.000000 0.000000 0.000000 0.044397 0.000000 0.000000
# 5 0.000000 0.000000 0.000000 0.000000 0.082131 0.000000
# 6 0.000000 0.000000 0.000000 0.000000 0.000000 0.067352
#
#
# Mechanical properties :
#
#
# Convention : Reuss Voigt Hill
#
# Bulk Modulus (GPa) = 37.41706 51.49512 44.45609
# Shear Modulus (GPa) = 19.28460 24.42560 21.85510
#
# Velocity S-wave (km/s) = 2.96241 3.33397 3.15367
# Velocity P-wave (km/s) = 5.35990 6.18501 5.78718
#
# Compressibility (1/GPa) = 0.02672577
#
# Stress axis : x y z
#
# Youngs Moduli (GPa) = 64.40051 56.68747 118.51932
#
# Poissons Ratio (x) = -0.07357 0.45553
# Poissons Ratio (y) = -0.08359 0.58009
# Poissons Ratio (z) = 0.24752 0.27745
#
# Static dielectric constant tensor:
#      x y z
#    x 1.856820 0.000000 0.000000 
#    y 0.000000 1.843580 0.000000 
#    z 0.000000 0.000000 1.777640 
# 
# From -- ./inp_files/12687.got.cif
#   From: 2010.05.17/outbox.cif.g08.bks.cpg/sg58_7_cif.got.tgz:12687.got - 2010.06.03 14:20:14.
