data_PCOD9445615
_publ_section_title
;
Structure prediction by ZEFSAII (Michael W. Deem and Ramdas Pophale) SiO2 
 PCOD9445615
Probable space group: P N N M
;
_chemical_formula_sum "Si O2"
_cell_formula_units_Z 48
_cell_length_a 7.655304
_cell_length_b 15.138927
_cell_length_c 19.727876
_cell_angle_alpha 90.000000
_cell_angle_beta 90.000000
_cell_angle_gamma 90.000000
_cell_volume 2286.324478
_symmetry_space_group_name_H-M "P N N M"
_symmetry_group_IT_number 58
_symmetry_cell_setting 'orthorhombic'
loop_
_space_group_symop_operation_xyz
x,y,z
-x,-y,z
1/2+x,1/2-y,1/2-z
1/2-x,1/2+y,1/2-z
-x,-y,-z
x,y,-z
1/2-x,1/2+y,1/2+z
1/2+x,1/2-y,1/2+z
loop_
_atom_site_type_symbol
_atom_site_label
_atom_site_fract_x
_atom_site_fract_y
_atom_site_fract_z
Si Si1 0.828667 0.875851 0.922921
Si Si2 0.274340 0.939487 0.424096
Si Si3 0.375340 0.625270 0.075968
Si Si4 0.112727 0.282674 0.168913
Si Si5 0.744061 0.573302 0.577092
Si Si6 0.211040 0.275650 0.674995
O O1 0.791121 0.795994 0.872365
O O2 0.036410 0.901036 0.922233
O O3 0.738068 0.969448 0.907917
O O4 0.786696 0.848805 0.000000
O O5 0.348468 0.926653 0.500000
O O6 0.361467 0.875012 0.369949
O O7 0.071484 0.911089 0.427455
O O8 0.257792 0.044148 0.409445
O O9 0.379767 0.696188 0.135192
O O10 0.330880 0.660439 0.000000
O O11 0.170060 0.286660 0.246500
O O12 0.913113 0.251686 0.168476
O O13 0.805707 0.589344 0.500000
O O14 0.826963 0.635816 0.632908
#
# Coordination Sequence:
#
# PCOD9445615 Si02
#       6
#     8   8   8   8   8   8
#     4   8  15  30  52  75  97 125 166 214 260 306
#     4   9  19  37  59  80 104 138 179 223 274 329
#     4   9  19  37  59  80 104 138 179 223 274 329
#     4  11  22  34  51  78 110 143 178 217 264 318
#     4   8  15  30  52  75  97 125 166 214 260 306
#     4  11  22  34  51  78 110 143 178 217 264 318
#
# _framework density 20.994395999999998
#
# number of rings (size 3 to 8) (size 9 to 14) (size 15 to 20)
#    0.000    2.667    0.000    4.000    0.000    4.000 
#    0.000    5.000    0.000    3.000    0.000   11.667 
#    0.000    0.000    0.000    0.000    0.000    0.000 
#
# Total GULP energy -267989.334529 kJ/mol
# GULP energy per Si atom -5583.111136 kJ/mol
# Density = 2.094661 g / cm^3
# Si number density = 20.994396 Si / 1000 Ang^3
#
#
#
# Elastic Constant Matrix: (Units=GPa)
#
#
# Indices 1 2 3 4 5 6 
#
# 1 35.4936 19.9757 21.3741 0.0000 0.0000 0.0000
# 2 19.9757 77.4184 80.9581 0.0000 0.0000 0.0000
# 3 21.3741 80.9581 147.2285 0.0000 0.0000 0.0000
# 4 0.0000 0.0000 0.0000 32.9655 0.0000 0.0000
# 5 0.0000 0.0000 0.0000 0.0000 10.6521 0.0000
# 6 0.0000 0.0000 0.0000 0.0000 0.0000 25.3943
#
#
#
# Elastic Compliance Matrix: (Units=1/GPa)
#
#
# Indices 1 2 3 4 5 6 
#
# 1 0.032964 -0.008238 -0.000256 0.000000 0.000000 0.000000
# 2 -0.008238 0.032453 -0.016649 0.000000 0.000000 0.000000
# 3 -0.000256 -0.016649 0.015984 0.000000 0.000000 0.000000
# 4 0.000000 0.000000 0.000000 0.030335 0.000000 0.000000
# 5 0.000000 0.000000 0.000000 0.000000 0.093878 0.000000
# 6 0.000000 0.000000 0.000000 0.000000 0.000000 0.039379
#
#
# Mechanical properties :
#
#
# Convention : Reuss Voigt Hill
#
# Bulk Modulus (GPa) = 32.13831 56.08403 44.11117
# Shear Modulus (GPa) = 16.35850 22.99123 19.67486
#
# Velocity S-wave (km/s) = 2.79441 3.31284 3.06461
# Velocity P-wave (km/s) = 5.07474 6.43467 5.79474
#
# Compressibility (1/GPa) = 0.03111551
#
# Stress axis : x y z
#
# Youngs Moduli (GPa) = 30.33567 30.81377 62.56109
#
# Poissons Ratio (x) = 0.25386 0.01599
# Poissons Ratio (y) = 0.24992 1.04160
# Poissons Ratio (z) = 0.00775 0.51303
#
# Static dielectric constant tensor:
#      x y z
#    x 1.824750 0.000000 0.000000 
#    y 0.000000 1.766570 0.000000 
#    z 0.000000 0.000000 1.683360 
# 
# From -- ./inp_files/7746.got.cif
#   From: 2010.05.17/outbox.cif.g08.bks.cpg/sg58_4_cif.got.tgz:7746.got - 2010.06.03 14:20:14.
