data_PCOD9445156
_publ_section_title
;
Structure prediction by ZEFSAII (Michael W. Deem and Ramdas Pophale) SiO2 
 PCOD9445156
Probable space group: P N N M
;
_chemical_formula_sum "Si O2"
_cell_formula_units_Z 48
_cell_length_a 8.710582
_cell_length_b 16.551682
_cell_length_c 15.728925
_cell_angle_alpha 90.000000
_cell_angle_beta 90.000000
_cell_angle_gamma 90.000000
_cell_volume 2267.714353
_symmetry_space_group_name_H-M "P N N M"
_symmetry_group_IT_number 58
_symmetry_cell_setting 'orthorhombic'
loop_
_space_group_symop_operation_xyz
x,y,z
-x,-y,z
1/2+x,1/2-y,1/2-z
1/2-x,1/2+y,1/2-z
-x,-y,-z
x,y,-z
1/2-x,1/2+y,1/2+z
1/2+x,1/2-y,1/2+z
loop_
_atom_site_type_symbol
_atom_site_label
_atom_site_fract_x
_atom_site_fract_y
_atom_site_fract_z
Si Si1 0.649572 0.687275 0.256453
Si Si2 0.618380 0.111385 0.500000
Si Si3 0.754272 0.034267 0.000000
Si Si4 0.396709 0.752747 0.362195
Si Si5 0.764733 0.438564 0.000000
Si Si6 0.826474 0.521196 0.694378
Si Si7 0.550900 0.374977 0.500000
Si Si8 0.109319 0.076436 0.321625
O O1 0.567344 0.744521 0.325128
O O2 0.761912 0.744261 0.204872
O O3 0.753135 0.609370 0.282991
O O4 0.504019 0.648057 0.207321
O O5 0.633054 0.168112 0.418299
O O6 0.443683 0.082385 0.500000
O O7 0.734982 0.036821 0.500000
O O8 0.673020 0.024785 0.908891
O O9 0.866955 0.112542 0.000000
O O10 0.868964 0.959559 0.000000
O O11 0.390589 0.674205 0.420009
O O12 0.693223 0.407792 0.088624
O O13 0.718765 0.455921 0.744250
O O14 0.000000 0.500000 0.722693
O O15 0.000000 0.000000 0.338828
#
# Coordination Sequence:
#
# PCOD9445156 Si02
#       8
#     8   4   4   8   4   8   4   8
#     4  11  25  41  68  99 137 186 223 288 347 416
#     4  10  24  40  65 100 129 185 217 282 348 405
#     4  11  21  42  71 101 130 178 235 289 338 397
#     4  11  24  44  64  95 140 179 225 275 350 428
#     4  11  23  41  70  96 139 173 236 281 334 403
#     4  11  24  41  71 104 139 175 239 293 344 399
#     4  10  22  41  70  93 134 182 223 279 351 410
#     4  10  23  41  67 101 133 176 230 284 341 396
#
# _framework density 21.166687
#
# number of rings (size 3 to 8) (size 9 to 14) (size 15 to 20)
#    0.000    1.333    1.667    3.500   11.667    2.667 
#    0.000    0.000    3.667    0.000    0.000    0.000 
#    0.000    0.000    0.000    0.000    0.000    0.000 
#
# Total GULP energy -267754.229899 kJ/mol
# GULP energy per Si atom -5578.213123 kJ/mol
# Density = 2.111851 g / cm^3
# Si number density = 21.166687 Si / 1000 Ang^3
#
#
#
# Elastic Constant Matrix: (Units=GPa)
#
#
# Indices 1 2 3 4 5 6 
#
# 1 111.1170 28.1537 46.9558 0.0000 0.0000 0.0000
# 2 28.1537 57.0572 24.4768 0.0000 0.0000 0.0000
# 3 46.9558 24.4768 116.7093 0.0000 0.0000 0.0000
# 4 0.0000 0.0000 0.0000 -1.6543 0.0000 0.0000
# 5 0.0000 0.0000 0.0000 0.0000 -43.0983 0.0000
# 6 0.0000 0.0000 0.0000 0.0000 0.0000 31.4344
#
#
#
# Elastic Compliance Matrix: (Units=1/GPa)
#
#
# Indices 1 2 3 4 5 6 
#
# 1 0.011659 -0.004110 -0.003829 0.000000 0.000000 0.000000
# 2 -0.004110 0.020708 -0.002689 0.000000 0.000000 0.000000
# 3 -0.003829 -0.002689 0.010673 0.000000 0.000000 0.000000
# 4 0.000000 0.000000 0.000000 -0.604490 0.000000 0.000000
# 5 0.000000 0.000000 0.000000 0.000000 -0.023203 0.000000
# 6 0.000000 0.000000 0.000000 0.000000 0.000000 0.031812
#
#
# Mechanical properties :
#
#
# Convention : Reuss Voigt Hill
#
# Bulk Modulus (GPa) = 45.90727 53.78401 49.84564
# Shear Modulus (GPa) = -9.53610 9.68951 0.07670
#
# Velocity S-wave (km/s) = -2.12486 2.14188 0.19057
# Velocity P-wave (km/s) = 3.96428 5.61977 4.86299
#
# Compressibility (1/GPa) = 0.02178304
#
# Stress axis : x y z
#
# Youngs Moduli (GPa) = 85.77139 48.29026 93.69694
#
# Poissons Ratio (x) = 0.19849 0.35874
# Poissons Ratio (y) = 0.35255 0.25198
# Poissons Ratio (z) = 0.32839 0.12987
#
# Static dielectric constant tensor:
#      x y z
#    x 1.749650 0.000000 0.000000 
#    y 0.000000 1.757080 0.000000 
#    z 0.000000 0.000000 1.847400 
# 
# From -- ./inp_files/19925.got.cif
#   From: 2010.05.17/outbox.cif.g08.bks.cpg/sg58_10_cif.got.tgz:19925.got - 2010.06.03 14:20:14.
