data_PCOD9445902
_publ_section_title
;
Structure prediction by ZEFSAII (Michael W. Deem and Ramdas Pophale) SiO2 
 PCOD9445902
Probable space group: P N N M
;
_chemical_formula_sum "Si O2"
_cell_formula_units_Z 64
_cell_length_a 21.000000
_cell_length_b 21.000000
_cell_length_c 9.000000
_cell_angle_alpha 90.000000
_cell_angle_beta 90.000000
_cell_angle_gamma 90.000000
_cell_volume 3969.000000
_symmetry_space_group_name_H-M "P N N M"
_symmetry_group_IT_number 58
_symmetry_cell_setting 'orthorhombic'
loop_
_space_group_symop_operation_xyz
x,y,z
-x,-y,z
1/2+x,1/2-y,1/2-z
1/2-x,1/2+y,1/2-z
-x,-y,-z
x,y,-z
1/2-x,1/2+y,1/2+z
1/2+x,1/2-y,1/2+z
loop_
_atom_site_type_symbol
_atom_site_label
_atom_site_fract_x
_atom_site_fract_y
_atom_site_fract_z
Si Si1 0.574903 0.209739 0.179012
Si Si2 0.687645 0.707934 0.819561
Si Si3 0.227722 0.066622 0.178504
Si Si4 0.812130 0.790937 0.820122
Si Si5 0.879228 0.431473 0.321418
Si Si6 0.369839 0.928275 0.179813
Si Si7 0.930202 0.295560 0.318318
Si Si8 0.770392 0.067528 0.320806
O O1 0.626090 0.256451 0.253423
O O2 0.591632 0.135805 0.214469
O O3 0.501980 0.222367 0.224477
O O4 0.579603 0.216196 0.000000
O O5 0.749891 0.749234 0.774557
O O6 0.624276 0.745651 0.770475
O O7 0.693686 0.633383 0.776390
O O8 0.687428 0.708515 0.000000
O O9 0.196215 0.134363 0.222248
O O10 0.303557 0.073399 0.209468
O O11 0.205984 0.000589 0.255767
O O12 0.220922 0.059446 0.000000
O O13 0.814792 0.789139 0.000000
O O14 0.886781 0.430053 0.500000
O O15 0.899468 0.503030 0.275062
O O16 0.913309 0.367486 0.265993
O O17 0.301181 0.924299 0.257734
O O18 0.360920 0.930243 0.000000
O O19 0.928609 0.296748 0.500000
O O20 0.769569 0.064017 0.500000
#
# Coordination Sequence:
#
# PCOD9445902 Si02
#       8
#     8   8   8   8   8   8   8   8
#     4  10  20  30  45  72 102 127 155 202 247 276
#     4   9  16  28  48  72  93 122 163 198 233 280
#     4   9  17  30  50  73  94 121 158 200 240 281
#     4  10  18  32  53  71  93 128 164 196 235 291
#     4   8  13  24  43  65  92 122 155 190 222 270
#     4   9  17  28  42  67 100 130 159 189 230 283
#     4   9  16  28  46  69  96 125 162 203 238 275
#     4  10  18  28  47  73  97 122 154 198 244 283
#
# _framework density 16.124969
#
# number of rings (size 3 to 8) (size 9 to 14) (size 15 to 20)
#    0.000    2.750    2.500    1.125    0.000    1.000 
#    0.000    2.500    0.000    6.000    0.000    9.625 
#    0.000    0.000    0.000    0.000    0.000    0.000 
#
# Total GULP energy -356378.138496 kJ/mol
# GULP energy per Si atom -5568.408414 kJ/mol
# Density = 1.608827 g / cm^3
# Si number density = 16.124969 Si / 1000 Ang^3
#
#
#
# Elastic Constant Matrix: (Units=GPa)
#
#
# Indices 1 2 3 4 5 6 
#
# 1 106.0732 77.5765 17.8715 0.0000 0.0000 0.0000
# 2 77.5765 169.9054 27.5986 0.0000 0.0000 0.0000
# 3 17.8715 27.5986 14.0255 0.0000 0.0000 0.0000
# 4 0.0000 0.0000 0.0000 25.2286 0.0000 0.0000
# 5 0.0000 0.0000 0.0000 0.0000 18.2072 0.0000
# 6 0.0000 0.0000 0.0000 0.0000 0.0000 24.6455
#
#
#
# Elastic Compliance Matrix: (Units=1/GPa)
#
#
# Indices 1 2 3 4 5 6 
#
# 1 0.014762 -0.005416 -0.008153 0.000000 0.000000 0.000000
# 2 -0.005416 0.010638 -0.014031 0.000000 0.000000 0.000000
# 3 -0.008153 -0.014031 0.109297 0.000000 0.000000 0.000000
# 4 0.000000 0.000000 0.000000 0.039638 0.000000 0.000000
# 5 0.000000 0.000000 0.000000 0.000000 0.054923 0.000000
# 6 0.000000 0.000000 0.000000 0.000000 0.000000 0.040575
#
#
# Mechanical properties :
#
#
# Convention : Reuss Voigt Hill
#
# Bulk Modulus (GPa) = 12.57919 59.56638 36.07278
# Shear Modulus (GPa) = 14.22351 24.74676 19.48514
#
# Velocity S-wave (km/s) = 2.97320 3.92176 3.47995
# Velocity P-wave (km/s) = 4.42771 7.58469 6.21016
#
# Compressibility (1/GPa) = 0.07949638
#
# Stress axis : x y z
#
# Youngs Moduli (GPa) = 67.74195 94.00690 9.14941
#
# Poissons Ratio (x) = 0.50912 0.07460
# Poissons Ratio (y) = 0.36687 0.12838
# Poissons Ratio (z) = 0.55230 1.31902
#
# Static dielectric constant tensor:
#      x y z
#    x 1.528700 0.000000 0.000000 
#    y 0.000000 1.565040 0.000000 
#    z 0.000000 0.000000 1.541930 
# 
# From -- ./inp_files/9431.got.cif
#   From: 2010.05.17/outbox.ucp.g08.bks.cvg/sg58_5_cif.got.tgz:9431.got - 2010.06.11 16:41:41.
