data_PCOD9445972
_publ_section_title
;
Structure prediction by ZEFSAII (Michael W. Deem and Ramdas Pophale) SiO2 
 PCOD9445972
Probable space group: P N N M
;
_chemical_formula_sum "Si O2"
_cell_formula_units_Z 64
_cell_length_a 24.000000
_cell_length_b 15.000000
_cell_length_c 9.000000
_cell_angle_alpha 90.000000
_cell_angle_beta 90.000000
_cell_angle_gamma 90.000000
_cell_volume 3240.000000
_symmetry_space_group_name_H-M "P N N M"
_symmetry_group_IT_number 58
_symmetry_cell_setting 'orthorhombic'
loop_
_space_group_symop_operation_xyz
x,y,z
-x,-y,z
1/2+x,1/2-y,1/2-z
1/2-x,1/2+y,1/2-z
-x,-y,-z
x,y,-z
1/2-x,1/2+y,1/2+z
1/2+x,1/2-y,1/2+z
loop_
_atom_site_type_symbol
_atom_site_label
_atom_site_fract_x
_atom_site_fract_y
_atom_site_fract_z
Si Si1 0.063793 0.029972 0.319754
Si Si2 0.409640 0.721070 0.676019
Si Si3 0.111505 0.848575 0.672550
Si Si4 0.667787 0.001020 0.821327
Si Si5 0.198974 0.304176 0.322254
Si Si6 0.514680 0.786837 0.169817
Si Si7 0.940509 0.451962 0.828254
Si Si8 0.199259 0.701551 0.319888
O O1 0.068281 0.040096 0.500000
O O2 0.079657 0.122019 0.241052
O O3 0.103665 0.948263 0.267558
O O4 0.000000 0.000000 0.289246
O O5 0.399885 0.718478 0.500000
O O6 0.359559 0.768100 0.762187
O O7 0.464742 0.777091 0.715915
O O8 0.127923 0.859730 0.500000
O O9 0.152658 0.773057 0.735042
O O10 0.050818 0.802973 0.673241
O O11 0.609263 0.010801 0.736435
O O12 0.690329 0.902463 0.777425
O O13 0.703712 0.089570 0.787600
O O14 0.658994 0.000130 0.000000
O O15 0.202348 0.294537 0.500000
O O16 0.244554 0.243169 0.242991
O O17 0.554166 0.866742 0.221481
O O18 0.495409 0.800802 0.000000
O O19 0.000000 0.500000 0.821288
O O20 0.929573 0.427816 0.000000
O O21 0.198699 0.701945 0.500000
#
# Coordination Sequence:
#
# PCOD9445972 Si02
#       8
#     8   8   8   8   8   8   8   8
#     4  10  19  36  62  91 125 168 213 253 301 373
#     4  12  25  40  59  90 129 168 208 260 320 372
#     4   9  18  35  62  91 120 158 203 249 305 364
#     4  10  22  42  67  91 121 162 210 256 307 372
#     4  11  25  44  65  92 122 163 214 261 310 372
#     4  11  20  37  62  88 121 163 207 252 306 373
#     4  11  23  36  55  90 130 164 203 253 312 373
#     4  10  21  42  67  92 123 160 204 260 317 368
#
# _framework density 19.753086
#
# number of rings (size 3 to 8) (size 9 to 14) (size 15 to 20)
#    0.000    1.500    2.500    3.000    0.000    5.750 
#    0.000    3.125    0.000    0.000    0.000    0.000 
#    0.000    0.000    0.000    0.000    0.000    0.000 
#
# Total GULP energy -357244.253849 kJ/mol
# GULP energy per Si atom -5581.941466 kJ/mol
# Density = 1.970813 g / cm^3
# Si number density = 19.753086 Si / 1000 Ang^3
#
#
#
# Elastic Constant Matrix: (Units=GPa)
#
#
# Indices 1 2 3 4 5 6 
#
# 1 54.1809 17.5961 -5.5258 0.0000 0.0000 0.0000
# 2 17.5961 109.2378 19.5544 0.0000 0.0000 0.0000
# 3 -5.5258 19.5544 29.5757 0.0000 0.0000 0.0000
# 4 0.0000 0.0000 0.0000 22.3293 0.0000 0.0000
# 5 0.0000 0.0000 0.0000 0.0000 26.3003 0.0000
# 6 0.0000 0.0000 0.0000 0.0000 0.0000 28.3545
#
#
#
# Elastic Compliance Matrix: (Units=1/GPa)
#
#
# Indices 1 2 3 4 5 6 
#
# 1 0.020636 -0.004553 0.006866 0.000000 0.000000 0.000000
# 2 -0.004553 0.011388 -0.008380 0.000000 0.000000 0.000000
# 3 0.006866 -0.008380 0.040635 0.000000 0.000000 0.000000
# 4 0.000000 0.000000 0.000000 0.044784 0.000000 0.000000
# 5 0.000000 0.000000 0.000000 0.000000 0.038022 0.000000
# 6 0.000000 0.000000 0.000000 0.000000 0.000000 0.035268
#
#
# Mechanical properties :
#
#
# Convention : Reuss Voigt Hill
#
# Bulk Modulus (GPa) = 16.52240 28.47152 22.49696
# Shear Modulus (GPa) = 22.41737 26.15481 24.28609
#
# Velocity S-wave (km/s) = 3.37245 3.64275 3.51020
# Velocity P-wave (km/s) = 4.85255 5.66902 5.27660
#
# Compressibility (1/GPa) = 0.06052390
#
# Stress axis : x y z
#
# Youngs Moduli (GPa) = 48.45998 87.81330 24.60948
#
# Poissons Ratio (x) = 0.39981 -0.16896
# Poissons Ratio (y) = 0.22064 0.20622
# Poissons Ratio (z) = -0.33271 0.73586
#
# Static dielectric constant tensor:
#      x y z
#    x 1.720150 0.000000 0.000000 
#    y 0.000000 1.710120 0.000000 
#    z 0.000000 0.000000 1.651530 
# 
# From -- ./inp_files/9955.got.cif
#   From: 2010.05.17/outbox.ucp.g08.bks.cvg/sg58_5_cif.got.tgz:9955.got - 2010.06.11 16:41:41.
