data_PCOD9445326
_publ_section_title
;
Structure prediction by ZEFSAII (Michael W. Deem and Ramdas Pophale) SiO2 
 PCOD9445326
Probable space group: P N N M
;
_chemical_formula_sum "Si O2"
_cell_formula_units_Z 34
_cell_length_a 16.585379
_cell_length_b 9.744898
_cell_length_c 9.737500
_cell_angle_alpha 90.000000
_cell_angle_beta 90.000000
_cell_angle_gamma 90.000000
_cell_volume 1573.802274
_symmetry_space_group_name_H-M "P N N M"
_symmetry_group_IT_number 58
_symmetry_cell_setting 'orthorhombic'
loop_
_space_group_symop_operation_xyz
x,y,z
-x,-y,z
1/2+x,1/2-y,1/2-z
1/2-x,1/2+y,1/2-z
-x,-y,-z
x,y,-z
1/2-x,1/2+y,1/2+z
1/2+x,1/2-y,1/2+z
loop_
_atom_site_type_symbol
_atom_site_label
_atom_site_fract_x
_atom_site_fract_y
_atom_site_fract_z
Si Si1 0.500000 0.000000 0.000000
Si Si2 0.681184 0.805155 0.657094
Si Si3 0.500212 0.848187 0.716224
Si Si4 0.585616 0.422240 0.655698
Si Si5 0.221325 0.937569 0.337899
O O1 0.496585 0.882252 0.877716
O O2 0.704054 0.775066 0.500000
O O3 0.586573 0.784286 0.678106
O O4 0.702344 0.963496 0.684272
O O5 0.727280 0.706249 0.760777
O O6 0.433128 0.739174 0.673603
O O7 0.500000 0.000000 0.650626
O O8 0.500000 0.500000 0.670031
O O9 0.615793 0.447348 0.500000
O O10 0.647611 0.481028 0.766451
O O11 0.208675 0.919097 0.500000
#
# Coordination Sequence:
#
# PCOD9445326 Si02
#       5
#     2   8   8   8   8
#     4   8  24  40  60 108 128 164 210 278 322 366
#     4  11  25  47  65  96 132 174 219 266 325 392
#     4  10  23  42  69  93 133 171 215 270 322 389
#     4  11  23  42  68  98 128 170 217 266 325 386
#     4  11  27  43  68  97 131 172 218 271 328 387
#
# _framework density 21.603729999999999
#
# number of rings (size 3 to 8) (size 9 to 14) (size 15 to 20)
#    0.706    0.706    2.353    1.412    6.588    4.235 
#    4.235    0.000    0.000    0.000    0.000    0.000 
#    0.000    0.000    0.000    0.000    0.000    0.000 
#
# Total GULP energy -189470.237419 kJ/mol
# GULP energy per Si atom -5572.654042 kJ/mol
# Density = 2.155456 g / cm^3
# Si number density = 21.603730 Si / 1000 Ang^3
#
#
#
# Elastic Constant Matrix: (Units=GPa)
#
#
# Indices 1 2 3 4 5 6 
#
# 1 29.2962 -5.5191 -1.8479 0.0000 0.0000 0.0000
# 2 -5.5191 109.4364 26.1886 0.0000 0.0000 0.0000
# 3 -1.8479 26.1886 120.3322 0.0000 0.0000 0.0000
# 4 0.0000 0.0000 0.0000 53.1897 0.0000 0.0000
# 5 0.0000 0.0000 0.0000 0.0000 23.6338 0.0000
# 6 0.0000 0.0000 0.0000 0.0000 0.0000 35.2947
#
#
#
# Elastic Compliance Matrix: (Units=1/GPa)
#
#
# Indices 1 2 3 4 5 6 
#
# 1 0.034464 0.001700 0.000159 0.000000 0.000000 0.000000
# 2 0.001700 0.009724 -0.002090 0.000000 0.000000 0.000000
# 3 0.000159 -0.002090 0.008768 0.000000 0.000000 0.000000
# 4 0.000000 0.000000 0.000000 0.018801 0.000000 0.000000
# 5 0.000000 0.000000 0.000000 0.000000 0.042312 0.000000
# 6 0.000000 0.000000 0.000000 0.000000 0.000000 0.028333
#
#
# Mechanical properties :
#
#
# Convention : Reuss Voigt Hill
#
# Bulk Modulus (GPa) = 19.04978 32.96756 26.00867
# Shear Modulus (GPa) = 31.17961 38.43985 34.80973
#
# Velocity S-wave (km/s) = 3.80314 4.22277 4.01843
# Velocity P-wave (km/s) = 5.30303 6.25052 5.79616
#
# Compressibility (1/GPa) = 0.05249404
#
# Stress axis : x y z
#
# Youngs Moduli (GPa) = 29.01544 102.84228 114.05564
#
# Poissons Ratio (x) = -0.17483 -0.01817
# Poissons Ratio (y) = -0.04933 0.23839
# Poissons Ratio (z) = -0.00462 0.21495
#
# Static dielectric constant tensor:
#      x y z
#    x 1.797290 0.000000 0.000000 
#    y 0.000000 1.828840 0.000000 
#    z 0.000000 0.000000 1.733010 
# 
# From -- ./inp_files/8651.got.cif
#   From: 2010.05.17/outbox.cif.g08.bks.cpg/sg58_5_cif.got.tgz:8651.got - 2010.06.03 14:20:14.
