data_PCOD9445526
_publ_section_title
;
Structure prediction by ZEFSAII (Michael W. Deem and Ramdas Pophale) SiO2 
 PCOD9445526
Probable space group: P N N M
;
_chemical_formula_sum "Si O2"
_cell_formula_units_Z 56
_cell_length_a 15.113906
_cell_length_b 21.657454
_cell_length_c 8.054862
_cell_angle_alpha 90.000000
_cell_angle_beta 90.000000
_cell_angle_gamma 90.000000
_cell_volume 2636.587700
_symmetry_space_group_name_H-M "P N N M"
_symmetry_group_IT_number 58
_symmetry_cell_setting 'orthorhombic'
loop_
_space_group_symop_operation_xyz
x,y,z
-x,-y,z
1/2+x,1/2-y,1/2-z
1/2-x,1/2+y,1/2-z
-x,-y,-z
x,y,-z
1/2-x,1/2+y,1/2+z
1/2+x,1/2-y,1/2+z
loop_
_atom_site_type_symbol
_atom_site_label
_atom_site_fract_x
_atom_site_fract_y
_atom_site_fract_z
Si Si1 0.551125 0.870910 0.191697
Si Si2 0.581723 0.043549 0.307962
Si Si3 0.224622 0.967930 0.190487
Si Si4 0.188951 0.235087 0.797541
Si Si5 0.014485 0.756355 0.804973
Si Si6 0.165791 0.835729 0.304873
Si Si7 0.756834 0.399801 0.703405
O O1 0.463753 0.889699 0.290614
O O2 0.563844 0.798094 0.207702
O O3 0.640553 0.902016 0.257811
O O4 0.538619 0.887967 0.000000
O O5 0.603677 0.031448 0.500000
O O6 0.668840 0.038180 0.200772
O O7 0.500000 0.000000 0.255688
O O8 0.187949 0.907428 0.278734
O O9 0.207909 0.037452 0.257198
O O10 0.195302 0.965624 0.000000
O O11 0.254902 0.290148 0.742086
O O12 0.219963 0.166577 0.744689
O O13 0.086775 0.241600 0.746126
O O14 0.189882 0.235750 0.000000
O O15 0.073305 0.816851 0.777993
O O16 0.014797 0.741636 0.000000
O O17 0.157677 0.824163 0.500000
O O18 0.757716 0.400496 0.500000
#
# Coordination Sequence:
#
# PCOD9445526 Si02
#       7
#     8   8   8   8   8   8   8
#     4  11  20  35  59  83 114 155 199 245 299 360
#     4  11  22  34  51  81 121 157 192 237 300 368
#     4  11  22  37  59  86 117 153 202 254 301 359
#     4   9  19  38  62  85 113 155 202 245 293 352
#     4  11  22  37  61  91 119 150 200 257 304 358
#     4  11  22  40  63  87 123 163 197 243 308 369
#     4   9  18  35  59  84 110 150 199 244 293 352
#
# _framework density 21.239574999999999
#
# number of rings (size 3 to 8) (size 9 to 14) (size 15 to 20)
#    0.000    1.571    2.857    3.000    0.000    1.714 
#    0.000    2.857    0.000    4.286    0.000    0.000 
#    0.000    0.000    0.000    0.000    0.000    0.000 
#
# Total GULP energy -312682.661656 kJ/mol
# GULP energy per Si atom -5583.618958 kJ/mol
# Density = 2.119123 g / cm^3
# Si number density = 21.239575 Si / 1000 Ang^3
#
#
#
# Elastic Constant Matrix: (Units=GPa)
#
#
# Indices 1 2 3 4 5 6 
#
# 1 53.6780 12.2794 5.8171 0.0000 0.0000 0.0000
# 2 12.2794 112.2603 4.1339 0.0000 0.0000 0.0000
# 3 5.8171 4.1339 40.1207 0.0000 0.0000 0.0000
# 4 0.0000 0.0000 0.0000 28.7794 0.0000 0.0000
# 5 0.0000 0.0000 0.0000 0.0000 16.8038 0.0000
# 6 0.0000 0.0000 0.0000 0.0000 0.0000 33.9067
#
#
#
# Elastic Compliance Matrix: (Units=1/GPa)
#
#
# Indices 1 2 3 4 5 6 
#
# 1 0.019374 -0.002023 -0.002601 0.000000 0.000000 0.000000
# 2 -0.002023 0.009153 -0.000650 0.000000 0.000000 0.000000
# 3 -0.002601 -0.000650 0.025369 0.000000 0.000000 0.000000
# 4 0.000000 0.000000 0.000000 0.034747 0.000000 0.000000
# 5 0.000000 0.000000 0.000000 0.000000 0.059510 0.000000
# 6 0.000000 0.000000 0.000000 0.000000 0.000000 0.029493
#
#
# Mechanical properties :
#
#
# Convention : Reuss Voigt Hill
#
# Bulk Modulus (GPa) = 23.06873 27.83553 25.45213
# Shear Modulus (GPa) = 24.67387 28.15321 26.41354
#
# Velocity S-wave (km/s) = 3.41206 3.64470 3.53030
# Velocity P-wave (km/s) = 5.13884 5.55390 5.35039
#
# Compressibility (1/GPa) = 0.04334872
#
# Stress axis : x y z
#
# Youngs Moduli (GPa) = 51.61470 109.25233 39.41847
#
# Poissons Ratio (x) = 0.22107 0.10251
# Poissons Ratio (y) = 0.10444 0.02561
# Poissons Ratio (z) = 0.13423 0.07099
#
# Static dielectric constant tensor:
#      x y z
#    x 1.748080 0.000000 0.000000 
#    y 0.000000 1.864400 0.000000 
#    z 0.000000 0.000000 1.744300 
# 
# From -- ./inp_files/6295.got.cif
#   From: 2010.05.17/outbox.cif.g08.bks.cpg/sg58_4_cif.got.tgz:6295.got - 2010.06.03 14:20:14.
