data_PCOD9445845
_publ_section_title
;
Structure prediction by ZEFSAII (Michael W. Deem and Ramdas Pophale) SiO2 
 PCOD9445845
Probable space group: P N N M
;
_chemical_formula_sum "Si O2"
_cell_formula_units_Z 30
_cell_length_a 5.053301
_cell_length_b 28.071727
_cell_length_c 9.471404
_cell_angle_alpha 90.000000
_cell_angle_beta 90.000000
_cell_angle_gamma 90.000000
_cell_volume 1343.564936
_symmetry_space_group_name_H-M "P N N M"
_symmetry_group_IT_number 58
_symmetry_cell_setting 'orthorhombic'
loop_
_space_group_symop_operation_xyz
x,y,z
-x,-y,z
1/2+x,1/2-y,1/2-z
1/2-x,1/2+y,1/2-z
-x,-y,-z
x,y,-z
1/2-x,1/2+y,1/2+z
1/2+x,1/2-y,1/2+z
loop_
_atom_site_type_symbol
_atom_site_label
_atom_site_fract_x
_atom_site_fract_y
_atom_site_fract_z
Si Si1 0.272541 0.076238 0.698995
Si Si2 0.219910 0.272818 0.329364
Si Si3 0.732819 0.637203 0.845730
Si Si4 0.749932 0.965605 0.000000
Si Si5 0.500000 0.500000 0.000000
O O1 0.567344 0.092466 0.659150
O O2 0.065155 0.117941 0.661310
O O3 0.169865 0.029441 0.620533
O O4 0.255905 0.066853 0.863335
O O5 0.480951 0.253835 0.249790
O O6 0.221916 0.266747 0.500000
O O7 0.201650 0.327991 0.282348
O O8 0.771939 0.660896 0.000000
O O9 0.500000 0.000000 0.000000
O O10 0.000000 0.000000 0.000000
#
# Coordination Sequence:
#
# PCOD9445845 Si02
#       5
#     8   8   8   4   2
#     4  12  27  42  71  98 143 182 243 294 360 429
#     4  12  27  49  79 110 149 198 245 305 381 465
#     4  12  25  46  70 107 140 183 236 306 358 428
#     4  12  26  44  64  94 132 181 230 292 340 422
#     4  12  24  48  68 102 136 198 240 286 372 424
#
# _framework density 22.328654
#
# number of rings (size 3 to 8) (size 9 to 14) (size 15 to 20)
#    0.000    0.000    4.000    5.600    3.733    1.067 
#    0.000    0.000    0.000    0.000    0.000    0.000 
#    0.000    0.000    0.000    0.000    0.000    0.000 
#
# Total GULP energy -167449.584522 kJ/mol
# GULP energy per Si atom -5581.652817 kJ/mol
# Density = 2.227783 g / cm^3
# Si number density = 22.328654 Si / 1000 Ang^3
#
#
#
# Elastic Constant Matrix: (Units=GPa)
#
#
# Indices 1 2 3 4 5 6 
#
# 1 132.4956 10.8474 37.0792 0.0000 0.0000 0.0000
# 2 10.8474 52.3484 28.9636 0.0000 0.0000 0.0000
# 3 37.0792 28.9636 257.4732 0.0000 0.0000 0.0000
# 4 0.0000 0.0000 0.0000 15.4519 0.0000 0.0000
# 5 0.0000 0.0000 0.0000 0.0000 16.8391 0.0000
# 6 0.0000 0.0000 0.0000 0.0000 0.0000 33.7902
#
#
#
# Elastic Compliance Matrix: (Units=1/GPa)
#
#
# Indices 1 2 3 4 5 6 
#
# 1 0.007921 -0.001077 -0.001020 0.000000 0.000000 0.000000
# 2 -0.001077 0.020517 -0.002153 0.000000 0.000000 0.000000
# 3 -0.001020 -0.002153 0.004273 0.000000 0.000000 0.000000
# 4 0.000000 0.000000 0.000000 0.064717 0.000000 0.000000
# 5 0.000000 0.000000 0.000000 0.000000 0.059386 0.000000
# 6 0.000000 0.000000 0.000000 0.000000 0.000000 0.029594
#
#
# Mechanical properties :
#
#
# Convention : Reuss Voigt Hill
#
# Bulk Modulus (GPa) = 41.30236 66.23307 53.76772
# Shear Modulus (GPa) = 24.63322 37.57803 31.10562
#
# Velocity S-wave (km/s) = 3.32507 4.10683 3.73645
# Velocity P-wave (km/s) = 5.76880 7.22601 6.53813
#
# Compressibility (1/GPa) = 0.02421169
#
# Stress axis : x y z
#
# Youngs Moduli (GPa) = 126.24774 48.73974 234.03290
#
# Poissons Ratio (x) = 0.05250 0.23860
# Poissons Ratio (y) = 0.13600 0.50384
# Poissons Ratio (z) = 0.12871 0.10493
#
# Static dielectric constant tensor:
#      x y z
#    x 1.801240 0.000000 0.000000 
#    y 0.000000 1.867030 0.000000 
#    z 0.000000 0.000000 1.764130 
# 
# From -- ./inp_files/1367.got.cif
#   From: 2010.05.17/outbox.cif.g08.bks.cpg/sg58_1_cif.got.tgz:1367.got - 2010.06.03 14:20:14.
