data_PCOD9445239
_publ_section_title
;
Structure prediction by ZEFSAII (Michael W. Deem and Ramdas Pophale) SiO2 
 PCOD9445239
Probable space group: P N N M
;
_chemical_formula_sum "Si O2"
_cell_formula_units_Z 64
_cell_length_a 10.253236
_cell_length_b 9.524178
_cell_length_c 29.362422
_cell_angle_alpha 90.000000
_cell_angle_beta 90.000000
_cell_angle_gamma 90.000000
_cell_volume 2867.347527
_symmetry_space_group_name_H-M "P N N M"
_symmetry_group_IT_number 58
_symmetry_cell_setting 'orthorhombic'
loop_
_space_group_symop_operation_xyz
x,y,z
-x,-y,z
1/2+x,1/2-y,1/2-z
1/2-x,1/2+y,1/2-z
-x,-y,-z
x,y,-z
1/2-x,1/2+y,1/2+z
1/2+x,1/2-y,1/2+z
loop_
_atom_site_type_symbol
_atom_site_label
_atom_site_fract_x
_atom_site_fract_y
_atom_site_fract_z
Si Si1 0.280109 0.321478 0.945212
Si Si2 0.899329 0.367984 0.628269
Si Si3 0.876674 0.418367 0.923060
Si Si4 0.341674 0.161241 0.675893
Si Si5 0.342090 0.478966 0.332830
Si Si6 0.488255 0.165724 0.772029
Si Si7 0.861640 0.927921 0.266922
Si Si8 0.014464 0.157350 0.946754
O O1 0.386365 0.243520 0.913096
O O2 0.248322 0.485250 0.933769
O O3 0.143394 0.242575 0.932400
O O4 0.303290 0.307972 0.000000
O O5 0.755357 0.432834 0.636353
O O6 0.935023 0.297138 0.677399
O O7 0.000000 0.500000 0.620602
O O8 0.901619 0.403158 0.869181
O O9 0.889823 0.258212 0.939786
O O10 0.000000 0.500000 0.944594
O O11 0.306091 0.317441 0.660258
O O12 0.415294 0.188832 0.723790
O O13 0.231713 0.051431 0.690946
O O14 0.500000 0.500000 0.334973
O O15 0.307232 0.521722 0.280947
O O16 0.615460 0.260720 0.765373
O O17 0.500000 0.000000 0.774377
O O18 0.000000 0.000000 0.273034
O O19 0.033198 0.140091 0.000000
O O20 0.000000 0.000000 0.927487
#
# Coordination Sequence:
#
# PCOD9445239 Si02
#       8
#     8   8   8   8   8   8   8   8
#     4  10  23  42  67  96 127 171 231 290 349 418
#     4  11  25  43  68  96 138 182 229 287 350 416
#     4  10  23  37  60  97 131 173 217 284 348 416
#     4  12  23  37  61  93 133 177 223 268 334 409
#     4  11  24  41  65  98 132 177 229 288 323 397
#     4  11  23  40  60  89 132 177 222 270 333 398
#     4  11  24  41  61  89 131 185 231 275 328 396
#     4   9  19  38  64  94 130 168 213 282 359 418
#
# _framework density 22.32028
#
# number of rings (size 3 to 8) (size 9 to 14) (size 15 to 20)
#    0.000    1.375    3.750    2.250    7.000    2.750 
#    0.000    0.000    0.000    0.000    0.000    3.500 
#    0.000    0.000    0.000    0.000    0.000    0.000 
#
# Total GULP energy -356677.601436 kJ/mol
# GULP energy per Si atom -5573.087522 kJ/mol
# Density = 2.226948 g / cm^3
# Si number density = 22.320280 Si / 1000 Ang^3
#
#
#
# Elastic Constant Matrix: (Units=GPa)
#
#
# Indices 1 2 3 4 5 6 
#
# 1 28.6056 -1.1581 -14.1814 0.0000 0.0000 0.0000
# 2 -1.1581 108.5506 17.7517 0.0000 0.0000 0.0000
# 3 -14.1814 17.7517 60.8597 0.0000 0.0000 0.0000
# 4 0.0000 0.0000 0.0000 205.1393 0.0000 0.0000
# 5 0.0000 0.0000 0.0000 0.0000 100.3575 0.0000
# 6 0.0000 0.0000 0.0000 0.0000 0.0000 30.7243
#
#
#
# Elastic Compliance Matrix: (Units=1/GPa)
#
#
# Indices 1 2 3 4 5 6 
#
# 1 0.039659 -0.001143 0.009574 0.000000 0.000000 0.000000
# 2 -0.001143 0.009707 -0.003098 0.000000 0.000000 0.000000
# 3 0.009574 -0.003098 0.019566 0.000000 0.000000 0.000000
# 4 0.000000 0.000000 0.000000 0.004875 0.000000 0.000000
# 5 0.000000 0.000000 0.000000 0.000000 0.009964 0.000000
# 6 0.000000 0.000000 0.000000 0.000000 0.000000 0.032548
#
#
# Mechanical properties :
#
#
# Convention : Reuss Voigt Hill
#
# Bulk Modulus (GPa) = 12.56291 22.53782 17.55036
# Shear Modulus (GPa) = 37.82660 80.28447 59.05554
#
# Velocity S-wave (km/s) = 4.12116 6.00395 5.14934
# Velocity P-wave (km/s) = 5.31846 7.62775 6.57528
#
# Compressibility (1/GPa) = 0.07959942
#
# Stress axis : x y z
#
# Youngs Moduli (GPa) = 25.21527 103.02213 51.10979
#
# Poissons Ratio (x) = 0.11772 -0.48935
# Poissons Ratio (y) = 0.02881 0.15831
# Poissons Ratio (z) = -0.24142 0.31911
#
# Static dielectric constant tensor:
#      x y z
#    x 1.868780 0.000000 0.000000 
#    y 0.000000 1.896440 0.000000 
#    z 0.000000 0.000000 1.833500 
# 
# From -- ./inp_files/34939.got.cif
#   From: 2010.05.17/outbox.cif.g08.bks.cpg/sg58_18_cif.got.tgz:34939.got - 2010.06.03 14:20:14.
