data_PCOD9445951
_publ_section_title
;
Structure prediction by ZEFSAII (Michael W. Deem and Ramdas Pophale) SiO2 
 PCOD9445951
Probable space group: P N N M
;
_chemical_formula_sum "Si O2"
_cell_formula_units_Z 64
_cell_length_a 15.000000
_cell_length_b 24.000000
_cell_length_c 9.000000
_cell_angle_alpha 90.000000
_cell_angle_beta 90.000000
_cell_angle_gamma 90.000000
_cell_volume 3240.000000
_symmetry_space_group_name_H-M "P N N M"
_symmetry_group_IT_number 58
_symmetry_cell_setting 'orthorhombic'
loop_
_space_group_symop_operation_xyz
x,y,z
-x,-y,z
1/2+x,1/2-y,1/2-z
1/2-x,1/2+y,1/2-z
-x,-y,-z
x,y,-z
1/2-x,1/2+y,1/2+z
1/2+x,1/2-y,1/2+z
loop_
_atom_site_type_symbol
_atom_site_label
_atom_site_fract_x
_atom_site_fract_y
_atom_site_fract_z
Si Si1 0.257912 0.293286 0.664490
Si Si2 0.829971 0.303709 0.671175
Si Si3 0.412087 0.380192 0.668804
Si Si4 0.578679 0.331073 0.823943
Si Si5 0.010917 0.280031 0.177371
Si Si6 0.139356 0.377925 0.170511
Si Si7 0.728272 0.407611 0.676002
Si Si8 0.244305 0.965252 0.821824
O O1 0.216518 0.298467 0.500000
O O2 0.267887 0.230480 0.715982
O O3 0.352555 0.324468 0.656118
O O4 0.208319 0.329129 0.787189
O O5 0.808602 0.289803 0.500000
O O6 0.816607 0.369598 0.689086
O O7 0.925970 0.282128 0.716807
O O8 0.445409 0.392499 0.500000
O O9 0.489431 0.365640 0.781847
O O10 0.344470 0.429437 0.716190
O O11 0.569620 0.272021 0.736045
O O12 0.655523 0.371379 0.762049
O O13 0.585741 0.321570 0.000000
O O14 0.050364 0.342506 0.194721
O O15 0.993902 0.272096 0.000000
O O16 0.170397 0.430890 0.264415
O O17 0.145701 0.393832 0.000000
O O18 0.704767 0.409341 0.500000
O O19 0.738657 0.470929 0.728926
O O20 0.248388 0.964907 0.000000
#
# Coordination Sequence:
#
# PCOD9445951 Si02
#       8
#     8   8   8   8   8   8   8   8
#     4  10  19  33  56  83 114 151 185 224 286 351
#     4  11  22  36  58  85 113 147 189 241 291 337
#     4   9  18  34  57  83 113 152 188 229 281 336
#     4  12  24  36  57  89 121 152 190 237 288 342
#     4  11  23  39  58  84 119 155 188 232 292 351
#     4  10  21  36  58  85 113 147 190 241 286 330
#     4  10  23  42  60  82 115 154 194 238 290 345
#     4   9  20  40  63  83 110 154 201 237 281 344
#
# _framework density 19.753086
#
# number of rings (size 3 to 8) (size 9 to 14) (size 15 to 20)
#    0.000    1.750    1.250    4.125    0.000    9.000 
#    0.000    3.125    0.000    3.750    0.000    0.000 
#    0.000    0.000    0.000    0.000    0.000    0.000 
#
# Total GULP energy -356701.990931 kJ/mol
# GULP energy per Si atom -5573.468608 kJ/mol
# Density = 1.970813 g / cm^3
# Si number density = 19.753086 Si / 1000 Ang^3
#
#
#
# Elastic Constant Matrix: (Units=GPa)
#
#
# Indices 1 2 3 4 5 6 
#
# 1 11.9978 18.3108 5.3667 0.0000 0.0000 0.0000
# 2 18.3108 151.2834 25.7573 0.0000 0.0000 0.0000
# 3 5.3667 25.7573 30.6776 0.0000 0.0000 0.0000
# 4 0.0000 0.0000 0.0000 30.6430 0.0000 0.0000
# 5 0.0000 0.0000 0.0000 0.0000 12.6219 0.0000
# 6 0.0000 0.0000 0.0000 0.0000 0.0000 21.5954
#
#
#
# Elastic Compliance Matrix: (Units=1/GPa)
#
#
# Indices 1 2 3 4 5 6 
#
# 1 0.104285 -0.011103 -0.008921 0.000000 0.000000 0.000000
# 2 -0.011103 0.008895 -0.005526 0.000000 0.000000 0.000000
# 3 -0.008921 -0.005526 0.038797 0.000000 0.000000 0.000000
# 4 0.000000 0.000000 0.000000 0.032634 0.000000 0.000000
# 5 0.000000 0.000000 0.000000 0.000000 0.079227 0.000000
# 6 0.000000 0.000000 0.000000 0.000000 0.000000 0.046306
#
#
# Mechanical properties :
#
#
# Convention : Reuss Voigt Hill
#
# Bulk Modulus (GPa) = 9.91307 32.53649 21.22478
# Shear Modulus (GPa) = 12.66240 22.60699 17.63470
#
# Velocity S-wave (km/s) = 2.53461 3.38668 2.99114
# Velocity P-wave (km/s) = 3.68715 5.63917 4.76420
#
# Compressibility (1/GPa) = 0.10087687
#
# Stress axis : x y z
#
# Youngs Moduli (GPa) = 9.58912 112.42461 25.77508
#
# Poissons Ratio (x) = 1.24830 0.22993
# Poissons Ratio (y) = 0.10647 0.14243
# Poissons Ratio (z) = 0.08554 0.62124
#
# Static dielectric constant tensor:
#      x y z
#    x 1.803370 0.000000 0.000000 
#    y 0.000000 1.679210 0.000000 
#    z 0.000000 0.000000 1.671760 
# 
# From -- ./inp_files/6850.got.cif
#   From: 2010.05.17/outbox.ucp.g08.bks.cvg/sg58_4_cif.got.tgz:6850.got - 2010.06.11 16:41:41.
