data_PCOD9445802
_publ_section_title
;
Structure prediction by ZEFSAII (Michael W. Deem and Ramdas Pophale) SiO2 
 PCOD9445802
Probable space group: P N N M
;
_chemical_formula_sum "Si O2"
_cell_formula_units_Z 32
_cell_length_a 9.457412
_cell_length_b 7.377984
_cell_length_c 18.947784
_cell_angle_alpha 90.000000
_cell_angle_beta 90.000000
_cell_angle_gamma 90.000000
_cell_volume 1322.112597
_symmetry_space_group_name_H-M "P N N M"
_symmetry_group_IT_number 58
_symmetry_cell_setting 'orthorhombic'
loop_
_space_group_symop_operation_xyz
x,y,z
-x,-y,z
1/2+x,1/2-y,1/2-z
1/2-x,1/2+y,1/2-z
-x,-y,-z
x,y,-z
1/2-x,1/2+y,1/2+z
1/2+x,1/2-y,1/2+z
loop_
_atom_site_type_symbol
_atom_site_label
_atom_site_fract_x
_atom_site_fract_y
_atom_site_fract_z
Si Si1 0.812319 0.449101 0.148204
Si Si2 0.272927 0.603754 0.500000
Si Si3 0.126213 0.724081 0.359874
Si Si4 0.915918 0.288549 0.000000
Si Si5 0.333935 0.876003 0.787584
O O1 0.875934 0.398532 0.071761
O O2 0.876982 0.593189 0.205531
O O3 0.710774 0.923578 0.187731
O O4 0.787694 0.259325 0.187444
O O5 0.173322 0.652430 0.435163
O O6 0.322386 0.395078 0.500000
O O7 0.419922 0.720850 0.500000
O O8 0.968710 0.690315 0.332313
O O9 0.168157 0.934330 0.360223
#
# Coordination Sequence:
#
# PCOD9445802 Si02
#       5
#     8   4   8   4   8
#     4  12  24  51  76 118 155 206 264 323 404 475
#     4  11  25  51  76 116 155 206 264 332 398 490
#     4  11  25  45  77 107 152 201 261 326 394 468
#     4  11  27  48  83 113 161 204 266 334 410 468
#     4  11  25  45  74 114 154 206 258 328 388 480
#
# _framework density 24.203689000000001
#
# number of rings (size 3 to 8) (size 9 to 14) (size 15 to 20)
#    0.000    0.750    5.000    1.500    0.000    9.000 
#    0.000    2.500    0.000    0.000    0.000    0.000 
#    0.000    0.000    0.000    0.000    0.000    0.000 
#
# Total GULP energy -178254.866713 kJ/mol
# GULP energy per Si atom -5570.464585 kJ/mol
# Density = 2.414860 g / cm^3
# Si number density = 24.203689 Si / 1000 Ang^3
#
#
#
# Elastic Constant Matrix: (Units=GPa)
#
#
# Indices 1 2 3 4 5 6 
#
# 1 93.6966 37.1197 66.0750 0.0000 0.0000 0.0000
# 2 37.1197 168.5664 52.9332 0.0000 0.0000 0.0000
# 3 66.0750 52.9332 215.0477 0.0000 0.0000 0.0000
# 4 0.0000 0.0000 0.0000 34.1508 0.0000 0.0000
# 5 0.0000 0.0000 0.0000 0.0000 23.5743 0.0000
# 6 0.0000 0.0000 0.0000 0.0000 0.0000 49.5779
#
#
#
# Elastic Compliance Matrix: (Units=1/GPa)
#
#
# Indices 1 2 3 4 5 6 
#
# 1 0.014165 -0.001899 -0.003885 0.000000 0.000000 0.000000
# 2 -0.001899 0.006684 -0.001062 0.000000 0.000000 0.000000
# 3 -0.003885 -0.001062 0.006105 0.000000 0.000000 0.000000
# 4 0.000000 0.000000 0.000000 0.029282 0.000000 0.000000
# 5 0.000000 0.000000 0.000000 0.000000 0.042419 0.000000
# 6 0.000000 0.000000 0.000000 0.000000 0.000000 0.020170
#
#
# Mechanical properties :
#
#
# Convention : Reuss Voigt Hill
#
# Bulk Modulus (GPa) = 75.40106 87.72960 81.56533
# Shear Modulus (GPa) = 36.51310 42.87279 39.69294
#
# Velocity S-wave (km/s) = 3.88825 4.21329 4.05403
# Velocity P-wave (km/s) = 7.16787 7.74559 7.46232
#
# Compressibility (1/GPa) = 0.01326241
#
# Stress axis : x y z
#
# Youngs Moduli (GPa) = 70.59807 149.61081 163.79848
#
# Poissons Ratio (x) = 0.28416 0.63631
# Poissons Ratio (y) = 0.13409 0.17390
# Poissons Ratio (z) = 0.27425 0.15884
#
# Static dielectric constant tensor:
#      x y z
#    x 2.047740 0.000000 0.000000 
#    y 0.000000 1.936460 0.000000 
#    z 0.000000 0.000000 2.056800 
# 
# From -- ./inp_files/19559.got.cif
#   From: 2010.05.17/outbox.cif.g08.bks.cpg/sg58_10_cif.got.tgz:19559.got - 2010.06.03 14:20:14.
