data_PCOD9445854
_publ_section_title
;
Structure prediction by ZEFSAII (Michael W. Deem and Ramdas Pophale) SiO2 
 PCOD9445854
Probable space group: P N N M
;
_chemical_formula_sum "Si O2"
_cell_formula_units_Z 56
_cell_length_a 7.099513
_cell_length_b 13.884651
_cell_length_c 30.673745
_cell_angle_alpha 90.000000
_cell_angle_beta 90.000000
_cell_angle_gamma 90.000000
_cell_volume 3023.641723
_symmetry_space_group_name_H-M "P N N M"
_symmetry_group_IT_number 58
_symmetry_cell_setting 'orthorhombic'
loop_
_space_group_symop_operation_xyz
x,y,z
-x,-y,z
1/2+x,1/2-y,1/2-z
1/2-x,1/2+y,1/2-z
-x,-y,-z
x,y,-z
1/2-x,1/2+y,1/2+z
1/2+x,1/2-y,1/2+z
loop_
_atom_site_type_symbol
_atom_site_label
_atom_site_fract_x
_atom_site_fract_y
_atom_site_fract_z
Si Si1 0.729654 0.582992 0.905411
Si Si2 0.341829 0.128890 0.229567
Si Si3 0.335789 0.140789 0.500000
Si Si4 0.781370 0.076796 0.230757
Si Si5 0.679013 0.863012 0.404810
Si Si6 0.299645 0.320090 0.181960
Si Si7 0.638472 0.766236 0.316674
Si Si8 0.236705 0.912533 0.500000
O O1 0.726986 0.467990 0.898899
O O2 0.644261 0.637998 0.864490
O O3 0.952946 0.612335 0.906520
O O4 0.646436 0.607097 0.953094
O O5 0.556493 0.095338 0.234375
O O6 0.358764 0.211993 0.193522
O O7 0.274564 0.180589 0.274282
O O8 0.209810 0.036764 0.220865
O O9 0.274551 0.178961 0.452734
O O10 0.562978 0.141050 0.500000
O O11 0.280051 0.027183 0.500000
O O12 0.853533 0.108788 0.278500
O O13 0.855398 0.153730 0.195502
O O14 0.719288 0.795827 0.363426
O O15 0.073230 0.307256 0.181973
#
# Coordination Sequence:
#
# PCOD9445854 Si02
#       8
#     8   8   4   8   8   8   8   4
#     4   8  12  19  33  54  79 102 121 144 178 220
#     4   9  17  28  39  52  74 102 127 151 181 217
#     4   7  10  16  28  50  78 101 118 140 175 219
#     4   9  17  28  39  52  74 102 127 151 181 217
#     4   8  12  19  33  54  79 102 121 144 178 220
#     4   9  16  25  39  58  76  96 124 154 182 213
#     4   9  16  25  39  58  76  96 124 154 182 213
#     4   7  10  16  28  50  78 101 118 140 175 219
#
# _framework density 18.520713000000001
#
# number of rings (size 3 to 8) (size 9 to 14) (size 15 to 20)
#    0.000    3.571    0.000    2.571    0.000    4.000 
#    0.000    0.000    0.000    2.571    0.000    2.000 
#    0.000   11.429    0.000    0.000    0.000    0.000 
#
# Total GULP energy -312059.718927 kJ/mol
# GULP energy per Si atom -5572.494981 kJ/mol
# Density = 1.847856 g / cm^3
# Si number density = 18.520713 Si / 1000 Ang^3
#
#
#
# Elastic Constant Matrix: (Units=GPa)
#
#
# Indices 1 2 3 4 5 6 
#
# 1 51.9133 4.5804 8.7798 0.0000 0.0000 0.0000
# 2 4.5804 100.5257 80.8186 0.0000 0.0000 0.0000
# 3 8.7798 80.8186 177.5766 0.0000 0.0000 0.0000
# 4 0.0000 0.0000 0.0000 21.8648 0.0000 0.0000
# 5 0.0000 0.0000 0.0000 0.0000 6.5245 0.0000
# 6 0.0000 0.0000 0.0000 0.0000 0.0000 22.6232
#
#
#
# Elastic Compliance Matrix: (Units=1/GPa)
#
#
# Indices 1 2 3 4 5 6 
#
# 1 0.019427 -0.000178 -0.000879 0.000000 0.000000 0.000000
# 2 -0.000178 0.015689 -0.007132 0.000000 0.000000 0.000000
# 3 -0.000879 -0.007132 0.008921 0.000000 0.000000 0.000000
# 4 0.000000 0.000000 0.000000 0.045736 0.000000 0.000000
# 5 0.000000 0.000000 0.000000 0.000000 0.153269 0.000000
# 6 0.000000 0.000000 0.000000 0.000000 0.000000 0.044202
#
#
# Mechanical properties :
#
#
# Convention : Reuss Voigt Hill
#
# Bulk Modulus (GPa) = 36.15498 57.59703 46.87600
# Shear Modulus (GPa) = 15.98246 25.92496 20.95371
#
# Velocity S-wave (km/s) = 2.94079 3.74543 3.36723
# Velocity P-wave (km/s) = 5.57627 7.06190 6.36260
#
# Compressibility (1/GPa) = 0.02765871
#
# Stress axis : x y z
#
# Youngs Moduli (GPa) = 51.47387 63.73693 112.09925
#
# Poissons Ratio (x) = 0.01135 0.09859
# Poissons Ratio (y) = 0.00917 0.79947
# Poissons Ratio (z) = 0.04527 0.45456
#
# Static dielectric constant tensor:
#      x y z
#    x 1.801470 0.000000 0.000000 
#    y 0.000000 1.623190 0.000000 
#    z 0.000000 0.000000 1.667320 
# 
# From -- ./inp_files/34805.got.cif
#   From: 2010.05.17/outbox.cif.g08.bks.cpg/sg58_18_cif.got.tgz:34805.got - 2010.06.03 14:20:14.
