data_PCOD9445622
_publ_section_title
;
Structure prediction by ZEFSAII (Michael W. Deem and Ramdas Pophale) SiO2 
 PCOD9445622
Probable space group: P N N M
;
_chemical_formula_sum "Si O2"
_cell_formula_units_Z 56
_cell_length_a 9.908617
_cell_length_b 20.209670
_cell_length_c 14.146399
_cell_angle_alpha 90.000000
_cell_angle_beta 90.000000
_cell_angle_gamma 90.000000
_cell_volume 2832.814698
_symmetry_space_group_name_H-M "P N N M"
_symmetry_group_IT_number 58
_symmetry_cell_setting 'orthorhombic'
loop_
_space_group_symop_operation_xyz
x,y,z
-x,-y,z
1/2+x,1/2-y,1/2-z
1/2-x,1/2+y,1/2-z
-x,-y,-z
x,y,-z
1/2-x,1/2+y,1/2+z
1/2+x,1/2-y,1/2+z
loop_
_atom_site_type_symbol
_atom_site_label
_atom_site_fract_x
_atom_site_fract_y
_atom_site_fract_z
Si Si1 0.843074 0.174489 0.105235
Si Si2 0.242022 0.969742 0.891142
Si Si3 0.645004 0.289258 0.396906
Si Si4 0.769097 0.161821 0.313382
Si Si5 0.476101 0.578666 0.888196
Si Si6 0.760792 0.902335 0.762155
Si Si7 0.459129 0.928788 0.251886
O O1 0.858277 0.093698 0.112016
O O2 0.771906 0.189079 0.204848
O O3 0.982635 0.214332 0.105264
O O4 0.779509 0.184826 0.000000
O O5 0.383227 0.941902 0.848258
O O6 0.208826 0.030414 0.821989
O O7 0.253302 0.990667 0.000000
O O8 0.682116 0.316222 0.500000
O O9 0.724264 0.221732 0.379143
O O10 0.680116 0.341282 0.317751
O O11 0.650295 0.107923 0.314327
O O12 0.907109 0.124287 0.340863
O O13 0.500000 0.500000 0.873761
O O14 0.334328 0.593273 0.837851
O O15 0.475243 0.591485 0.000000
O O16 0.600314 0.892548 0.758235
O O17 0.500000 0.000000 0.291814
#
# Coordination Sequence:
#
# PCOD9445622 Si02
#       7
#     8   8   8   8   8   8   8
#     4   9  19  38  62  90 120 158 205 252 304 368
#     4   9  18  35  62  95 130 163 200 252 313 368
#     4  11  24  38  60  91 123 162 208 252 306 378
#     4  11  22  42  65  85 125 170 202 259 319 370
#     4  11  23  41  65  91 120 162 221 275 318 375
#     4  11  22  36  61  93 129 163 202 257 313 371
#     4   9  20  36  60  90 121 157 199 249 312 368
#
# _framework density 19.768325999999998
#
# number of rings (size 3 to 8) (size 9 to 14) (size 15 to 20)
#    0.000    1.857    1.429    3.429    2.000    3.143 
#    0.000    4.286    0.000    7.286    0.000    0.000 
#    0.000    0.000    0.000    0.000    0.000    0.000 
#
# Total GULP energy -312168.489546 kJ/mol
# GULP energy per Si atom -5574.437313 kJ/mol
# Density = 1.972333 g / cm^3
# Si number density = 19.768326 Si / 1000 Ang^3
#
#
#
# Elastic Constant Matrix: (Units=GPa)
#
#
# Indices 1 2 3 4 5 6 
#
# 1 59.8082 19.9621 30.7957 0.0000 0.0000 0.0000
# 2 19.9621 25.8357 20.7207 0.0000 0.0000 0.0000
# 3 30.7957 20.7207 90.5920 0.0000 0.0000 0.0000
# 4 0.0000 0.0000 0.0000 18.5741 0.0000 0.0000
# 5 0.0000 0.0000 0.0000 0.0000 10.7682 0.0000
# 6 0.0000 0.0000 0.0000 0.0000 0.0000 29.3368
#
#
#
# Elastic Compliance Matrix: (Units=1/GPa)
#
#
# Indices 1 2 3 4 5 6 
#
# 1 0.024138 -0.014781 -0.004825 0.000000 0.000000 0.000000
# 2 -0.014781 0.056453 -0.007888 0.000000 0.000000 0.000000
# 3 -0.004825 -0.007888 0.014483 0.000000 0.000000 0.000000
# 4 0.000000 0.000000 0.000000 0.053838 0.000000 0.000000
# 5 0.000000 0.000000 0.000000 0.000000 0.092866 0.000000
# 6 0.000000 0.000000 0.000000 0.000000 0.000000 0.034087
#
#
# Mechanical properties :
#
#
# Convention : Reuss Voigt Hill
#
# Bulk Modulus (GPa) = 24.94569 35.46588 30.20578
# Shear Modulus (GPa) = 14.52592 18.71965 16.62278
#
# Velocity S-wave (km/s) = 2.71367 3.08060 2.90294
# Velocity P-wave (km/s) = 4.73974 5.53472 5.15258
#
# Compressibility (1/GPa) = 0.04008709
#
# Stress axis : x y z
#
# Youngs Moduli (GPa) = 41.42889 17.71396 69.04805
#
# Poissons Ratio (x) = 0.26183 0.33313
# Poissons Ratio (y) = 0.61235 0.54462
# Poissons Ratio (z) = 0.19988 0.13972
#
# Static dielectric constant tensor:
#      x y z
#    x 1.777130 0.000000 0.000000 
#    y 0.000000 1.714220 0.000000 
#    z 0.000000 0.000000 1.711320 
# 
# From -- ./inp_files/20097.got.cif
#   From: 2010.05.17/outbox.cif.g08.bks.cpg/sg58_11_cif.got.tgz:20097.got - 2010.06.03 14:20:14.
