data_PCOD9445267
_publ_section_title
;
Structure prediction by ZEFSAII (Michael W. Deem and Ramdas Pophale) SiO2 
 PCOD9445267
Probable space group: P N N M
;
_chemical_formula_sum "Si O2"
_cell_formula_units_Z 48
_cell_length_a 9.135783
_cell_length_b 14.985609
_cell_length_c 17.035703
_cell_angle_alpha 90.000000
_cell_angle_beta 90.000000
_cell_angle_gamma 90.000000
_cell_volume 2332.277552
_symmetry_space_group_name_H-M "P N N M"
_symmetry_group_IT_number 58
_symmetry_cell_setting 'orthorhombic'
loop_
_space_group_symop_operation_xyz
x,y,z
-x,-y,z
1/2+x,1/2-y,1/2-z
1/2-x,1/2+y,1/2-z
-x,-y,-z
x,y,-z
1/2-x,1/2+y,1/2+z
1/2+x,1/2-y,1/2+z
loop_
_atom_site_type_symbol
_atom_site_label
_atom_site_fract_x
_atom_site_fract_y
_atom_site_fract_z
Si Si1 0.363318 0.254567 0.169676
Si Si2 0.344826 0.457851 0.816326
Si Si3 0.041234 0.406165 0.410599
Si Si4 0.379743 0.075554 0.587429
Si Si5 0.374588 0.427748 0.370811
Si Si6 0.481328 0.748299 0.338296
O O1 0.350691 0.359072 0.144970
O O2 0.462760 0.181784 0.124248
O O3 0.439024 0.254159 0.254413
O O4 0.191410 0.231147 0.172375
O O5 0.500000 0.500000 0.831228
O O6 0.231835 0.529190 0.851842
O O7 0.333619 0.444895 0.721778
O O8 0.987231 0.409043 0.500000
O O9 0.216855 0.413204 0.409839
O O10 0.000000 0.500000 0.369017
O O11 0.316062 0.094465 0.500000
O O12 0.464932 0.161248 0.620915
O O13 0.500000 0.000000 0.578271
O O14 0.500000 0.500000 0.392507
O O15 0.455602 0.334998 0.384091
#
# Coordination Sequence:
#
# PCOD9445267 Si02
#       6
#     8   8   8   8   8   8
#     4  11  23  42  66  96 133 168 224 280 329 395
#     4  10  23  40  67  98 128 172 220 272 325 387
#     4  11  26  43  64  95 130 175 218 266 337 397
#     4  11  25  43  64  97 135 176 220 264 338 407
#     4  10  23  43  68 100 130 170 227 280 326 391
#     4  11  24  40  68 101 126 173 223 280 332 393
#
# _framework density 20.580739999999999
#
# number of rings (size 3 to 8) (size 9 to 14) (size 15 to 20)
#    0.000    1.333    1.667    3.000   11.667    2.667 
#    0.000    0.000    0.000    0.000    0.000    0.000 
#    0.000    0.000    0.000    0.000    0.000    0.000 
#
# Total GULP energy -267383.198867 kJ/mol
# GULP energy per Si atom -5570.483310 kJ/mol
# Density = 2.053390 g / cm^3
# Si number density = 20.580740 Si / 1000 Ang^3
#
#
#
# Elastic Constant Matrix: (Units=GPa)
#
#
# Indices 1 2 3 4 5 6 
#
# 1 128.0935 47.3476 20.2209 0.0000 0.0000 0.0000
# 2 47.3476 137.1888 26.0476 0.0000 0.0000 0.0000
# 3 20.2209 26.0476 33.0253 0.0000 0.0000 0.0000
# 4 0.0000 0.0000 0.0000 -36.1316 0.0000 0.0000
# 5 0.0000 0.0000 0.0000 0.0000 23.1319 0.0000
# 6 0.0000 0.0000 0.0000 0.0000 0.0000 41.8823
#
#
#
# Elastic Compliance Matrix: (Units=1/GPa)
#
#
# Indices 1 2 3 4 5 6 
#
# 1 0.009323 -0.002510 -0.003729 0.000000 0.000000 0.000000
# 2 -0.002510 0.009249 -0.005758 0.000000 0.000000 0.000000
# 3 -0.003729 -0.005758 0.037104 0.000000 0.000000 0.000000
# 4 0.000000 0.000000 0.000000 -0.027677 0.000000 0.000000
# 5 0.000000 0.000000 0.000000 0.000000 0.043230 0.000000
# 6 0.000000 0.000000 0.000000 0.000000 0.000000 0.023876
#
#
# Mechanical properties :
#
#
# Convention : Reuss Voigt Hill
#
# Bulk Modulus (GPa) = 31.56266 53.94888 42.75577
# Shear Modulus (GPa) = 38.56221 19.42261 28.99241
#
# Velocity S-wave (km/s) = 4.33333 3.07535 3.75736
# Velocity P-wave (km/s) = 6.35659 6.23543 6.29630
#
# Compressibility (1/GPa) = 0.03168301
#
# Stress axis : x y z
#
# Youngs Moduli (GPa) = 107.26041 108.12431 26.95093
#
# Poissons Ratio (x) = 0.27135 0.10050
# Poissons Ratio (y) = 0.26918 0.15518
# Poissons Ratio (z) = 0.39998 0.62257
#
# Static dielectric constant tensor:
#      x y z
#    x 1.584290 0.000000 0.000000 
#    y 0.000000 1.780950 0.000000 
#    z 0.000000 0.000000 1.836720 
# 
# From -- ./inp_files/25294.got.cif
#   From: 2010.05.17/outbox.cif.g08.bks.cpg/sg58_13_cif.got.tgz:25294.got - 2010.06.03 14:20:14.
