data_PCOD9445404
_publ_section_title
;
Structure prediction by ZEFSAII (Michael W. Deem and Ramdas Pophale) SiO2 
 PCOD9445404
Probable space group: P N N M
;
_chemical_formula_sum "Si O2"
_cell_formula_units_Z 40
_cell_length_a 8.779146
_cell_length_b 10.863840
_cell_length_c 20.335004
_cell_angle_alpha 90.000000
_cell_angle_beta 90.000000
_cell_angle_gamma 90.000000
_cell_volume 1939.455836
_symmetry_space_group_name_H-M "P N N M"
_symmetry_group_IT_number 58
_symmetry_cell_setting 'orthorhombic'
loop_
_space_group_symop_operation_xyz
x,y,z
-x,-y,z
1/2+x,1/2-y,1/2-z
1/2-x,1/2+y,1/2-z
-x,-y,-z
x,y,-z
1/2-x,1/2+y,1/2+z
1/2+x,1/2-y,1/2+z
loop_
_atom_site_type_symbol
_atom_site_label
_atom_site_fract_x
_atom_site_fract_y
_atom_site_fract_z
Si Si1 0.500000 0.000000 0.236124
Si Si2 0.274978 0.860767 0.859637
Si Si3 0.000000 0.000000 0.206933
Si Si4 0.765130 0.068212 0.000000
Si Si5 0.229443 0.088598 0.315596
Si Si6 0.409827 0.698568 0.500000
Si Si7 0.163683 0.432770 0.072450
O O1 0.391638 0.916985 0.192184
O O2 0.607030 0.915962 0.280605
O O3 0.110224 0.916810 0.838414
O O4 0.281458 0.714666 0.854610
O O5 0.317340 0.903419 0.932369
O O6 0.106778 0.075837 0.257496
O O7 0.915043 0.156744 0.000000
O O8 0.816782 0.926709 0.000000
O O9 0.232138 0.974961 0.367289
O O10 0.369915 0.787792 0.438283
O O11 0.000000 0.500000 0.079561
O O12 0.225020 0.471978 0.000000
#
# Coordination Sequence:
#
# PCOD9445404 Si02
#       7
#     4   8   4   4   8   4   8
#     4  10  24  43  61  94 130 172 202 260 326 378
#     4  11  24  42  64  95 128 165 222 254 320 383
#     4  10  24  43  61  98 128 170 210 258 324 384
#     4  11  22  37  66  88 128 173 208 267 311 367
#     4  11  21  41  68  95 127 167 207 269 321 375
#     4   9  19  36  54  98 124 162 207 263 303 377
#     4   9  18  33  60  95 123 154 210 257 311 369
#
# _framework density 20.62434
#
# number of rings (size 3 to 8) (size 9 to 14) (size 15 to 20)
#    0.600    1.200    1.000    3.600    1.400    0.400 
#   18.000    0.500    0.000    0.000    0.000    0.000 
#    0.000    0.000    0.000    0.000    0.000    0.000 
#
# Total GULP energy -223291.606499 kJ/mol
# GULP energy per Si atom -5582.290162 kJ/mol
# Density = 2.057740 g / cm^3
# Si number density = 20.624340 Si / 1000 Ang^3
#
#
#
# Elastic Constant Matrix: (Units=GPa)
#
#
# Indices 1 2 3 4 5 6 
#
# 1 39.7090 4.0738 5.1415 0.0000 0.0000 0.0000
# 2 4.0738 105.8352 15.8925 0.0000 0.0000 0.0000
# 3 5.1415 15.8925 105.0042 0.0000 0.0000 0.0000
# 4 0.0000 0.0000 0.0000 60.0200 0.0000 0.0000
# 5 0.0000 0.0000 0.0000 0.0000 -32.8516 0.0000
# 6 0.0000 0.0000 0.0000 0.0000 0.0000 9.6919
#
#
#
# Elastic Compliance Matrix: (Units=1/GPa)
#
#
# Indices 1 2 3 4 5 6 
#
# 1 0.025411 -0.000810 -0.001122 0.000000 0.000000 0.000000
# 2 -0.000810 0.009694 -0.001428 0.000000 0.000000 0.000000
# 3 -0.001122 -0.001428 0.009794 0.000000 0.000000 0.000000
# 4 0.000000 0.000000 0.000000 0.016661 0.000000 0.000000
# 5 0.000000 0.000000 0.000000 0.000000 -0.030440 0.000000
# 6 0.000000 0.000000 0.000000 0.000000 0.000000 0.103179
#
#
# Mechanical properties :
#
#
# Convention : Reuss Voigt Hill
#
# Bulk Modulus (GPa) = 26.19030 33.41825 29.80427
# Shear Modulus (GPa) = 32.52131 22.40144 27.46138
#
# Velocity S-wave (km/s) = 3.97525 3.29928 3.65294
# Velocity P-wave (km/s) = 5.81348 5.54546 5.68105
#
# Compressibility (1/GPa) = 0.03818208
#
# Stress axis : x y z
#
# Youngs Moduli (GPa) = 39.35228 103.15457 102.09898
#
# Poissons Ratio (x) = 0.08352 0.11453
# Poissons Ratio (y) = 0.03186 0.14575
# Poissons Ratio (z) = 0.04414 0.14726
#
# Static dielectric constant tensor:
#      x y z
#    x 1.734100 0.000000 0.000000 
#    y 0.000000 1.224270 0.000000 
#    z 0.000000 0.000000 1.747020 
# 
# From -- ./inp_files/28774.got.cif
#   From: 2010.05.17/outbox.cif.g08.bks.cpg/sg58_15_cif.got.tgz:28774.got - 2010.06.03 14:20:14.
