data_PCOD9445128
_publ_section_title
;
Structure prediction by ZEFSAII (Michael W. Deem and Ramdas Pophale) SiO2 
 PCOD9445128
Probable space group: P N N M
;
_chemical_formula_sum "Si O2"
_cell_formula_units_Z 32
_cell_length_a 4.938452
_cell_length_b 12.813129
_cell_length_c 21.632209
_cell_angle_alpha 90.000000
_cell_angle_beta 90.000000
_cell_angle_gamma 90.000000
_cell_volume 1368.821776
_symmetry_space_group_name_H-M "P N N M"
_symmetry_group_IT_number 58
_symmetry_cell_setting 'orthorhombic'
loop_
_space_group_symop_operation_xyz
x,y,z
-x,-y,z
1/2+x,1/2-y,1/2-z
1/2-x,1/2+y,1/2-z
-x,-y,-z
x,y,-z
1/2-x,1/2+y,1/2+z
1/2+x,1/2-y,1/2+z
loop_
_atom_site_type_symbol
_atom_site_label
_atom_site_fract_x
_atom_site_fract_y
_atom_site_fract_z
Si Si1 0.756366 0.925727 0.103002
Si Si2 0.970711 0.374376 0.136586
Si Si3 0.461134 0.293174 0.931492
Si Si4 0.742349 0.425864 0.258310
O O1 0.643807 0.825687 0.067519
O O2 0.835378 0.888285 0.173031
O O3 0.500000 0.000000 0.106438
O O4 0.000000 0.000000 0.079782
O O5 0.768865 0.317728 0.088275
O O6 0.843640 0.350260 0.204119
O O7 0.000000 0.500000 0.130454
O O8 0.272724 0.340264 0.121573
O O9 0.414807 0.338552 0.000000
O O10 0.500000 0.500000 0.235519
O O11 0.000000 0.500000 0.267418
#
# Coordination Sequence:
#
# PCOD9445128 Si02
#       4
#     8   8   8   8
#     4  10  22  41  64  90 122 156 196 256 313 361
#     4  11  23  41  63  88 123 161 200 256 307 354
#     4  12  26  40  60  91 121 163 215 244 292 373
#     4   9  18  36  62  90 117 150 195 244 306 369
#
# _framework density 23.377769000000001
#
# number of rings (size 3 to 8) (size 9 to 14) (size 15 to 20)
#    0.000    1.500    0.000    6.000    0.000    6.000 
#    0.000    0.000    0.000    0.000    0.000    0.000 
#    0.000    0.000    0.000    0.000    0.000    0.000 
#
# Total GULP energy -178495.429240 kJ/mol
# GULP energy per Si atom -5577.982164 kJ/mol
# Density = 2.332456 g / cm^3
# Si number density = 23.377769 Si / 1000 Ang^3
#
#
#
# Elastic Constant Matrix: (Units=GPa)
#
#
# Indices 1 2 3 4 5 6 
#
# 1 113.2464 -3.9489 -9.3272 0.0000 0.0000 0.0000
# 2 -3.9489 62.2667 0.9520 0.0000 0.0000 0.0000
# 3 -9.3272 0.9520 93.5580 0.0000 0.0000 0.0000
# 4 0.0000 0.0000 0.0000 76.4264 0.0000 0.0000
# 5 0.0000 0.0000 0.0000 0.0000 -58.3052 0.0000
# 6 0.0000 0.0000 0.0000 0.0000 0.0000 44.1469
#
#
#
# Elastic Compliance Matrix: (Units=1/GPa)
#
#
# Indices 1 2 3 4 5 6 
#
# 1 0.008922 0.000552 0.000884 0.000000 0.000000 0.000000
# 2 0.000552 0.016097 -0.000109 0.000000 0.000000 0.000000
# 3 0.000884 -0.000109 0.010778 0.000000 0.000000 0.000000
# 4 0.000000 0.000000 0.000000 0.013084 0.000000 0.000000
# 5 0.000000 0.000000 0.000000 0.000000 -0.017151 0.000000
# 6 0.000000 0.000000 0.000000 0.000000 0.000000 0.022652
#
#
# Mechanical properties :
#
#
# Convention : Reuss Voigt Hill
#
# Bulk Modulus (GPa) = 26.00660 27.15810 26.58235
# Shear Modulus (GPa) = 77.46653 31.21332 54.33992
#
# Velocity S-wave (km/s) = 5.76271 3.65796 4.82646
# Velocity P-wave (km/s) = 7.44493 5.42984 6.51576
#
# Compressibility (1/GPa) = 0.03845178
#
# Stress axis : x y z
#
# Youngs Moduli (GPa) = 112.07800 62.12474 92.78351
#
# Poissons Ratio (x) = -0.03431 -0.08201
# Poissons Ratio (y) = -0.06191 0.01009
# Poissons Ratio (z) = -0.09906 0.00675
#
# Static dielectric constant tensor:
#      x y z
#    x 1.949830 0.000000 0.000000 
#    y 0.000000 2.908070 0.000000 
#    z 0.000000 0.000000 1.967170 
# 
# From -- ./inp_files/27928.got.cif
#   From: 2010.05.17/outbox.cif.g08.bks.cpg/sg58_14_cif.got.tgz:27928.got - 2010.06.03 14:20:14.
