data_PCOD9445257
_publ_section_title
;
Structure prediction by ZEFSAII (Michael W. Deem and Ramdas Pophale) SiO2 
 PCOD9445257
Probable space group: P N N M
;
_chemical_formula_sum "Si O2"
_cell_formula_units_Z 34
_cell_length_a 17.672129
_cell_length_b 5.402356
_cell_length_c 14.969011
_cell_angle_alpha 90.000000
_cell_angle_beta 90.000000
_cell_angle_gamma 90.000000
_cell_volume 1429.108427
_symmetry_space_group_name_H-M "P N N M"
_symmetry_group_IT_number 58
_symmetry_cell_setting 'orthorhombic'
loop_
_space_group_symop_operation_xyz
x,y,z
-x,-y,z
1/2+x,1/2-y,1/2-z
1/2-x,1/2+y,1/2-z
-x,-y,-z
x,y,-z
1/2-x,1/2+y,1/2+z
1/2+x,1/2-y,1/2+z
loop_
_atom_site_type_symbol
_atom_site_label
_atom_site_fract_x
_atom_site_fract_y
_atom_site_fract_z
Si Si1 0.645168 0.507441 0.000000
Si Si2 0.426235 0.827701 0.646779
Si Si3 0.695190 0.792967 0.657741
Si Si4 0.134744 0.022866 0.695067
Si Si5 0.500000 0.500000 0.500000
Si Si6 0.244720 0.495701 0.500000
O O1 0.604526 0.524017 0.904241
O O2 0.684266 0.234949 0.000000
O O3 0.704744 0.737972 0.000000
O O4 0.410710 0.713788 0.744126
O O5 0.445481 0.615070 0.577621
O O6 0.500000 0.000000 0.645633
O O7 0.354484 0.990088 0.615323
O O8 0.778517 0.881669 0.684912
O O9 0.646816 0.717767 0.744234
O O10 0.708999 0.566698 0.589899
#
# Coordination Sequence:
#
# PCOD9445257 Si02
#       6
#     4   8   8   8   2   4
#     4  10  24  42  70 113 154 195 262 337 400 453
#     4  12  27  48  74 112 161 216 266 329 420 496
#     4  11  22  42  74 107 154 207 268 334 400 475
#     4  11  23  43  73 110 152 205 270 338 389 479
#     4  12  28  54  74 116 164 212 262 332 422 518
#     4  10  23  39  69 114 153 194 258 332 407 463
#
# _framework density 23.791059000000001
#
# number of rings (size 3 to 8) (size 9 to 14) (size 15 to 20)
#    0.000    0.941    2.353    3.882    6.588    2.824 
#    0.000    0.588    0.000    4.941    0.000    0.000 
#    0.000    0.000    0.000    0.000    0.000    0.000 
#
# Total GULP energy -189739.410595 kJ/mol
# GULP energy per Si atom -5580.570900 kJ/mol
# Density = 2.373691 g / cm^3
# Si number density = 23.791059 Si / 1000 Ang^3
#
#
#
# Elastic Constant Matrix: (Units=GPa)
#
#
# Indices 1 2 3 4 5 6 
#
# 1 51.9931 12.2084 5.0701 0.0000 0.0000 0.0000
# 2 12.2084 53.2155 -5.4023 0.0000 0.0000 0.0000
# 3 5.0701 -5.4023 141.5044 0.0000 0.0000 0.0000
# 4 0.0000 0.0000 0.0000 24.8257 0.0000 0.0000
# 5 0.0000 0.0000 0.0000 0.0000 -18.5987 0.0000
# 6 0.0000 0.0000 0.0000 0.0000 0.0000 45.6601
#
#
#
# Elastic Compliance Matrix: (Units=1/GPa)
#
#
# Indices 1 2 3 4 5 6 
#
# 1 0.020446 -0.004783 -0.000915 0.000000 0.000000 0.000000
# 2 -0.004783 0.019984 0.000934 0.000000 0.000000 0.000000
# 3 -0.000915 0.000934 0.007135 0.000000 0.000000 0.000000
# 4 0.000000 0.000000 0.000000 0.040281 0.000000 0.000000
# 5 0.000000 0.000000 0.000000 0.000000 -0.053767 0.000000
# 6 0.000000 0.000000 0.000000 0.000000 0.000000 0.021901
#
#
# Mechanical properties :
#
#
# Convention : Reuss Voigt Hill
#
# Bulk Modulus (GPa) = 26.29070 30.05170 28.17120
# Shear Modulus (GPa) = 63.94931 26.03320 44.99126
#
# Velocity S-wave (km/s) = 5.19017 3.31152 4.35339
# Velocity P-wave (km/s) = 6.85506 5.22308 6.09395
#
# Compressibility (1/GPa) = 0.03803626
#
# Stress axis : x y z
#
# Youngs Moduli (GPa) = 48.90994 50.04068 140.14668
#
# Poissons Ratio (x) = 0.23937 0.12826
# Poissons Ratio (y) = 0.23396 -0.13094
# Poissons Ratio (z) = 0.04476 -0.04675
#
# Static dielectric constant tensor:
#      x y z
#    x 1.867490 0.000000 0.000000 
#    y 0.000000 1.944140 0.000000 
#    z 0.000000 0.000000 1.935960 
# 
# From -- ./inp_files/22543.got.cif
#   From: 2010.05.17/outbox.cif.g08.bks.cpg/sg58_12_cif.got.tgz:22543.got - 2010.06.03 14:20:14.
