data_PCOD9445013
_publ_section_title
;
Structure prediction by ZEFSAII (Michael W. Deem and Ramdas Pophale) SiO2 
 PCOD9445013
Probable space group: P N N M
;
_chemical_formula_sum "Si O2"
_cell_formula_units_Z 56
_cell_length_a 16.681491
_cell_length_b 14.299406
_cell_length_c 12.060329
_cell_angle_alpha 90.000000
_cell_angle_beta 90.000000
_cell_angle_gamma 90.000000
_cell_volume 2876.815553
_symmetry_space_group_name_H-M "P N N M"
_symmetry_group_IT_number 58
_symmetry_cell_setting 'orthorhombic'
loop_
_space_group_symop_operation_xyz
x,y,z
-x,-y,z
1/2+x,1/2-y,1/2-z
1/2-x,1/2+y,1/2-z
-x,-y,-z
x,y,-z
1/2-x,1/2+y,1/2+z
1/2+x,1/2-y,1/2+z
loop_
_atom_site_type_symbol
_atom_site_label
_atom_site_fract_x
_atom_site_fract_y
_atom_site_fract_z
Si Si1 0.316787 0.100192 0.626213
Si Si2 0.132865 0.790256 0.237295
Si Si3 0.790614 0.700545 0.872586
Si Si4 0.520116 0.215784 0.130916
Si Si5 0.149891 0.136776 0.717349
Si Si6 0.092841 0.978772 0.878627
Si Si7 0.578956 0.055964 0.703676
O O1 0.339841 0.075124 0.500000
O O2 0.345476 0.202978 0.659448
O O3 0.221423 0.105085 0.637783
O O4 0.356573 0.028025 0.713094
O O5 0.211316 0.826981 0.303308
O O6 0.102922 0.873093 0.160046
O O7 0.063748 0.752724 0.319166
O O8 0.815951 0.796692 0.814512
O O9 0.867068 0.631004 0.863887
O O10 0.769162 0.711813 0.000000
O O11 0.584275 0.298306 0.157228
O O12 0.548009 0.120226 0.193990
O O13 0.515192 0.199920 0.000000
O O14 0.120254 0.045873 0.780483
O O15 0.131715 0.994727 0.000000
O O16 0.000000 0.000000 0.890197
O O17 0.500000 0.000000 0.659532
#
# Coordination Sequence:
#
# PCOD9445013 Si02
#       7
#     8   8   8   8   8   8   8
#     4  11  23  41  64  91 127 166 205 260 320 367
#     4  11  22  42  62  94 128 160 216 258 302 383
#     4  10  22  39  63  90 126 167 203 260 319 363
#     4  11  23  43  67  92 125 166 207 260 322 374
#     4  10  22  42  63  93 127 160 213 255 303 388
#     4  11  22  38  62  91 125 163 201 253 305 356
#     4  11  23  42  61  96 124 160 213 262 305 383
#
# _framework density 19.465969000000001
#
# number of rings (size 3 to 8) (size 9 to 14) (size 15 to 20)
#    0.000    1.286    2.857    3.000    0.000    1.429 
#    0.000    9.286    0.000    0.000    0.000    0.000 
#    0.000    0.000    0.000    0.000    0.000    0.000 
#
# Total GULP energy -312182.877043 kJ/mol
# GULP energy per Si atom -5574.694233 kJ/mol
# Density = 1.942166 g / cm^3
# Si number density = 19.465969 Si / 1000 Ang^3
#
#
#
# Elastic Constant Matrix: (Units=GPa)
#
#
# Indices 1 2 3 4 5 6 
#
# 1 91.3579 33.1115 35.3629 0.0000 0.0000 0.0000
# 2 33.1115 91.2379 26.6968 0.0000 0.0000 0.0000
# 3 35.3629 26.6968 89.9427 0.0000 0.0000 0.0000
# 4 0.0000 0.0000 0.0000 13.2319 0.0000 0.0000
# 5 0.0000 0.0000 0.0000 0.0000 4.1217 0.0000
# 6 0.0000 0.0000 0.0000 0.0000 0.0000 28.5764
#
#
#
# Elastic Compliance Matrix: (Units=1/GPa)
#
#
# Indices 1 2 3 4 5 6 
#
# 1 0.014022 -0.003806 -0.004383 0.000000 0.000000 0.000000
# 2 -0.003806 0.013036 -0.002373 0.000000 0.000000 0.000000
# 3 -0.004383 -0.002373 0.013546 0.000000 0.000000 0.000000
# 4 0.000000 0.000000 0.000000 0.075575 0.000000 0.000000
# 5 0.000000 0.000000 0.000000 0.000000 0.242616 0.000000
# 6 0.000000 0.000000 0.000000 0.000000 0.000000 0.034994
#
#
# Mechanical properties :
#
#
# Convention : Reuss Voigt Hill
#
# Bulk Modulus (GPa) = 51.33674 51.43119 51.38397
# Shear Modulus (GPa) = 11.86501 21.01051 16.43776
#
# Velocity S-wave (km/s) = 2.47154 3.28890 2.90907
# Velocity P-wave (km/s) = 5.88001 6.39539 6.14310
#
# Compressibility (1/GPa) = 0.01947923
#
# Stress axis : x y z
#
# Youngs Moduli (GPa) = 71.31552 76.71060 73.82304
#
# Poissons Ratio (x) = 0.29198 0.32359
# Poissons Ratio (y) = 0.27144 0.17517
# Poissons Ratio (z) = 0.31260 0.18202
#
# Static dielectric constant tensor:
#      x y z
#    x 1.697880 0.000000 0.000000 
#    y 0.000000 1.672340 0.000000 
#    z 0.000000 0.000000 1.669540 
# 
# From -- ./inp_files/15695.got.cif
#   From: 2010.05.17/outbox.cif.g08.bks.cpg/sg58_8_cif.got.tgz:15695.got - 2010.06.03 14:20:14.
