data_PCOD9445121
_publ_section_title
;
Structure prediction by ZEFSAII (Michael W. Deem and Ramdas Pophale) SiO2 
 PCOD9445121
Probable space group: P N N M
;
_chemical_formula_sum "Si O2"
_cell_formula_units_Z 64
_cell_length_a 12.135593
_cell_length_b 31.240275
_cell_length_c 8.795068
_cell_angle_alpha 90.000000
_cell_angle_beta 90.000000
_cell_angle_gamma 90.000000
_cell_volume 3334.379695
_symmetry_space_group_name_H-M "P N N M"
_symmetry_group_IT_number 58
_symmetry_cell_setting 'orthorhombic'
loop_
_space_group_symop_operation_xyz
x,y,z
-x,-y,z
1/2+x,1/2-y,1/2-z
1/2-x,1/2+y,1/2-z
-x,-y,-z
x,y,-z
1/2-x,1/2+y,1/2+z
1/2+x,1/2-y,1/2+z
loop_
_atom_site_type_symbol
_atom_site_label
_atom_site_fract_x
_atom_site_fract_y
_atom_site_fract_z
Si Si1 0.252442 0.695295 0.681802
Si Si2 0.595038 0.376949 0.181921
Si Si3 0.195903 0.292453 0.816876
Si Si4 0.487055 0.070469 0.319742
Si Si5 0.992984 0.337580 0.680840
Si Si6 0.251833 0.550255 0.681281
Si Si7 0.709397 0.044423 0.181153
Si Si8 0.839414 0.124786 0.683251
O O1 0.268162 0.691639 0.500000
O O2 0.341145 0.665205 0.762127
O O3 0.263333 0.745071 0.723148
O O4 0.130209 0.678118 0.715422
O O5 0.659622 0.417809 0.247686
O O6 0.467306 0.376009 0.229358
O O7 0.599222 0.378644 0.000000
O O8 0.281680 0.330177 0.776698
O O9 0.082528 0.303162 0.732599
O O10 0.179875 0.294018 0.000000
O O11 0.479842 0.065672 0.500000
O O12 0.515544 0.119196 0.273457
O O13 0.369505 0.060955 0.244549
O O14 0.588115 0.042979 0.255020
O O15 0.001339 0.345925 0.500000
O O16 0.250585 0.556398 0.500000
O O17 0.271109 0.500162 0.714659
O O18 0.774148 0.085263 0.244174
O O19 0.696574 0.048122 0.000000
O O20 0.833573 0.120565 0.500000
#
# Coordination Sequence:
#
# PCOD9445121 Si02
#       8
#     8   8   8   8   8   8   8   8
#     4  10  23  41  63  90 126 166 204 254 309 363
#     4  11  24  41  64  91 122 164 210 256 308 364
#     4  10  22  41  63  90 124 165 207 251 306 363
#     4  12  23  38  63  94 127 161 200 253 308 366
#     4  11  22  38  64  94 125 163 203 253 309 363
#     4  11  24  42  63  90 125 162 203 254 309 368
#     4  11  24  41  64  92 122 161 205 251 309 372
#     4  10  23  42  63  88 123 163 204 255 307 361
#
# _framework density 19.193974000000001
#
# number of rings (size 3 to 8) (size 9 to 14) (size 15 to 20)
#    0.000    1.250    2.500    3.000    1.750    6.000 
#    0.000    2.500    0.000    0.000    0.000    0.000 
#    0.000    0.000    0.000    0.000    0.000    0.000 
#
# Total GULP energy -357884.605122 kJ/mol
# GULP energy per Si atom -5591.946955 kJ/mol
# Density = 1.915029 g / cm^3
# Si number density = 19.193974 Si / 1000 Ang^3
#
#
#
# Elastic Constant Matrix: (Units=GPa)
#
#
# Indices 1 2 3 4 5 6 
#
# 1 125.3475 41.6537 38.5026 0.0000 0.0000 0.0000
# 2 41.6537 110.1300 36.5843 0.0000 0.0000 0.0000
# 3 38.5026 36.5843 38.3770 0.0000 0.0000 0.0000
# 4 0.0000 0.0000 0.0000 14.2511 0.0000 0.0000
# 5 0.0000 0.0000 0.0000 0.0000 28.3258 0.0000
# 6 0.0000 0.0000 0.0000 0.0000 0.0000 19.3257
#
#
#
# Elastic Compliance Matrix: (Units=1/GPa)
#
#
# Indices 1 2 3 4 5 6 
#
# 1 0.011575 -0.000761 -0.010887 0.000000 0.000000 0.000000
# 2 -0.000761 0.013338 -0.011951 0.000000 0.000000 0.000000
# 3 -0.010887 -0.011951 0.048373 0.000000 0.000000 0.000000
# 4 0.000000 0.000000 0.000000 0.070170 0.000000 0.000000
# 5 0.000000 0.000000 0.000000 0.000000 0.035304 0.000000
# 6 0.000000 0.000000 0.000000 0.000000 0.000000 0.051745
#
#
# Mechanical properties :
#
#
# Convention : Reuss Voigt Hill
#
# Bulk Modulus (GPa) = 38.33369 56.37062 47.35216
# Shear Modulus (GPa) = 17.45813 22.85477 20.15645
#
# Velocity S-wave (km/s) = 3.01917 3.45443 3.24411
# Velocity P-wave (km/s) = 5.67177 6.73376 6.22545
#
# Compressibility (1/GPa) = 0.02608672
#
# Stress axis : x y z
#
# Youngs Moduli (GPa) = 86.39341 74.97224 20.67269
#
# Poissons Ratio (x) = 0.05708 0.22506
# Poissons Ratio (y) = 0.06577 0.24707
# Poissons Ratio (z) = 0.94057 0.89602
#
# Static dielectric constant tensor:
#      x y z
#    x 1.637270 0.000000 0.000000 
#    y 0.000000 1.671480 0.000000 
#    z 0.000000 0.000000 1.643580 
# 
# From -- ./inp_files/4791.got.cif
#   From: 2010.05.17/outbox.cif.g08.bks.cpg/sg58_3_cif.got.tgz:4791.got - 2010.06.03 14:20:14.
