data_PCOD9445462
_publ_section_title
;
Structure prediction by ZEFSAII (Michael W. Deem and Ramdas Pophale) SiO2 
 PCOD9445462
Probable space group: P N N M
;
_chemical_formula_sum "Si O2"
_cell_formula_units_Z 18
_cell_length_a 18.829474
_cell_length_b 4.934987
_cell_length_c 7.503531
_cell_angle_alpha 90.000000
_cell_angle_beta 90.000000
_cell_angle_gamma 90.000000
_cell_volume 697.252182
_symmetry_space_group_name_H-M "P N N M"
_symmetry_group_IT_number 58
_symmetry_cell_setting 'orthorhombic'
loop_
_space_group_symop_operation_xyz
x,y,z
-x,-y,z
1/2+x,1/2-y,1/2-z
1/2-x,1/2+y,1/2-z
-x,-y,-z
x,y,-z
1/2-x,1/2+y,1/2+z
1/2+x,1/2-y,1/2+z
loop_
_atom_site_type_symbol
_atom_site_label
_atom_site_fract_x
_atom_site_fract_y
_atom_site_fract_z
Si Si1 0.205676 0.172002 0.702975
Si Si2 0.072057 0.824290 0.708430
Si Si3 0.000000 0.500000 0.000000
O O1 0.267339 0.944573 0.707148
O O2 0.189934 0.247412 0.500000
O O3 0.136880 0.012449 0.771003
O O4 0.082287 0.749203 0.500000
O O5 0.057701 0.582624 0.842907
O O6 0.000000 0.000000 0.721763
#
# Coordination Sequence:
#
# PCOD9445462 Si02
#       3
#     8   8   2
#     4  11  26  45  71 102 142 187 234 292 351 422
#     4  10  25  45  67 101 141 181 233 289 353 415
#     4  12  24  40  76 100 132 184 230 302 330 436
#
# _framework density 25.815624
#
# number of rings (size 3 to 8) (size 9 to 14) (size 15 to 20)
#    0.000    1.333    0.000    2.667   12.444    0.000 
#    0.000    0.000    0.000    0.000    0.000    0.000 
#    0.000    0.000    0.000    0.000    0.000    0.000 
#
# Total GULP energy -100350.674574 kJ/mol
# GULP energy per Si atom -5575.037476 kJ/mol
# Density = 2.575687 g / cm^3
# Si number density = 25.815624 Si / 1000 Ang^3
#
#
#
# Elastic Constant Matrix: (Units=GPa)
#
#
# Indices 1 2 3 4 5 6 
#
# 1 107.6893 36.4325 -1.3266 0.0000 0.0000 0.0000
# 2 36.4325 106.8970 19.9626 0.0000 0.0000 0.0000
# 3 -1.3266 19.9626 83.7107 0.0000 0.0000 0.0000
# 4 0.0000 0.0000 0.0000 20.9194 0.0000 0.0000
# 5 0.0000 0.0000 0.0000 0.0000 35.6949 0.0000
# 6 0.0000 0.0000 0.0000 0.0000 0.0000 57.3305
#
#
#
# Elastic Compliance Matrix: (Units=1/GPa)
#
#
# Indices 1 2 3 4 5 6 
#
# 1 0.010588 -0.003810 0.001076 0.000000 0.000000 0.000000
# 2 -0.003810 0.011162 -0.002722 0.000000 0.000000 0.000000
# 3 0.001076 -0.002722 0.012612 0.000000 0.000000 0.000000
# 4 0.000000 0.000000 0.000000 0.047802 0.000000 0.000000
# 5 0.000000 0.000000 0.000000 0.000000 0.028015 0.000000
# 6 0.000000 0.000000 0.000000 0.000000 0.000000 0.017443
#
#
# Mechanical properties :
#
#
# Convention : Reuss Voigt Hill
#
# Bulk Modulus (GPa) = 42.64232 45.38154 44.01193
# Shear Modulus (GPa) = 34.16471 39.00420 36.58445
#
# Velocity S-wave (km/s) = 3.64182 3.89122 3.76858
# Velocity P-wave (km/s) = 5.85130 6.14866 6.00182
#
# Compressibility (1/GPa) = 0.02345088
#
# Stress axis : x y z
#
# Youngs Moduli (GPa) = 94.44596 89.59352 79.28899
#
# Poissons Ratio (x) = 0.34132 -0.08534
# Poissons Ratio (y) = 0.35980 0.21583
# Poissons Ratio (z) = -0.10165 0.24388
#
# Static dielectric constant tensor:
#      x y z
#    x 2.053910 0.000000 0.000000 
#    y 0.000000 2.041800 0.000000 
#    z 0.000000 0.000000 1.950390 
# 
# From -- ./inp_files/1098.got.cif
#   From: 2010.05.17/outbox.cif.g08.bks.cpg/sg58_1_cif.got.tgz:1098.got - 2010.06.03 14:20:14.
