data_PCOD9445811
_publ_section_title
;
Structure prediction by ZEFSAII (Michael W. Deem and Ramdas Pophale) SiO2 
 PCOD9445811
Probable space group: P N N M
;
_chemical_formula_sum "Si O2"
_cell_formula_units_Z 18
_cell_length_a 7.437509
_cell_length_b 7.551222
_cell_length_c 12.673484
_cell_angle_alpha 90.000000
_cell_angle_beta 90.000000
_cell_angle_gamma 90.000000
_cell_volume 711.771777
_symmetry_space_group_name_H-M "P N N M"
_symmetry_group_IT_number 58
_symmetry_cell_setting 'orthorhombic'
loop_
_space_group_symop_operation_xyz
x,y,z
-x,-y,z
1/2+x,1/2-y,1/2-z
1/2-x,1/2+y,1/2-z
-x,-y,-z
x,y,-z
1/2-x,1/2+y,1/2+z
1/2+x,1/2-y,1/2+z
loop_
_atom_site_type_symbol
_atom_site_label
_atom_site_fract_x
_atom_site_fract_y
_atom_site_fract_z
Si Si1 0.500000 0.000000 0.500000
Si Si2 0.198781 0.063276 0.346300
Si Si3 0.785802 0.525985 0.613446
O O1 0.650128 0.046495 0.406921
O O2 0.241453 0.263087 0.381341
O O3 0.210179 0.055655 0.219935
O O4 0.000000 0.000000 0.376362
O O5 0.716252 0.460963 0.500000
O O6 0.000000 0.500000 0.615970
#
# Coordination Sequence:
#
# PCOD9445811 Si02
#       3
#     2   8   8
#     4  12  26  48  72 112 150 202 252 314 360 460
#     4  12  26  48  77 109 152 202 248 313 377 440
#     4  11  25  49  75 113 152 193 255 306 373 452
#
# _framework density 25.289003000000001
#
# number of rings (size 3 to 8) (size 9 to 14) (size 15 to 20)
#    0.000    0.444    4.444    3.333    0.000    0.889 
#    4.000    0.000    0.000    0.000    0.000    0.000 
#    0.000    0.000    0.000    0.000    0.000    0.000 
#
# Total GULP energy -100387.187152 kJ/mol
# GULP energy per Si atom -5577.065953 kJ/mol
# Density = 2.523144 g / cm^3
# Si number density = 25.289003 Si / 1000 Ang^3
#
#
#
# Elastic Constant Matrix: (Units=GPa)
#
#
# Indices 1 2 3 4 5 6 
#
# 1 164.8557 -29.6949 65.0444 0.0000 0.0000 0.0000
# 2 -29.6949 68.7097 30.0765 0.0000 0.0000 0.0000
# 3 65.0444 30.0765 282.0100 0.0000 0.0000 0.0000
# 4 0.0000 0.0000 0.0000 46.0190 0.0000 0.0000
# 5 0.0000 0.0000 0.0000 0.0000 37.0144 0.0000
# 6 0.0000 0.0000 0.0000 0.0000 0.0000 17.8675
#
#
#
# Elastic Compliance Matrix: (Units=1/GPa)
#
#
# Indices 1 2 3 4 5 6 
#
# 1 0.007730 0.004323 -0.002244 0.000000 0.000000 0.000000
# 2 0.004323 0.017684 -0.002883 0.000000 0.000000 0.000000
# 3 -0.002244 -0.002883 0.004371 0.000000 0.000000 0.000000
# 4 0.000000 0.000000 0.000000 0.021730 0.000000 0.000000
# 5 0.000000 0.000000 0.000000 0.000000 0.027017 0.000000
# 6 0.000000 0.000000 0.000000 0.000000 0.000000 0.055968
#
#
# Mechanical properties :
#
#
# Convention : Reuss Voigt Hill
#
# Bulk Modulus (GPa) = 35.48981 71.82527 53.65754
# Shear Modulus (GPa) = 34.36426 50.19014 42.27720
#
# Velocity S-wave (km/s) = 3.69027 4.45979 4.09315
# Velocity P-wave (km/s) = 5.67641 7.41506 6.60321
#
# Compressibility (1/GPa) = 0.02817710
#
# Stress axis : x y z
#
# Youngs Moduli (GPa) = 129.36719 56.54728 228.78008
#
# Poissons Ratio (x) = -0.24445 0.51336
# Poissons Ratio (y) = -0.55925 0.65960
# Poissons Ratio (z) = 0.29029 0.16303
#
# Static dielectric constant tensor:
#      x y z
#    x 1.971850 0.000000 0.000000 
#    y 0.000000 2.200350 0.000000 
#    z 0.000000 0.000000 1.966020 
# 
# From -- ./inp_files/11915.got.cif
#   From: 2010.05.17/outbox.cif.g08.bks.cpg/sg58_6_cif.got.tgz:11915.got - 2010.06.03 14:20:14.
