data_PCOD9445370
_publ_section_title
;
Structure prediction by ZEFSAII (Michael W. Deem and Ramdas Pophale) SiO2 
 PCOD9445370
Probable space group: P N N M
;
_chemical_formula_sum "Si O2"
_cell_formula_units_Z 28
_cell_length_a 5.256556
_cell_length_b 11.487080
_cell_length_c 20.156757
_cell_angle_alpha 90.000000
_cell_angle_beta 90.000000
_cell_angle_gamma 90.000000
_cell_volume 1217.114962
_symmetry_space_group_name_H-M "P N N M"
_symmetry_group_IT_number 58
_symmetry_cell_setting 'orthorhombic'
loop_
_space_group_symop_operation_xyz
x,y,z
-x,-y,z
1/2+x,1/2-y,1/2-z
1/2-x,1/2+y,1/2-z
-x,-y,-z
x,y,-z
1/2-x,1/2+y,1/2+z
1/2+x,1/2-y,1/2+z
loop_
_atom_site_type_symbol
_atom_site_label
_atom_site_fract_x
_atom_site_fract_y
_atom_site_fract_z
Si Si1 0.147303 0.599937 0.878802
Si Si2 0.000000 0.000000 0.731200
Si Si3 0.084452 0.321149 0.575721
Si Si4 0.925298 0.837667 0.851440
O O1 0.274079 0.532601 0.818009
O O2 0.355816 0.682120 0.914832
O O3 0.000000 0.500000 0.918809
O O4 0.956445 0.698516 0.851759
O O5 0.007729 0.891816 0.781891
O O6 0.017077 0.344660 0.500000
O O7 0.859093 0.361006 0.624097
O O8 0.354736 0.375981 0.596745
#
# Coordination Sequence:
#
# PCOD9445370 Si02
#       4
#     8   4   8   8
#     4  10  25  41  71 102 133 182 218 284 339 400
#     4  12  26  44  68 104 140 174 230 278 346 410
#     4  10  23  47  69 101 137 177 229 278 335 404
#     4  10  26  42  71 102 132 182 221 282 342 398
#
# _framework density 23.005220999999999
#
# number of rings (size 3 to 8) (size 9 to 14) (size 15 to 20)
#    1.714    0.000    0.000    2.571   12.000    0.571 
#    0.000    6.429    0.000    0.000    0.000    0.000 
#    0.000    0.000    0.000    0.000    0.000    0.000 
#
# Total GULP energy -156072.276372 kJ/mol
# GULP energy per Si atom -5574.009870 kJ/mol
# Density = 2.295286 g / cm^3
# Si number density = 23.005221 Si / 1000 Ang^3
#
#
#
# Elastic Constant Matrix: (Units=GPa)
#
#
# Indices 1 2 3 4 5 6 
#
# 1 109.5950 19.1500 16.0534 0.0000 0.0000 0.0000
# 2 19.1500 97.7441 -2.1255 0.0000 0.0000 0.0000
# 3 16.0534 -2.1255 81.9027 0.0000 0.0000 0.0000
# 4 0.0000 0.0000 0.0000 -25.1267 0.0000 0.0000
# 5 0.0000 0.0000 0.0000 0.0000 58.1120 0.0000
# 6 0.0000 0.0000 0.0000 0.0000 0.0000 31.2489
#
#
#
# Elastic Compliance Matrix: (Units=1/GPa)
#
#
# Indices 1 2 3 4 5 6 
#
# 1 0.009753 -0.001954 -0.001962 0.000000 0.000000 0.000000
# 2 -0.001954 0.010628 0.000659 0.000000 0.000000 0.000000
# 3 -0.001962 0.000659 0.012611 0.000000 0.000000 0.000000
# 4 0.000000 0.000000 0.000000 -0.039798 0.000000 0.000000
# 5 0.000000 0.000000 0.000000 0.000000 0.017208 0.000000
# 6 0.000000 0.000000 0.000000 0.000000 0.000000 0.032001
#
#
# Mechanical properties :
#
#
# Convention : Reuss Voigt Hill
#
# Bulk Modulus (GPa) = 37.76712 39.48862 38.62787
# Shear Modulus (GPa) = 86.58917 29.92444 58.25680
#
# Velocity S-wave (km/s) = 6.14171 3.61053 5.03769
# Velocity P-wave (km/s) = 8.16986 5.88078 7.11794
#
# Compressibility (1/GPa) = 0.02647806
#
# Stress axis : x y z
#
# Youngs Moduli (GPa) = 102.52938 94.09234 79.29364
#
# Poissons Ratio (x) = 0.18381 0.15561
# Poissons Ratio (y) = 0.20029 -0.05223
# Poissons Ratio (z) = 0.20120 -0.06198
#
# Static dielectric constant tensor:
#      x y z
#    x 1.990230 0.000000 0.000000 
#    y 0.000000 1.859760 0.000000 
#    z 0.000000 0.000000 1.794250 
# 
# From -- ./inp_files/30740.got.cif
#   From: 2010.05.17/outbox.cif.g08.bks.cpg/sg58_16_cif.got.tgz:30740.got - 2010.06.03 14:20:14.
