data_PCOD9445763
_publ_section_title
;
Structure prediction by ZEFSAII (Michael W. Deem and Ramdas Pophale) SiO2 
 PCOD9445763
Probable space group: P N N M
;
_chemical_formula_sum "Si O2"
_cell_formula_units_Z 36
_cell_length_a 23.436460
_cell_length_b 9.222155
_cell_length_c 8.539975
_cell_angle_alpha 90.000000
_cell_angle_beta 90.000000
_cell_angle_gamma 90.000000
_cell_volume 1845.784651
_symmetry_space_group_name_H-M "P N N M"
_symmetry_group_IT_number 58
_symmetry_cell_setting 'orthorhombic'
loop_
_space_group_symop_operation_xyz
x,y,z
-x,-y,z
1/2+x,1/2-y,1/2-z
1/2-x,1/2+y,1/2-z
-x,-y,-z
x,y,-z
1/2-x,1/2+y,1/2+z
1/2+x,1/2-y,1/2+z
loop_
_atom_site_type_symbol
_atom_site_label
_atom_site_fract_x
_atom_site_fract_y
_atom_site_fract_z
Si Si1 0.076478 0.229120 0.500000
Si Si2 0.849599 0.499348 0.500000
Si Si3 0.308729 0.442709 0.328133
Si Si4 0.937232 0.021143 0.247230
Si Si5 0.712994 0.898096 0.680294
Si Si6 0.048149 0.727655 0.500000
O O1 0.129787 0.334740 0.500000
O O2 0.017553 0.320077 0.500000
O O3 0.072799 0.120675 0.353748
O O4 0.819733 0.466575 0.669092
O O5 0.904882 0.395124 0.500000
O O6 0.287026 0.485812 0.500000
O O7 0.376742 0.457312 0.333677
O O8 0.277339 0.542825 0.202085
O O9 0.292229 0.275129 0.301279
O O10 0.943378 0.164180 0.353969
O O11 0.000000 0.000000 0.171835
O O12 0.693852 0.932175 0.500000
#
# Coordination Sequence:
#
# PCOD9445763 Si02
#       6
#     4   4   8   8   8   4
#     4   9  21  33  63  99 121 158 215 244 300 381
#     4  12  21  42  64  94 125 168 199 256 310 366
#     4  11  24  42  62  89 122 165 207 251 315 370
#     4   9  19  37  61  91 123 160 206 258 304 360
#     4  11  27  41  62  91 125 161 208 257 307 371
#     4   9  17  37  63  89 123 166 201 253 308 356
#
# _framework density 19.503899000000001
#
# number of rings (size 3 to 8) (size 9 to 14) (size 15 to 20)
#    0.000    1.778    3.333    1.667    7.778    0.444 
#    0.000    0.000    0.000    4.000    0.000    0.000 
#    0.000    0.000    0.000    0.000    0.000    0.000 
#
# Total GULP energy -200452.266992 kJ/mol
# GULP energy per Si atom -5568.118528 kJ/mol
# Density = 1.945951 g / cm^3
# Si number density = 19.503899 Si / 1000 Ang^3
#
#
#
# Elastic Constant Matrix: (Units=GPa)
#
#
# Indices 1 2 3 4 5 6 
#
# 1 111.3874 52.5933 55.4589 0.0000 0.0000 0.0000
# 2 52.5933 73.4103 40.4377 0.0000 0.0000 0.0000
# 3 55.4589 40.4377 117.1158 0.0000 0.0000 0.0000
# 4 0.0000 0.0000 0.0000 -49.8700 0.0000 0.0000
# 5 0.0000 0.0000 0.0000 0.0000 21.5072 0.0000
# 6 0.0000 0.0000 0.0000 0.0000 0.0000 36.5579
#
#
#
# Elastic Compliance Matrix: (Units=1/GPa)
#
#
# Indices 1 2 3 4 5 6 
#
# 1 0.015081 -0.008484 -0.004212 0.000000 0.000000 0.000000
# 2 -0.008484 0.021594 -0.003439 0.000000 0.000000 0.000000
# 3 -0.004212 -0.003439 0.011720 0.000000 0.000000 0.000000
# 4 0.000000 0.000000 0.000000 -0.020052 0.000000 0.000000
# 5 0.000000 0.000000 0.000000 0.000000 0.046496 0.000000
# 6 0.000000 0.000000 0.000000 0.000000 0.000000 0.027354
#
#
# Mechanical properties :
#
#
# Convention : Reuss Voigt Hill
#
# Bulk Modulus (GPa) = 62.01056 66.54370 64.27713
# Shear Modulus (GPa) = 35.75573 11.86725 23.81149
#
# Velocity S-wave (km/s) = 4.28630 2.46937 3.49787
# Velocity P-wave (km/s) = 7.50730 6.50558 7.02432
#
# Compressibility (1/GPa) = 0.01612628
#
# Stress axis : x y z
#
# Youngs Moduli (GPa) = 66.31023 46.30818 85.32192
#
# Poissons Ratio (x) = 0.39288 0.35937
# Poissons Ratio (y) = 0.56258 0.29339
# Poissons Ratio (z) = 0.27929 0.15923
#
# Static dielectric constant tensor:
#      x y z
#    x 1.734970 0.000000 0.000000 
#    y 0.000000 1.628820 0.000000 
#    z 0.000000 0.000000 1.696770 
# 
# From -- ./inp_files/8687.got.cif
#   From: 2010.05.17/outbox.cif.g08.bks.cpg/sg58_5_cif.got.tgz:8687.got - 2010.06.03 14:20:14.
