data_PCOD9445984
_publ_section_title
;
Structure prediction by ZEFSAII (Michael W. Deem and Ramdas Pophale) SiO2 
 PCOD9445984
Probable space group: P N N M
;
_chemical_formula_sum "Si O2"
_cell_formula_units_Z 64
_cell_length_a 12.000000
_cell_length_b 30.000000
_cell_length_c 9.000000
_cell_angle_alpha 90.000000
_cell_angle_beta 90.000000
_cell_angle_gamma 90.000000
_cell_volume 3240.000000
_symmetry_space_group_name_H-M "P N N M"
_symmetry_group_IT_number 58
_symmetry_cell_setting 'orthorhombic'
loop_
_space_group_symop_operation_xyz
x,y,z
-x,-y,z
1/2+x,1/2-y,1/2-z
1/2-x,1/2+y,1/2-z
-x,-y,-z
x,y,-z
1/2-x,1/2+y,1/2+z
1/2+x,1/2-y,1/2+z
loop_
_atom_site_type_symbol
_atom_site_label
_atom_site_fract_x
_atom_site_fract_y
_atom_site_fract_z
Si Si1 0.177423 0.188507 0.322132
Si Si2 0.816776 0.077689 0.828336
Si Si3 0.258747 0.093221 0.324310
Si Si4 0.715686 0.209836 0.822405
Si Si5 0.880088 0.625439 0.825724
Si Si6 0.966624 0.449588 0.677574
Si Si7 0.453606 0.337838 0.670913
Si Si8 0.630066 0.490647 0.165160
O O1 0.188849 0.188783 0.500000
O O2 0.244560 0.144124 0.270314
O O3 0.208939 0.238588 0.271069
O O4 0.050924 0.178122 0.277072
O O5 0.735988 0.101164 0.711212
O O6 0.925123 0.109472 0.819097
O O7 0.825544 0.026118 0.784720
O O8 0.776441 0.082176 0.000000
O O9 0.289209 0.094956 0.500000
O O10 0.344867 0.063431 0.233206
O O11 0.150260 0.061799 0.311460
O O12 0.631801 0.175059 0.743151
O O13 0.839422 0.189480 0.800541
O O14 0.693936 0.208542 0.000000
O O15 0.963138 0.591068 0.746655
O O16 0.903011 0.628344 0.000000
O O17 0.976140 0.448579 0.500000
O O18 0.000000 0.500000 0.726295
O O19 0.486647 0.328908 0.500000
O O20 0.500000 0.500000 0.160679
O O21 0.678050 0.501029 0.000000
#
# Coordination Sequence:
#
# PCOD9445984 Si02
#       8
#     8   8   8   8   8   8   8   8
#     4  10  21  38  60  84 115 152 189 236 290 342
#     4  10  20  35  55  80 111 145 184 230 277 329
#     4  10  22  38  56  84 119 153 191 234 284 342
#     4   9  20  39  59  83 116 152 193 242 293 345
#     4  11  22  37  60  86 111 144 189 238 287 341
#     4  11  24  41  61  86 119 158 197 240 292 350
#     4   9  19  35  55  80 112 147 185 234 286 337
#     4  10  20  34  54  81 114 149 185 228 276 330
#
# _framework density 19.753086
#
# number of rings (size 3 to 8) (size 9 to 14) (size 15 to 20)
#    0.000    2.000    0.000    4.125    0.000    9.250 
#    0.000    1.250    0.000    0.000    0.000    0.000 
#    0.000    0.000    0.000    0.000    0.000    0.000 
#
# Total GULP energy -356681.786050 kJ/mol
# GULP energy per Si atom -5573.152907 kJ/mol
# Density = 1.970813 g / cm^3
# Si number density = 19.753086 Si / 1000 Ang^3
#
#
#
# Elastic Constant Matrix: (Units=GPa)
#
#
# Indices 1 2 3 4 5 6 
#
# 1 42.2717 31.6291 21.0049 0.0000 0.0000 0.0000
# 2 31.6291 167.8502 46.1843 0.0000 0.0000 0.0000
# 3 21.0049 46.1843 46.4222 0.0000 0.0000 0.0000
# 4 0.0000 0.0000 0.0000 31.8298 0.0000 0.0000
# 5 0.0000 0.0000 0.0000 0.0000 24.0500 0.0000
# 6 0.0000 0.0000 0.0000 0.0000 0.0000 27.4045
#
#
#
# Elastic Compliance Matrix: (Units=1/GPa)
#
#
# Indices 1 2 3 4 5 6 
#
# 1 0.031424 -0.002766 -0.011466 0.000000 0.000000 0.000000
# 2 -0.002766 0.008447 -0.007152 0.000000 0.000000 0.000000
# 3 -0.011466 -0.007152 0.033845 0.000000 0.000000 0.000000
# 4 0.000000 0.000000 0.000000 0.031417 0.000000 0.000000
# 5 0.000000 0.000000 0.000000 0.000000 0.041580 0.000000
# 6 0.000000 0.000000 0.000000 0.000000 0.000000 0.036490
#
#
# Mechanical properties :
#
#
# Convention : Reuss Voigt Hill
#
# Bulk Modulus (GPa) = 32.31379 50.46453 41.38916
# Shear Modulus (GPa) = 21.16064 27.17192 24.16628
#
# Velocity S-wave (km/s) = 3.27656 3.71290 3.50153
# Velocity P-wave (km/s) = 5.54155 6.63204 6.11117
#
# Compressibility (1/GPa) = 0.03094654
#
# Stress axis : x y z
#
# Youngs Moduli (GPa) = 31.82277 118.38769 29.54665
#
# Poissons Ratio (x) = 0.32751 0.33879
# Poissons Ratio (y) = 0.08804 0.21131
# Poissons Ratio (z) = 0.36489 0.84668
#
# Static dielectric constant tensor:
#      x y z
#    x 1.954070 0.000000 0.000000 
#    y 0.000000 1.711970 0.000000 
#    z 0.000000 0.000000 1.698020 
# 
# From -- ./inp_files/4783.got.cif
#   From: 2010.05.17/outbox.ucp.g08.bks.cvg/sg58_3_cif.got.tgz:4783.got - 2010.06.11 16:41:41.
