data_PCOD9445787
_publ_section_title
;
Structure prediction by ZEFSAII (Michael W. Deem and Ramdas Pophale) SiO2 
 PCOD9445787
Probable space group: P N N M
;
_chemical_formula_sum "Si O2"
_cell_formula_units_Z 34
_cell_length_a 10.178719
_cell_length_b 7.291659
_cell_length_c 22.014615
_cell_angle_alpha 90.000000
_cell_angle_beta 90.000000
_cell_angle_gamma 90.000000
_cell_volume 1633.919178
_symmetry_space_group_name_H-M "P N N M"
_symmetry_group_IT_number 58
_symmetry_cell_setting 'orthorhombic'
loop_
_space_group_symop_operation_xyz
x,y,z
-x,-y,z
1/2+x,1/2-y,1/2-z
1/2-x,1/2+y,1/2-z
-x,-y,-z
x,y,-z
1/2-x,1/2+y,1/2+z
1/2+x,1/2-y,1/2+z
loop_
_atom_site_type_symbol
_atom_site_label
_atom_site_fract_x
_atom_site_fract_y
_atom_site_fract_z
Si Si1 0.500000 0.500000 0.000000
Si Si2 0.148930 0.434526 0.300069
Si Si3 0.693554 0.369552 0.100836
Si Si4 0.692708 0.206420 0.335461
Si Si5 0.478810 0.280567 0.566870
O O1 0.421390 0.618964 0.947514
O O2 0.164141 0.256647 0.341566
O O3 0.245718 0.593534 0.324257
O O4 0.176223 0.385436 0.230177
O O5 0.000000 0.500000 0.304874
O O6 0.716364 0.576218 0.124035
O O7 0.829480 0.287508 0.073524
O O8 0.559322 0.214397 0.374567
O O9 0.500000 0.500000 0.567053
O O10 0.529203 0.217316 0.500000
#
# Coordination Sequence:
#
# PCOD9445787 Si02
#       5
#     2   8   8   8   8
#     4  12  28  48  74 104 154 204 240 298 374 444
#     4  12  26  47  71 109 150 193 243 308 376 438
#     4  12  25  49  72 108 149 191 251 302 367 454
#     4  12  26  46  77 108 144 194 246 308 368 438
#     4  11  24  46  78 109 145 191 249 306 367 438
#
# _framework density 20.808862000000001
#
# number of rings (size 3 to 8) (size 9 to 14) (size 15 to 20)
#    0.000    0.235    5.882    3.529    1.647    0.941 
#    2.118    1.765    0.000    0.000    0.000    0.000 
#    0.000    0.000    0.000    0.000    0.000    0.000 
#
# Total GULP energy -189595.071738 kJ/mol
# GULP energy per Si atom -5576.325639 kJ/mol
# Density = 2.076150 g / cm^3
# Si number density = 20.808862 Si / 1000 Ang^3
#
#
#
# Elastic Constant Matrix: (Units=GPa)
#
#
# Indices 1 2 3 4 5 6 
#
# 1 75.8879 11.1196 26.5868 0.0000 0.0000 0.0000
# 2 11.1196 80.4642 22.2041 0.0000 0.0000 0.0000
# 3 26.5868 22.2041 130.1079 0.0000 0.0000 0.0000
# 4 0.0000 0.0000 0.0000 -68.2080 0.0000 0.0000
# 5 0.0000 0.0000 0.0000 0.0000 -50.2937 0.0000
# 6 0.0000 0.0000 0.0000 0.0000 0.0000 27.0681
#
#
#
# Elastic Compliance Matrix: (Units=1/GPa)
#
#
# Indices 1 2 3 4 5 6 
#
# 1 0.014308 -0.001228 -0.002714 0.000000 0.000000 0.000000
# 2 -0.001228 0.013148 -0.001993 0.000000 0.000000 0.000000
# 3 -0.002714 -0.001993 0.008581 0.000000 0.000000 0.000000
# 4 0.000000 0.000000 0.000000 -0.014661 0.000000 0.000000
# 5 0.000000 0.000000 0.000000 0.000000 -0.019883 0.000000
# 6 0.000000 0.000000 0.000000 0.000000 0.000000 0.036944
#
#
# Mechanical properties :
#
#
# Convention : Reuss Voigt Hill
#
# Bulk Modulus (GPa) = 41.38063 45.14232 43.26147
# Shear Modulus (GPa) = 85.67243 -3.18343 41.24450
#
# Velocity S-wave (km/s) = 6.42343 -1.23821 4.45687
# Velocity P-wave (km/s) = 8.65698 4.43809 6.87895
#
# Compressibility (1/GPa) = 0.02416590
#
# Stress axis : x y z
#
# Youngs Moduli (GPa) = 69.88995 76.05989 116.54148
#
# Poissons Ratio (x) = 0.09343 0.31631
# Poissons Ratio (y) = 0.08585 0.23224
# Poissons Ratio (z) = 0.18969 0.15157
#
# Static dielectric constant tensor:
#      x y z
#    x 1.743950 0.000000 0.000000 
#    y 0.000000 1.762370 0.000000 
#    z 0.000000 0.000000 1.781150 
# 
# From -- ./inp_files/28562.got.cif
#   From: 2010.05.17/outbox.cif.g08.bks.cpg/sg58_15_cif.got.tgz:28562.got - 2010.06.03 14:20:14.
