data_PCOD9445538
_publ_section_title
;
Structure prediction by ZEFSAII (Michael W. Deem and Ramdas Pophale) SiO2 
 PCOD9445538
Probable space group: P N N M
;
_chemical_formula_sum "Si O2"
_cell_formula_units_Z 48
_cell_length_a 5.179803
_cell_length_b 14.054299
_cell_length_c 26.889448
_cell_angle_alpha 90.000000
_cell_angle_beta 90.000000
_cell_angle_gamma 90.000000
_cell_volume 1957.511484
_symmetry_space_group_name_H-M "P N N M"
_symmetry_group_IT_number 58
_symmetry_cell_setting 'orthorhombic'
loop_
_space_group_symop_operation_xyz
x,y,z
-x,-y,z
1/2+x,1/2-y,1/2-z
1/2-x,1/2+y,1/2-z
-x,-y,-z
x,y,-z
1/2-x,1/2+y,1/2+z
1/2+x,1/2-y,1/2+z
loop_
_atom_site_type_symbol
_atom_site_label
_atom_site_fract_x
_atom_site_fract_y
_atom_site_fract_z
Si Si1 0.752384 0.062596 0.672127
Si Si2 0.121703 0.315320 0.089249
Si Si3 0.500000 0.500000 0.588204
Si Si4 0.595273 0.343506 0.663570
Si Si5 0.779850 0.344417 0.000000
Si Si6 0.915696 0.610473 0.276097
Si Si7 0.279232 0.899119 0.000000
Si Si8 0.609827 0.769509 0.000000
O O1 0.807608 0.117864 0.621114
O O2 0.657417 0.126731 0.718419
O O3 0.500000 0.000000 0.660448
O O4 0.000000 0.000000 0.687142
O O5 0.005045 0.248314 0.132023
O O6 0.260781 0.241498 0.053185
O O7 0.922897 0.365098 0.050951
O O8 0.652052 0.428535 0.624415
O O9 0.669379 0.563333 0.550657
O O10 0.347871 0.374583 0.694716
O O11 0.847609 0.333362 0.698478
O O12 0.730097 0.222137 0.000000
O O13 0.477873 0.353020 0.000000
O O14 0.000000 0.500000 0.277574
O O15 0.585030 0.890081 0.000000
#
# Coordination Sequence:
#
# PCOD9445538 Si02
#       8
#     8   8   4   8   4   8   4   4
#     4  11  27  49  74  97 131 178 227 294 359 416
#     4  11  25  42  70 101 133 177 232 280 351 405
#     4  11  20  38  62 102 138 190 232 251 318 404
#     4  12  24  38  70 100 142 183 226 272 322 401
#     4   9  20  42  62  96 137 173 215 288 337 397
#     4  11  23  43  64 100 140 180 224 277 334 396
#     4   9  20  37  61  91 146 183 233 253 318 402
#     4   9  22  43  65  95 140 175 217 292 341 392
#
# _framework density 24.520931999999998
#
# number of rings (size 3 to 8) (size 9 to 14) (size 15 to 20)
#    0.500    0.833    3.333    2.000    7.000    1.333 
#    0.000    4.167    0.000    0.000    0.000    0.000 
#    0.000    0.000    0.000    0.000    0.000    0.000 
#
# Total GULP energy -267617.487696 kJ/mol
# GULP energy per Si atom -5575.364327 kJ/mol
# Density = 2.446512 g / cm^3
# Si number density = 24.520932 Si / 1000 Ang^3
#
#
#
# Elastic Constant Matrix: (Units=GPa)
#
#
# Indices 1 2 3 4 5 6 
#
# 1 107.4844 10.4338 55.1733 0.0000 0.0000 0.0000
# 2 10.4338 23.2663 36.6531 0.0000 0.0000 0.0000
# 3 55.1733 36.6531 171.6779 0.0000 0.0000 0.0000
# 4 0.0000 0.0000 0.0000 -6.3099 0.0000 0.0000
# 5 0.0000 0.0000 0.0000 0.0000 -8.3678 0.0000
# 6 0.0000 0.0000 0.0000 0.0000 0.0000 17.3265
#
#
#
# Elastic Compliance Matrix: (Units=1/GPa)
#
#
# Indices 1 2 3 4 5 6 
#
# 1 0.011156 0.000972 -0.003793 0.000000 0.000000 0.000000
# 2 0.000972 0.064848 -0.014157 0.000000 0.000000 0.000000
# 3 -0.003793 -0.014157 0.010066 0.000000 0.000000 0.000000
# 4 0.000000 0.000000 0.000000 -0.158482 0.000000 0.000000
# 5 0.000000 0.000000 0.000000 0.000000 -0.119506 0.000000
# 6 0.000000 0.000000 0.000000 0.000000 0.000000 0.057715
#
#
# Mechanical properties :
#
#
# Convention : Reuss Voigt Hill
#
# Bulk Modulus (GPa) = 19.18855 56.32767 37.75811
# Shear Modulus (GPa) = -60.33280 13.87431 -23.22925
#
# Velocity S-wave (km/s) = -4.96568 2.38127 -3.08120
# Velocity P-wave (km/s) = 5.00350 5.53007 1.66534
#
# Compressibility (1/GPa) = 0.05211442
#
# Stress axis : x y z
#
# Youngs Moduli (GPa) = 89.63565 15.42068 99.33997
#
# Poissons Ratio (x) = -0.01499 0.37679
# Poissons Ratio (y) = -0.08715 1.40640
# Poissons Ratio (z) = 0.33998 0.21832
#
# Static dielectric constant tensor:
#      x y z
#    x 1.977840 0.000000 0.000000 
#    y 0.000000 2.173180 0.000000 
#    z 0.000000 0.000000 1.934640 
# 
# From -- ./inp_files/32871.got.cif
#   From: 2010.05.17/outbox.cif.g08.bks.cpg/sg58_17_cif.got.tgz:32871.got - 2010.06.03 14:20:14.
