data_PCOD9445076
_publ_section_title
;
Structure prediction by ZEFSAII (Michael W. Deem and Ramdas Pophale) SiO2 
 PCOD9445076
Probable space group: P N N M
;
_chemical_formula_sum "Si O2"
_cell_formula_units_Z 40
_cell_length_a 7.321999
_cell_length_b 18.340580
_cell_length_c 13.119027
_cell_angle_alpha 90.000000
_cell_angle_beta 90.000000
_cell_angle_gamma 90.000000
_cell_volume 1761.750311
_symmetry_space_group_name_H-M "P N N M"
_symmetry_group_IT_number 58
_symmetry_cell_setting 'orthorhombic'
loop_
_space_group_symop_operation_xyz
x,y,z
-x,-y,z
1/2+x,1/2-y,1/2-z
1/2-x,1/2+y,1/2-z
-x,-y,-z
x,y,-z
1/2-x,1/2+y,1/2+z
1/2+x,1/2-y,1/2+z
loop_
_atom_site_type_symbol
_atom_site_label
_atom_site_fract_x
_atom_site_fract_y
_atom_site_fract_z
Si Si1 0.280011 0.339736 0.388459
Si Si2 0.196243 0.468876 0.250024
Si Si3 0.586409 0.777018 0.254321
Si Si4 0.735681 0.660138 0.878825
Si Si5 0.698221 0.394773 0.380832
O O1 0.205924 0.333922 0.500000
O O2 0.175315 0.403875 0.331775
O O3 0.281090 0.261393 0.336749
O O4 0.491709 0.364774 0.387260
O O5 0.283772 0.424245 0.156282
O O6 0.297003 0.532362 0.312356
O O7 0.000000 0.500000 0.218798
O O8 0.578578 0.707494 0.176223
O O9 0.423687 0.809080 0.325469
O O10 0.682594 0.836933 0.183007
O O11 0.741341 0.669311 0.000000
O O12 0.755823 0.406240 0.500000
#
# Coordination Sequence:
#
# PCOD9445076 Si02
#       5
#     8   8   8   8   8
#     4  10  22  40  64  89 126 171 210 262 331 380
#     4  11  23  40  61  96 125 164 216 265 311 386
#     4  11  21  40  66  96 125 164 219 265 318 392
#     4  11  24  45  67  92 131 172 211 266 328 381
#     4  11  22  40  62  89 127 172 213 267 326 376
#
# _framework density 22.704692000000001
#
# number of rings (size 3 to 8) (size 9 to 14) (size 15 to 20)
#    0.000    1.200    4.000    2.400    0.000    3.600 
#    0.000    3.000    0.000   10.800    0.000    0.000 
#    0.000    0.000    0.000    0.000    0.000    0.000 
#
# Total GULP energy -223044.250532 kJ/mol
# GULP energy per Si atom -5576.106263 kJ/mol
# Density = 2.265302 g / cm^3
# Si number density = 22.704692 Si / 1000 Ang^3
#
#
#
# Elastic Constant Matrix: (Units=GPa)
#
#
# Indices 1 2 3 4 5 6 
#
# 1 65.4436 33.6497 14.1323 0.0000 0.0000 0.0000
# 2 33.6497 107.8567 38.9881 0.0000 0.0000 0.0000
# 3 14.1323 38.9881 159.9113 0.0000 0.0000 0.0000
# 4 0.0000 0.0000 0.0000 25.2983 0.0000 0.0000
# 5 0.0000 0.0000 0.0000 0.0000 27.7518 0.0000
# 6 0.0000 0.0000 0.0000 0.0000 0.0000 18.5483
#
#
#
# Elastic Compliance Matrix: (Units=1/GPa)
#
#
# Indices 1 2 3 4 5 6 
#
# 1 0.018209 -0.005592 -0.000246 0.000000 0.000000 0.000000
# 2 -0.005592 0.011885 -0.002403 0.000000 0.000000 0.000000
# 3 -0.000246 -0.002403 0.006861 0.000000 0.000000 0.000000
# 4 0.000000 0.000000 0.000000 0.039528 0.000000 0.000000
# 5 0.000000 0.000000 0.000000 0.000000 0.036034 0.000000
# 6 0.000000 0.000000 0.000000 0.000000 0.000000 0.053913
#
#
# Mechanical properties :
#
#
# Convention : Reuss Voigt Hill
#
# Bulk Modulus (GPa) = 48.84655 56.30576 52.57616
# Shear Modulus (GPa) = 26.35227 30.74911 28.55069
#
# Velocity S-wave (km/s) = 3.41053 3.68408 3.54994
# Velocity P-wave (km/s) = 6.08848 6.55360 6.32531
#
# Compressibility (1/GPa) = 0.02047228
#
# Stress axis : x y z
#
# Youngs Moduli (GPa) = 54.91881 84.13970 145.74733
#
# Poissons Ratio (x) = 0.47051 0.03583
# Poissons Ratio (y) = 0.30711 0.35030
# Poissons Ratio (z) = 0.01350 0.20223
#
# Static dielectric constant tensor:
#      x y z
#    x 1.938360 0.000000 0.000000 
#    y 0.000000 1.895310 0.000000 
#    z 0.000000 0.000000 1.844540 
# 
# From -- ./inp_files/12685.got.cif
#   From: 2010.05.17/outbox.cif.g08.bks.cpg/sg58_7_cif.got.tgz:12685.got - 2010.06.03 14:20:14.
