data_PCOD9445072
_publ_section_title
;
Structure prediction by ZEFSAII (Michael W. Deem and Ramdas Pophale) SiO2 
 PCOD9445072
Probable space group: P N N M
;
_chemical_formula_sum "Si O2"
_cell_formula_units_Z 48
_cell_length_a 13.022028
_cell_length_b 7.380399
_cell_length_c 23.003132
_cell_angle_alpha 90.000000
_cell_angle_beta 90.000000
_cell_angle_gamma 90.000000
_cell_volume 2210.779545
_symmetry_space_group_name_H-M "P N N M"
_symmetry_group_IT_number 58
_symmetry_cell_setting 'orthorhombic'
loop_
_space_group_symop_operation_xyz
x,y,z
-x,-y,z
1/2+x,1/2-y,1/2-z
1/2-x,1/2+y,1/2-z
-x,-y,-z
x,y,-z
1/2-x,1/2+y,1/2+z
1/2+x,1/2-y,1/2+z
loop_
_atom_site_type_symbol
_atom_site_label
_atom_site_fract_x
_atom_site_fract_y
_atom_site_fract_z
Si Si1 0.394744 0.893440 0.931948
Si Si2 0.114910 0.685715 0.802996
Si Si3 0.608932 0.196157 0.654236
Si Si4 0.230891 0.036640 0.230623
Si Si5 0.379427 0.535386 0.143833
Si Si6 0.257401 0.240872 0.066920
O O1 0.373395 0.724240 0.890831
O O2 0.500000 0.000000 0.917210
O O3 0.305955 0.042474 0.927065
O O4 0.403736 0.835968 0.000000
O O5 0.123203 0.520742 0.848366
O O6 0.189713 0.858036 0.801913
O O7 0.148941 0.574858 0.744510
O O8 0.998663 0.744674 0.815217
O O9 0.692399 0.291832 0.694836
O O10 0.641067 0.263238 0.590957
O O11 0.173726 0.040377 0.293028
O O12 0.500000 0.500000 0.152250
O O13 0.326118 0.380033 0.104708
O O14 0.262537 0.295345 0.000000
#
# Coordination Sequence:
#
# PCOD9445072 Si02
#       6
#     8   8   8   8   8   8
#     4  10  22  40  63  93 133 180 225 282 341 398
#     4  11  23  43  66  96 130 174 216 274 337 409
#     4  11  25  44  68  95 136 176 223 278 344 406
#     4  12  24  43  67  98 137 172 219 274 346 414
#     4  12  23  38  63 100 134 175 229 281 351 418
#     4  11  24  43  66  95 134 182 236 287 339 402
#
# _framework density 21.711798999999999
#
# number of rings (size 3 to 8) (size 9 to 14) (size 15 to 20)
#    0.000    0.833    5.000    2.000    2.333    2.000 
#    3.000    1.667    0.000    2.000    0.000    0.000 
#    0.000    0.000    0.000    0.000    0.000    0.000 
#
# Total GULP energy -267946.003026 kJ/mol
# GULP energy per Si atom -5582.208396 kJ/mol
# Density = 2.166238 g / cm^3
# Si number density = 21.711799 Si / 1000 Ang^3
#
#
#
# Elastic Constant Matrix: (Units=GPa)
#
#
# Indices 1 2 3 4 5 6 
#
# 1 119.4505 26.9624 34.6516 0.0000 0.0000 0.0000
# 2 26.9624 108.4421 47.0059 0.0000 0.0000 0.0000
# 3 34.6516 47.0059 104.6992 0.0000 0.0000 0.0000
# 4 0.0000 0.0000 0.0000 31.2487 0.0000 0.0000
# 5 0.0000 0.0000 0.0000 0.0000 26.3061 0.0000
# 6 0.0000 0.0000 0.0000 0.0000 0.0000 22.5153
#
#
#
# Elastic Compliance Matrix: (Units=1/GPa)
#
#
# Indices 1 2 3 4 5 6 
#
# 1 0.009390 -0.001226 -0.002557 0.000000 0.000000 0.000000
# 2 -0.001226 0.011610 -0.004807 0.000000 0.000000 0.000000
# 3 -0.002557 -0.004807 0.012555 0.000000 0.000000 0.000000
# 4 0.000000 0.000000 0.000000 0.032001 0.000000 0.000000
# 5 0.000000 0.000000 0.000000 0.000000 0.038014 0.000000
# 6 0.000000 0.000000 0.000000 0.000000 0.000000 0.044414
#
#
# Mechanical properties :
#
#
# Convention : Reuss Voigt Hill
#
# Bulk Modulus (GPa) = 61.06690 61.09239 61.07965
# Shear Modulus (GPa) = 29.30420 30.94547 30.12483
#
# Velocity S-wave (km/s) = 3.67780 3.77939 3.72894
# Velocity P-wave (km/s) = 6.79869 6.87343 6.83616
#
# Compressibility (1/GPa) = 0.01637548
#
# Stress axis : x y z
#
# Youngs Moduli (GPa) = 106.49271 86.13367 79.64641
#
# Poissons Ratio (x) = 0.10562 0.20368
# Poissons Ratio (y) = 0.13059 0.38282
# Poissons Ratio (z) = 0.27233 0.41400
#
# Static dielectric constant tensor:
#      x y z
#    x 1.868530 0.000000 0.000000 
#    y 0.000000 1.830750 0.000000 
#    z 0.000000 0.000000 1.791480 
# 
# From -- ./inp_files/29903.got.cif
#   From: 2010.05.17/outbox.cif.g08.bks.cpg/sg58_15_cif.got.tgz:29903.got - 2010.06.03 14:20:14.
