data_PCOD9445341
_publ_section_title
;
Structure prediction by ZEFSAII (Michael W. Deem and Ramdas Pophale) SiO2 
 PCOD9445341
Probable space group: P N N M
;
_chemical_formula_sum "Si O2"
_cell_formula_units_Z 24
_cell_length_a 9.316268
_cell_length_b 6.455902
_cell_length_c 15.419643
_cell_angle_alpha 90.000000
_cell_angle_beta 90.000000
_cell_angle_gamma 90.000000
_cell_volume 927.413090
_symmetry_space_group_name_H-M "P N N M"
_symmetry_group_IT_number 58
_symmetry_cell_setting 'orthorhombic'
loop_
_space_group_symop_operation_xyz
x,y,z
-x,-y,z
1/2+x,1/2-y,1/2-z
1/2-x,1/2+y,1/2-z
-x,-y,-z
x,y,-z
1/2-x,1/2+y,1/2+z
1/2+x,1/2-y,1/2+z
loop_
_atom_site_type_symbol
_atom_site_label
_atom_site_fract_x
_atom_site_fract_y
_atom_site_fract_z
Si Si1 0.091926 0.809128 0.818607
Si Si2 0.564733 0.738032 0.500000
Si Si3 0.350021 0.095583 0.140830
Si Si4 0.168694 0.942471 0.500000
O O1 0.132044 0.660716 0.740947
O O2 0.014004 0.712847 0.901794
O O3 0.230479 0.919149 0.860662
O O4 0.000000 0.000000 0.780860
O O5 0.500000 0.500000 0.500000
O O6 0.717760 0.868595 0.500000
O O7 0.500000 0.000000 0.109827
O O8 0.311371 0.293074 0.083168
O O9 0.000000 0.000000 0.500000
#
# Coordination Sequence:
#
# PCOD9445341 Si02
#       4
#     8   4   8   4
#     4  11  23  42  64  95 136 179 231 296 359 429
#     4  10  23  43  67  98 139 185 237 297 369 447
#     4  12  24  42  68 100 137 186 242 298 362 440
#     4  12  24  43  70 102 139 187 239 305 374 441
#
# _framework density 25.878437999999999
#
# number of rings (size 3 to 8) (size 9 to 14) (size 15 to 20)
#    0.000    0.667    0.000    8.500    0.000    0.000 
#    0.000   12.500    0.000    0.000    0.000    0.000 
#    0.000    0.000    0.000    0.000    0.000    0.000 
#
# Total GULP energy -134084.668669 kJ/mol
# GULP energy per Si atom -5586.861195 kJ/mol
# Density = 2.581954 g / cm^3
# Si number density = 25.878438 Si / 1000 Ang^3
#
#
#
# Elastic Constant Matrix: (Units=GPa)
#
#
# Indices 1 2 3 4 5 6 
#
# 1 177.0802 68.0151 -14.1307 0.0000 0.0000 0.0000
# 2 68.0151 164.6098 59.3833 0.0000 0.0000 0.0000
# 3 -14.1307 59.3833 194.9279 0.0000 0.0000 0.0000
# 4 0.0000 0.0000 0.0000 98.7504 0.0000 0.0000
# 5 0.0000 0.0000 0.0000 0.0000 -23.2757 0.0000
# 6 0.0000 0.0000 0.0000 0.0000 0.0000 62.4066
#
#
#
# Elastic Compliance Matrix: (Units=1/GPa)
#
#
# Indices 1 2 3 4 5 6 
#
# 1 0.007125 -0.003517 0.001588 0.000000 0.000000 0.000000
# 2 -0.003517 0.008561 -0.002863 0.000000 0.000000 0.000000
# 3 0.001588 -0.002863 0.006117 0.000000 0.000000 0.000000
# 4 0.000000 0.000000 0.000000 0.010127 0.000000 0.000000
# 5 0.000000 0.000000 0.000000 0.000000 -0.042963 0.000000
# 6 0.000000 0.000000 0.000000 0.000000 0.000000 0.016024
#
#
# Mechanical properties :
#
#
# Convention : Reuss Voigt Hill
#
# Bulk Modulus (GPa) = 81.83791 84.79481 83.31636
# Shear Modulus (GPa) = 268.14657 55.79960 161.97308
#
# Velocity S-wave (km/s) = 10.19032 4.64855 7.91997
# Velocity P-wave (km/s) = 13.04414 7.85173 10.76567
#
# Compressibility (1/GPa) = 0.01221928
#
# Stress axis : x y z
#
# Youngs Moduli (GPa) = 140.35966 116.81170 163.46907
#
# Poissons Ratio (x) = 0.41078 -0.25955
# Poissons Ratio (y) = 0.49359 0.46800
# Poissons Ratio (z) = -0.22286 0.33442
#
# Static dielectric constant tensor:
#      x y z
#    x 2.178060 0.000000 0.000000 
#    y 0.000000 2.109730 0.000000 
#    z 0.000000 0.000000 1.946790 
# 
# From -- ./inp_files/20488.got.cif
#   From: 2010.05.17/outbox.cif.g08.bks.cpg/sg58_11_cif.got.tgz:20488.got - 2010.06.03 14:20:14.
