data_PCOD9445421
_publ_section_title
;
Structure prediction by ZEFSAII (Michael W. Deem and Ramdas Pophale) SiO2 
 PCOD9445421
Probable space group: P N N M
;
_chemical_formula_sum "Si O2"
_cell_formula_units_Z 30
_cell_length_a 4.885730
_cell_length_b 21.951366
_cell_length_c 11.436080
_cell_angle_alpha 90.000000
_cell_angle_beta 90.000000
_cell_angle_gamma 90.000000
_cell_volume 1226.501824
_symmetry_space_group_name_H-M "P N N M"
_symmetry_group_IT_number 58
_symmetry_cell_setting 'orthorhombic'
loop_
_space_group_symop_operation_xyz
x,y,z
-x,-y,z
1/2+x,1/2-y,1/2-z
1/2-x,1/2+y,1/2-z
-x,-y,-z
x,y,-z
1/2-x,1/2+y,1/2+z
1/2+x,1/2-y,1/2+z
loop_
_atom_site_type_symbol
_atom_site_label
_atom_site_fract_x
_atom_site_fract_y
_atom_site_fract_z
Si Si1 0.500000 0.500000 0.000000
Si Si2 0.313547 0.150659 0.000000
Si Si3 0.500000 0.000000 0.196756
Si Si4 0.813605 0.070352 0.000000
Si Si5 0.166428 0.084763 0.635867
Si Si6 0.110875 0.209704 0.761255
O O1 0.609841 0.547360 0.107832
O O2 0.628632 0.131524 0.000000
O O3 0.227625 0.186087 0.116042
O O4 0.127414 0.089736 0.000000
O O5 0.719068 0.033790 0.113411
O O6 0.348687 0.053060 0.268409
O O7 0.265769 0.068312 0.500000
O O8 0.125272 0.154379 0.668280
O O9 0.306424 0.265149 0.724547
#
# Coordination Sequence:
#
# PCOD9445421 Si02
#       6
#     2   4   4   4   8   8
#     4   8  24  38  74 106 148 190 240 314 378 442
#     4  12  26  49  72 108 139 191 244 295 358 436
#     4  11  23  44  70 114 145 195 230 318 378 453
#     4  11  26  42  77 106 151 183 232 295 376 448
#     4  10  24  44  71 110 148 192 248 310 381 446
#     4  12  29  50  76 103 149 199 252 305 362 449
#
# _framework density 24.459810999999998
#
# number of rings (size 3 to 8) (size 9 to 14) (size 15 to 20)
#    0.800    0.267    2.667    2.000    7.467    2.133 
#    0.000    0.000    0.000    0.000    0.000    0.000 
#    0.000    0.000    0.000    0.000    0.000    0.000 
#
# Total GULP energy -167339.856259 kJ/mol
# GULP energy per Si atom -5577.995209 kJ/mol
# Density = 2.440414 g / cm^3
# Si number density = 24.459811 Si / 1000 Ang^3
#
#
#
# Elastic Constant Matrix: (Units=GPa)
#
#
# Indices 1 2 3 4 5 6 
#
# 1 76.6820 17.2756 14.6575 0.0000 0.0000 0.0000
# 2 17.2756 122.0997 55.8078 0.0000 0.0000 0.0000
# 3 14.6575 55.8078 131.8981 0.0000 0.0000 0.0000
# 4 0.0000 0.0000 0.0000 26.9252 0.0000 0.0000
# 5 0.0000 0.0000 0.0000 0.0000 21.9465 0.0000
# 6 0.0000 0.0000 0.0000 0.0000 0.0000 44.4598
#
#
#
# Elastic Compliance Matrix: (Units=1/GPa)
#
#
# Indices 1 2 3 4 5 6 
#
# 1 0.013549 -0.001523 -0.000861 0.000000 0.000000 0.000000
# 2 -0.001523 0.010325 -0.004199 0.000000 0.000000 0.000000
# 3 -0.000861 -0.004199 0.009454 0.000000 0.000000 0.000000
# 4 0.000000 0.000000 0.000000 0.037140 0.000000 0.000000
# 5 0.000000 0.000000 0.000000 0.000000 0.045565 0.000000
# 6 0.000000 0.000000 0.000000 0.000000 0.000000 0.022492
#
#
# Mechanical properties :
#
#
# Convention : Reuss Voigt Hill
#
# Bulk Modulus (GPa) = 49.60287 56.24016 52.92151
# Shear Modulus (GPa) = 31.56309 34.86222 33.21266
#
# Velocity S-wave (km/s) = 3.59612 3.77939 3.68889
# Velocity P-wave (km/s) = 6.12912 6.48752 6.31086
#
# Compressibility (1/GPa) = 0.02016013
#
# Stress axis : x y z
#
# Youngs Moduli (GPa) = 73.80800 96.85276 105.77432
#
# Poissons Ratio (x) = 0.14755 0.09108
# Poissons Ratio (y) = 0.11244 0.44418
# Poissons Ratio (z) = 0.06355 0.40672
#
# Static dielectric constant tensor:
#      x y z
#    x 3.164450 0.000000 0.000000 
#    y 0.000000 2.396620 0.000000 
#    z 0.000000 0.000000 1.975790 
# 
# From -- ./inp_files/11560.got.cif
#   From: 2010.05.17/outbox.cif.g08.bks.cpg/sg58_6_cif.got.tgz:11560.got - 2010.06.03 14:20:14.
