data_PCOD9445601
_publ_section_title
;
Structure prediction by ZEFSAII (Michael W. Deem and Ramdas Pophale) SiO2 
 PCOD9445601
Probable space group: P N N M
;
_chemical_formula_sum "Si O2"
_cell_formula_units_Z 40
_cell_length_a 13.384340
_cell_length_b 5.003746
_cell_length_c 28.808858
_cell_angle_alpha 90.000000
_cell_angle_beta 90.000000
_cell_angle_gamma 90.000000
_cell_volume 1929.382163
_symmetry_space_group_name_H-M "P N N M"
_symmetry_group_IT_number 58
_symmetry_cell_setting 'orthorhombic'
loop_
_space_group_symop_operation_xyz
x,y,z
-x,-y,z
1/2+x,1/2-y,1/2-z
1/2-x,1/2+y,1/2-z
-x,-y,-z
x,y,-z
1/2-x,1/2+y,1/2+z
1/2+x,1/2-y,1/2+z
loop_
_atom_site_type_symbol
_atom_site_label
_atom_site_fract_x
_atom_site_fract_y
_atom_site_fract_z
Si Si1 0.386259 0.911975 0.365235
Si Si2 0.888239 0.974623 0.643643
Si Si3 0.237249 0.342544 0.781143
Si Si4 0.898803 0.325442 0.448020
Si Si5 0.260077 0.399140 0.394904
O O1 0.360969 0.927583 0.310121
O O2 0.340687 0.622467 0.379324
O O3 0.679298 0.875834 0.394241
O O4 0.500000 0.000000 0.372792
O O5 0.819994 0.135549 0.678994
O O6 0.891740 0.106617 0.592488
O O7 0.834531 0.686698 0.638287
O O8 0.000000 0.000000 0.661379
O O9 0.265139 0.553610 0.741518
O O10 0.900959 0.213589 0.500000
O O11 0.799434 0.503128 0.440013
O O12 0.000000 0.500000 0.441754
#
# Coordination Sequence:
#
# PCOD9445601 Si02
#       5
#     8   8   8   8   8
#     4  11  24  43  69  92 126 178 232 282 334 391
#     4  11  23  40  67  97 142 181 215 273 351 412
#     4  11  24  40  63  96 132 170 227 278 335 407
#     4  11  23  39  69 108 142 179 223 270 344 431
#     4  11  21  42  65  97 131 176 218 273 331 401
#
# _framework density 20.732023999999999
#
# number of rings (size 3 to 8) (size 9 to 14) (size 15 to 20)
#    0.000    1.000    6.000    3.000    0.000    2.800 
#    0.000    0.000    0.000    3.600    0.000    0.000 
#    0.000    0.000    0.000    0.000    0.000    0.000 
#
# Total GULP energy -223045.162783 kJ/mol
# GULP energy per Si atom -5576.129070 kJ/mol
# Density = 2.068484 g / cm^3
# Si number density = 20.732024 Si / 1000 Ang^3
#
#
#
# Elastic Constant Matrix: (Units=GPa)
#
#
# Indices 1 2 3 4 5 6 
#
# 1 134.2417 22.7666 20.2183 0.0000 0.0000 0.0000
# 2 22.7666 107.7902 23.6346 0.0000 0.0000 0.0000
# 3 20.2183 23.6346 94.1260 0.0000 0.0000 0.0000
# 4 0.0000 0.0000 0.0000 27.4548 0.0000 0.0000
# 5 0.0000 0.0000 0.0000 0.0000 14.0761 0.0000
# 6 0.0000 0.0000 0.0000 0.0000 0.0000 35.2420
#
#
#
# Elastic Compliance Matrix: (Units=1/GPa)
#
#
# Indices 1 2 3 4 5 6 
#
# 1 0.007885 -0.001369 -0.001350 0.000000 0.000000 0.000000
# 2 -0.001369 0.010056 -0.002231 0.000000 0.000000 0.000000
# 3 -0.001350 -0.002231 0.011474 0.000000 0.000000 0.000000
# 4 0.000000 0.000000 0.000000 0.036423 0.000000 0.000000
# 5 0.000000 0.000000 0.000000 0.000000 0.071042 0.000000
# 6 0.000000 0.000000 0.000000 0.000000 0.000000 0.028375
#
#
# Mechanical properties :
#
#
# Convention : Reuss Voigt Hill
#
# Bulk Modulus (GPa) = 51.24369 52.15522 51.69946
# Shear Modulus (GPa) = 27.52386 33.32381 30.42383
#
# Velocity S-wave (km/s) = 3.64758 4.01354 3.83493
# Velocity P-wave (km/s) = 6.52002 6.83297 6.67832
#
# Compressibility (1/GPa) = 0.01951460
#
# Stress axis : x y z
#
# Youngs Moduli (GPa) = 126.82649 99.44657 87.15253
#
# Poissons Ratio (x) = 0.13618 0.11764
# Poissons Ratio (y) = 0.17368 0.19442
# Poissons Ratio (z) = 0.17119 0.22184
#
# Static dielectric constant tensor:
#      x y z
#    x 1.786540 0.000000 0.000000 
#    y 0.000000 1.810100 0.000000 
#    z 0.000000 0.000000 1.735660 
# 
# From -- ./inp_files/34848.got.cif
#   From: 2010.05.17/outbox.cif.g08.bks.cpg/sg58_18_cif.got.tgz:34848.got - 2010.06.03 14:20:14.
