data_PCOD9445740
_publ_section_title
;
Structure prediction by ZEFSAII (Michael W. Deem and Ramdas Pophale) SiO2 
 PCOD9445740
Probable space group: P N N M
;
_chemical_formula_sum "Si O2"
_cell_formula_units_Z 32
_cell_length_a 15.920222
_cell_length_b 9.710654
_cell_length_c 10.487808
_cell_angle_alpha 90.000000
_cell_angle_beta 90.000000
_cell_angle_gamma 90.000000
_cell_volume 1621.370727
_symmetry_space_group_name_H-M "P N N M"
_symmetry_group_IT_number 58
_symmetry_cell_setting 'orthorhombic'
loop_
_space_group_symop_operation_xyz
x,y,z
-x,-y,z
1/2+x,1/2-y,1/2-z
1/2-x,1/2+y,1/2-z
-x,-y,-z
x,y,-z
1/2-x,1/2+y,1/2+z
1/2+x,1/2-y,1/2+z
loop_
_atom_site_type_symbol
_atom_site_label
_atom_site_fract_x
_atom_site_fract_y
_atom_site_fract_z
Si Si1 0.745432 0.846077 0.000000
Si Si2 0.637781 0.927918 0.752735
Si Si3 0.762182 0.512605 0.000000
Si Si4 0.424528 0.606288 0.000000
Si Si5 0.962645 0.713064 0.254093
Si Si6 0.429247 0.617041 0.500000
O O1 0.694047 0.886923 0.126399
O O2 0.764400 0.680629 0.000000
O O3 0.832691 0.930097 0.000000
O O4 0.692083 0.949436 0.624701
O O5 0.561919 0.818456 0.745372
O O6 0.589089 0.072226 0.768777
O O7 0.665428 0.466857 0.000000
O O8 0.500000 0.500000 0.000000
O O9 0.437367 0.696800 0.125507
O O10 0.939219 0.790215 0.124989
O O11 0.500000 0.500000 0.500000
#
# Coordination Sequence:
#
# PCOD9445740 Si02
#       6
#     4   8   4   4   8   4
#     4  12  25  45  67 107 137 177 239 281 343 411
#     4  11  24  44  72  96 135 184 226 292 338 411
#     4  12  25  43  70 103 139 179 235 285 345 412
#     4  12  25  43  66 102 140 178 222 290 350 411
#     4  11  23  46  68  98 135 180 234 271 353 415
#     4  12  25  45  66 100 142 177 226 285 333 412
#
# _framework density 19.736386
#
# number of rings (size 3 to 8) (size 9 to 14) (size 15 to 20)
#    0.000    0.500    2.500    6.000    0.000    6.000 
#    4.500    0.000    0.000    0.000    0.000    0.000 
#    0.000    0.000    0.000    0.000    0.000    0.000 
#
# Total GULP energy -178980.632765 kJ/mol
# GULP energy per Si atom -5593.144774 kJ/mol
# Density = 1.969147 g / cm^3
# Si number density = 19.736386 Si / 1000 Ang^3
#
#
#
# Elastic Constant Matrix: (Units=GPa)
#
#
# Indices 1 2 3 4 5 6 
#
# 1 189.7415 39.1963 73.4798 0.0000 0.0000 0.0000
# 2 39.1963 54.8162 45.4832 0.0000 0.0000 0.0000
# 3 73.4798 45.4832 188.1925 0.0000 0.0000 0.0000
# 4 0.0000 0.0000 0.0000 31.1024 0.0000 0.0000
# 5 0.0000 0.0000 0.0000 0.0000 48.0687 0.0000
# 6 0.0000 0.0000 0.0000 0.0000 0.0000 38.8714
#
#
#
# Elastic Compliance Matrix: (Units=1/GPa)
#
#
# Indices 1 2 3 4 5 6 
#
# 1 0.006642 -0.003249 -0.001808 0.000000 0.000000 0.000000
# 2 -0.003249 0.024408 -0.004630 0.000000 0.000000 0.000000
# 3 -0.001808 -0.004630 0.007139 0.000000 0.000000 0.000000
# 4 0.000000 0.000000 0.000000 0.032152 0.000000 0.000000
# 5 0.000000 0.000000 0.000000 0.000000 0.020804 0.000000
# 6 0.000000 0.000000 0.000000 0.000000 0.000000 0.025726
#
#
# Mechanical properties :
#
#
# Convention : Reuss Voigt Hill
#
# Bulk Modulus (GPa) = 53.15312 83.22986 68.19149
# Shear Modulus (GPa) = 35.08382 41.91455 38.49919
#
# Velocity S-wave (km/s) = 4.22076 4.61338 4.42143
# Velocity P-wave (km/s) = 7.12342 8.40476 7.79048
#
# Compressibility (1/GPa) = 0.01881357
#
# Stress axis : x y z
#
# Youngs Moduli (GPa) = 150.56464 40.97014 140.08019
#
# Poissons Ratio (x) = 0.13311 0.25327
# Poissons Ratio (y) = 0.48917 0.64864
# Poissons Ratio (z) = 0.27222 0.18971
#
# Static dielectric constant tensor:
#      x y z
#    x 1.688830 0.000000 0.000000 
#    y 0.000000 1.670830 0.000000 
#    z 0.000000 0.000000 1.497820 
# 
# From -- ./inp_files/15211.got.cif
#   From: 2010.05.17/outbox.cif.g08.bks.cpg/sg58_8_cif.got.tgz:15211.got - 2010.06.03 14:20:14.
