data_PCOD9445098
_publ_section_title
;
Structure prediction by ZEFSAII (Michael W. Deem and Ramdas Pophale) SiO2 
 PCOD9445098
Probable space group: P N N M
;
_chemical_formula_sum "Si O2"
_cell_formula_units_Z 48
_cell_length_a 14.393599
_cell_length_b 5.101426
_cell_length_c 27.915454
_cell_angle_alpha 90.000000
_cell_angle_beta 90.000000
_cell_angle_gamma 90.000000
_cell_volume 2049.772611
_symmetry_space_group_name_H-M "P N N M"
_symmetry_group_IT_number 58
_symmetry_cell_setting 'orthorhombic'
loop_
_space_group_symop_operation_xyz
x,y,z
-x,-y,z
1/2+x,1/2-y,1/2-z
1/2-x,1/2+y,1/2-z
-x,-y,-z
x,y,-z
1/2-x,1/2+y,1/2+z
1/2+x,1/2-y,1/2+z
loop_
_atom_site_type_symbol
_atom_site_label
_atom_site_fract_x
_atom_site_fract_y
_atom_site_fract_z
Si Si1 0.101569 0.390840 0.181383
Si Si2 0.175048 0.392723 0.500000
Si Si3 0.805861 0.612386 0.000000
Si Si4 0.793463 0.480160 0.267110
Si Si5 0.104056 0.094145 0.085839
Si Si6 0.249872 0.786327 0.864016
Si Si7 0.560371 0.243385 0.907037
O O1 0.123210 0.379746 0.237980
O O2 0.099890 0.160790 0.142571
O O3 0.181020 0.581330 0.160693
O O4 0.000000 0.500000 0.176274
O O5 0.224861 0.671686 0.500000
O O6 0.107470 0.365564 0.545119
O O7 0.253436 0.163292 0.500000
O O8 0.866647 0.680882 0.047846
O O9 0.787657 0.176286 0.252698
O O10 0.781677 0.503635 0.323710
O O11 0.192249 0.898654 0.090686
O O12 0.000000 0.000000 0.072336
O O13 0.348589 0.666516 0.877758
O O14 0.500000 0.500000 0.915629
O O15 0.500000 0.000000 0.886171
#
# Coordination Sequence:
#
# PCOD9445098 Si02
#       7
#     8   4   4   8   8   8   8
#     4  11  23  42  71 103 141 191 235 285 355 431
#     4  12  24  49  73  98 131 189 228 298 353 423
#     4  12  27  43  76 102 143 187 236 287 361 414
#     4  10  22  40  66  97 133 180 230 282 334 408
#     4  12  24  44  68 106 142 191 232 290 348 431
#     4  11  24  44  69  99 145 183 233 289 360 412
#     4  12  27  45  71 101 135 181 237 296 355 414
#
# _framework density 23.417233
#
# number of rings (size 3 to 8) (size 9 to 14) (size 15 to 20)
#    0.000    0.667    5.000    2.750    2.333    0.667 
#    0.000    5.417    0.000    0.000    0.000    0.000 
#    0.000    0.000    0.000    0.000    0.000    0.000 
#
# Total GULP energy -267654.775890 kJ/mol
# GULP energy per Si atom -5576.141164 kJ/mol
# Density = 2.336393 g / cm^3
# Si number density = 23.417233 Si / 1000 Ang^3
#
#
#
# Elastic Constant Matrix: (Units=GPa)
#
#
# Indices 1 2 3 4 5 6 
#
# 1 146.7866 23.8347 34.3350 0.0000 0.0000 0.0000
# 2 23.8347 74.8625 9.9196 0.0000 0.0000 0.0000
# 3 34.3350 9.9196 65.7308 0.0000 0.0000 0.0000
# 4 0.0000 0.0000 0.0000 44.1877 0.0000 0.0000
# 5 0.0000 0.0000 0.0000 0.0000 -80.7624 0.0000
# 6 0.0000 0.0000 0.0000 0.0000 0.0000 31.2239
#
#
#
# Elastic Compliance Matrix: (Units=1/GPa)
#
#
# Indices 1 2 3 4 5 6 
#
# 1 0.008057 -0.002049 -0.003900 0.000000 0.000000 0.000000
# 2 -0.002049 0.014151 -0.001065 0.000000 0.000000 0.000000
# 3 -0.003900 -0.001065 0.017411 0.000000 0.000000 0.000000
# 4 0.000000 0.000000 0.000000 0.022631 0.000000 0.000000
# 5 0.000000 0.000000 0.000000 0.000000 -0.012382 0.000000
# 6 0.000000 0.000000 0.000000 0.000000 0.000000 0.032027
#
#
# Mechanical properties :
#
#
# Convention : Reuss Voigt Hill
#
# Bulk Modulus (GPa) = 39.07397 47.06205 43.06801
# Shear Modulus (GPa) = 47.86796 13.54921 30.70858
#
# Velocity S-wave (km/s) = 4.52611 2.40802 3.62521
# Velocity P-wave (km/s) = 6.63600 5.27942 5.99620
#
# Compressibility (1/GPa) = 0.02559249
#
# Stress axis : x y z
#
# Youngs Moduli (GPa) = 124.10891 70.66516 57.43361
#
# Poissons Ratio (x) = 0.14476 0.22397
# Poissons Ratio (y) = 0.25425 0.06120
# Poissons Ratio (z) = 0.48399 0.07529
#
# Static dielectric constant tensor:
#      x y z
#    x 2.035710 0.000000 0.000000 
#    y 0.000000 1.929600 0.000000 
#    z 0.000000 0.000000 2.126980 
# 
# From -- ./inp_files/33707.got.cif
#   From: 2010.05.17/outbox.cif.g08.bks.cpg/sg58_17_cif.got.tgz:33707.got - 2010.06.03 14:20:14.
