data_PCOD9445327
_publ_section_title
;
Structure prediction by ZEFSAII (Michael W. Deem and Ramdas Pophale) SiO2 
 PCOD9445327
Probable space group: P N N M
;
_chemical_formula_sum "Si O2"
_cell_formula_units_Z 26
_cell_length_a 8.983936
_cell_length_b 5.104054
_cell_length_c 27.695501
_cell_angle_alpha 90.000000
_cell_angle_beta 90.000000
_cell_angle_gamma 90.000000
_cell_volume 1269.963198
_symmetry_space_group_name_H-M "P N N M"
_symmetry_group_IT_number 58
_symmetry_cell_setting 'orthorhombic'
loop_
_space_group_symop_operation_xyz
x,y,z
-x,-y,z
1/2+x,1/2-y,1/2-z
1/2-x,1/2+y,1/2-z
-x,-y,-z
x,y,-z
1/2-x,1/2+y,1/2+z
1/2+x,1/2-y,1/2+z
loop_
_atom_site_type_symbol
_atom_site_label
_atom_site_fract_x
_atom_site_fract_y
_atom_site_fract_z
Si Si1 0.000000 0.000000 0.000000
Si Si2 0.893822 0.749950 0.775126
Si Si3 0.404747 0.266619 0.401617
Si Si4 0.330174 0.566748 0.828721
O O1 0.103399 0.865873 0.956801
O O2 0.761016 0.692937 0.812459
O O3 0.830128 0.763174 0.720596
O O4 0.000000 0.500000 0.780890
O O5 0.000000 0.000000 0.778334
O O6 0.500000 0.500000 0.377645
O O7 0.256431 0.205696 0.372145
O O8 0.500000 0.000000 0.402011
O O9 0.500000 0.500000 0.840678
#
# Coordination Sequence:
#
# PCOD9445327 Si02
#       4
#     2   8   8   8
#     4   8  22  48  72  94 126 168 248 274 342 410
#     4  11  25  43  63  91 146 194 228 261 322 417
#     4  10  23  42  72  94 127 172 229 274 340 410
#     4  11  24  41  65 103 139 178 225 282 336 394
#
# _framework density 20.473033999999998
#
# number of rings (size 3 to 8) (size 9 to 14) (size 15 to 20)
#    0.923    0.615    0.000    5.077    0.000   16.000 
#    0.000    0.769    0.000    1.846    0.000    0.000 
#    0.000    0.000    0.000    0.000    0.000    0.000 
#
# Total GULP energy -144739.215905 kJ/mol
# GULP energy per Si atom -5566.892919 kJ/mol
# Density = 2.042644 g / cm^3
# Si number density = 20.473034 Si / 1000 Ang^3
#
#
#
# Elastic Constant Matrix: (Units=GPa)
#
#
# Indices 1 2 3 4 5 6 
#
# 1 189.3263 66.6441 90.5445 0.0000 0.0000 0.0000
# 2 66.6441 128.4553 30.6323 0.0000 0.0000 0.0000
# 3 90.5445 30.6323 191.5173 0.0000 0.0000 0.0000
# 4 0.0000 0.0000 0.0000 5.7174 0.0000 0.0000
# 5 0.0000 0.0000 0.0000 0.0000 16.9376 0.0000
# 6 0.0000 0.0000 0.0000 0.0000 0.0000 22.5492
#
#
#
# Elastic Compliance Matrix: (Units=1/GPa)
#
#
# Indices 1 2 3 4 5 6 
#
# 1 0.008032 -0.003391 -0.003255 0.000000 0.000000 0.000000
# 2 -0.003391 0.009525 0.000080 0.000000 0.000000 0.000000
# 3 -0.003255 0.000080 0.006748 0.000000 0.000000 0.000000
# 4 0.000000 0.000000 0.000000 0.174906 0.000000 0.000000
# 5 0.000000 0.000000 0.000000 0.000000 0.059040 0.000000
# 6 0.000000 0.000000 0.000000 0.000000 0.000000 0.044347
#
#
# Mechanical properties :
#
#
# Convention : Reuss Voigt Hill
#
# Bulk Modulus (GPa) = 89.50784 98.32675 93.91730
# Shear Modulus (GPa) = 15.65163 30.47270 23.06217
#
# Velocity S-wave (km/s) = 2.76796 3.86220 3.35993
# Velocity P-wave (km/s) = 7.35053 8.24746 7.81188
#
# Compressibility (1/GPa) = 0.01117221
#
# Stress axis : x y z
#
# Youngs Moduli (GPa) = 124.49785 104.98584 148.20008
#
# Poissons Ratio (x) = 0.35601 0.48240
# Poissons Ratio (y) = 0.42217 -0.01181
# Poissons Ratio (z) = 0.40525 -0.00837
#
# Static dielectric constant tensor:
#      x y z
#    x 1.766990 0.000000 0.000000 
#    y 0.000000 2.065940 0.000000 
#    z 0.000000 0.000000 1.742350 
# 
# From -- ./inp_files/33065.got.cif
#   From: 2010.05.17/outbox.cif.g08.bks.cpg/sg58_17_cif.got.tgz:33065.got - 2010.06.03 14:20:14.
