data_PCOD9445853
_publ_section_title
;
Structure prediction by ZEFSAII (Michael W. Deem and Ramdas Pophale) SiO2 
 PCOD9445853
Probable space group: P N N M
;
_chemical_formula_sum "Si O2"
_cell_formula_units_Z 18
_cell_length_a 7.682290
_cell_length_b 4.659318
_cell_length_c 18.744522
_cell_angle_alpha 90.000000
_cell_angle_beta 90.000000
_cell_angle_gamma 90.000000
_cell_volume 670.945771
_symmetry_space_group_name_H-M "P N N M"
_symmetry_group_IT_number 58
_symmetry_cell_setting 'orthorhombic'
loop_
_space_group_symop_operation_xyz
x,y,z
-x,-y,z
1/2+x,1/2-y,1/2-z
1/2-x,1/2+y,1/2-z
-x,-y,-z
x,y,-z
1/2-x,1/2+y,1/2+z
1/2+x,1/2-y,1/2+z
loop_
_atom_site_type_symbol
_atom_site_label
_atom_site_fract_x
_atom_site_fract_y
_atom_site_fract_z
Si Si1 0.668044 0.300167 0.422996
Si Si2 0.701795 0.439770 0.204627
Si Si3 0.000000 0.500000 0.500000
O O1 0.500000 0.500000 0.413884
O O2 0.656899 0.143195 0.500000
O O3 0.693896 0.072789 0.360789
O O4 0.846023 0.477501 0.438081
O O5 0.500000 0.500000 0.192837
O O6 0.741158 0.113845 0.224220
#
# Coordination Sequence:
#
# PCOD9445853 Si02
#       3
#     8   8   2
#     4   9  21  45  76 113 157 198 257 314 385 455
#     4  12  28  49  77 112 156 205 259 320 389 461
#     4   8  18  40  82 112 156 198 256 322 374 470
#
# _framework density 26.827805000000001
#
# number of rings (size 3 to 8) (size 9 to 14) (size 15 to 20)
#    1.333    0.444    0.000    2.667    6.222    0.889 
#    0.000    2.222    0.000   14.667    0.000    0.000 
#    0.000    0.000    0.000    0.000    0.000    0.000 
#
# Total GULP energy -100415.155840 kJ/mol
# GULP energy per Si atom -5578.619769 kJ/mol
# Density = 2.676674 g / cm^3
# Si number density = 26.827805 Si / 1000 Ang^3
#
#
#
# Elastic Constant Matrix: (Units=GPa)
#
#
# Indices 1 2 3 4 5 6 
#
# 1 241.2232 25.0229 32.7757 0.0000 0.0000 0.0000
# 2 25.0229 69.8146 19.4189 0.0000 0.0000 0.0000
# 3 32.7757 19.4189 159.9705 0.0000 0.0000 0.0000
# 4 0.0000 0.0000 0.0000 -30.8231 0.0000 0.0000
# 5 0.0000 0.0000 0.0000 0.0000 34.0200 0.0000
# 6 0.0000 0.0000 0.0000 0.0000 0.0000 20.0899
#
#
#
# Elastic Compliance Matrix: (Units=1/GPa)
#
#
# Indices 1 2 3 4 5 6 
#
# 1 0.004387 -0.001369 -0.000733 0.000000 0.000000 0.000000
# 2 -0.001369 0.015251 -0.001571 0.000000 0.000000 0.000000
# 3 -0.000733 -0.001571 0.006592 0.000000 0.000000 0.000000
# 4 0.000000 0.000000 0.000000 -0.032443 0.000000 0.000000
# 5 0.000000 0.000000 0.000000 0.000000 0.029394 0.000000
# 6 0.000000 0.000000 0.000000 0.000000 0.000000 0.049776
#
#
# Mechanical properties :
#
#
# Convention : Reuss Voigt Hill
#
# Bulk Modulus (GPa) = 52.95018 69.49370 61.22194
# Shear Modulus (GPa) = 57.73839 30.91007 44.32423
#
# Velocity S-wave (km/s) = 4.64420 3.39804 4.06911
# Velocity P-wave (km/s) = 6.96692 6.43082 6.70423
#
# Compressibility (1/GPa) = 0.01888568
#
# Stress axis : x y z
#
# Youngs Moduli (GPa) = 227.94292 65.56883 151.69968
#
# Poissons Ratio (x) = 0.08974 0.11115
# Poissons Ratio (y) = 0.31196 0.23831
# Poissons Ratio (z) = 0.16702 0.10300
#
# Static dielectric constant tensor:
#      x y z
#    x 2.030100 0.000000 0.000000 
#    y 0.000000 2.081830 0.000000 
#    z 0.000000 0.000000 2.140670 
# 
# From -- ./inp_files/24546.got.cif
#   From: 2010.05.17/outbox.cif.g08.bks.cpg/sg58_13_cif.got.tgz:24546.got - 2010.06.03 14:20:14.
