data_PCOD9445488
_publ_section_title
;
Structure prediction by ZEFSAII (Michael W. Deem and Ramdas Pophale) SiO2 
 PCOD9445488
Probable space group: P N N M
;
_chemical_formula_sum "Si O2"
_cell_formula_units_Z 40
_cell_length_a 9.120559
_cell_length_b 8.910877
_cell_length_c 19.891401
_cell_angle_alpha 90.000000
_cell_angle_beta 90.000000
_cell_angle_gamma 90.000000
_cell_volume 1616.617511
_symmetry_space_group_name_H-M "P N N M"
_symmetry_group_IT_number 58
_symmetry_cell_setting 'orthorhombic'
loop_
_space_group_symop_operation_xyz
x,y,z
-x,-y,z
1/2+x,1/2-y,1/2-z
1/2-x,1/2+y,1/2-z
-x,-y,-z
x,y,-z
1/2-x,1/2+y,1/2+z
1/2+x,1/2-y,1/2+z
loop_
_atom_site_type_symbol
_atom_site_label
_atom_site_fract_x
_atom_site_fract_y
_atom_site_fract_z
Si Si1 0.255442 0.724634 0.577242
Si Si2 0.511023 0.251396 0.326738
Si Si3 0.788376 0.684789 0.287735
Si Si4 0.414414 0.830631 0.926700
Si Si5 0.248618 0.567629 0.876454
O O1 0.303674 0.718006 0.500000
O O2 0.376305 0.656546 0.627482
O O3 0.088960 0.667246 0.580224
O O4 0.249155 0.897237 0.602807
O O5 0.385640 0.334904 0.283643
O O6 0.608351 0.155238 0.274548
O O7 0.411720 0.147366 0.376202
O O8 0.844024 0.612570 0.357109
O O9 0.801634 0.866646 0.303610
O O10 0.356577 0.659577 0.924933
O O11 0.370144 0.891713 0.000000
#
# Coordination Sequence:
#
# PCOD9445488 Si02
#       5
#     8   8   8   8   8
#     4  11  18  27  44  69  98 120 143 176 225 273
#     4   9  18  29  41  56  84 120 155 184 217 254
#     4   8  18  29  42  56  81 122 156 186 210 258
#     4   8  16  27  42  62  89 118 143 174 213 261
#     4   8  19  26  42  61  85 119 147 182 212 263
#
# _framework density 24.743017999999999
#
# number of rings (size 3 to 8) (size 9 to 14) (size 15 to 20)
#    2.400    0.400    0.000    3.000    0.000    6.400 
#    0.000    0.000    0.000    0.000    0.000    0.000 
#    0.000    4.800    0.000   12.400    0.000    2.400 
#
# Total GULP energy -222673.507054 kJ/mol
# GULP energy per Si atom -5566.837676 kJ/mol
# Density = 2.468670 g / cm^3
# Si number density = 24.743018 Si / 1000 Ang^3
#
#
#
# Elastic Constant Matrix: (Units=GPa)
#
#
# Indices 1 2 3 4 5 6 
#
# 1 154.3964 16.5964 79.6692 0.0000 0.0000 0.0000
# 2 16.5964 63.5903 4.4524 0.0000 0.0000 0.0000
# 3 79.6692 4.4524 132.6077 0.0000 0.0000 0.0000
# 4 0.0000 0.0000 0.0000 -8.3329 0.0000 0.0000
# 5 0.0000 0.0000 0.0000 0.0000 28.8627 0.0000
# 6 0.0000 0.0000 0.0000 0.0000 0.0000 20.7728
#
#
#
# Elastic Compliance Matrix: (Units=1/GPa)
#
#
# Indices 1 2 3 4 5 6 
#
# 1 0.009664 -0.002121 -0.005735 0.000000 0.000000 0.000000
# 2 -0.002121 0.016228 0.000729 0.000000 0.000000 0.000000
# 3 -0.005735 0.000729 0.010962 0.000000 0.000000 0.000000
# 4 0.000000 0.000000 0.000000 -0.120006 0.000000 0.000000
# 5 0.000000 0.000000 0.000000 0.000000 0.034647 0.000000
# 6 0.000000 0.000000 0.000000 0.000000 0.000000 0.048140
#
#
# Mechanical properties :
#
#
# Convention : Reuss Voigt Hill
#
# Bulk Modulus (GPa) = 44.24486 61.33671 52.79079
# Shear Modulus (GPa) = 233.41521 24.91894 129.16708
#
# Velocity S-wave (km/s) = 9.72320 3.17694 7.23303
# Velocity P-wave (km/s) = 11.99895 6.18875 9.54660
#
# Compressibility (1/GPa) = 0.02260149
#
# Stress axis : x y z
#
# Youngs Moduli (GPa) = 103.47720 61.62155 91.22462
#
# Poissons Ratio (x) = 0.13068 0.52315
# Poissons Ratio (y) = 0.21944 -0.06652
# Poissons Ratio (z) = 0.59342 -0.04493
#
# Static dielectric constant tensor:
#      x y z
#    x 1.958070 0.000000 0.000000 
#    y 0.000000 2.115240 0.000000 
#    z 0.000000 0.000000 1.959640 
# 
# From -- ./inp_files/25371.got.cif
#   From: 2010.05.17/outbox.cif.g08.bks.cpg/sg58_13_cif.got.tgz:25371.got - 2010.06.03 14:20:14.
