data_PCOD9445923
_publ_section_title
;
Structure prediction by ZEFSAII (Michael W. Deem and Ramdas Pophale) SiO2 
 PCOD9445923
Probable space group: P N N M
;
_chemical_formula_sum "Si O2"
_cell_formula_units_Z 56
_cell_length_a 15.000000
_cell_length_b 21.000000
_cell_length_c 9.000000
_cell_angle_alpha 90.000000
_cell_angle_beta 90.000000
_cell_angle_gamma 90.000000
_cell_volume 2835.000000
_symmetry_space_group_name_H-M "P N N M"
_symmetry_group_IT_number 58
_symmetry_cell_setting 'orthorhombic'
loop_
_space_group_symop_operation_xyz
x,y,z
-x,-y,z
1/2+x,1/2-y,1/2-z
1/2-x,1/2+y,1/2-z
-x,-y,-z
x,y,-z
1/2-x,1/2+y,1/2+z
1/2+x,1/2-y,1/2+z
loop_
_atom_site_type_symbol
_atom_site_label
_atom_site_fract_x
_atom_site_fract_y
_atom_site_fract_z
Si Si1 0.108271 0.830870 0.320071
Si Si2 0.102676 0.978729 0.322687
Si Si3 0.707260 0.409620 0.322903
Si Si4 0.088705 0.426875 0.821147
Si Si5 0.608821 0.925963 0.320089
Si Si6 0.413238 0.698506 0.821643
Si Si7 0.699472 0.192459 0.679554
O O1 0.108905 0.829631 0.500000
O O2 0.110172 0.905175 0.279618
O O3 0.198940 0.797817 0.272066
O O4 0.015714 0.801332 0.271024
O O5 0.121218 0.985136 0.500000
O O6 0.171220 0.022335 0.233794
O O7 0.000000 0.000000 0.299318
O O8 0.707237 0.405554 0.500000
O O9 0.805835 0.396477 0.258902
O O10 0.638098 0.360271 0.251617
O O11 0.106645 0.499156 0.775701
O O12 0.166867 0.378678 0.783955
O O13 0.990222 0.402860 0.775025
O O14 0.083814 0.429811 0.000000
O O15 0.618370 0.921065 0.500000
O O16 0.364463 0.760511 0.764383
O O17 0.410188 0.692200 0.000000
O O18 0.692598 0.200932 0.500000
#
# Coordination Sequence:
#
# PCOD9445923 Si02
#       7
#     8   8   8   8   8   8   8
#     4   9  19  37  62  86 112 147 188 232 284 345
#     4  10  18  35  63  88 111 148 189 231 286 351
#     4  12  24  36  53  85 121 152 184 236 293 338
#     4   8  16  33  60  88 114 145 189 235 281 333
#     4   9  17  34  60  87 114 151 190 228 273 341
#     4  11  23  41  58  78 108 151 198 235 273 339
#     4  10  20  37  59  85 114 146 186 238 292 336
#
# _framework density 19.753086
#
# number of rings (size 3 to 8) (size 9 to 14) (size 15 to 20)
#    0.000    2.143    1.429    3.429    0.000    3.714 
#    0.000    9.286    0.000    0.000    0.000    0.000 
#    0.000    0.000    0.000    0.000    0.000    0.000 
#
# Total GULP energy -312528.768315 kJ/mol
# GULP energy per Si atom -5580.870863 kJ/mol
# Density = 1.970813 g / cm^3
# Si number density = 19.753086 Si / 1000 Ang^3
#
#
#
# Elastic Constant Matrix: (Units=GPa)
#
#
# Indices 1 2 3 4 5 6 
#
# 1 137.7773 21.0678 34.8867 0.0000 0.0000 0.0000
# 2 21.0678 30.5204 6.9069 0.0000 0.0000 0.0000
# 3 34.8867 6.9069 49.7776 0.0000 0.0000 0.0000
# 4 0.0000 0.0000 0.0000 16.4409 0.0000 0.0000
# 5 0.0000 0.0000 0.0000 0.0000 26.6763 0.0000
# 6 0.0000 0.0000 0.0000 0.0000 0.0000 12.3442
#
#
#
# Elastic Compliance Matrix: (Units=1/GPa)
#
#
# Indices 1 2 3 4 5 6 
#
# 1 0.009577 -0.005257 -0.005982 0.000000 0.000000 0.000000
# 2 -0.005257 0.036713 -0.001410 0.000000 0.000000 0.000000
# 3 -0.005982 -0.001410 0.024478 0.000000 0.000000 0.000000
# 4 0.000000 0.000000 0.000000 0.060824 0.000000 0.000000
# 5 0.000000 0.000000 0.000000 0.000000 0.037486 0.000000
# 6 0.000000 0.000000 0.000000 0.000000 0.000000 0.081009
#
#
# Mechanical properties :
#
#
# Convention : Reuss Voigt Hill
#
# Bulk Modulus (GPa) = 21.99300 38.19978 30.09639
# Shear Modulus (GPa) = 17.20924 21.43989 19.32456
#
# Velocity S-wave (km/s) = 2.95484 3.29811 3.13118
# Velocity P-wave (km/s) = 4.77489 5.82099 5.32370
#
# Compressibility (1/GPa) = 0.04546900
#
# Stress axis : x y z
#
# Youngs Moduli (GPa) = 104.41969 27.23855 40.85339
#
# Poissons Ratio (x) = 0.14319 0.24440
# Poissons Ratio (y) = 0.54892 0.05760
# Poissons Ratio (z) = 0.62469 0.03840
#
# Static dielectric constant tensor:
#      x y z
#    x 1.716320 0.000000 0.000000 
#    y 0.000000 1.762400 0.000000 
#    z 0.000000 0.000000 1.658100 
# 
# From -- ./inp_files/6477.got.cif
#   From: 2010.05.17/outbox.ucp.g08.bks.cvg/sg58_4_cif.got.tgz:6477.got - 2010.06.11 16:41:41.
