data_PCOD9445562
_publ_section_title
;
Structure prediction by ZEFSAII (Michael W. Deem and Ramdas Pophale) SiO2 
 PCOD9445562
Probable space group: P N N M
;
_chemical_formula_sum "Si O2"
_cell_formula_units_Z 64
_cell_length_a 29.367507
_cell_length_b 13.323460
_cell_length_c 8.128479
_cell_angle_alpha 90.000000
_cell_angle_beta 90.000000
_cell_angle_gamma 90.000000
_cell_volume 3180.485291
_symmetry_space_group_name_H-M "P N N M"
_symmetry_group_IT_number 58
_symmetry_cell_setting 'orthorhombic'
loop_
_space_group_symop_operation_xyz
x,y,z
-x,-y,z
1/2+x,1/2-y,1/2-z
1/2-x,1/2+y,1/2-z
-x,-y,-z
x,y,-z
1/2-x,1/2+y,1/2+z
1/2+x,1/2-y,1/2+z
loop_
_atom_site_type_symbol
_atom_site_label
_atom_site_fract_x
_atom_site_fract_y
_atom_site_fract_z
Si Si1 0.627807 0.273538 0.695815
Si Si2 0.355294 0.506215 0.299101
Si Si3 0.058320 0.398179 0.699284
Si Si4 0.728734 0.242853 0.809856
Si Si5 0.885136 0.212425 0.807325
Si Si6 0.191666 0.641976 0.314327
Si Si7 0.247674 0.984230 0.801560
Si Si8 0.953481 0.380237 0.696764
O O1 0.634646 0.273341 0.500000
O O2 0.618855 0.390498 0.743936
O O3 0.590525 0.190300 0.738714
O O4 0.675344 0.245594 0.780190
O O5 0.353462 0.500270 0.500000
O O6 0.376254 0.400126 0.239806
O O7 0.302584 0.515169 0.240869
O O8 0.060318 0.396240 0.500000
O O9 0.068902 0.513535 0.753001
O O10 0.006004 0.378794 0.752178
O O11 0.757287 0.313386 0.690245
O O12 0.747828 0.133172 0.775555
O O13 0.738673 0.269614 0.000000
O O14 0.840686 0.281571 0.778480
O O15 0.926043 0.280623 0.740799
O O16 0.892700 0.200688 0.000000
O O17 0.173482 0.632590 0.500000
O O18 0.205467 0.535188 0.238238
O O19 0.248881 0.998710 0.000000
O O20 0.954871 0.386652 0.500000
#
# Coordination Sequence:
#
# PCOD9445562 Si02
#       8
#     8   8   8   8   8   8   8   8
#     4  11  22  37  58  84 113 149 191 235 279 332
#     4   9  18  36  55  75 112 156 190 222 276 335
#     4   9  20  41  65  86 112 146 180 222 285 350
#     4  11  21  35  54  78 109 150 193 235 280 330
#     4  11  22  37  58  84 113 149 191 235 279 332
#     4  11  21  35  54  78 109 150 193 235 280 330
#     4   9  18  34  52  69 104 153 189 222 275 333
#     4   9  20  41  65  86 112 146 180 222 285 350
#
# _framework density 20.122714999999999
#
# number of rings (size 3 to 8) (size 9 to 14) (size 15 to 20)
#    0.000    2.000    2.500    2.250    1.750    1.000 
#    0.000    7.500    0.000    3.750    0.000    0.000 
#    0.000    0.000    0.000    0.000    0.000    0.000 
#
# Total GULP energy -356770.381101 kJ/mol
# GULP energy per Si atom -5574.537205 kJ/mol
# Density = 2.007691 g / cm^3
# Si number density = 20.122715 Si / 1000 Ang^3
#
#
#
# Elastic Constant Matrix: (Units=GPa)
#
#
# Indices 1 2 3 4 5 6 
#
# 1 41.7925 0.2166 -4.8744 0.0000 0.0000 0.0000
# 2 0.2166 41.2353 1.5672 0.0000 0.0000 0.0000
# 3 -4.8744 1.5672 14.5336 0.0000 0.0000 0.0000
# 4 0.0000 0.0000 0.0000 65.8087 0.0000 0.0000
# 5 0.0000 0.0000 0.0000 0.0000 29.3659 0.0000
# 6 0.0000 0.0000 0.0000 0.0000 0.0000 35.8274
#
#
#
# Elastic Compliance Matrix: (Units=1/GPa)
#
#
# Indices 1 2 3 4 5 6 
#
# 1 0.024910 -0.000450 0.008403 0.000000 0.000000 0.000000
# 2 -0.000450 0.024359 -0.002778 0.000000 0.000000 0.000000
# 3 0.008403 -0.002778 0.071924 0.000000 0.000000 0.000000
# 4 0.000000 0.000000 0.000000 0.015196 0.000000 0.000000
# 5 0.000000 0.000000 0.000000 0.000000 0.034053 0.000000
# 6 0.000000 0.000000 0.000000 0.000000 0.000000 0.027912
#
#
# Mechanical properties :
#
#
# Convention : Reuss Voigt Hill
#
# Bulk Modulus (GPa) = 7.60206 10.15335 8.87771
# Shear Modulus (GPa) = 21.56564 32.91055 27.23810
#
# Velocity S-wave (km/s) = 3.27724 4.04851 3.68312
# Velocity P-wave (km/s) = 4.25517 5.18754 4.74432
#
# Compressibility (1/GPa) = 0.13154332
#
# Stress axis : x y z
#
# Youngs Moduli (GPa) = 40.14428 41.05262 13.90363
#
# Poissons Ratio (x) = 0.01848 -0.11683
# Poissons Ratio (y) = 0.01807 0.03862
# Poissons Ratio (z) = -0.33734 0.11403
#
# Static dielectric constant tensor:
#      x y z
#    x 1.702300 0.000000 0.000000 
#    y 0.000000 1.794560 0.000000 
#    z 0.000000 0.000000 1.711950 
# 
# From -- ./inp_files/11084.got.cif
#   From: 2010.05.17/outbox.cif.g08.bks.cpg/sg58_6_cif.got.tgz:11084.got - 2010.06.03 14:20:14.
