data_PCOD9445570
_publ_section_title
;
Structure prediction by ZEFSAII (Michael W. Deem and Ramdas Pophale) SiO2 
 PCOD9445570
Probable space group: P N N M
;
_chemical_formula_sum "Si O2"
_cell_formula_units_Z 48
_cell_length_a 14.329392
_cell_length_b 20.962960
_cell_length_c 7.675190
_cell_angle_alpha 90.000000
_cell_angle_beta 90.000000
_cell_angle_gamma 90.000000
_cell_volume 2305.523241
_symmetry_space_group_name_H-M "P N N M"
_symmetry_group_IT_number 58
_symmetry_cell_setting 'orthorhombic'
loop_
_space_group_symop_operation_xyz
x,y,z
-x,-y,z
1/2+x,1/2-y,1/2-z
1/2-x,1/2+y,1/2-z
-x,-y,-z
x,y,-z
1/2-x,1/2+y,1/2+z
1/2+x,1/2-y,1/2+z
loop_
_atom_site_type_symbol
_atom_site_label
_atom_site_fract_x
_atom_site_fract_y
_atom_site_fract_z
Si Si1 0.543361 0.932698 0.286821
Si Si2 0.968447 0.197619 0.300495
Si Si3 0.448699 0.563902 0.786957
Si Si4 0.415596 0.817065 0.698868
Si Si5 0.227475 0.756180 0.200293
Si Si6 0.252169 0.110160 0.712574
O O1 0.544506 0.931042 0.500000
O O2 0.476969 0.874887 0.227854
O O3 0.649931 0.920581 0.231141
O O4 0.500000 0.000000 0.233398
O O5 0.002816 0.201669 0.500000
O O6 0.020072 0.254399 0.202347
O O7 0.858846 0.211216 0.295211
O O8 0.995763 0.127769 0.235030
O O9 0.500000 0.500000 0.726056
O O10 0.341401 0.573817 0.730880
O O11 0.448866 0.561707 0.000000
O O12 0.391420 0.833311 0.500000
O O13 0.319845 0.798487 0.790323
O O14 0.249244 0.684648 0.266905
O O15 0.197770 0.748816 0.000000
O O16 0.250583 0.109847 0.500000
#
# Coordination Sequence:
#
# PCOD9445570 Si02
#       6
#     8   8   8   8   8   8
#     4   9  18  32  53  82 114 146 186 235 280 329
#     4  11  21  35  57  87 114 145 190 236 283 336
#     4   9  18  32  53  82 114 146 186 235 280 329
#     4  11  21  35  57  87 114 145 190 236 283 336
#     4  11  21  36  57  83 115 152 190 235 285 337
#     4   9  16  30  51  77 109 146 182 223 281 333
#
# _framework density 20.819569000000001
#
# number of rings (size 3 to 8) (size 9 to 14) (size 15 to 20)
#    0.000    2.000    3.333    1.500    0.000    1.333 
#    0.000    5.000    0.000    4.000    0.000    0.000 
#    0.000    0.000    0.000    0.000    0.000    0.000 
#
# Total GULP energy -268112.304425 kJ/mol
# GULP energy per Si atom -5585.673009 kJ/mol
# Density = 2.077218 g / cm^3
# Si number density = 20.819569 Si / 1000 Ang^3
#
#
#
# Elastic Constant Matrix: (Units=GPa)
#
#
# Indices 1 2 3 4 5 6 
#
# 1 141.5039 64.3654 -5.3120 0.0000 0.0000 0.0000
# 2 64.3654 145.8943 -1.2436 0.0000 0.0000 0.0000
# 3 -5.3120 -1.2436 38.3426 0.0000 0.0000 0.0000
# 4 0.0000 0.0000 0.0000 6.3634 0.0000 0.0000
# 5 0.0000 0.0000 0.0000 0.0000 22.4927 0.0000
# 6 0.0000 0.0000 0.0000 0.0000 0.0000 33.8564
#
#
#
# Elastic Compliance Matrix: (Units=1/GPa)
#
#
# Indices 1 2 3 4 5 6 
#
# 1 0.008888 -0.003912 0.001104 0.000000 0.000000 0.000000
# 2 -0.003912 0.008578 -0.000264 0.000000 0.000000 0.000000
# 3 0.001104 -0.000264 0.026225 0.000000 0.000000 0.000000
# 4 0.000000 0.000000 0.000000 0.157148 0.000000 0.000000
# 5 0.000000 0.000000 0.000000 0.000000 0.044459 0.000000
# 6 0.000000 0.000000 0.000000 0.000000 0.000000 0.029537
#
#
# Mechanical properties :
#
#
# Convention : Reuss Voigt Hill
#
# Bulk Modulus (GPa) = 26.63207 49.04006 37.83606
# Shear Modulus (GPa) = 17.03626 30.40457 23.72042
#
# Velocity S-wave (km/s) = 2.86366 3.82564 3.37906
# Velocity P-wave (km/s) = 4.87378 6.56658 5.78246
#
# Compressibility (1/GPa) = 0.03754872
#
# Stress axis : x y z
#
# Youngs Moduli (GPa) = 112.51535 116.58051 38.13136
#
# Poissons Ratio (x) = 0.45602 -0.04211
# Poissons Ratio (y) = 0.44012 0.01006
# Poissons Ratio (z) = -0.12427 0.03074
#
# Static dielectric constant tensor:
#      x y z
#    x 1.714570 0.000000 0.000000 
#    y 0.000000 1.708700 0.000000 
#    z 0.000000 0.000000 1.789020 
# 
# From -- ./inp_files/5852.got.cif
#   From: 2010.05.17/outbox.cif.g08.bks.cpg/sg58_3_cif.got.tgz:5852.got - 2010.06.03 14:20:14.
