data_PCOD9445733
_publ_section_title
;
Structure prediction by ZEFSAII (Michael W. Deem and Ramdas Pophale) SiO2 
 PCOD9445733
Probable space group: P N N M
;
_chemical_formula_sum "Si O2"
_cell_formula_units_Z 48
_cell_length_a 9.775515
_cell_length_b 13.992007
_cell_length_c 16.755904
_cell_angle_alpha 90.000000
_cell_angle_beta 90.000000
_cell_angle_gamma 90.000000
_cell_volume 2291.857038
_symmetry_space_group_name_H-M "P N N M"
_symmetry_group_IT_number 58
_symmetry_cell_setting 'orthorhombic'
loop_
_space_group_symop_operation_xyz
x,y,z
-x,-y,z
1/2+x,1/2-y,1/2-z
1/2-x,1/2+y,1/2-z
-x,-y,-z
x,y,-z
1/2-x,1/2+y,1/2+z
1/2+x,1/2-y,1/2+z
loop_
_atom_site_type_symbol
_atom_site_label
_atom_site_fract_x
_atom_site_fract_y
_atom_site_fract_z
Si Si1 0.299294 0.766516 0.703671
Si Si2 0.499647 0.850550 0.000000
Si Si3 0.852708 0.955058 0.172263
Si Si4 0.501021 0.248291 0.168232
Si Si5 0.159547 0.474397 0.182032
Si Si6 0.619778 0.422496 0.087195
Si Si7 0.735505 0.008823 0.000000
O O1 0.351912 0.662281 0.674445
O O2 0.381961 0.801232 0.781329
O O3 0.316190 0.864111 0.653897
O O4 0.138746 0.751469 0.716760
O O5 0.525866 0.795261 0.918001
O O6 0.611228 0.933735 0.000000
O O7 0.344678 0.890340 0.000000
O O8 0.741829 0.995471 0.236569
O O9 0.815722 0.990125 0.082465
O O10 0.000000 0.000000 0.193186
O O11 0.564324 0.350987 0.152766
O O12 0.236637 0.536288 0.114987
O O13 0.000000 0.500000 0.190006
O O14 0.500000 0.500000 0.082331
O O15 0.632422 0.376328 0.000000
#
# Coordination Sequence:
#
# PCOD9445733 Si02
#       7
#     8   4   8   8   8   8   4
#     4  12  25  41  71 103 136 183 234 287 348 419
#     4  11  24  42  71 102 138 181 233 282 359 421
#     4  12  25  46  72 102 142 186 234 292 345 420
#     4  12  23  44  69 103 135 182 235 285 344 425
#     4  12  26  45  69 102 142 184 233 292 353 415
#     4  11  23  44  72  97 133 178 229 287 340 412
#     4  11  25  44  68 104 139 180 229 292 347 415
#
# _framework density 20.943714
#
# number of rings (size 3 to 8) (size 9 to 14) (size 15 to 20)
#    0.000    0.333    5.833    3.750    2.333    0.333 
#    1.500    0.000    0.000    0.000    0.000    0.000 
#    0.000    0.000    0.000    0.000    0.000    0.000 
#
# Total GULP energy -267884.958790 kJ/mol
# GULP energy per Si atom -5580.936641 kJ/mol
# Density = 2.089605 g / cm^3
# Si number density = 20.943714 Si / 1000 Ang^3
#
#
#
# Elastic Constant Matrix: (Units=GPa)
#
#
# Indices 1 2 3 4 5 6 
#
# 1 165.1512 30.2157 41.9148 0.0000 0.0000 0.0000
# 2 30.2157 76.1208 -36.2355 0.0000 0.0000 0.0000
# 3 41.9148 -36.2355 46.8365 0.0000 0.0000 0.0000
# 4 0.0000 0.0000 0.0000 16.7260 0.0000 0.0000
# 5 0.0000 0.0000 0.0000 0.0000 26.7187 0.0000
# 6 0.0000 0.0000 0.0000 0.0000 0.0000 32.1364
#
#
#
# Elastic Compliance Matrix: (Units=1/GPa)
#
#
# Indices 1 2 3 4 5 6 
#
# 1 0.021723 -0.028299 -0.041334 0.000000 0.000000 0.000000
# 2 -0.028299 0.057661 0.069934 0.000000 0.000000 0.000000
# 3 -0.041334 0.069934 0.112446 0.000000 0.000000 0.000000
# 4 0.000000 0.000000 0.000000 0.059787 0.000000 0.000000
# 5 0.000000 0.000000 0.000000 0.000000 0.037427 0.000000
# 6 0.000000 0.000000 0.000000 0.000000 0.000000 0.031117
#
#
# Mechanical properties :
#
#
# Convention : Reuss Voigt Hill
#
# Bulk Modulus (GPa) = 5.19658 39.98873 22.59266
# Shear Modulus (GPa) = 13.03098 31.93046 22.48072
#
# Velocity S-wave (km/s) = 2.49708 3.90883 3.27981
# Velocity P-wave (km/s) = 3.28641 6.28544 5.01534
#
# Compressibility (1/GPa) = 0.19243429
#
# Stress axis : x y z
#
# Youngs Moduli (GPa) = 46.03456 17.34287 8.89314
#
# Poissons Ratio (x) = 0.49078 0.36758
# Poissons Ratio (y) = 1.30271 -0.62194
# Poissons Ratio (z) = 1.90277 -1.21286
#
# Static dielectric constant tensor:
#      x y z
#    x 1.695120 0.000000 0.000000 
#    y 0.000000 1.621780 0.000000 
#    z 0.000000 0.000000 1.813180 
# 
# From -- ./inp_files/25351.got.cif
#   From: 2010.05.17/outbox.cif.g08.bks.cpg/sg58_13_cif.got.tgz:25351.got - 2010.06.03 14:20:14.
