data_PCOD9445842
_publ_section_title
;
Structure prediction by ZEFSAII (Michael W. Deem and Ramdas Pophale) SiO2 
 PCOD9445842
Probable space group: P N N M
;
_chemical_formula_sum "Si O2"
_cell_formula_units_Z 44
_cell_length_a 8.954848
_cell_length_b 7.976800
_cell_length_c 28.578291
_cell_angle_alpha 90.000000
_cell_angle_beta 90.000000
_cell_angle_gamma 90.000000
_cell_volume 2041.376805
_symmetry_space_group_name_H-M "P N N M"
_symmetry_group_IT_number 58
_symmetry_cell_setting 'orthorhombic'
loop_
_space_group_symop_operation_xyz
x,y,z
-x,-y,z
1/2+x,1/2-y,1/2-z
1/2-x,1/2+y,1/2-z
-x,-y,-z
x,y,-z
1/2-x,1/2+y,1/2+z
1/2+x,1/2-y,1/2+z
loop_
_atom_site_type_symbol
_atom_site_label
_atom_site_fract_x
_atom_site_fract_y
_atom_site_fract_z
Si Si1 0.904841 0.759411 0.500000
Si Si2 0.108592 0.154279 0.297575
Si Si3 0.236483 0.602541 0.398780
Si Si4 0.569250 0.835723 0.271598
Si Si5 0.500000 0.500000 0.670352
Si Si6 0.424328 0.741602 0.898841
Si Si7 0.237081 0.592804 0.500000
O O1 0.894688 0.844822 0.550889
O O2 0.786189 0.607682 0.500000
O O3 0.069907 0.673577 0.500000
O O4 0.255699 0.134988 0.266747
O O5 0.146013 0.165782 0.352239
O O6 0.018109 0.311304 0.277103
O O7 0.000000 0.000000 0.292222
O O8 0.363771 0.570838 0.361000
O O9 0.147969 0.426081 0.403284
O O10 0.305046 0.641414 0.450123
O O11 0.102387 0.734687 0.389558
O O12 0.550273 0.661967 0.299705
O O13 0.500000 0.000000 0.295677
#
# Coordination Sequence:
#
# PCOD9445842 Si02
#       7
#     4   8   8   8   4   8   4
#     4   7  12  28  53  88 121 156 203 271 306 368
#     4  12  26  45  67  95 126 175 219 262 333 390
#     4   9  18  32  60  91 127 164 210 267 311 384
#     4  12  29  46  67  94 135 167 218 276 322 390
#     4  12  24  43  62  98 130 171 220 254 336 376
#     4   9  18  34  61  89 124 163 215 261 319 374
#     4   7  12  27  50  90 124 157 207 259 315 366
#
# _framework density 21.554082000000001
#
# number of rings (size 3 to 8) (size 9 to 14) (size 15 to 20)
#    0.000    2.000    2.727    3.273    7.636    0.364 
#    0.000    0.455    0.000    0.000    0.000    3.182 
#    0.000    0.000    0.000    0.000    0.000    0.000 
#
# Total GULP energy -245389.014622 kJ/mol
# GULP energy per Si atom -5577.023060 kJ/mol
# Density = 2.150502 g / cm^3
# Si number density = 21.554082 Si / 1000 Ang^3
#
#
#
# Elastic Constant Matrix: (Units=GPa)
#
#
# Indices 1 2 3 4 5 6 
#
# 1 61.8116 0.9958 14.1418 0.0000 0.0000 0.0000
# 2 0.9958 51.7475 -4.8374 0.0000 0.0000 0.0000
# 3 14.1418 -4.8374 103.4278 0.0000 0.0000 0.0000
# 4 0.0000 0.0000 0.0000 -2.4639 0.0000 0.0000
# 5 0.0000 0.0000 0.0000 0.0000 -4.4904 0.0000
# 6 0.0000 0.0000 0.0000 0.0000 0.0000 22.5527
#
#
#
# Elastic Compliance Matrix: (Units=1/GPa)
#
#
# Indices 1 2 3 4 5 6 
#
# 1 0.016715 -0.000538 -0.002311 0.000000 0.000000 0.000000
# 2 -0.000538 0.019427 0.000982 0.000000 0.000000 0.000000
# 3 -0.002311 0.000982 0.010030 0.000000 0.000000 0.000000
# 4 0.000000 0.000000 0.000000 -0.405853 0.000000 0.000000
# 5 0.000000 0.000000 0.000000 0.000000 -0.222696 0.000000
# 6 0.000000 0.000000 0.000000 0.000000 0.000000 0.044341
#
#
# Mechanical properties :
#
#
# Convention : Reuss Voigt Hill
#
# Bulk Modulus (GPa) = 23.56253 26.39859 24.98056
# Shear Modulus (GPa) = -9.61249 16.89879 3.64315
#
# Velocity S-wave (km/s) = -2.11409 2.80307 1.30150
# Velocity P-wave (km/s) = 2.23525 4.76974 3.72470
#
# Compressibility (1/GPa) = 0.04244026
#
# Stress axis : x y z
#
# Youngs Moduli (GPa) = 59.82473 51.47543 99.69638
#
# Poissons Ratio (x) = 0.02768 0.23037
# Poissons Ratio (y) = 0.03217 -0.09791
# Poissons Ratio (z) = 0.13824 -0.05055
#
# Static dielectric constant tensor:
#      x y z
#    x 1.871010 0.000000 0.000000 
#    y 0.000000 1.686050 0.000000 
#    z 0.000000 0.000000 1.873590 
# 
# From -- ./inp_files/34494.got.cif
#   From: 2010.05.17/outbox.cif.g08.bks.cpg/sg58_18_cif.got.tgz:34494.got - 2010.06.03 14:20:14.
