data_PCOD9445109
_publ_section_title
;
Structure prediction by ZEFSAII (Michael W. Deem and Ramdas Pophale) SiO2 
 PCOD9445109
Probable space group: P N N M
;
_chemical_formula_sum "Si O2"
_cell_formula_units_Z 40
_cell_length_a 14.151057
_cell_length_b 14.322636
_cell_length_c 7.829527
_cell_angle_alpha 90.000000
_cell_angle_beta 90.000000
_cell_angle_gamma 90.000000
_cell_volume 1586.891965
_symmetry_space_group_name_H-M "P N N M"
_symmetry_group_IT_number 58
_symmetry_cell_setting 'orthorhombic'
loop_
_space_group_symop_operation_xyz
x,y,z
-x,-y,z
1/2+x,1/2-y,1/2-z
1/2-x,1/2+y,1/2-z
-x,-y,-z
x,y,-z
1/2-x,1/2+y,1/2+z
1/2+x,1/2-y,1/2+z
loop_
_atom_site_type_symbol
_atom_site_label
_atom_site_fract_x
_atom_site_fract_y
_atom_site_fract_z
Si Si1 0.497344 0.718100 0.297368
Si Si2 0.707798 0.281048 0.698865
Si Si3 0.107756 0.612453 0.707380
Si Si4 0.097243 0.956572 0.302548
Si Si5 0.800511 0.570433 0.302443
O O1 0.501856 0.701535 0.500000
O O2 0.394140 0.690782 0.228229
O O3 0.519273 0.826562 0.265166
O O4 0.575300 0.654017 0.208765
O O5 0.706684 0.306915 0.500000
O O6 0.800538 0.329260 0.772325
O O7 0.707567 0.168929 0.709977
O O8 0.106123 0.611220 0.500000
O O9 0.125278 0.506260 0.762671
O O10 0.106816 0.983902 0.500000
O O11 0.195610 0.975364 0.209683
O O12 0.000000 0.000000 0.230285
O O13 0.821559 0.590490 0.500000
#
# Coordination Sequence:
#
# PCOD9445109 Si02
#       5
#     8   8   8   8   8
#     4  11  23  39  63  92 122 163 210 256 308 370
#     4  10  22  41  62  87 125 166 204 255 314 369
#     4  10  22  41  62  87 125 166 204 255 314 369
#     4  11  23  39  61  91 125 162 205 258 317 369
#     4  11  23  39  63  92 122 163 210 256 308 370
#
# _framework density 25.206505
#
# number of rings (size 3 to 8) (size 9 to 14) (size 15 to 20)
#    0.000    1.400    2.000    3.000    0.000    7.200 
#    0.000    4.000    0.000    0.000    0.000    0.000 
#    0.000    0.000    0.000    0.000    0.000    0.000 
#
# Total GULP energy -223876.803479 kJ/mol
# GULP energy per Si atom -5596.920087 kJ/mol
# Density = 2.514913 g / cm^3
# Si number density = 25.206505 Si / 1000 Ang^3
#
#
#
# Elastic Constant Matrix: (Units=GPa)
#
#
# Indices 1 2 3 4 5 6 
#
# 1 65.6981 -1.6136 -3.5208 0.0000 0.0000 0.0000
# 2 -1.6136 87.6013 -1.0818 0.0000 0.0000 0.0000
# 3 -3.5208 -1.0818 56.9796 0.0000 0.0000 0.0000
# 4 0.0000 0.0000 0.0000 74.6297 0.0000 0.0000
# 5 0.0000 0.0000 0.0000 0.0000 19.7547 0.0000
# 6 0.0000 0.0000 0.0000 0.0000 0.0000 48.6886
#
#
#
# Elastic Compliance Matrix: (Units=1/GPa)
#
#
# Indices 1 2 3 4 5 6 
#
# 1 0.015279 0.000293 0.000950 0.000000 0.000000 0.000000
# 2 0.000293 0.011424 0.000235 0.000000 0.000000 0.000000
# 3 0.000950 0.000235 0.017613 0.000000 0.000000 0.000000
# 4 0.000000 0.000000 0.000000 0.013399 0.000000 0.000000
# 5 0.000000 0.000000 0.000000 0.000000 0.050621 0.000000
# 6 0.000000 0.000000 0.000000 0.000000 0.000000 0.020539
#
#
# Mechanical properties :
#
#
# Convention : Reuss Voigt Hill
#
# Bulk Modulus (GPa) = 21.15424 21.98296 21.56860
# Shear Modulus (GPa) = 35.29158 43.04759 39.16959
#
# Velocity S-wave (km/s) = 3.74585 4.13703 3.94629
# Velocity P-wave (km/s) = 5.20760 5.61784 5.41661
#
# Compressibility (1/GPa) = 0.04727185
#
# Stress axis : x y z
#
# Youngs Moduli (GPa) = 65.44831 87.53760 56.77534
#
# Poissons Ratio (x) = -0.02566 -0.05392
# Poissons Ratio (y) = -0.01919 -0.01334
# Poissons Ratio (z) = -0.06215 -0.02057
#
# Static dielectric constant tensor:
#      x y z
#    x 2.022030 0.000000 0.000000 
#    y 0.000000 2.071450 0.000000 
#    z 0.000000 0.000000 1.884490 
# 
# From -- ./inp_files/5370.got.cif
#   From: 2010.05.17/outbox.cif.g08.bks.cpg/sg58_3_cif.got.tgz:5370.got - 2010.06.03 14:20:14.
