data_PCOD9445613
_publ_section_title
;
Structure prediction by ZEFSAII (Michael W. Deem and Ramdas Pophale) SiO2 
 PCOD9445613
Probable space group: P N N M
;
_chemical_formula_sum "Si O2"
_cell_formula_units_Z 56
_cell_length_a 20.117283
_cell_length_b 18.282903
_cell_length_c 7.569869
_cell_angle_alpha 90.000000
_cell_angle_beta 90.000000
_cell_angle_gamma 90.000000
_cell_volume 2784.215484
_symmetry_space_group_name_H-M "P N N M"
_symmetry_group_IT_number 58
_symmetry_cell_setting 'orthorhombic'
loop_
_space_group_symop_operation_xyz
x,y,z
-x,-y,z
1/2+x,1/2-y,1/2-z
1/2-x,1/2+y,1/2-z
-x,-y,-z
x,y,-z
1/2-x,1/2+y,1/2+z
1/2+x,1/2-y,1/2+z
loop_
_atom_site_type_symbol
_atom_site_label
_atom_site_fract_x
_atom_site_fract_y
_atom_site_fract_z
Si Si1 0.116737 0.785703 0.285201
Si Si2 0.462882 0.694203 0.785061
Si Si3 0.689390 0.570766 0.216980
Si Si4 0.570360 0.464559 0.215772
Si Si5 0.098047 0.624378 0.288109
Si Si6 0.834250 0.528095 0.792218
Si Si7 0.448513 0.856000 0.788631
O O1 0.118851 0.785419 0.500000
O O2 0.167117 0.848136 0.225844
O O3 0.126916 0.702243 0.224750
O O4 0.041100 0.807504 0.237762
O O5 0.428120 0.619839 0.725209
O O6 0.435845 0.772996 0.724358
O O7 0.460200 0.693621 0.000000
O O8 0.632465 0.513509 0.272144
O O9 0.762059 0.548208 0.282861
O O10 0.689096 0.570743 0.000000
O O11 0.500000 0.500000 0.269444
O O12 0.570460 0.464953 0.000000
O O13 0.094583 0.629227 0.500000
O O14 0.140327 0.553037 0.248904
O O15 0.021506 0.618888 0.223225
O O16 0.890997 0.586542 0.746530
O O17 0.826177 0.531810 0.000000
O O18 0.454149 0.851025 0.000000
#
# Coordination Sequence:
#
# PCOD9445613 Si02
#       7
#     8   8   8   8   8   8   8
#     4   8  13  26  47  68  89 118 156 195 236 281
#     4   8  13  23  44  73  94 113 152 202 243 276
#     4   9  17  28  42  65 100 133 156 186 235 295
#     4   9  13  21  43  70  96 124 153 192 242 287
#     4   9  18  33  55  74  90 120 167 213 241 272
#     4  11  22  33  45  69 105 135 159 191 241 298
#     4   9  18  33  52  73  95 122 164 212 244 274
#
# _framework density 20.113385999999998
#
# number of rings (size 3 to 8) (size 9 to 14) (size 15 to 20)
#    0.000    3.000    1.429    2.571    0.000    2.286 
#    2.571    0.000    0.000    0.857    0.000    0.000 
#    0.000    2.857    0.000    0.000    0.000    0.000 
#
# Total GULP energy -312292.572560 kJ/mol
# GULP energy per Si atom -5576.653081 kJ/mol
# Density = 2.006761 g / cm^3
# Si number density = 20.113386 Si / 1000 Ang^3
#
#
#
# Elastic Constant Matrix: (Units=GPa)
#
#
# Indices 1 2 3 4 5 6 
#
# 1 153.3663 140.2150 6.8364 0.0000 0.0000 0.0000
# 2 140.2150 235.0286 7.9704 0.0000 0.0000 0.0000
# 3 6.8364 7.9704 43.4052 0.0000 0.0000 0.0000
# 4 0.0000 0.0000 0.0000 -3.5778 0.0000 0.0000
# 5 0.0000 0.0000 0.0000 0.0000 7.5463 0.0000
# 6 0.0000 0.0000 0.0000 0.0000 0.0000 19.8829
#
#
#
# Elastic Compliance Matrix: (Units=1/GPa)
#
#
# Indices 1 2 3 4 5 6 
#
# 1 0.014365 -0.008546 -0.000693 0.000000 0.000000 0.000000
# 2 -0.008546 0.009366 -0.000374 0.000000 0.000000 0.000000
# 3 -0.000693 -0.000374 0.023217 0.000000 0.000000 0.000000
# 4 0.000000 0.000000 0.000000 -0.279501 0.000000 0.000000
# 5 0.000000 0.000000 0.000000 0.000000 0.132515 0.000000
# 6 0.000000 0.000000 0.000000 0.000000 0.000000 0.050294
#
#
# Mechanical properties :
#
#
# Convention : Reuss Voigt Hill
#
# Bulk Modulus (GPa) = 36.07400 82.42710 59.25055
# Shear Modulus (GPa) = -234.98856 23.22218 -105.88319
#
# Velocity S-wave (km/s) = -10.82061 3.40157 -7.26343
# Velocity P-wave (km/s) = 11.75329 7.51650 6.38913
#
# Compressibility (1/GPa) = 0.02772080
#
# Stress axis : x y z
#
# Youngs Moduli (GPa) = 69.61538 106.76847 43.07281
#
# Poissons Ratio (x) = 0.91247 0.02986
# Poissons Ratio (y) = 0.59495 0.01610
# Poissons Ratio (z) = 0.04825 0.03991
#
# Static dielectric constant tensor:
#      x y z
#    x 1.703180 0.000000 0.000000 
#    y 0.000000 1.767380 0.000000 
#    z 0.000000 0.000000 1.782490 
# 
# From -- ./inp_files/9165.got.cif
#   From: 2010.05.17/outbox.cif.g08.bks.cpg/sg58_5_cif.got.tgz:9165.got - 2010.06.03 14:20:14.
