data_PCOD9445954
_publ_section_title
;
Structure prediction by ZEFSAII (Michael W. Deem and Ramdas Pophale) SiO2 
 PCOD9445954
Probable space group: P N N M
;
_chemical_formula_sum "Si O2"
_cell_formula_units_Z 48
_cell_length_a 18.000000
_cell_length_b 15.000000
_cell_length_c 9.000000
_cell_angle_alpha 90.000000
_cell_angle_beta 90.000000
_cell_angle_gamma 90.000000
_cell_volume 2430.000000
_symmetry_space_group_name_H-M "P N N M"
_symmetry_group_IT_number 58
_symmetry_cell_setting 'orthorhombic'
loop_
_space_group_symop_operation_xyz
x,y,z
-x,-y,z
1/2+x,1/2-y,1/2-z
1/2-x,1/2+y,1/2-z
-x,-y,-z
x,y,-z
1/2-x,1/2+y,1/2+z
1/2+x,1/2-y,1/2+z
loop_
_atom_site_type_symbol
_atom_site_label
_atom_site_fract_x
_atom_site_fract_y
_atom_site_fract_z
Si Si1 0.188233 0.611003 0.330692
Si Si2 0.488669 0.092941 0.168512
Si Si3 0.575518 0.442634 0.672983
Si Si4 0.283480 0.465560 0.822446
Si Si5 0.669753 0.708441 0.322199
Si Si6 0.505542 0.715766 0.819368
O O1 0.217105 0.616185 0.500000
O O2 0.099451 0.605550 0.341575
O O3 0.219500 0.527193 0.243732
O O4 0.203125 0.698948 0.235208
O O5 0.518118 0.185106 0.230044
O O6 0.500000 0.000000 0.249411
O O7 0.520018 0.085189 0.000000
O O8 0.500000 0.500000 0.674963
O O9 0.596466 0.430529 0.500000
O O10 0.640019 0.490875 0.763340
O O11 0.553164 0.352873 0.756220
O O12 0.281361 0.369844 0.745757
O O13 0.282532 0.460209 0.000000
O O14 0.664511 0.703938 0.500000
O O15 0.586903 0.698390 0.251417
O O16 0.511701 0.712613 0.000000
#
# Coordination Sequence:
#
# PCOD9445954 Si02
#       6
#     8   8   8   8   8   8
#     4  10  21  39  61  86 117 152 195 244 294 351
#     4   8  16  34  60  87 114 148 188 233 283 343
#     4  11  22  36  57  85 117 152 192 240 297 351
#     4  12  24  39  60  85 117 155 197 244 297 355
#     4  11  21  37  60  84 113 153 196 236 292 353
#     4  10  19  33  57  86 115 149 192 239 290 347
#
# _framework density 19.753086
#
# number of rings (size 3 to 8) (size 9 to 14) (size 15 to 20)
#    0.000    1.667    1.667    5.500    0.000    0.667 
#    3.000    0.000    0.000   17.000    0.000    0.000 
#    0.000    0.000    0.000    0.000    0.000    0.000 
#
# Total GULP energy -267778.008158 kJ/mol
# GULP energy per Si atom -5578.708503 kJ/mol
# Density = 1.970813 g / cm^3
# Si number density = 19.753086 Si / 1000 Ang^3
#
#
#
# Elastic Constant Matrix: (Units=GPa)
#
#
# Indices 1 2 3 4 5 6 
#
# 1 -10.8218 -1.0962 -1.6145 0.0000 0.0000 0.0000
# 2 -1.0962 148.6608 42.7757 0.0000 0.0000 0.0000
# 3 -1.6145 42.7757 148.4583 0.0000 0.0000 0.0000
# 4 0.0000 0.0000 0.0000 26.8747 0.0000 0.0000
# 5 0.0000 0.0000 0.0000 0.0000 10.5355 0.0000
# 6 0.0000 0.0000 0.0000 0.0000 0.0000 30.5448
#
#
#
# Elastic Compliance Matrix: (Units=1/GPa)
#
#
# Indices 1 2 3 4 5 6 
#
# 1 -0.092232 -0.000427 -0.000880 0.000000 0.000000 0.000000
# 2 -0.000427 0.007333 -0.002117 0.000000 0.000000 0.000000
# 3 -0.000880 -0.002117 0.007336 0.000000 0.000000 0.000000
# 4 0.000000 0.000000 0.000000 0.037210 0.000000 0.000000
# 5 0.000000 0.000000 0.000000 0.000000 0.094917 0.000000
# 6 0.000000 0.000000 0.000000 0.000000 0.000000 0.032739
#
#
# Mechanical properties :
#
#
# Convention : Reuss Voigt Hill
#
# Bulk Modulus (GPa) = -11.84679 40.71416 14.43368
# Shear Modulus (GPa) = 75.74045 30.00649 52.87347
#
# Velocity S-wave (km/s) = 6.19894 3.90176 5.17931
# Velocity P-wave (km/s) = 6.72498 6.39958 6.56430
#
# Compressibility (1/GPa) = -0.08441103
#
# Stress axis : x y z
#
# Youngs Moduli (GPa) = -10.84228 136.37247 136.30583
#
# Poissons Ratio (x) = 0.05821 0.11996
# Poissons Ratio (y) = -0.00463 0.28862
# Poissons Ratio (z) = -0.00954 0.28877
#
# Static dielectric constant tensor:
#      x y z
#    x 1.706350 0.000000 0.000000 
#    y 0.000000 1.939580 0.000000 
#    z 0.000000 0.000000 1.654630 
# 
# From -- ./inp_files/7747.got.cif
#   From: 2010.05.17/outbox.ucp.g08.bks.cvg/sg58_4_cif.got.tgz:7747.got - 2010.06.11 16:41:41.
