data_PCOD9445540
_publ_section_title
;
Structure prediction by ZEFSAII (Michael W. Deem and Ramdas Pophale) SiO2 
 PCOD9445540
Probable space group: P N N M
;
_chemical_formula_sum "Si O2"
_cell_formula_units_Z 48
_cell_length_a 9.987265
_cell_length_b 14.387036
_cell_length_c 17.352241
_cell_angle_alpha 90.000000
_cell_angle_beta 90.000000
_cell_angle_gamma 90.000000
_cell_volume 2493.293901
_symmetry_space_group_name_H-M "P N N M"
_symmetry_group_IT_number 58
_symmetry_cell_setting 'orthorhombic'
loop_
_space_group_symop_operation_xyz
x,y,z
-x,-y,z
1/2+x,1/2-y,1/2-z
1/2-x,1/2+y,1/2-z
-x,-y,-z
x,y,-z
1/2-x,1/2+y,1/2+z
1/2+x,1/2-y,1/2+z
loop_
_atom_site_type_symbol
_atom_site_label
_atom_site_fract_x
_atom_site_fract_y
_atom_site_fract_z
Si Si1 0.663609 0.502487 0.268984
Si Si2 0.894403 0.084128 0.918524
Si Si3 0.768164 0.816344 0.711583
Si Si4 0.988094 0.885919 0.411587
Si Si5 0.964533 0.294598 0.911541
Si Si6 0.760350 0.654127 0.161606
O O1 0.500000 0.500000 0.260715
O O2 0.692973 0.561745 0.344961
O O3 0.720119 0.399894 0.272494
O O4 0.735451 0.553454 0.198962
O O5 0.968719 0.181953 0.909311
O O6 0.820433 0.087595 0.000000
O O7 0.000000 0.000000 0.921392
O O8 0.889491 0.840804 0.652254
O O9 0.641052 0.819548 0.655059
O O10 0.767473 0.725435 0.765780
O O11 0.946371 0.867271 0.500000
O O12 0.130244 0.837985 0.392542
O O13 0.000000 0.000000 0.405700
O O14 0.106486 0.335826 0.887724
O O15 0.927918 0.320556 0.000000
#
# Coordination Sequence:
#
# PCOD9445540 Si02
#       6
#     8   8   8   8   8   8
#     4  11  20  39  62  88 116 158 216 246 286 365
#     4   9  18  36  61  88 116 155 204 255 297 348
#     4  12  22  39  63  92 122 160 204 252 305 359
#     4  11  23  43  66  88 120 166 214 252 297 365
#     4  11  24  38  57  94 130 155 194 254 318 356
#     4  12  21  39  63  92 121 160 204 253 303 358
#
# _framework density 19.251642
#
# number of rings (size 3 to 8) (size 9 to 14) (size 15 to 20)
#    0.000    1.000    5.000    4.000    0.000    0.667 
#    0.000    1.667    0.000    0.000    0.000    2.333 
#    0.000    0.000    0.000    0.000    0.000    0.000 
#
# Total GULP energy -267416.147738 kJ/mol
# GULP energy per Si atom -5571.169745 kJ/mol
# Density = 1.920782 g / cm^3
# Si number density = 19.251642 Si / 1000 Ang^3
#
#
#
# Elastic Constant Matrix: (Units=GPa)
#
#
# Indices 1 2 3 4 5 6 
#
# 1 63.0571 5.9756 -8.1000 0.0000 0.0000 0.0000
# 2 5.9756 59.3489 -9.6840 0.0000 0.0000 0.0000
# 3 -8.1000 -9.6840 74.4967 0.0000 0.0000 0.0000
# 4 0.0000 0.0000 0.0000 45.5677 0.0000 0.0000
# 5 0.0000 0.0000 0.0000 0.0000 24.1276 0.0000
# 6 0.0000 0.0000 0.0000 0.0000 0.0000 26.7519
#
#
#
# Elastic Compliance Matrix: (Units=1/GPa)
#
#
# Indices 1 2 3 4 5 6 
#
# 1 0.016192 -0.001372 0.001582 0.000000 0.000000 0.000000
# 2 -0.001372 0.017331 0.002104 0.000000 0.000000 0.000000
# 3 0.001582 0.002104 0.013869 0.000000 0.000000 0.000000
# 4 0.000000 0.000000 0.000000 0.021945 0.000000 0.000000
# 5 0.000000 0.000000 0.000000 0.000000 0.041446 0.000000
# 6 0.000000 0.000000 0.000000 0.000000 0.000000 0.037381
#
#
# Mechanical properties :
#
#
# Convention : Reuss Voigt Hill
#
# Bulk Modulus (GPa) = 19.22367 19.25400 19.23883
# Shear Modulus (GPa) = 31.07978 33.20350 32.14164
#
# Velocity S-wave (km/s) = 4.02231 4.15747 4.09045
# Velocity P-wave (km/s) = 5.61953 5.75056 5.68543
#
# Compressibility (1/GPa) = 0.05201920
#
# Stress axis : x y z
#
# Youngs Moduli (GPa) = 61.75923 57.70037 72.10376
#
# Poissons Ratio (x) = 0.07917 -0.11408
# Poissons Ratio (y) = 0.08474 -0.15168
# Poissons Ratio (z) = -0.09771 -0.12138
#
# Static dielectric constant tensor:
#      x y z
#    x 1.654220 0.000000 0.000000 
#    y 0.000000 1.671130 0.000000 
#    z 0.000000 0.000000 1.745640 
# 
# From -- ./inp_files/25299.got.cif
#   From: 2010.05.17/outbox.cif.g08.bks.cpg/sg58_13_cif.got.tgz:25299.got - 2010.06.03 14:20:14.
