data_PCOD9445747
_publ_section_title
;
Structure prediction by ZEFSAII (Michael W. Deem and Ramdas Pophale) SiO2 
 PCOD9445747
Probable space group: P N N M
;
_chemical_formula_sum "Si O2"
_cell_formula_units_Z 32
_cell_length_a 11.066636
_cell_length_b 8.949411
_cell_length_c 15.231127
_cell_angle_alpha 90.000000
_cell_angle_beta 90.000000
_cell_angle_gamma 90.000000
_cell_volume 1508.488898
_symmetry_space_group_name_H-M "P N N M"
_symmetry_group_IT_number 58
_symmetry_cell_setting 'orthorhombic'
loop_
_space_group_symop_operation_xyz
x,y,z
-x,-y,z
1/2+x,1/2-y,1/2-z
1/2-x,1/2+y,1/2-z
-x,-y,-z
x,y,-z
1/2-x,1/2+y,1/2+z
1/2+x,1/2-y,1/2+z
loop_
_atom_site_type_symbol
_atom_site_label
_atom_site_fract_x
_atom_site_fract_y
_atom_site_fract_z
Si Si1 0.674825 0.418149 0.100698
Si Si2 0.075776 0.650289 0.163672
Si Si3 0.401129 0.370657 0.500000
Si Si4 0.059816 0.762560 0.641787
Si Si5 0.143259 0.543872 0.500000
O O1 0.783231 0.389693 0.165907
O O2 0.574904 0.287943 0.103804
O O3 0.617742 0.575259 0.127917
O O4 0.718686 0.430167 0.000000
O O5 0.071425 0.770131 0.085557
O O6 0.042737 0.716143 0.257998
O O7 0.000000 0.500000 0.145278
O O8 0.500000 0.500000 0.500000
O O9 0.262203 0.436813 0.500000
O O10 0.142039 0.647205 0.587467
O O11 0.000000 0.500000 0.500000
#
# Coordination Sequence:
#
# PCOD9445747 Si02
#       5
#     8   8   4   8   4
#     4  11  23  48  75 105 146 193 248 301 371 442
#     4  12  29  47  73 104 151 198 239 296 380 447
#     4  12  31  46  70 107 153 193 243 300 371 451
#     4  11  25  43  76 109 140 189 247 309 359 436
#     4  12  24  45  74 105 140 183 247 305 361 429
#
# _framework density 21.213282
#
# number of rings (size 3 to 8) (size 9 to 14) (size 15 to 20)
#    0.000    0.500    3.750    3.375   14.000    0.000 
#    0.000    0.000    0.000    0.000    0.000    0.000 
#    0.000    0.000    0.000    0.000    0.000    0.000 
#
# Total GULP energy -178740.794151 kJ/mol
# GULP energy per Si atom -5585.649817 kJ/mol
# Density = 2.116500 g / cm^3
# Si number density = 21.213282 Si / 1000 Ang^3
#
#
#
# Elastic Constant Matrix: (Units=GPa)
#
#
# Indices 1 2 3 4 5 6 
#
# 1 80.1583 40.6028 35.7142 0.0000 0.0000 0.0000
# 2 40.6028 107.3726 80.4743 0.0000 0.0000 0.0000
# 3 35.7142 80.4743 139.9134 0.0000 0.0000 0.0000
# 4 0.0000 0.0000 0.0000 35.6516 0.0000 0.0000
# 5 0.0000 0.0000 0.0000 0.0000 28.0999 0.0000
# 6 0.0000 0.0000 0.0000 0.0000 0.0000 32.2979
#
#
#
# Elastic Compliance Matrix: (Units=1/GPa)
#
#
# Indices 1 2 3 4 5 6 
#
# 1 0.015515 -0.005095 -0.001030 0.000000 0.000000 0.000000
# 2 -0.005095 0.018044 -0.009078 0.000000 0.000000 0.000000
# 3 -0.001030 -0.009078 0.012631 0.000000 0.000000 0.000000
# 4 0.000000 0.000000 0.000000 0.028049 0.000000 0.000000
# 5 0.000000 0.000000 0.000000 0.000000 0.035587 0.000000
# 6 0.000000 0.000000 0.000000 0.000000 0.000000 0.030962
#
#
# Mechanical properties :
#
#
# Convention : Reuss Voigt Hill
#
# Bulk Modulus (GPa) = 63.35177 71.22521 67.28849
# Shear Modulus (GPa) = 28.33584 30.58675 29.46129
#
# Velocity S-wave (km/s) = 3.65877 3.80131 3.73072
# Velocity P-wave (km/s) = 6.91215 7.27429 7.09553
#
# Compressibility (1/GPa) = 0.01578488
#
# Stress axis : x y z
#
# Youngs Moduli (GPa) = 64.45375 55.42113 79.16827
#
# Poissons Ratio (x) = 0.28238 0.08152
# Poissons Ratio (y) = 0.32841 0.71866
# Poissons Ratio (z) = 0.06637 0.50309
#
# Static dielectric constant tensor:
#      x y z
#    x 1.791440 0.000000 0.000000 
#    y 0.000000 1.795970 0.000000 
#    z 0.000000 0.000000 1.731820 
# 
# From -- ./inp_files/19196.got.cif
#   From: 2010.05.17/outbox.cif.g08.bks.cpg/sg58_10_cif.got.tgz:19196.got - 2010.06.03 14:20:14.
