data_PCOD9445435
_publ_section_title
;
Structure prediction by ZEFSAII (Michael W. Deem and Ramdas Pophale) SiO2 
 PCOD9445435
Probable space group: P N N M
;
_chemical_formula_sum "Si O2"
_cell_formula_units_Z 58
_cell_length_a 6.878313
_cell_length_b 17.126477
_cell_length_c 25.546140
_cell_angle_alpha 90.000000
_cell_angle_beta 90.000000
_cell_angle_gamma 90.000000
_cell_volume 3009.367720
_symmetry_space_group_name_H-M "P N N M"
_symmetry_group_IT_number 58
_symmetry_cell_setting 'orthorhombic'
loop_
_space_group_symop_operation_xyz
x,y,z
-x,-y,z
1/2+x,1/2-y,1/2-z
1/2-x,1/2+y,1/2-z
-x,-y,-z
x,y,-z
1/2-x,1/2+y,1/2+z
1/2+x,1/2-y,1/2+z
loop_
_atom_site_type_symbol
_atom_site_label
_atom_site_fract_x
_atom_site_fract_y
_atom_site_fract_z
Si Si1 0.104781 0.417562 0.315056
Si Si2 0.456519 0.908816 0.439271
Si Si3 0.954370 0.091635 0.259072
Si Si4 0.500000 0.500000 0.500000
Si Si5 0.214835 0.174129 0.174414
Si Si6 0.704242 0.283059 0.938486
Si Si7 0.355195 0.333134 0.864552
Si Si8 0.898569 0.119200 0.094005
O O1 0.242674 0.396270 0.266655
O O2 0.245217 0.418908 0.365513
O O3 0.000000 0.500000 0.306875
O O4 0.934087 0.356164 0.323306
O O5 0.398249 0.896467 0.500000
O O6 0.645178 0.854478 0.430301
O O7 0.287143 0.882719 0.400793
O O8 0.500000 0.000000 0.432215
O O9 0.952724 0.115590 0.319271
O O10 0.103501 0.145135 0.226255
O O11 0.000000 0.000000 0.251647
O O12 0.438828 0.436606 0.454227
O O13 0.229341 0.265859 0.163963
O O14 0.094872 0.135743 0.126708
O O15 0.518464 0.294894 0.901611
O O16 0.811461 0.202265 0.924167
O O17 0.650145 0.281757 0.000000
#
# Coordination Sequence:
#
# PCOD9445435 Si02
#       8
#     8   8   8   2   8   8   8   8
#     4  11  22  44  66  90 133 181 216 266 338 395
#     4  10  24  46  70  98 134 175 218 279 350 398
#     4  11  27  43  65  98 132 169 225 283 332 390
#     4  12  24  40  70 100 142 172 224 276 310 382
#     4  11  24  44  66  93 136 177 217 273 337 395
#     4  11  23  44  67  96 138 173 219 274 334 395
#     4  12  26  42  70 100 127 178 227 276 329 414
#     4  11  23  42  65 101 134 178 224 269 320 396
#
# _framework density 19.273150999999999
#
# number of rings (size 3 to 8) (size 9 to 14) (size 15 to 20)
#    0.000    0.966    4.828    1.241    5.793    1.655 
#    1.241    5.172    0.000    0.000    0.000    0.000 
#    0.000    0.000    0.000    0.000    0.000    0.000 
#
# Total GULP energy -323730.434232 kJ/mol
# GULP energy per Si atom -5581.559211 kJ/mol
# Density = 1.922928 g / cm^3
# Si number density = 19.273151 Si / 1000 Ang^3
#
#
#
# Elastic Constant Matrix: (Units=GPa)
#
#
# Indices 1 2 3 4 5 6 
#
# 1 91.8519 32.8466 59.0632 0.0000 0.0000 0.0000
# 2 32.8466 87.1009 51.3969 0.0000 0.0000 0.0000
# 3 59.0632 51.3969 115.4168 0.0000 0.0000 0.0000
# 4 0.0000 0.0000 0.0000 28.1011 0.0000 0.0000
# 5 0.0000 0.0000 0.0000 0.0000 12.5098 0.0000
# 6 0.0000 0.0000 0.0000 0.0000 0.0000 24.9624
#
#
#
# Elastic Compliance Matrix: (Units=1/GPa)
#
#
# Indices 1 2 3 4 5 6 
#
# 1 0.016404 -0.001672 -0.007650 0.000000 0.000000 0.000000
# 2 -0.001672 0.015744 -0.006155 0.000000 0.000000 0.000000
# 3 -0.007650 -0.006155 0.015320 0.000000 0.000000 0.000000
# 4 0.000000 0.000000 0.000000 0.035586 0.000000 0.000000
# 5 0.000000 0.000000 0.000000 0.000000 0.079937 0.000000
# 6 0.000000 0.000000 0.000000 0.000000 0.000000 0.040060
#
#
# Mechanical properties :
#
#
# Convention : Reuss Voigt Hill
#
# Bulk Modulus (GPa) = 60.55739 64.55367 62.55553
# Shear Modulus (GPa) = 20.87591 23.18552 22.03072
#
# Velocity S-wave (km/s) = 3.29471 3.47219 3.38461
# Velocity P-wave (km/s) = 6.77955 7.04568 6.91389
#
# Compressibility (1/GPa) = 0.01651326
#
# Stress axis : x y z
#
# Youngs Moduli (GPa) = 60.95990 63.51799 65.27359
#
# Poissons Ratio (x) = 0.10620 0.49935
# Poissons Ratio (y) = 0.10192 0.40177
# Poissons Ratio (z) = 0.46635 0.39097
#
# Static dielectric constant tensor:
#      x y z
#    x 1.652160 0.000000 0.000000 
#    y 0.000000 1.673030 0.000000 
#    z 0.000000 0.000000 1.646640 
# 
# From -- ./inp_files/32957.got.cif
#   From: 2010.05.17/outbox.cif.g08.bks.cpg/sg58_17_cif.got.tgz:32957.got - 2010.06.03 14:20:14.
