data_PCOD9445690
_publ_section_title
;
Structure prediction by ZEFSAII (Michael W. Deem and Ramdas Pophale) SiO2 
 PCOD9445690
Probable space group: P N N M
;
_chemical_formula_sum "Si O2"
_cell_formula_units_Z 58
_cell_length_a 7.978605
_cell_length_b 17.389275
_cell_length_c 16.765786
_cell_angle_alpha 90.000000
_cell_angle_beta 90.000000
_cell_angle_gamma 90.000000
_cell_volume 2326.121304
_symmetry_space_group_name_H-M "P N N M"
_symmetry_group_IT_number 58
_symmetry_cell_setting 'orthorhombic'
loop_
_space_group_symop_operation_xyz
x,y,z
-x,-y,z
1/2+x,1/2-y,1/2-z
1/2-x,1/2+y,1/2-z
-x,-y,-z
x,y,-z
1/2-x,1/2+y,1/2+z
1/2+x,1/2-y,1/2+z
loop_
_atom_site_type_symbol
_atom_site_label
_atom_site_fract_x
_atom_site_fract_y
_atom_site_fract_z
Si Si1 0.500000 0.500000 0.500000
Si Si2 0.778794 0.465574 0.907559
Si Si3 0.303292 0.232696 0.090816
Si Si4 0.861587 0.816711 0.371980
Si Si5 0.303405 0.981473 0.868607
Si Si6 0.344869 0.330220 0.404669
Si Si7 0.167346 0.120443 0.802465
Si Si8 0.388510 0.878811 0.597034
O O1 0.654073 0.497272 0.568198
O O2 0.636003 0.403116 0.905657
O O3 0.762763 0.552225 0.878089
O O4 0.936150 0.415570 0.874327
O O5 0.821769 0.477127 0.000000
O O6 0.478772 0.274806 0.093214
O O7 0.313614 0.160045 0.147005
O O8 0.172535 0.296036 0.124769
O O9 0.259202 0.211295 0.000000
O O10 0.710310 0.758098 0.393820
O O11 0.860752 0.834008 0.278559
O O12 0.229690 0.032283 0.794476
O O13 0.500000 0.000000 0.884550
O O14 0.291545 0.888966 0.868706
O O15 0.367160 0.344599 0.500000
O O16 0.509053 0.358224 0.358112
O O17 0.393588 0.869125 0.500000
#
# Coordination Sequence:
#
# PCOD9445690 Si02
#       8
#     2   8   8   8   8   8   8   8
#     4  12  22  48  76 122 144 188 250 328 364 430
#     4   9  17  37  63  89 126 172 232 287 347 432
#     4  11  23  40  65  97 131 179 239 295 358 436
#     4  12  26  42  62 104 141 183 232 299 384 440
#     4  12  25  46  77 110 148 193 253 308 369 443
#     4  12  24  46  76 103 140 193 256 311 361 440
#     4  12  26  47  65 101 149 192 237 303 385 447
#     4   8  17  35  60  91 120 165 227 289 345 415
#
# _framework density 24.934208999999999
#
# number of rings (size 3 to 8) (size 9 to 14) (size 15 to 20)
#    0.000    1.103    2.069    5.172    0.966    1.655 
#    9.931    2.069    0.000    0.000    0.000    0.000 
#    0.000    0.000    0.000    0.000    0.000    0.000 
#
# Total GULP energy -323119.769973 kJ/mol
# GULP energy per Si atom -5571.030517 kJ/mol
# Density = 2.487746 g / cm^3
# Si number density = 24.934209 Si / 1000 Ang^3
#
#
#
# Elastic Constant Matrix: (Units=GPa)
#
#
# Indices 1 2 3 4 5 6 
#
# 1 105.3837 6.8177 -3.6327 0.0000 0.0000 0.0000
# 2 6.8177 86.6982 30.2898 0.0000 0.0000 0.0000
# 3 -3.6327 30.2898 86.5600 0.0000 0.0000 0.0000
# 4 0.0000 0.0000 0.0000 67.8323 0.0000 0.0000
# 5 0.0000 0.0000 0.0000 0.0000 18.9498 0.0000
# 6 0.0000 0.0000 0.0000 0.0000 0.0000 42.0052
#
#
#
# Elastic Compliance Matrix: (Units=1/GPa)
#
#
# Indices 1 2 3 4 5 6 
#
# 1 0.009581 -0.001018 0.000758 0.000000 0.000000 0.000000
# 2 -0.001018 0.013249 -0.004679 0.000000 0.000000 0.000000
# 3 0.000758 -0.004679 0.013222 0.000000 0.000000 0.000000
# 4 0.000000 0.000000 0.000000 0.014742 0.000000 0.000000
# 5 0.000000 0.000000 0.000000 0.000000 0.052771 0.000000
# 6 0.000000 0.000000 0.000000 0.000000 0.000000 0.023807
#
#
# Mechanical properties :
#
#
# Convention : Reuss Voigt Hill
#
# Bulk Modulus (GPa) = 38.20556 38.39906 38.30231
# Shear Modulus (GPa) = 34.25255 42.10193 38.17724
#
# Velocity S-wave (km/s) = 3.71039 4.11362 3.91720
# Velocity P-wave (km/s) = 5.80619 6.16409 5.98782
#
# Compressibility (1/GPa) = 0.02617420
#
# Stress axis : x y z
#
# Youngs Moduli (GPa) = 104.37144 75.47714 75.63261
#
# Poissons Ratio (x) = 0.07687 -0.05737
# Poissons Ratio (y) = 0.10629 0.35388
# Poissons Ratio (z) = -0.07916 0.35315
#
# Static dielectric constant tensor:
#      x y z
#    x 2.122710 0.000000 0.000000 
#    y 0.000000 2.106090 0.000000 
#    z 0.000000 0.000000 1.995450 
# 
# From -- ./inp_files/25544.got.cif
#   From: 2010.05.17/outbox.cif.g08.bks.cpg/sg58_13_cif.got.tgz:25544.got - 2010.06.03 14:20:14.
