data_PCOD9445554
_publ_section_title
;
Structure prediction by ZEFSAII (Michael W. Deem and Ramdas Pophale) SiO2 
 PCOD9445554
Probable space group: P N N M
;
_chemical_formula_sum "Si O2"
_cell_formula_units_Z 48
_cell_length_a 17.106835
_cell_length_b 18.439881
_cell_length_c 8.603377
_cell_angle_alpha 90.000000
_cell_angle_beta 90.000000
_cell_angle_gamma 90.000000
_cell_volume 2713.918082
_symmetry_space_group_name_H-M "P N N M"
_symmetry_group_IT_number 58
_symmetry_cell_setting 'orthorhombic'
loop_
_space_group_symop_operation_xyz
x,y,z
-x,-y,z
1/2+x,1/2-y,1/2-z
1/2-x,1/2+y,1/2-z
-x,-y,-z
x,y,-z
1/2-x,1/2+y,1/2+z
1/2+x,1/2-y,1/2+z
loop_
_atom_site_type_symbol
_atom_site_label
_atom_site_fract_x
_atom_site_fract_y
_atom_site_fract_z
Si Si1 0.166074 0.170509 0.312960
Si Si2 0.412261 0.519609 0.187826
Si Si3 0.178267 0.589804 0.187602
Si Si4 0.147561 0.329466 0.185988
Si Si5 0.259309 0.446761 0.315244
Si Si6 0.494861 0.083923 0.689076
O O1 0.161918 0.177870 0.500000
O O2 0.112311 0.101719 0.267819
O O3 0.254343 0.146545 0.270732
O O4 0.145498 0.246210 0.236182
O O5 0.500000 0.500000 0.237207
O O6 0.345542 0.466338 0.252759
O O7 0.408565 0.515883 0.000000
O O8 0.203936 0.512305 0.255431
O O9 0.091033 0.611018 0.236182
O O10 0.179210 0.581914 0.000000
O O11 0.221769 0.372600 0.253478
O O12 0.068795 0.370038 0.243050
O O13 0.150429 0.334916 0.000000
O O14 0.260515 0.446308 0.500000
O O15 0.497324 0.084824 0.500000
O O16 0.500000 0.000000 0.737273
#
# Coordination Sequence:
#
# PCOD9445554 Si02
#       6
#     8   8   8   8   8   8
#     4   9  19  35  55  79 111 142 174 224 278 326
#     4   9  19  39  64  83 106 145 188 225 274 336
#     4   9  17  35  58  77 103 142 182 216 270 335
#     4  11  21  35  55  78 110 148 186 224 273 333
#     4  11  21  33  54  82 111 140 180 227 272 320
#     4   9  16  30  56  82 102 134 183 225 260 320
#
# _framework density 17.686606000000001
#
# number of rings (size 3 to 8) (size 9 to 14) (size 15 to 20)
#    0.000    2.333    1.667    3.000    0.000    3.000 
#    3.000    2.500    0.000    0.000    0.000    0.000 
#    0.000    0.000    0.000    0.000    0.000    0.000 
#
# Total GULP energy -267740.625164 kJ/mol
# GULP energy per Si atom -5577.929691 kJ/mol
# Density = 1.764635 g / cm^3
# Si number density = 17.686606 Si / 1000 Ang^3
#
#
#
# Elastic Constant Matrix: (Units=GPa)
#
#
# Indices 1 2 3 4 5 6 
#
# 1 166.8149 86.5206 33.7909 0.0000 0.0000 0.0000
# 2 86.5206 117.0342 29.6225 0.0000 0.0000 0.0000
# 3 33.7909 29.6225 25.2128 0.0000 0.0000 0.0000
# 4 0.0000 0.0000 0.0000 29.7024 0.0000 0.0000
# 5 0.0000 0.0000 0.0000 0.0000 -0.1174 0.0000
# 6 0.0000 0.0000 0.0000 0.0000 0.0000 21.1118
#
#
#
# Elastic Compliance Matrix: (Units=1/GPa)
#
#
# Indices 1 2 3 4 5 6 
#
# 1 0.010541 -0.006002 -0.007076 0.000000 0.000000 0.000000
# 2 -0.006002 0.015578 -0.010259 0.000000 0.000000 0.000000
# 3 -0.007076 -0.010259 0.061199 0.000000 0.000000 0.000000
# 4 0.000000 0.000000 0.000000 0.033667 0.000000 0.000000
# 5 0.000000 0.000000 0.000000 0.000000 -8.515584 0.000000
# 6 0.000000 0.000000 0.000000 0.000000 0.000000 0.047367
#
#
# Mechanical properties :
#
#
# Convention : Reuss Voigt Hill
#
# Bulk Modulus (GPa) = 24.60339 67.65888 46.13113
# Shear Modulus (GPa) = -0.60335 20.74787 10.07226
#
# Velocity S-wave (km/s) = -0.58470 3.42875 2.38898
# Velocity P-wave (km/s) = 3.67221 7.34931 5.80937
#
# Compressibility (1/GPa) = 0.04064481
#
# Stress axis : x y z
#
# Youngs Moduli (GPa) = 94.86973 64.19295 16.34014
#
# Poissons Ratio (x) = 0.38526 0.11562
# Poissons Ratio (y) = 0.56937 0.16764
# Poissons Ratio (z) = 0.67128 0.65856
#
# Static dielectric constant tensor:
#      x y z
#    x 1.618420 0.000000 0.000000 
#    y 0.000000 1.574320 0.000000 
#    z 0.000000 0.000000 1.599100 
# 
# From -- ./inp_files/7869.got.cif
#   From: 2010.05.17/outbox.cif.g08.bks.cpg/sg58_4_cif.got.tgz:7869.got - 2010.06.03 14:20:14.
