data_PCOD9445836
_publ_section_title
;
Structure prediction by ZEFSAII (Michael W. Deem and Ramdas Pophale) SiO2 
 PCOD9445836
Probable space group: P N N M
;
_chemical_formula_sum "Si O2"
_cell_formula_units_Z 48
_cell_length_a 16.338167
_cell_length_b 10.040086
_cell_length_c 15.750459
_cell_angle_alpha 90.000000
_cell_angle_beta 90.000000
_cell_angle_gamma 90.000000
_cell_volume 2583.651771
_symmetry_space_group_name_H-M "P N N M"
_symmetry_group_IT_number 58
_symmetry_cell_setting 'orthorhombic'
loop_
_space_group_symop_operation_xyz
x,y,z
-x,-y,z
1/2+x,1/2-y,1/2-z
1/2-x,1/2+y,1/2-z
-x,-y,-z
x,y,-z
1/2-x,1/2+y,1/2+z
1/2+x,1/2-y,1/2+z
loop_
_atom_site_type_symbol
_atom_site_label
_atom_site_fract_x
_atom_site_fract_y
_atom_site_fract_z
Si Si1 0.530444 0.711868 0.343552
Si Si2 0.367059 0.563153 0.654656
Si Si3 0.544464 0.710159 0.848617
Si Si4 0.742458 0.525668 0.500000
Si Si5 0.250199 0.654018 0.000000
Si Si6 0.631776 0.426781 0.848282
Si Si7 0.420892 0.091850 0.000000
Si Si8 0.427226 0.105253 0.500000
O O1 0.580623 0.573739 0.345680
O O2 0.435484 0.676203 0.361338
O O3 0.544059 0.762902 0.247982
O O4 0.561796 0.807189 0.415860
O O5 0.299969 0.541298 0.582512
O O6 0.337496 0.587140 0.751073
O O7 0.601609 0.579447 0.856836
O O8 0.451124 0.659371 0.861506
O O9 0.572750 0.815553 0.917206
O O10 0.730652 0.686610 0.500000
O O11 0.838147 0.492818 0.500000
O O12 0.303016 0.617832 0.082738
O O13 0.167768 0.566206 0.000000
O O14 0.500000 0.000000 0.000000
O O15 0.500000 0.000000 0.500000
#
# Coordination Sequence:
#
# PCOD9445836 Si02
#       8
#     8   8   8   4   4   8   4   4
#     4   9  18  39  66  84 113 151 197 250 295 353
#     4   9  18  38  66  90 106 149 209 248 290 349
#     4   9  19  39  64  87 115 151 200 248 294 358
#     4  12  23  37  58  89 123 163 197 252 298 349
#     4  12  23  39  59  85 127 159 199 246 303 357
#     4   9  19  38  66  89 110 155 200 248 303 353
#     4  12  25  37  54  86 128 162 194 236 305 366
#     4  12  25  39  56  84 124 165 192 237 307 358
#
# _framework density 18.578354999999998
#
# number of rings (size 3 to 8) (size 9 to 14) (size 15 to 20)
#    0.000    2.000    1.667    4.500    0.000    4.667 
#    6.000    1.667    0.000    0.000    0.000    0.000 
#    0.000    0.000    0.000    0.000    0.000    0.000 
#
# Total GULP energy -267831.325373 kJ/mol
# GULP energy per Si atom -5579.819279 kJ/mol
# Density = 1.853607 g / cm^3
# Si number density = 18.578355 Si / 1000 Ang^3
#
#
#
# Elastic Constant Matrix: (Units=GPa)
#
#
# Indices 1 2 3 4 5 6 
#
# 1 99.7401 15.1639 72.5587 0.0000 0.0000 0.0000
# 2 15.1639 23.9208 25.7965 0.0000 0.0000 0.0000
# 3 72.5587 25.7965 115.0590 0.0000 0.0000 0.0000
# 4 0.0000 0.0000 0.0000 9.4378 0.0000 0.0000
# 5 0.0000 0.0000 0.0000 0.0000 13.6873 0.0000
# 6 0.0000 0.0000 0.0000 0.0000 0.0000 22.0101
#
#
#
# Elastic Compliance Matrix: (Units=1/GPa)
#
#
# Indices 1 2 3 4 5 6 
#
# 1 0.018547 0.001129 -0.011950 0.000000 0.000000 0.000000
# 2 0.001129 0.055204 -0.013089 0.000000 0.000000 0.000000
# 3 -0.011950 -0.013089 0.019161 0.000000 0.000000 0.000000
# 4 0.000000 0.000000 0.000000 0.105957 0.000000 0.000000
# 5 0.000000 0.000000 0.000000 0.000000 0.073060 0.000000
# 6 0.000000 0.000000 0.000000 0.000000 0.000000 0.045434
#
#
# Mechanical properties :
#
#
# Convention : Reuss Voigt Hill
#
# Bulk Modulus (GPa) = 22.17580 51.75088 36.96334
# Shear Modulus (GPa) = 13.15046 17.37375 15.26210
#
# Velocity S-wave (km/s) = 2.66341 3.06136 2.86929
# Velocity P-wave (km/s) = 4.62824 6.35703 5.56023
#
# Compressibility (1/GPa) = 0.04509419
#
# Stress axis : x y z
#
# Youngs Moduli (GPa) = 53.91582 18.11453 52.18828
#
# Poissons Ratio (x) = -0.02045 0.62363
# Poissons Ratio (y) = -0.06087 0.68309
# Poissons Ratio (z) = 0.64427 0.23710
#
# Static dielectric constant tensor:
#      x y z
#    x 1.638390 0.000000 0.000000 
#    y 0.000000 1.623940 0.000000 
#    z 0.000000 0.000000 1.647990 
# 
# From -- ./inp_files/26857.got.cif
#   From: 2010.05.17/outbox.cif.g08.bks.cpg/sg58_14_cif.got.tgz:26857.got - 2010.06.03 14:20:14.
