data_PCOD9445932
_publ_section_title
;
Structure prediction by ZEFSAII (Michael W. Deem and Ramdas Pophale) SiO2 
 PCOD9445932
Probable space group: P N N M
;
_chemical_formula_sum "Si O2"
_cell_formula_units_Z 56
_cell_length_a 21.000000
_cell_length_b 18.000000
_cell_length_c 9.000000
_cell_angle_alpha 90.000000
_cell_angle_beta 90.000000
_cell_angle_gamma 90.000000
_cell_volume 3402.000000
_symmetry_space_group_name_H-M "P N N M"
_symmetry_group_IT_number 58
_symmetry_cell_setting 'orthorhombic'
loop_
_space_group_symop_operation_xyz
x,y,z
-x,-y,z
1/2+x,1/2-y,1/2-z
1/2-x,1/2+y,1/2-z
-x,-y,-z
x,y,-z
1/2-x,1/2+y,1/2+z
1/2+x,1/2-y,1/2+z
loop_
_atom_site_type_symbol
_atom_site_label
_atom_site_fract_x
_atom_site_fract_y
_atom_site_fract_z
Si Si1 0.294062 0.849134 0.675314
Si Si2 0.770900 0.863368 0.822075
Si Si3 0.117296 0.227332 0.679128
Si Si4 0.669994 0.732882 0.821009
Si Si5 0.184770 0.523431 0.173996
Si Si6 0.949406 0.436137 0.321010
Si Si7 0.526228 0.765742 0.819761
O O1 0.299143 0.826991 0.500000
O O2 0.345124 0.801233 0.767037
O O3 0.220741 0.831374 0.721762
O O4 0.309725 0.935065 0.687673
O O5 0.837189 0.835969 0.750330
O O6 0.712911 0.805560 0.784632
O O7 0.744418 0.939389 0.756236
O O8 0.776891 0.865089 0.000000
O O9 0.119015 0.222378 0.500000
O O10 0.042330 0.230683 0.726458
O O11 0.596240 0.735317 0.766774
O O12 0.664362 0.731069 0.000000
O O13 0.118549 0.549417 0.246417
O O14 0.185832 0.543574 0.000000
O O15 0.941264 0.438432 0.500000
O O16 0.000000 0.500000 0.279521
O O17 0.973799 0.353580 0.282370
O O18 0.526744 0.760127 0.000000
#
# Coordination Sequence:
#
# PCOD9445932 Si02
#       7
#     8   8   8   8   8   8   8
#     4   9  19  33  49  70 100 135 168 207 251 301
#     4  10  19  34  54  71  96 134 172 206 250 310
#     4  10  19  31  51  77 102 125 162 213 253 294
#     4   8  14  29  51  69  88 123 170 205 237 292
#     4  11  21  32  48  74 104 131 169 217 261 297
#     4  10  19  31  48  72 103 139 173 199 245 317
#     4   9  16  28  48  73  97 127 165 205 245 298
#
# _framework density 16.460905
#
# number of rings (size 3 to 8) (size 9 to 14) (size 15 to 20)
#    0.000    2.429    1.429    3.000    0.000    2.571 
#    0.000    1.429    0.000    0.857    0.000    6.000 
#    0.000    0.000    0.000    0.000    0.000    0.000 
#
# Total GULP energy -311873.735911 kJ/mol
# GULP energy per Si atom -5569.173856 kJ/mol
# Density = 1.642344 g / cm^3
# Si number density = 16.460905 Si / 1000 Ang^3
#
#
#
# Elastic Constant Matrix: (Units=GPa)
#
#
# Indices 1 2 3 4 5 6 
#
# 1 139.9284 10.7740 16.4684 0.0000 0.0000 0.0000
# 2 10.7740 19.4928 8.6832 0.0000 0.0000 0.0000
# 3 16.4684 8.6832 33.6818 0.0000 0.0000 0.0000
# 4 0.0000 0.0000 0.0000 15.2524 0.0000 0.0000
# 5 0.0000 0.0000 0.0000 0.0000 30.3021 0.0000
# 6 0.0000 0.0000 0.0000 0.0000 0.0000 28.7282
#
#
#
# Elastic Compliance Matrix: (Units=1/GPa)
#
#
# Indices 1 2 3 4 5 6 
#
# 1 0.007728 -0.002924 -0.003025 0.000000 0.000000 0.000000
# 2 -0.002924 0.059063 -0.013797 0.000000 0.000000 0.000000
# 3 -0.003025 -0.013797 0.034725 0.000000 0.000000 0.000000
# 4 0.000000 0.000000 0.000000 0.065563 0.000000 0.000000
# 5 0.000000 0.000000 0.000000 0.000000 0.033001 0.000000
# 6 0.000000 0.000000 0.000000 0.000000 0.000000 0.034809
#
#
# Mechanical properties :
#
#
# Convention : Reuss Voigt Hill
#
# Bulk Modulus (GPa) = 16.12244 29.43934 22.78089
# Shear Modulus (GPa) = 16.94598 25.33504 21.14051
#
# Velocity S-wave (km/s) = 3.21201 3.92740 3.58758
# Velocity P-wave (km/s) = 4.85507 6.20396 5.57050
#
# Compressibility (1/GPa) = 0.06202536
#
# Stress axis : x y z
#
# Youngs Moduli (GPa) = 129.40619 16.93104 28.79741
#
# Poissons Ratio (x) = 0.04950 0.08710
# Poissons Ratio (y) = 0.37836 0.39732
# Poissons Ratio (z) = 0.39140 0.23360
#
# Static dielectric constant tensor:
#      x y z
#    x 1.555550 0.000000 0.000000 
#    y 0.000000 1.576740 0.000000 
#    z 0.000000 0.000000 1.557990 
# 
# From -- ./inp_files/8201.got.cif
#   From: 2010.05.17/outbox.ucp.g08.bks.cvg/sg58_5_cif.got.tgz:8201.got - 2010.06.11 16:41:41.
