data_PCOD9445783
_publ_section_title
;
Structure prediction by ZEFSAII (Michael W. Deem and Ramdas Pophale) SiO2 
 PCOD9445783
Probable space group: P N N M
;
_chemical_formula_sum "Si O2"
_cell_formula_units_Z 26
_cell_length_a 7.391837
_cell_length_b 9.069304
_cell_length_c 16.375764
_cell_angle_alpha 90.000000
_cell_angle_beta 90.000000
_cell_angle_gamma 90.000000
_cell_volume 1097.811844
_symmetry_space_group_name_H-M "P N N M"
_symmetry_group_IT_number 58
_symmetry_cell_setting 'orthorhombic'
loop_
_space_group_symop_operation_xyz
x,y,z
-x,-y,z
1/2+x,1/2-y,1/2-z
1/2-x,1/2+y,1/2-z
-x,-y,-z
x,y,-z
1/2-x,1/2+y,1/2+z
1/2+x,1/2-y,1/2+z
loop_
_atom_site_type_symbol
_atom_site_label
_atom_site_fract_x
_atom_site_fract_y
_atom_site_fract_z
Si Si1 0.500000 0.500000 0.000000
Si Si2 0.962981 0.825974 0.908306
Si Si3 0.795593 0.858826 0.655484
Si Si4 0.893036 0.366171 0.686422
O O1 0.362616 0.559292 0.925689
O O2 0.773384 0.802891 0.864256
O O3 0.136802 0.751701 0.869908
O O4 0.942365 0.770268 0.000000
O O5 0.000000 0.000000 0.908762
O O6 0.698257 0.937768 0.732352
O O7 0.963726 0.766516 0.693019
O O8 0.000000 0.500000 0.643415
#
# Coordination Sequence:
#
# PCOD9445783 Si02
#       4
#     2   8   8   8
#     4  12  32  48  78 112 166 202 260 322 400 480
#     4  11  24  45  72 108 149 192 254 322 381 450
#     4  12  27  49  73 114 156 204 255 321 396 466
#     4  12  27  46  78 108 147 204 262 314 386 472
#
# _framework density 23.683475999999999
#
# number of rings (size 3 to 8) (size 9 to 14) (size 15 to 20)
#    0.000    0.308    7.692    0.000    8.615    0.615 
#    0.000    2.308    0.000    0.000    0.000    0.000 
#    0.000    0.000    0.000    0.000    0.000    0.000 
#
# Total GULP energy -144854.998320 kJ/mol
# GULP energy per Si atom -5571.346089 kJ/mol
# Density = 2.362957 g / cm^3
# Si number density = 23.683476 Si / 1000 Ang^3
#
#
#
# Elastic Constant Matrix: (Units=GPa)
#
#
# Indices 1 2 3 4 5 6 
#
# 1 211.0682 36.1851 69.3660 0.0000 0.0000 0.0000
# 2 36.1851 25.4224 4.5149 0.0000 0.0000 0.0000
# 3 69.3660 4.5149 132.5511 0.0000 0.0000 0.0000
# 4 0.0000 0.0000 0.0000 18.2612 0.0000 0.0000
# 5 0.0000 0.0000 0.0000 0.0000 13.4697 0.0000
# 6 0.0000 0.0000 0.0000 0.0000 0.0000 49.0756
#
#
#
# Elastic Compliance Matrix: (Units=1/GPa)
#
#
# Indices 1 2 3 4 5 6 
#
# 1 0.007722 -0.010336 -0.003689 0.000000 0.000000 0.000000
# 2 -0.010336 0.053410 0.003590 0.000000 0.000000 0.000000
# 3 -0.003689 0.003590 0.009353 0.000000 0.000000 0.000000
# 4 0.000000 0.000000 0.000000 0.054761 0.000000 0.000000
# 5 0.000000 0.000000 0.000000 0.000000 0.074241 0.000000
# 6 0.000000 0.000000 0.000000 0.000000 0.000000 0.020377
#
#
# Mechanical properties :
#
#
# Convention : Reuss Voigt Hill
#
# Bulk Modulus (GPa) = 20.15564 65.46374 42.80969
# Shear Modulus (GPa) = 19.43468 33.42635 26.43052
#
# Velocity S-wave (km/s) = 2.86772 3.76091 3.34427
# Velocity P-wave (km/s) = 4.41520 6.82351 5.74693
#
# Compressibility (1/GPa) = 0.04961390
#
# Stress axis : x y z
#
# Youngs Moduli (GPa) = 129.49627 18.72305 106.92286
#
# Poissons Ratio (x) = 0.19353 0.39445
# Poissons Ratio (y) = 1.33851 -0.38384
# Poissons Ratio (z) = 0.47772 -0.06721
#
# Static dielectric constant tensor:
#      x y z
#    x 1.878160 0.000000 0.000000 
#    y 0.000000 2.029150 0.000000 
#    z 0.000000 0.000000 1.915160 
# 
# From -- ./inp_files/23957.got.cif
#   From: 2010.05.17/outbox.cif.g08.bks.cpg/sg58_12_cif.got.tgz:23957.got - 2010.06.03 14:20:14.
