data_PCOD9445418
_publ_section_title
;
Structure prediction by ZEFSAII (Michael W. Deem and Ramdas Pophale) SiO2 
 PCOD9445418
Probable space group: P N N M
;
_chemical_formula_sum "Si O2"
_cell_formula_units_Z 32
_cell_length_a 8.080578
_cell_length_b 7.289706
_cell_length_c 22.726005
_cell_angle_alpha 90.000000
_cell_angle_beta 90.000000
_cell_angle_gamma 90.000000
_cell_volume 1338.676187
_symmetry_space_group_name_H-M "P N N M"
_symmetry_group_IT_number 58
_symmetry_cell_setting 'orthorhombic'
loop_
_space_group_symop_operation_xyz
x,y,z
-x,-y,z
1/2+x,1/2-y,1/2-z
1/2-x,1/2+y,1/2-z
-x,-y,-z
x,y,-z
1/2-x,1/2+y,1/2+z
1/2+x,1/2-y,1/2+z
loop_
_atom_site_type_symbol
_atom_site_label
_atom_site_fract_x
_atom_site_fract_y
_atom_site_fract_z
Si Si1 0.163561 0.884347 0.879706
Si Si2 0.688048 0.771100 0.160854
Si Si3 0.700616 0.481129 0.065656
Si Si4 0.505090 0.220439 0.264778
O O1 0.228546 0.719160 0.919613
O O2 0.693728 0.964341 0.871624
O O3 0.111523 0.801347 0.816207
O O4 0.000000 0.000000 0.900098
O O5 0.755411 0.619897 0.116403
O O6 0.526666 0.720143 0.197544
O O7 0.817266 0.789167 0.214203
O O8 0.500000 0.500000 0.067003
O O9 0.754364 0.535099 0.000000
O O10 0.500000 0.000000 0.265533
#
# Coordination Sequence:
#
# PCOD9445418 Si02
#       4
#     8   8   8   8
#     4  10  24  44  69 107 143 186 242 305 370 444
#     4  11  25  42  71 104 142 190 238 303 372 446
#     4  11  27  48  71 103 147 197 248 304 369 448
#     4  11  22  41  66 107 143 181 232 300 377 437
#
# _framework density 23.904215000000001
#
# number of rings (size 3 to 8) (size 9 to 14) (size 15 to 20)
#    0.000    1.250    2.500    1.500    7.000    2.500 
#    0.000   11.250    0.000    0.000    0.000    0.000 
#    0.000    0.000    0.000    0.000    0.000    0.000 
#
# Total GULP energy -179009.756794 kJ/mol
# GULP energy per Si atom -5594.054900 kJ/mol
# Density = 2.384981 g / cm^3
# Si number density = 23.904215 Si / 1000 Ang^3
#
#
#
# Elastic Constant Matrix: (Units=GPa)
#
#
# Indices 1 2 3 4 5 6 
#
# 1 71.0038 23.5481 30.8003 0.0000 0.0000 0.0000
# 2 23.5481 155.5689 46.3394 0.0000 0.0000 0.0000
# 3 30.8003 46.3394 118.4840 0.0000 0.0000 0.0000
# 4 0.0000 0.0000 0.0000 548.4785 0.0000 0.0000
# 5 0.0000 0.0000 0.0000 0.0000 2.6255 0.0000
# 6 0.0000 0.0000 0.0000 0.0000 0.0000 28.7501
#
#
#
# Elastic Compliance Matrix: (Units=1/GPa)
#
#
# Indices 1 2 3 4 5 6 
#
# 1 0.016120 -0.001349 -0.003663 0.000000 0.000000 0.000000
# 2 -0.001349 0.007389 -0.002539 0.000000 0.000000 0.000000
# 3 -0.003663 -0.002539 0.010385 0.000000 0.000000 0.000000
# 4 0.000000 0.000000 0.000000 0.001823 0.000000 0.000000
# 5 0.000000 0.000000 0.000000 0.000000 0.380875 0.000000
# 6 0.000000 0.000000 0.000000 0.000000 0.000000 0.034782
#
#
# Mechanical properties :
#
#
# Convention : Reuss Voigt Hill
#
# Bulk Modulus (GPa) = 53.21418 60.71470 56.96444
# Shear Modulus (GPa) = 10.57664 132.26208 71.41936
#
# Velocity S-wave (km/s) = 2.10575 7.44649 5.47194
# Velocity P-wave (km/s) = 5.31244 9.96934 7.98780
#
# Compressibility (1/GPa) = 0.01879198
#
# Stress axis : x y z
#
# Youngs Moduli (GPa) = 62.03467 135.34533 96.29146
#
# Poissons Ratio (x) = 0.18258 0.35270
# Poissons Ratio (y) = 0.08368 0.24448
# Poissons Ratio (z) = 0.22722 0.34364
#
# Static dielectric constant tensor:
#      x y z
#    x 2.077880 0.000000 0.000000 
#    y 0.000000 1.892150 0.000000 
#    z 0.000000 0.000000 1.873060 
# 
# From -- ./inp_files/28460.got.cif
#   From: 2010.05.17/outbox.cif.g08.bks.cpg/sg58_15_cif.got.tgz:28460.got - 2010.06.03 14:20:14.
