data_PCOD9445665
_publ_section_title
;
Structure prediction by ZEFSAII (Michael W. Deem and Ramdas Pophale) SiO2 
 PCOD9445665
Probable space group: P N N M
;
_chemical_formula_sum "Si O2"
_cell_formula_units_Z 58
_cell_length_a 17.148780
_cell_length_b 9.084119
_cell_length_c 17.847759
_cell_angle_alpha 90.000000
_cell_angle_beta 90.000000
_cell_angle_gamma 90.000000
_cell_volume 2780.351708
_symmetry_space_group_name_H-M "P N N M"
_symmetry_group_IT_number 58
_symmetry_cell_setting 'orthorhombic'
loop_
_space_group_symop_operation_xyz
x,y,z
-x,-y,z
1/2+x,1/2-y,1/2-z
1/2-x,1/2+y,1/2-z
-x,-y,-z
x,y,-z
1/2-x,1/2+y,1/2+z
1/2+x,1/2-y,1/2+z
loop_
_atom_site_type_symbol
_atom_site_label
_atom_site_fract_x
_atom_site_fract_y
_atom_site_fract_z
Si Si1 0.253282 0.638753 0.188601
Si Si2 0.036748 0.359118 0.848660
Si Si3 0.603624 0.650858 0.299648
Si Si4 0.153590 0.415097 0.721895
Si Si5 0.368140 0.427247 0.874491
Si Si6 0.000000 0.000000 0.500000
Si Si7 0.368024 0.602293 0.415086
Si Si8 0.819429 0.402629 0.584211
O O1 0.179498 0.748225 0.178495
O O2 0.222607 0.516590 0.245806
O O3 0.319215 0.747237 0.219848
O O4 0.295615 0.542661 0.124833
O O5 0.082698 0.426780 0.778121
O O6 0.097642 0.262389 0.895737
O O7 0.000000 0.500000 0.890074
O O8 0.970702 0.251436 0.816926
O O9 0.606982 0.594581 0.213419
O O10 0.601151 0.512831 0.354768
O O11 0.141085 0.482003 0.640337
O O12 0.342899 0.263170 0.896885
O O13 0.433133 0.478107 0.933078
O O14 0.390672 0.562513 0.500000
O O15 0.274321 0.594366 0.410362
O O16 0.842425 0.438926 0.500000
#
# Coordination Sequence:
#
# PCOD9445665 Si02
#       8
#     8   8   8   8   8   2   8   8
#     4  12  22  41  76 100 136 185 251 311 355 443
#     4  12  25  40  68 105 141 178 232 301 378 446
#     4  12  25  44  75 103 139 195 241 310 374 450
#     4  12  22  43  70 110 136 181 253 307 374 442
#     4  12  25  48  71 103 148 193 257 297 370 455
#     4  12  32  48  68 114 162 214 236 314 400 464
#     4  11  26  46  71 104 138 185 241 302 386 447
#     4  11  22  45  72 100 141 194 245 312 365 437
#
# _framework density 20.860669000000001
#
# number of rings (size 3 to 8) (size 9 to 14) (size 15 to 20)
#    0.000    0.276    6.207    2.897    3.862    1.379 
#    2.483    0.000    0.000    2.069    0.000    0.000 
#    0.000    0.000    0.000    0.000    0.000    0.000 
#
# Total GULP energy -323629.791885 kJ/mol
# GULP energy per Si atom -5579.823998 kJ/mol
# Density = 2.081319 g / cm^3
# Si number density = 20.860669 Si / 1000 Ang^3
#
#
#
# Elastic Constant Matrix: (Units=GPa)
#
#
# Indices 1 2 3 4 5 6 
#
# 1 30.8346 14.9399 47.5539 0.0000 0.0000 0.0000
# 2 14.9399 85.7927 43.2873 0.0000 0.0000 0.0000
# 3 47.5539 43.2873 141.0392 0.0000 0.0000 0.0000
# 4 0.0000 0.0000 0.0000 21.0846 0.0000 0.0000
# 5 0.0000 0.0000 0.0000 0.0000 -1.8736 0.0000
# 6 0.0000 0.0000 0.0000 0.0000 0.0000 28.3657
#
#
#
# Elastic Compliance Matrix: (Units=1/GPa)
#
#
# Indices 1 2 3 4 5 6 
#
# 1 0.067571 -0.000321 -0.022684 0.000000 0.000000 0.000000
# 2 -0.000321 0.013793 -0.004125 0.000000 0.000000 0.000000
# 3 -0.022684 -0.004125 0.016005 0.000000 0.000000 0.000000
# 4 0.000000 0.000000 0.000000 0.047428 0.000000 0.000000
# 5 0.000000 0.000000 0.000000 0.000000 -0.533736 0.000000
# 6 0.000000 0.000000 0.000000 0.000000 0.000000 0.035254
#
#
# Mechanical properties :
#
#
# Convention : Reuss Voigt Hill
#
# Bulk Modulus (GPa) = 23.19772 52.13653 37.66712
# Shear Modulus (GPa) = -17.54044 19.64103 1.05030
#
# Velocity S-wave (km/s) = -2.90287 3.07177 0.71033
# Velocity P-wave (km/s) = 0.30175 6.13417 4.33226
#
# Compressibility (1/GPa) = 0.04310769
#
# Stress axis : x y z
#
# Youngs Moduli (GPa) = 14.79934 72.49903 62.48201
#
# Poissons Ratio (x) = 0.02330 1.41734
# Poissons Ratio (y) = 0.00476 0.25774
# Poissons Ratio (z) = 0.33571 0.29906
#
# Static dielectric constant tensor:
#      x y z
#    x 1.752820 0.000000 0.000000 
#    y 0.000000 1.745280 0.000000 
#    z 0.000000 0.000000 1.743490 
# 
# From -- ./inp_files/27298.got.cif
#   From: 2010.05.17/outbox.cif.g08.bks.cpg/sg58_14_cif.got.tgz:27298.got - 2010.06.03 14:20:14.
