data_PCOD9445494
_publ_section_title
;
Structure prediction by ZEFSAII (Michael W. Deem and Ramdas Pophale) SiO2 
 PCOD9445494
Probable space group: P N N M
;
_chemical_formula_sum "Si O2"
_cell_formula_units_Z 32
_cell_length_a 8.327820
_cell_length_b 8.424650
_cell_length_c 17.603960
_cell_angle_alpha 90.000000
_cell_angle_beta 90.000000
_cell_angle_gamma 90.000000
_cell_volume 1235.075680
_symmetry_space_group_name_H-M "P N N M"
_symmetry_group_IT_number 58
_symmetry_cell_setting 'orthorhombic'
loop_
_space_group_symop_operation_xyz
x,y,z
-x,-y,z
1/2+x,1/2-y,1/2-z
1/2-x,1/2+y,1/2-z
-x,-y,-z
x,y,-z
1/2-x,1/2+y,1/2+z
1/2+x,1/2-y,1/2+z
loop_
_atom_site_type_symbol
_atom_site_label
_atom_site_fract_x
_atom_site_fract_y
_atom_site_fract_z
Si Si1 0.756457 0.563635 0.613148
Si Si2 0.243239 0.434368 0.207901
Si Si3 0.575955 0.253301 0.583159
Si Si4 0.546741 0.336161 0.872075
O O1 0.783668 0.552475 0.703652
O O2 0.715051 0.388392 0.584515
O O3 0.593023 0.658276 0.592968
O O4 0.903694 0.675462 0.587506
O O5 0.109837 0.358690 0.154371
O O6 0.297466 0.604391 0.174819
O O7 0.403505 0.329342 0.189195
O O8 0.582324 0.174905 0.500000
O O9 0.500000 0.500000 0.916110
#
# Coordination Sequence:
#
# PCOD9445494 Si02
#       4
#     8   8   8   8
#     4  11  18  37  65  87 124 169 207 257 310 382
#     4   9  19  38  60  91 121 165 209 253 309 389
#     4  11  24  39  61  97 128 156 208 274 328 361
#     4   8  20  37  55  83 118 153 216 251 296 368
#
# _framework density 25.909341999999999
#
# number of rings (size 3 to 8) (size 9 to 14) (size 15 to 20)
#    1.500    0.500    0.000    7.500    0.000    2.000 
#    0.000   15.000    0.000    0.000    0.000    0.000 
#    0.000    0.000    0.000    0.000    0.000    0.000 
#
# Total GULP energy -178635.946617 kJ/mol
# GULP energy per Si atom -5582.373332 kJ/mol
# Density = 2.585037 g / cm^3
# Si number density = 25.909342 Si / 1000 Ang^3
#
#
#
# Elastic Constant Matrix: (Units=GPa)
#
#
# Indices 1 2 3 4 5 6 
#
# 1 68.9048 26.4078 1.4980 0.0000 0.0000 0.0000
# 2 26.4078 104.6855 17.4779 0.0000 0.0000 0.0000
# 3 1.4980 17.4779 187.1517 0.0000 0.0000 0.0000
# 4 0.0000 0.0000 0.0000 -9.1580 0.0000 0.0000
# 5 0.0000 0.0000 0.0000 0.0000 201.4349 0.0000
# 6 0.0000 0.0000 0.0000 0.0000 0.0000 69.2560
#
#
#
# Elastic Compliance Matrix: (Units=1/GPa)
#
#
# Indices 1 2 3 4 5 6 
#
# 1 0.016078 -0.004098 0.000254 0.000000 0.000000 0.000000
# 2 -0.004098 0.010748 -0.000971 0.000000 0.000000 0.000000
# 3 0.000254 -0.000971 0.005432 0.000000 0.000000 0.000000
# 4 0.000000 0.000000 0.000000 -0.109194 0.000000 0.000000
# 5 0.000000 0.000000 0.000000 0.000000 0.004964 0.000000
# 6 0.000000 0.000000 0.000000 0.000000 0.000000 0.014439
#
#
# Mechanical properties :
#
#
# Convention : Reuss Voigt Hill
#
# Bulk Modulus (GPa) = 44.19331 50.16771 47.18051
# Shear Modulus (GPa) = -123.88670 73.33047 -25.27811
#
# Velocity S-wave (km/s) = -6.92237 5.32580 -3.12691
# Velocity P-wave (km/s) = 6.84094 7.56463 2.28312
#
# Compressibility (1/GPa) = 0.02262786
#
# Stress axis : x y z
#
# Youngs Moduli (GPa) = 62.19722 93.03759 184.09753
#
# Poissons Ratio (x) = 0.38129 -0.04677
# Poissons Ratio (y) = 0.25490 0.17875
# Poissons Ratio (z) = -0.01580 0.09034
#
# Static dielectric constant tensor:
#      x y z
#    x 2.073510 0.000000 0.000000 
#    y 0.000000 2.125230 0.000000 
#    z 0.000000 0.000000 2.033370 
# 
# From -- ./inp_files/24854.got.cif
#   From: 2010.05.17/outbox.cif.g08.bks.cpg/sg58_13_cif.got.tgz:24854.got - 2010.06.03 14:20:14.
