data_PCOD9445702
_publ_section_title
;
Structure prediction by ZEFSAII (Michael W. Deem and Ramdas Pophale) SiO2 
 PCOD9445702
Probable space group: P N N M
;
_chemical_formula_sum "Si O2"
_cell_formula_units_Z 64
_cell_length_a 14.895221
_cell_length_b 23.871099
_cell_length_c 8.791626
_cell_angle_alpha 90.000000
_cell_angle_beta 90.000000
_cell_angle_gamma 90.000000
_cell_volume 3125.997093
_symmetry_space_group_name_H-M "P N N M"
_symmetry_group_IT_number 58
_symmetry_cell_setting 'orthorhombic'
loop_
_space_group_symop_operation_xyz
x,y,z
-x,-y,z
1/2+x,1/2-y,1/2-z
1/2-x,1/2+y,1/2-z
-x,-y,-z
x,y,-z
1/2-x,1/2+y,1/2+z
1/2+x,1/2-y,1/2+z
loop_
_atom_site_type_symbol
_atom_site_label
_atom_site_fract_x
_atom_site_fract_y
_atom_site_fract_z
Si Si1 0.874757 0.735046 0.819572
Si Si2 0.272610 0.447722 0.817260
Si Si3 0.813071 0.177646 0.684521
Si Si4 0.604430 0.997580 0.181002
Si Si5 0.664403 0.882711 0.673685
Si Si6 0.373541 0.645516 0.172021
Si Si7 0.563730 0.778418 0.182054
Si Si8 0.409570 0.535601 0.326617
O O1 0.780744 0.707321 0.770013
O O2 0.875044 0.800432 0.777407
O O3 0.962404 0.712049 0.735916
O O4 0.883286 0.726961 0.000000
O O5 0.309709 0.386978 0.765856
O O6 0.170856 0.458475 0.761984
O O7 0.333577 0.497259 0.750119
O O8 0.275110 0.450355 0.000000
O O9 0.814621 0.176722 0.500000
O O10 0.895325 0.217907 0.731641
O O11 0.638622 0.936184 0.227453
O O12 0.500000 0.000000 0.226207
O O13 0.610459 0.005788 0.000000
O O14 0.632485 0.890567 0.500000
O O15 0.771142 0.875549 0.668824
O O16 0.623647 0.826691 0.744398
O O17 0.426922 0.592830 0.236349
O O18 0.402134 0.660490 0.000000
O O19 0.569489 0.781399 0.000000
O O20 0.500000 0.500000 0.328289
O O21 0.382362 0.548916 0.500000
#
# Coordination Sequence:
#
# PCOD9445702 Si02
#       8
#     8   8   8   8   8   8   8   8
#     4  11  23  42  65  94 128 168 211 260 315 374
#     4  11  23  42  65  92 125 168 212 257 310 377
#     4   9  22  42  63  88 125 166 204 251 314 371
#     4  11  25  43  64  94 128 166 209 261 320 377
#     4  11  23  41  66  95 124 164 213 263 316 377
#     4  11  23  41  66  95 124 164 213 263 316 377
#     4  11  23  42  65  94 128 168 211 260 315 374
#     4  11  25  43  64  94 128 166 209 261 320 377
#
# _framework density 20.473469000000001
#
# number of rings (size 3 to 8) (size 9 to 14) (size 15 to 20)
#    0.000    1.250    2.500    2.625    3.500    3.000 
#    0.000    3.750    0.000    0.000    0.000    0.000 
#    0.000    0.000    0.000    0.000    0.000    0.000 
#
# Total GULP energy -357819.428087 kJ/mol
# GULP energy per Si atom -5590.928564 kJ/mol
# Density = 2.042687 g / cm^3
# Si number density = 20.473469 Si / 1000 Ang^3
#
#
#
# Elastic Constant Matrix: (Units=GPa)
#
#
# Indices 1 2 3 4 5 6 
#
# 1 44.2270 -20.7590 11.7396 0.0000 0.0000 0.0000
# 2 -20.7590 46.8341 -18.0893 0.0000 0.0000 0.0000
# 3 11.7396 -18.0893 33.3102 0.0000 0.0000 0.0000
# 4 0.0000 0.0000 0.0000 19.9693 0.0000 0.0000
# 5 0.0000 0.0000 0.0000 0.0000 27.0773 0.0000
# 6 0.0000 0.0000 0.0000 0.0000 0.0000 26.1185
#
#
#
# Elastic Compliance Matrix: (Units=1/GPa)
#
#
# Indices 1 2 3 4 5 6 
#
# 1 0.028986 0.011265 -0.004098 0.000000 0.000000 0.000000
# 2 0.011265 0.031397 0.013080 0.000000 0.000000 0.000000
# 3 -0.004098 0.013080 0.038568 0.000000 0.000000 0.000000
# 4 0.000000 0.000000 0.000000 0.050077 0.000000 0.000000
# 5 0.000000 0.000000 0.000000 0.000000 0.036931 0.000000
# 6 0.000000 0.000000 0.000000 0.000000 0.000000 0.038287
#
#
# Mechanical properties :
#
#
# Convention : Reuss Voigt Hill
#
# Bulk Modulus (GPa) = 7.17121 7.79488 7.48304
# Shear Modulus (GPa) = 21.71701 24.73169 23.22435
#
# Velocity S-wave (km/s) = 3.26043 3.47938 3.37168
# Velocity P-wave (km/s) = 4.20526 4.46733 4.33827
#
# Compressibility (1/GPa) = 0.13944643
#
# Stress axis : x y z
#
# Youngs Moduli (GPa) = 34.49953 31.84984 25.92793
#
# Poissons Ratio (x) = -0.35879 0.10625
# Poissons Ratio (y) = -0.38864 -0.33915
# Poissons Ratio (z) = 0.14138 -0.41661
#
# Static dielectric constant tensor:
#      x y z
#    x 1.730340 0.000000 0.000000 
#    y 0.000000 1.719090 0.000000 
#    z 0.000000 0.000000 1.706750 
# 
# From -- ./inp_files/6794.got.cif
#   From: 2010.05.17/outbox.cif.g08.bks.cpg/sg58_4_cif.got.tgz:6794.got - 2010.06.03 14:20:14.
