data_PCOD9445710
_publ_section_title
;
Structure prediction by ZEFSAII (Michael W. Deem and Ramdas Pophale) SiO2 
 PCOD9445710
Probable space group: P N N M
;
_chemical_formula_sum "Si O2"
_cell_formula_units_Z 32
_cell_length_a 8.301041
_cell_length_b 14.571630
_cell_length_c 11.384778
_cell_angle_alpha 90.000000
_cell_angle_beta 90.000000
_cell_angle_gamma 90.000000
_cell_volume 1377.099309
_symmetry_space_group_name_H-M "P N N M"
_symmetry_group_IT_number 58
_symmetry_cell_setting 'orthorhombic'
loop_
_space_group_symop_operation_xyz
x,y,z
-x,-y,z
1/2+x,1/2-y,1/2-z
1/2-x,1/2+y,1/2-z
-x,-y,-z
x,y,-z
1/2-x,1/2+y,1/2+z
1/2+x,1/2-y,1/2+z
loop_
_atom_site_type_symbol
_atom_site_label
_atom_site_fract_x
_atom_site_fract_y
_atom_site_fract_z
Si Si1 0.575420 0.633407 0.500000
Si Si2 0.673459 0.650600 0.249854
Si Si3 0.276060 0.043879 0.000000
Si Si4 0.868253 0.789626 0.364693
Si Si5 0.666598 0.957279 0.739893
O O1 0.583286 0.676368 0.371798
O O2 0.729115 0.563762 0.500000
O O3 0.400981 0.586806 0.500000
O O4 0.834535 0.708262 0.271526
O O5 0.553193 0.680143 0.148800
O O6 0.709376 0.542983 0.242080
O O7 0.359880 0.069060 0.122352
O O8 0.838528 0.763872 0.500000
O O9 0.750795 0.873771 0.327435
O O10 0.500000 0.000000 0.692359
#
# Coordination Sequence:
#
# PCOD9445710 Si02
#       5
#     4   8   4   8   8
#     4   9  16  36  66  90 123 171 209 281 329 373
#     4  11  23  45  65  96 137 172 225 278 331 397
#     4   9  17  34  66  96 123 166 221 272 328 379
#     4  12  26  45  70  99 135 178 223 274 336 401
#     4  11  23  41  68  99 134 176 225 275 331 393
#
# _framework density 23.237251000000001
#
# number of rings (size 3 to 8) (size 9 to 14) (size 15 to 20)
#    0.000    1.250    3.750    2.625    0.000    2.500 
#    9.000    0.000    0.000    0.000    0.000    0.000 
#    0.000    0.000    0.000    0.000    0.000    0.000 
#
# Total GULP energy -178676.232771 kJ/mol
# GULP energy per Si atom -5583.632274 kJ/mol
# Density = 2.318436 g / cm^3
# Si number density = 23.237251 Si / 1000 Ang^3
#
#
#
# Elastic Constant Matrix: (Units=GPa)
#
#
# Indices 1 2 3 4 5 6 
#
# 1 50.3874 -3.4530 17.0919 0.0000 0.0000 0.0000
# 2 -3.4530 72.4283 11.8074 0.0000 0.0000 0.0000
# 3 17.0919 11.8074 65.3977 0.0000 0.0000 0.0000
# 4 0.0000 0.0000 0.0000 24.3979 0.0000 0.0000
# 5 0.0000 0.0000 0.0000 0.0000 27.2034 0.0000
# 6 0.0000 0.0000 0.0000 0.0000 0.0000 34.8659
#
#
#
# Elastic Compliance Matrix: (Units=1/GPa)
#
#
# Indices 1 2 3 4 5 6 
#
# 1 0.022069 0.002053 -0.006138 0.000000 0.000000 0.000000
# 2 0.002053 0.014416 -0.003139 0.000000 0.000000 0.000000
# 3 -0.006138 -0.003139 0.017462 0.000000 0.000000 0.000000
# 4 0.000000 0.000000 0.000000 0.040987 0.000000 0.000000
# 5 0.000000 0.000000 0.000000 0.000000 0.036760 0.000000
# 6 0.000000 0.000000 0.000000 0.000000 0.000000 0.028681
#
#
# Mechanical properties :
#
#
# Convention : Reuss Voigt Hill
#
# Bulk Modulus (GPa) = 25.31792 26.56734 25.94263
# Shear Modulus (GPa) = 26.59686 28.14459 27.37073
#
# Velocity S-wave (km/s) = 3.38683 3.48398 3.43575
# Velocity P-wave (km/s) = 5.11989 5.25757 5.18919
#
# Compressibility (1/GPa) = 0.03949772
#
# Stress axis : x y z
#
# Youngs Moduli (GPa) = 45.31214 69.36545 57.26667
#
# Poissons Ratio (x) = -0.14240 0.35153
# Poissons Ratio (y) = -0.09302 0.17978
# Poissons Ratio (z) = 0.27815 0.21776
#
# Static dielectric constant tensor:
#      x y z
#    x 1.919930 0.000000 0.000000 
#    y 0.000000 1.903660 0.000000 
#    z 0.000000 0.000000 1.857090 
# 
# From -- ./inp_files/12386.got.cif
#   From: 2010.05.17/outbox.cif.g08.bks.cpg/sg58_7_cif.got.tgz:12386.got - 2010.06.03 14:20:14.
