data_PCOD9445380
_publ_section_title
;
Structure prediction by ZEFSAII (Michael W. Deem and Ramdas Pophale) SiO2 
 PCOD9445380
Probable space group: P N N M
;
_chemical_formula_sum "Si O2"
_cell_formula_units_Z 36
_cell_length_a 11.348304
_cell_length_b 5.943445
_cell_length_c 26.881377
_cell_angle_alpha 90.000000
_cell_angle_beta 90.000000
_cell_angle_gamma 90.000000
_cell_volume 1813.095671
_symmetry_space_group_name_H-M "P N N M"
_symmetry_group_IT_number 58
_symmetry_cell_setting 'orthorhombic'
loop_
_space_group_symop_operation_xyz
x,y,z
-x,-y,z
1/2+x,1/2-y,1/2-z
1/2-x,1/2+y,1/2-z
-x,-y,-z
x,y,-z
1/2-x,1/2+y,1/2+z
1/2+x,1/2-y,1/2+z
loop_
_atom_site_type_symbol
_atom_site_label
_atom_site_fract_x
_atom_site_fract_y
_atom_site_fract_z
Si Si1 0.362420 0.990807 0.202107
Si Si2 0.500000 0.500000 0.353372
Si Si3 0.830571 0.357918 0.186419
Si Si4 0.550830 0.748720 0.059456
Si Si5 0.279586 0.755338 0.620503
O O1 0.295511 0.764489 0.187001
O O2 0.500000 0.000000 0.191531
O O3 0.343974 0.021447 0.260862
O O4 0.294617 0.176526 0.169353
O O5 0.438483 0.315507 0.318309
O O6 0.608499 0.405833 0.385041
O O7 0.832391 0.508438 0.137433
O O8 0.500000 0.500000 0.077176
O O9 0.686631 0.746116 0.076525
O O10 0.500000 0.000000 0.075606
O O11 0.537570 0.746620 0.000000
#
# Coordination Sequence:
#
# PCOD9445380 Si02
#       5
#     8   4   8   8   8
#     4  11  23  35  56  87 121 168 217 264 313 388
#     4  10  24  40  59  86 128 170 211 266 328 392
#     4  11  23  39  55  87 127 169 213 266 324 376
#     4  10  24  46  72 103 135 167 214 282 343 389
#     4  11  23  39  64  89 126 170 215 262 327 396
#
# _framework density 19.855542
#
# number of rings (size 3 to 8) (size 9 to 14) (size 15 to 20)
#    0.000    1.333    2.222    2.667   12.444    0.000 
#    0.000    0.556    0.000    2.667    0.000    0.000 
#    0.000    0.000    0.000    0.000    0.000    0.000 
#
# Total GULP energy -200740.073171 kJ/mol
# GULP energy per Si atom -5576.113144 kJ/mol
# Density = 1.981035 g / cm^3
# Si number density = 19.855542 Si / 1000 Ang^3
#
#
#
# Elastic Constant Matrix: (Units=GPa)
#
#
# Indices 1 2 3 4 5 6 
#
# 1 146.3996 40.5820 3.9058 0.0000 0.0000 0.0000
# 2 40.5820 97.4445 13.0317 0.0000 0.0000 0.0000
# 3 3.9058 13.0317 11.2312 0.0000 0.0000 0.0000
# 4 0.0000 0.0000 0.0000 8.9757 0.0000 0.0000
# 5 0.0000 0.0000 0.0000 0.0000 30.5049 0.0000
# 6 0.0000 0.0000 0.0000 0.0000 0.0000 34.4152
#
#
#
# Elastic Compliance Matrix: (Units=1/GPa)
#
#
# Indices 1 2 3 4 5 6 
#
# 1 0.007737 -0.003388 0.001240 0.000000 0.000000 0.000000
# 2 -0.003388 0.013631 -0.014638 0.000000 0.000000 0.000000
# 3 0.001240 -0.014638 0.105590 0.000000 0.000000 0.000000
# 4 0.000000 0.000000 0.000000 0.111412 0.000000 0.000000
# 5 0.000000 0.000000 0.000000 0.000000 0.032782 0.000000
# 6 0.000000 0.000000 0.000000 0.000000 0.000000 0.029057
#
#
# Mechanical properties :
#
#
# Convention : Reuss Voigt Hill
#
# Bulk Modulus (GPa) = 10.70807 41.12380 25.91593
# Shear Modulus (GPa) = 13.70209 27.94954 20.82582
#
# Velocity S-wave (km/s) = 2.62980 3.75593 3.24213
# Velocity P-wave (km/s) = 3.82438 6.29014 5.20537
#
# Compressibility (1/GPa) = 0.09338755
#
# Stress axis : x y z
#
# Youngs Moduli (GPa) = 129.25482 73.36359 9.47057
#
# Poissons Ratio (x) = 0.24855 -0.01175
# Poissons Ratio (y) = 0.43790 0.13863
# Poissons Ratio (z) = -0.16034 1.07387
#
# Static dielectric constant tensor:
#      x y z
#    x 1.689590 0.000000 0.000000 
#    y 0.000000 1.869440 0.000000 
#    z 0.000000 0.000000 1.660170 
# 
# From -- ./inp_files/31806.got.cif
#   From: 2010.05.17/outbox.cif.g08.bks.cpg/sg58_16_cif.got.tgz:31806.got - 2010.06.03 14:20:14.
