data_PCOD9445290
_publ_section_title
;
Structure prediction by ZEFSAII (Michael W. Deem and Ramdas Pophale) SiO2 
 PCOD9445290
Probable space group: P N N M
;
_chemical_formula_sum "Si O2"
_cell_formula_units_Z 64
_cell_length_a 24.055625
_cell_length_b 15.546770
_cell_length_c 8.573399
_cell_angle_alpha 90.000000
_cell_angle_beta 90.000000
_cell_angle_gamma 90.000000
_cell_volume 3206.342079
_symmetry_space_group_name_H-M "P N N M"
_symmetry_group_IT_number 58
_symmetry_cell_setting 'orthorhombic'
loop_
_space_group_symop_operation_xyz
x,y,z
-x,-y,z
1/2+x,1/2-y,1/2-z
1/2-x,1/2+y,1/2-z
-x,-y,-z
x,y,-z
1/2-x,1/2+y,1/2+z
1/2+x,1/2-y,1/2+z
loop_
_atom_site_type_symbol
_atom_site_label
_atom_site_fract_x
_atom_site_fract_y
_atom_site_fract_z
Si Si1 0.252291 0.337830 0.685056
Si Si2 0.361721 0.923410 0.183891
Si Si3 0.253772 0.149313 0.184604
Si Si4 0.130292 0.898864 0.312727
Si Si5 0.044860 0.748816 0.314350
Si Si6 0.077916 0.257969 0.182873
Si Si7 0.624756 0.895348 0.683648
Si Si8 0.860339 0.907482 0.314476
O O1 0.249209 0.319177 0.500000
O O2 0.202970 0.404360 0.721864
O O3 0.242617 0.249527 0.777864
O O4 0.312664 0.372829 0.729011
O O5 0.394429 0.836540 0.223654
O O6 0.384168 0.004650 0.277982
O O7 0.365617 0.942242 0.000000
O O8 0.313524 0.127093 0.255777
O O9 0.203871 0.096679 0.262435
O O10 0.254604 0.134387 0.000000
O O11 0.139528 0.892125 0.500000
O O12 0.082036 0.831900 0.271652
O O13 0.116635 0.997833 0.277393
O O14 0.034700 0.751259 0.500000
O O15 0.081273 0.665608 0.271249
O O16 0.986716 0.747582 0.226051
O O17 0.107518 0.169193 0.230339
O O18 0.085749 0.273534 0.000000
O O19 0.621217 0.878989 0.500000
O O20 0.863860 0.893783 0.500000
#
# Coordination Sequence:
#
# PCOD9445290 Si02
#       8
#     8   8   8   8   8   8   8   8
#     4  11  22  37  64  96 130 167 209 259 319 380
#     4  11  24  43  67  96 130 170 213 262 319 383
#     4  12  23  38  63  95 132 172 212 256 318 385
#     4  10  23  41  66  95 128 168 212 261 318 378
#     4  11  24  45  68  92 125 169 217 268 321 378
#     4  12  26  44  66  94 127 168 215 268 322 379
#     4  12  25  42  66  98 132 168 212 264 321 383
#     4  11  23  42  66  96 130 168 214 264 320 381
#
# _framework density 19.960440999999999
#
# number of rings (size 3 to 8) (size 9 to 14) (size 15 to 20)
#    0.000    0.750    2.500    5.625    0.000    6.000 
#    0.000    5.000    0.000    0.000    0.000    0.000 
#    0.000    0.000    0.000    0.000    0.000    0.000 
#
# Total GULP energy -358262.178951 kJ/mol
# GULP energy per Si atom -5597.846546 kJ/mol
# Density = 1.991501 g / cm^3
# Si number density = 19.960441 Si / 1000 Ang^3
#
#
#
# Elastic Constant Matrix: (Units=GPa)
#
#
# Indices 1 2 3 4 5 6 
#
# 1 79.3672 1.5258 -8.0765 0.0000 0.0000 0.0000
# 2 1.5258 64.9381 -5.2975 0.0000 0.0000 0.0000
# 3 -8.0765 -5.2975 29.1312 0.0000 0.0000 0.0000
# 4 0.0000 0.0000 0.0000 29.8764 0.0000 0.0000
# 5 0.0000 0.0000 0.0000 0.0000 34.6111 0.0000
# 6 0.0000 0.0000 0.0000 0.0000 0.0000 1.4485
#
#
#
# Elastic Compliance Matrix: (Units=1/GPa)
#
#
# Indices 1 2 3 4 5 6 
#
# 1 0.012965 -0.000012 0.003593 0.000000 0.000000 0.000000
# 2 -0.000012 0.015631 0.002839 0.000000 0.000000 0.000000
# 3 0.003593 0.002839 0.035840 0.000000 0.000000 0.000000
# 4 0.000000 0.000000 0.000000 0.033471 0.000000 0.000000
# 5 0.000000 0.000000 0.000000 0.000000 0.028893 0.000000
# 6 0.000000 0.000000 0.000000 0.000000 0.000000 0.690375
#
#
# Mechanical properties :
#
#
# Convention : Reuss Voigt Hill
#
# Bulk Modulus (GPa) = 12.94046 16.63779 14.78913
# Shear Modulus (GPa) = 6.02342 25.53950 15.78146
#
# Velocity S-wave (km/s) = 1.73903 3.58090 2.81488
# Velocity P-wave (km/s) = 3.24491 5.04486 4.24146
#
# Compressibility (1/GPa) = 0.07727699
#
# Stress axis : x y z
#
# Youngs Moduli (GPa) = 77.12798 63.97469 27.90193
#
# Poissons Ratio (x) = 0.00074 -0.10024
# Poissons Ratio (y) = 0.00089 -0.07922
# Poissons Ratio (z) = -0.27708 -0.18165
#
# Static dielectric constant tensor:
#      x y z
#    x 1.671750 0.000000 0.000000 
#    y 0.000000 1.702690 0.000000 
#    z 0.000000 0.000000 1.666770 
# 
# From -- ./inp_files/9973.got.cif
#   From: 2010.05.17/outbox.cif.g08.bks.cpg/sg58_5_cif.got.tgz:9973.got - 2010.06.03 14:20:14.
