data_PCOD9445260
_publ_section_title
;
Structure prediction by ZEFSAII (Michael W. Deem and Ramdas Pophale) SiO2 
 PCOD9445260
Probable space group: P N N M
;
_chemical_formula_sum "Si O2"
_cell_formula_units_Z 32
_cell_length_a 8.030746
_cell_length_b 8.448475
_cell_length_c 23.398500
_cell_angle_alpha 90.000000
_cell_angle_beta 90.000000
_cell_angle_gamma 90.000000
_cell_volume 1587.531058
_symmetry_space_group_name_H-M "P N N M"
_symmetry_group_IT_number 58
_symmetry_cell_setting 'orthorhombic'
loop_
_space_group_symop_operation_xyz
x,y,z
-x,-y,z
1/2+x,1/2-y,1/2-z
1/2-x,1/2+y,1/2-z
-x,-y,-z
x,y,-z
1/2-x,1/2+y,1/2+z
1/2+x,1/2-y,1/2+z
loop_
_atom_site_type_symbol
_atom_site_label
_atom_site_fract_x
_atom_site_fract_y
_atom_site_fract_z
Si Si1 0.064837 0.184143 0.065105
Si Si2 0.372166 0.172799 0.329620
Si Si3 0.654581 0.610369 0.878356
Si Si4 0.462495 0.825595 0.790884
O O1 0.248846 0.257586 0.082658
O O2 0.951821 0.257259 0.114023
O O3 0.035969 0.238229 0.000000
O O4 0.000000 0.000000 0.065827
O O5 0.497447 0.172688 0.276188
O O6 0.224162 0.280169 0.305219
O O7 0.288352 0.010907 0.351665
O O8 0.500000 0.500000 0.902841
O O9 0.574824 0.702766 0.825218
O O10 0.500000 0.000000 0.813153
#
# Coordination Sequence:
#
# PCOD9445260 Si02
#       4
#     8   8   8   8
#     4  11  24  42  63  87 119 161 206 252 307 371
#     4  11  22  37  61  90 123 160 203 249 306 370
#     4  10  23  40  61  93 123 158 206 255 312 373
#     4  11  21  36  60  90 125 159 197 250 308 368
#
# _framework density 20.157086
#
# number of rings (size 3 to 8) (size 9 to 14) (size 15 to 20)
#    0.000    1.250    0.000    6.750    0.000    5.500 
#    0.000    3.750    0.000   13.500    0.000    0.000 
#    0.000    0.000    0.000    0.000    0.000    0.000 
#
# Total GULP energy -178250.144216 kJ/mol
# GULP energy per Si atom -5570.317007 kJ/mol
# Density = 2.011121 g / cm^3
# Si number density = 20.157086 Si / 1000 Ang^3
#
#
#
# Elastic Constant Matrix: (Units=GPa)
#
#
# Indices 1 2 3 4 5 6 
#
# 1 103.3337 42.2813 72.7834 0.0000 0.0000 0.0000
# 2 42.2813 99.0164 39.6156 0.0000 0.0000 0.0000
# 3 72.7834 39.6156 129.5068 0.0000 0.0000 0.0000
# 4 0.0000 0.0000 0.0000 29.9828 0.0000 0.0000
# 5 0.0000 0.0000 0.0000 0.0000 57.7515 0.0000
# 6 0.0000 0.0000 0.0000 0.0000 0.0000 46.5210
#
#
#
# Elastic Compliance Matrix: (Units=1/GPa)
#
#
# Indices 1 2 3 4 5 6 
#
# 1 0.017296 -0.003984 -0.008502 0.000000 0.000000 0.000000
# 2 -0.003984 0.012425 -0.001562 0.000000 0.000000 0.000000
# 3 -0.008502 -0.001562 0.012977 0.000000 0.000000 0.000000
# 4 0.000000 0.000000 0.000000 0.033352 0.000000 0.000000
# 5 0.000000 0.000000 0.000000 0.000000 0.017316 0.000000
# 6 0.000000 0.000000 0.000000 0.000000 0.000000 0.021496
#
#
# Mechanical properties :
#
#
# Convention : Reuss Voigt Hill
#
# Bulk Modulus (GPa) = 68.47670 71.24639 69.86155
# Shear Modulus (GPa) = 33.82385 38.66284 36.24334
#
# Velocity S-wave (km/s) = 4.10080 4.38434 4.24494
# Velocity P-wave (km/s) = 7.51448 7.81359 7.66549
#
# Compressibility (1/GPa) = 0.01460351
#
# Stress axis : x y z
#
# Youngs Moduli (GPa) = 57.81809 80.47985 77.05791
#
# Poissons Ratio (x) = 0.32064 0.65511
# Poissons Ratio (y) = 0.23035 0.12035
# Poissons Ratio (z) = 0.49154 0.12570
#
# Static dielectric constant tensor:
#      x y z
#    x 1.793940 0.000000 0.000000 
#    y 0.000000 1.762320 0.000000 
#    z 0.000000 0.000000 1.643430 
# 
# From -- ./inp_files/28448.got.cif
#   From: 2010.05.17/outbox.cif.g08.bks.cpg/sg58_15_cif.got.tgz:28448.got - 2010.06.03 14:20:14.
