data_PCOD9445717
_publ_section_title
;
Structure prediction by ZEFSAII (Michael W. Deem and Ramdas Pophale) SiO2 
 PCOD9445717
Probable space group: P N N M
;
_chemical_formula_sum "Si O2"
_cell_formula_units_Z 32
_cell_length_a 12.981745
_cell_length_b 9.518664
_cell_length_c 12.944439
_cell_angle_alpha 90.000000
_cell_angle_beta 90.000000
_cell_angle_gamma 90.000000
_cell_volume 1599.529684
_symmetry_space_group_name_H-M "P N N M"
_symmetry_group_IT_number 58
_symmetry_cell_setting 'orthorhombic'
loop_
_space_group_symop_operation_xyz
x,y,z
-x,-y,z
1/2+x,1/2-y,1/2-z
1/2-x,1/2+y,1/2-z
-x,-y,-z
x,y,-z
1/2-x,1/2+y,1/2+z
1/2+x,1/2-y,1/2+z
loop_
_atom_site_type_symbol
_atom_site_label
_atom_site_fract_x
_atom_site_fract_y
_atom_site_fract_z
Si Si1 0.616109 0.225145 0.275356
Si Si2 0.452063 0.156686 0.112585
Si Si3 0.527198 0.164215 0.500000
Si Si4 0.109131 0.916190 0.000000
Si Si5 0.248320 0.026748 0.815023
O O1 0.512065 0.224964 0.207524
O O2 0.675658 0.368972 0.251809
O O3 0.587561 0.207719 0.395849
O O4 0.687085 0.092711 0.243438
O O5 0.332406 0.130755 0.133485
O O6 0.500000 0.000000 0.107563
O O7 0.469164 0.223428 0.000000
O O8 0.422543 0.254164 0.500000
O O9 0.500000 0.000000 0.500000
O O10 0.176928 0.955777 0.901215
O O11 0.000000 0.000000 0.000000
#
# Coordination Sequence:
#
# PCOD9445717 Si02
#       5
#     8   8   4   4   8
#     4  11  25  41  67  99 136 177 226 285 340 407
#     4   9  19  40  63  91 127 168 222 279 327 403
#     4  12  26  46  64  99 141 171 221 295 347 390
#     4  12  24  44  73  95 130 177 233 284 328 416
#     4  11  23  42  68  99 130 181 226 274 350 402
#
# _framework density 20.005880000000001
#
# number of rings (size 3 to 8) (size 9 to 14) (size 15 to 20)
#    0.000    1.250    3.750    2.250    8.750    0.000 
#    2.250    0.000    0.000    1.500    0.000    0.000 
#    0.000    0.000    0.000    0.000    0.000    0.000 
#
# Total GULP energy -178685.650541 kJ/mol
# GULP energy per Si atom -5583.926579 kJ/mol
# Density = 1.996035 g / cm^3
# Si number density = 20.005880 Si / 1000 Ang^3
#
#
#
# Elastic Constant Matrix: (Units=GPa)
#
#
# Indices 1 2 3 4 5 6 
#
# 1 124.4238 34.7793 57.2715 0.0000 0.0000 0.0000
# 2 34.7793 85.6575 22.5510 0.0000 0.0000 0.0000
# 3 57.2715 22.5510 131.8434 0.0000 0.0000 0.0000
# 4 0.0000 0.0000 0.0000 13.3081 0.0000 0.0000
# 5 0.0000 0.0000 0.0000 0.0000 -5.1882 0.0000
# 6 0.0000 0.0000 0.0000 0.0000 0.0000 42.3838
#
#
#
# Elastic Compliance Matrix: (Units=1/GPa)
#
#
# Indices 1 2 3 4 5 6 
#
# 1 0.010880 -0.003323 -0.004158 0.000000 0.000000 0.000000
# 2 -0.003323 0.013240 -0.000821 0.000000 0.000000 0.000000
# 3 -0.004158 -0.000821 0.009531 0.000000 0.000000 0.000000
# 4 0.000000 0.000000 0.000000 0.075142 0.000000 0.000000
# 5 0.000000 0.000000 0.000000 0.000000 -0.192746 0.000000
# 6 0.000000 0.000000 0.000000 0.000000 0.000000 0.023594
#
#
# Mechanical properties :
#
#
# Convention : Reuss Voigt Hill
#
# Bulk Modulus (GPa) = 58.66028 63.45868 61.05948
# Shear Modulus (GPa) = -131.32496 25.25560 -53.03468
#
# Velocity S-wave (km/s) = -8.11084 3.55689 -5.15433
# Velocity P-wave (km/s) = 7.63735 6.97550 2.19904
#
# Compressibility (1/GPa) = 0.01704731
#
# Stress axis : x y z
#
# Youngs Moduli (GPa) = 91.91521 75.53011 104.91799
#
# Poissons Ratio (x) = 0.25097 0.43621
# Poissons Ratio (y) = 0.30542 0.08616
# Poissons Ratio (z) = 0.38215 0.06202
#
# Static dielectric constant tensor:
#      x y z
#    x 1.736050 0.000000 0.000000 
#    y 0.000000 1.705960 0.000000 
#    z 0.000000 0.000000 1.714600 
# 
# From -- ./inp_files/20671.got.cif
#   From: 2010.05.17/outbox.cif.g08.bks.cpg/sg58_11_cif.got.tgz:20671.got - 2010.06.03 14:20:14.
