data_PCOD9445222
_publ_section_title
;
Structure prediction by ZEFSAII (Michael W. Deem and Ramdas Pophale) SiO2 
 PCOD9445222
Probable space group: P N N M
;
_chemical_formula_sum "Si O2"
_cell_formula_units_Z 32
_cell_length_a 8.438082
_cell_length_b 5.069925
_cell_length_c 31.433707
_cell_angle_alpha 90.000000
_cell_angle_beta 90.000000
_cell_angle_gamma 90.000000
_cell_volume 1344.747907
_symmetry_space_group_name_H-M "P N N M"
_symmetry_group_IT_number 58
_symmetry_cell_setting 'orthorhombic'
loop_
_space_group_symop_operation_xyz
x,y,z
-x,-y,z
1/2+x,1/2-y,1/2-z
1/2-x,1/2+y,1/2-z
-x,-y,-z
x,y,-z
1/2-x,1/2+y,1/2+z
1/2+x,1/2-y,1/2+z
loop_
_atom_site_type_symbol
_atom_site_label
_atom_site_fract_x
_atom_site_fract_y
_atom_site_fract_z
Si Si1 0.613275 0.755879 0.500000
Si Si2 0.771082 0.763080 0.224119
Si Si3 0.170092 0.851331 0.908013
Si Si4 0.000000 0.000000 0.330510
Si Si5 0.500000 0.000000 0.114411
Si Si6 0.500000 0.000000 0.339440
O O1 0.500000 0.500000 0.500000
O O2 0.701575 0.768784 0.545149
O O3 0.500000 0.000000 0.500000
O O4 0.724265 0.062960 0.235300
O O5 0.629915 0.626239 0.199290
O O6 0.919891 0.712295 0.192919
O O7 0.127944 0.640065 0.870550
O O8 0.322290 0.045966 0.904061
O O9 0.000000 0.000000 0.909613
O O10 0.044112 0.241022 0.359993
#
# Coordination Sequence:
#
# PCOD9445222 Si02
#       6
#     4   8   8   4   4   4
#     4  10  22  43  72 109 147 183 236 301 355 431
#     4  12  26  43  65  99 136 181 240 301 361 426
#     4  11  25  45  76 107 145 192 239 295 366 440
#     4  12  24  46  64  99 138 178 238 303 352 426
#     4  12  26  44  72 106 145 185 244 294 355 445
#     4  12  24  44  74  96 139 197 240 293 373 436
#
# _framework density 23.796284
#
# number of rings (size 3 to 8) (size 9 to 14) (size 15 to 20)
#    0.000    0.500    3.750    4.500    3.500    0.500 
#    0.000    0.000    0.000    4.500    0.000    0.000 
#    0.000    0.000    0.000    0.000    0.000    0.000 
#
# Total GULP energy -178489.440074 kJ/mol
# GULP energy per Si atom -5577.795002 kJ/mol
# Density = 2.374212 g / cm^3
# Si number density = 23.796284 Si / 1000 Ang^3
#
#
#
# Elastic Constant Matrix: (Units=GPa)
#
#
# Indices 1 2 3 4 5 6 
#
# 1 152.8023 5.0644 24.6556 0.0000 0.0000 0.0000
# 2 5.0644 86.8894 13.8847 0.0000 0.0000 0.0000
# 3 24.6556 13.8847 103.7499 0.0000 0.0000 0.0000
# 4 0.0000 0.0000 0.0000 23.9594 0.0000 0.0000
# 5 0.0000 0.0000 0.0000 0.0000 5.7945 0.0000
# 6 0.0000 0.0000 0.0000 0.0000 0.0000 29.7266
#
#
#
# Elastic Compliance Matrix: (Units=1/GPa)
#
#
# Indices 1 2 3 4 5 6 
#
# 1 0.006807 -0.000141 -0.001599 0.000000 0.000000 0.000000
# 2 -0.000141 0.011763 -0.001541 0.000000 0.000000 0.000000
# 3 -0.001599 -0.001541 0.010225 0.000000 0.000000 0.000000
# 4 0.000000 0.000000 0.000000 0.041737 0.000000 0.000000
# 5 0.000000 0.000000 0.000000 0.000000 0.172579 0.000000
# 6 0.000000 0.000000 0.000000 0.000000 0.000000 0.033640
#
#
# Mechanical properties :
#
#
# Convention : Reuss Voigt Hill
#
# Bulk Modulus (GPa) = 44.97694 47.85010 46.41352
# Shear Modulus (GPa) = 17.19845 31.88522 24.54184
#
# Velocity S-wave (km/s) = 2.69129 3.66447 3.21492
# Velocity P-wave (km/s) = 5.34783 6.16898 5.77302
#
# Compressibility (1/GPa) = 0.02223362
#
# Stress axis : x y z
#
# Youngs Moduli (GPa) = 146.90636 85.01006 97.80247
#
# Poissons Ratio (x) = 0.01201 0.15636
# Poissons Ratio (y) = 0.02075 0.15068
# Poissons Ratio (z) = 0.23487 0.13097
#
# Static dielectric constant tensor:
#      x y z
#    x 2.107210 0.000000 0.000000 
#    y 0.000000 1.835830 0.000000 
#    z 0.000000 0.000000 2.050150 
# 
# From -- ./inp_files/34036.got.cif
#   From: 2010.05.17/outbox.cif.g08.bks.cpg/sg58_18_cif.got.tgz:34036.got - 2010.06.03 14:20:14.
