data_PCOD9445847
_publ_section_title
;
Structure prediction by ZEFSAII (Michael W. Deem and Ramdas Pophale) SiO2 
 PCOD9445847
Probable space group: P N N M
;
_chemical_formula_sum "Si O2"
_cell_formula_units_Z 58
_cell_length_a 12.975550
_cell_length_b 25.142101
_cell_length_c 7.675754
_cell_angle_alpha 90.000000
_cell_angle_beta 90.000000
_cell_angle_gamma 90.000000
_cell_volume 2504.081097
_symmetry_space_group_name_H-M "P N N M"
_symmetry_group_IT_number 58
_symmetry_cell_setting 'orthorhombic'
loop_
_space_group_symop_operation_xyz
x,y,z
-x,-y,z
1/2+x,1/2-y,1/2-z
1/2-x,1/2+y,1/2-z
-x,-y,-z
x,y,-z
1/2-x,1/2+y,1/2+z
1/2+x,1/2-y,1/2+z
loop_
_atom_site_type_symbol
_atom_site_label
_atom_site_fract_x
_atom_site_fract_y
_atom_site_fract_z
Si Si1 0.662278 0.660431 0.288785
Si Si2 0.062753 0.195151 0.208193
Si Si3 0.172058 0.515052 0.711935
Si Si4 0.501083 0.191080 0.290478
Si Si5 0.776970 0.277818 0.791689
Si Si6 0.000000 0.000000 0.000000
Si Si7 0.483881 0.923615 0.205355
Si Si8 0.365814 0.454350 0.193550
O O1 0.668631 0.659518 0.500000
O O2 0.541077 0.666235 0.232437
O O3 0.718249 0.715439 0.229480
O O4 0.692570 0.602237 0.222346
O O5 0.054547 0.255791 0.274935
O O6 0.181182 0.184125 0.247936
O O7 0.053654 0.194810 0.000000
O O8 0.185300 0.515367 0.500000
O O9 0.098286 0.466199 0.769131
O O10 0.283565 0.502447 0.786724
O O11 0.100861 0.564763 0.768165
O O12 0.502233 0.192528 0.500000
O O13 0.383185 0.195929 0.229649
O O14 0.549081 0.136150 0.234917
O O15 0.782032 0.274138 0.000000
O O16 0.052510 0.962493 0.153365
O O17 0.488601 0.933512 0.000000
O O18 0.409965 0.454233 0.000000
#
# Coordination Sequence:
#
# PCOD9445847 Si02
#       8
#     8   8   8   8   8   2   8   8
#     4   9  19  40  61  82 122 168 204 255 318 368
#     4   9  19  35  56  81 117 161 200 249 314 365
#     4   9  19  40  61  87 126 161 205 261 311 369
#     4   9  19  35  51  79 120 153 190 245 308 365
#     4   9  19  35  56  81 116 161 198 246 311 368
#     4  12  26  52  68  88 140 156 210 284 316 358
#     4   9  19  35  61  88 119 165 202 245 317 381
#     4  12  25  43  71  98 119 170 218 259 326 382
#
# _framework density 23.162186999999999
#
# number of rings (size 3 to 8) (size 9 to 14) (size 15 to 20)
#    0.000    2.483    1.379    2.690    1.931    3.310 
#    2.483    4.138    0.000    0.000    0.000    0.000 
#    0.000    0.000    0.000    0.000    0.000    0.000 
#
# Total GULP energy -322926.544411 kJ/mol
# GULP energy per Si atom -5567.699042 kJ/mol
# Density = 2.310947 g / cm^3
# Si number density = 23.162187 Si / 1000 Ang^3
#
#
#
# Elastic Constant Matrix: (Units=GPa)
#
#
# Indices 1 2 3 4 5 6 
#
# 1 51.2689 -20.1440 2.9778 0.0000 0.0000 0.0000
# 2 -20.1440 41.7976 3.8910 0.0000 0.0000 0.0000
# 3 2.9778 3.8910 90.6347 0.0000 0.0000 0.0000
# 4 0.0000 0.0000 0.0000 54.8645 0.0000 0.0000
# 5 0.0000 0.0000 0.0000 0.0000 94.7166 0.0000
# 6 0.0000 0.0000 0.0000 0.0000 0.0000 18.1703
#
#
#
# Elastic Compliance Matrix: (Units=1/GPa)
#
#
# Indices 1 2 3 4 5 6 
#
# 1 0.024213 0.011791 -0.001302 0.000000 0.000000 0.000000
# 2 0.011791 0.029762 -0.001665 0.000000 0.000000 0.000000
# 3 -0.001302 -0.001665 0.011148 0.000000 0.000000 0.000000
# 4 0.000000 0.000000 0.000000 0.018227 0.000000 0.000000
# 5 0.000000 0.000000 0.000000 0.000000 0.010558 0.000000
# 6 0.000000 0.000000 0.000000 0.000000 0.000000 0.055035
#
#
# Mechanical properties :
#
#
# Convention : Reuss Voigt Hill
#
# Bulk Modulus (GPa) = 12.08158 17.46117 14.77138
# Shear Modulus (GPa) = 31.46932 46.68205 39.07568
#
# Velocity S-wave (km/s) = 3.68999 4.49424 4.11182
# Velocity P-wave (km/s) = 4.83550 5.87247 5.37903
#
# Compressibility (1/GPa) = 0.08277061
#
# Stress axis : x y z
#
# Youngs Moduli (GPa) = 41.29973 33.59965 89.70580
#
# Poissons Ratio (x) = -0.39616 0.11677
# Poissons Ratio (y) = -0.48695 0.14937
# Poissons Ratio (z) = 0.05376 0.05595
#
# Static dielectric constant tensor:
#      x y z
#    x 1.935220 0.000000 0.000000 
#    y 0.000000 1.878590 0.000000 
#    z 0.000000 0.000000 1.844520 
# 
# From -- ./inp_files/4489.got.cif
#   From: 2010.05.17/outbox.cif.g08.bks.cpg/sg58_3_cif.got.tgz:4489.got - 2010.06.03 14:20:14.
