data_PCOD9445983
_publ_section_title
;
Structure prediction by ZEFSAII (Michael W. Deem and Ramdas Pophale) SiO2 
 PCOD9445983
Probable space group: P N N M
;
_chemical_formula_sum "Si O2"
_cell_formula_units_Z 64
_cell_length_a 15.000000
_cell_length_b 24.000000
_cell_length_c 9.000000
_cell_angle_alpha 90.000000
_cell_angle_beta 90.000000
_cell_angle_gamma 90.000000
_cell_volume 3240.000000
_symmetry_space_group_name_H-M "P N N M"
_symmetry_group_IT_number 58
_symmetry_cell_setting 'orthorhombic'
loop_
_space_group_symop_operation_xyz
x,y,z
-x,-y,z
1/2+x,1/2-y,1/2-z
1/2-x,1/2+y,1/2-z
-x,-y,-z
x,y,-z
1/2-x,1/2+y,1/2+z
1/2+x,1/2-y,1/2+z
loop_
_atom_site_type_symbol
_atom_site_label
_atom_site_fract_x
_atom_site_fract_y
_atom_site_fract_z
Si Si1 0.283331 0.050366 0.322739
Si Si2 0.418628 0.225017 0.821915
Si Si3 0.120899 0.450177 0.327563
Si Si4 0.724433 0.279633 0.178788
Si Si5 0.428932 0.350097 0.178233
Si Si6 0.886837 0.887100 0.681164
Si Si7 0.759066 0.657448 0.328902
Si Si8 0.947380 0.393230 0.678762
O O1 0.287626 0.054665 0.500000
O O2 0.182587 0.064857 0.275108
O O3 0.352905 0.093434 0.250920
O O4 0.320678 0.992030 0.267026
O O5 0.323180 0.216976 0.745415
O O6 0.454393 0.285919 0.783562
O O7 0.474237 0.170082 0.784489
O O8 0.406211 0.225199 0.000000
O O9 0.116898 0.469567 0.500000
O O10 0.170051 0.391210 0.324644
O O11 0.021283 0.437545 0.272785
O O12 0.660146 0.329175 0.229076
O O13 0.698296 0.216342 0.218234
O O14 0.728247 0.284796 0.000000
O O15 0.510772 0.388212 0.231945
O O16 0.330219 0.358165 0.240628
O O17 0.423745 0.354658 0.000000
O O18 0.889910 0.886884 0.500000
O O19 0.730427 0.665091 0.500000
O O20 0.941447 0.397166 0.500000
#
# Coordination Sequence:
#
# PCOD9445983 Si02
#       8
#     8   8   8   8   8   8   8   8
#     4  11  22  37  55  78 106 139 180 221 261 310
#     4   9  17  29  49  78 107 134 167 207 254 308
#     4  10  22  38  55  76 104 142 182 220 263 315
#     4   9  16  30  52  75 104 138 169 209 258 311
#     4   9  18  33  54  78 108 139 171 214 262 314
#     4   9  18  32  53  79 105 137 176 213 259 314
#     4   9  19  35  55  78 105 137 177 220 266 312
#     4  10  20  34  53  78 108 140 173 211 259 316
#
# _framework density 19.753086
#
# number of rings (size 3 to 8) (size 9 to 14) (size 15 to 20)
#    0.000    2.500    1.250    0.750    1.750    2.500 
#    0.000    2.500    0.000    3.750    0.000    0.000 
#    0.000    0.000    0.000    0.000    0.000    0.000 
#
# Total GULP energy -356555.574684 kJ/mol
# GULP energy per Si atom -5571.180854 kJ/mol
# Density = 1.970813 g / cm^3
# Si number density = 19.753086 Si / 1000 Ang^3
#
#
#
# Elastic Constant Matrix: (Units=GPa)
#
#
# Indices 1 2 3 4 5 6 
#
# 1 14.2027 -13.4298 -3.7265 0.0000 0.0000 0.0000
# 2 -13.4298 35.7124 -0.8163 0.0000 0.0000 0.0000
# 3 -3.7265 -0.8163 -5.7988 0.0000 0.0000 0.0000
# 4 0.0000 0.0000 0.0000 22.7037 0.0000 0.0000
# 5 0.0000 0.0000 0.0000 0.0000 19.8574 0.0000
# 6 0.0000 0.0000 0.0000 0.0000 0.0000 24.7185
#
#
#
# Elastic Compliance Matrix: (Units=1/GPa)
#
#
# Indices 1 2 3 4 5 6 
#
# 1 0.083690 0.030146 -0.058026 0.000000 0.000000 0.000000
# 2 0.030146 0.038770 -0.024830 0.000000 0.000000 0.000000
# 3 -0.058026 -0.024830 -0.131666 0.000000 0.000000 0.000000
# 4 0.000000 0.000000 0.000000 0.044046 0.000000 0.000000
# 5 0.000000 0.000000 0.000000 0.000000 0.050359 0.000000
# 6 0.000000 0.000000 0.000000 0.000000 0.000000 0.040455
#
#
# Mechanical properties :
#
#
# Convention : Reuss Voigt Hill
#
# Bulk Modulus (GPa) = -8.72396 0.90790 -3.90803
# Shear Modulus (GPa) = 25.92470 17.59518 21.75994
#
# Velocity S-wave (km/s) = 3.62669 2.98779 3.32263
# Velocity P-wave (km/s) = 3.62092 3.51613 3.56891
#
# Compressibility (1/GPa) = -0.11462681
#
# Stress axis : x y z
#
# Youngs Moduli (GPa) = 11.94892 25.79291 -7.59498
#
# Poissons Ratio (x) = -0.77754 -0.44070
# Poissons Ratio (y) = -0.36021 -0.18859
# Poissons Ratio (z) = 0.69334 0.64045
#
# Static dielectric constant tensor:
#      x y z
#    x 1.682120 0.000000 0.000000 
#    y 0.000000 1.773120 0.000000 
#    z 0.000000 0.000000 1.671410 
# 
# From -- ./inp_files/6980.got.cif
#   From: 2010.05.17/outbox.ucp.g08.bks.cvg/sg58_4_cif.got.tgz:6980.got - 2010.06.11 16:41:41.
