data_PCOD9445975
_publ_section_title
;
Structure prediction by ZEFSAII (Michael W. Deem and Ramdas Pophale) SiO2 
 PCOD9445975
Probable space group: P N N M
;
_chemical_formula_sum "Si O2"
_cell_formula_units_Z 56
_cell_length_a 15.000000
_cell_length_b 21.000000
_cell_length_c 9.000000
_cell_angle_alpha 90.000000
_cell_angle_beta 90.000000
_cell_angle_gamma 90.000000
_cell_volume 2835.000000
_symmetry_space_group_name_H-M "P N N M"
_symmetry_group_IT_number 58
_symmetry_cell_setting 'orthorhombic'
loop_
_space_group_symop_operation_xyz
x,y,z
-x,-y,z
1/2+x,1/2-y,1/2-z
1/2-x,1/2+y,1/2-z
-x,-y,-z
x,y,-z
1/2-x,1/2+y,1/2+z
1/2+x,1/2-y,1/2+z
loop_
_atom_site_type_symbol
_atom_site_label
_atom_site_fract_x
_atom_site_fract_y
_atom_site_fract_z
Si Si1 0.639118 0.232376 0.321746
Si Si2 0.666640 0.767681 0.177108
Si Si3 0.979519 0.186899 0.171398
Si Si4 0.066490 0.402656 0.179026
Si Si5 0.224614 0.483219 0.322077
Si Si6 0.636640 0.902834 0.677568
Si Si7 0.077378 0.957896 0.826743
O O1 0.645243 0.227277 0.500000
O O2 0.739965 0.237303 0.269483
O O3 0.580140 0.294135 0.288600
O O4 0.585116 0.170167 0.272871
O O5 0.587045 0.720922 0.217311
O O6 0.649966 0.831320 0.269066
O O7 0.670576 0.780276 0.000000
O O8 0.958796 0.113141 0.173597
O O9 0.964438 0.209873 0.000000
O O10 0.144774 0.442989 0.250996
O O11 0.965537 0.421631 0.216795
O O12 0.073311 0.407146 0.000000
O O13 0.219792 0.477956 0.500000
O O14 0.205708 0.554131 0.266421
O O15 0.322277 0.461743 0.267528
O O16 0.646696 0.909426 0.500000
O O17 0.086420 0.979252 0.000000
O O18 0.000000 0.000000 0.754525
#
# Coordination Sequence:
#
# PCOD9445975 Si02
#       7
#     8   8   8   8   8   8   8
#     4   9  19  35  59  86 113 154 195 233 287 352
#     4  11  22  36  59  91 121 150 192 250 300 337
#     4  10  19  38  63  85 115 158 200 234 282 356
#     4  10  20  39  61  83 114 156 199 232 285 362
#     4  11  23  37  58  90 120 150 193 248 298 335
#     4  11  23  40  61  84 115 160 201 235 289 359
#     4   9  20  37  61  88 117 157 201 241 286 347
#
# _framework density 19.753086
#
# number of rings (size 3 to 8) (size 9 to 14) (size 15 to 20)
#    0.000    1.857    1.429    2.571    2.000    2.857 
#    0.000    2.857    0.000    2.143    0.000    0.000 
#    0.000    0.000    0.000    0.000    0.000    0.000 
#
# Total GULP energy -312393.378894 kJ/mol
# GULP energy per Si atom -5578.453195 kJ/mol
# Density = 1.970813 g / cm^3
# Si number density = 19.753086 Si / 1000 Ang^3
#
#
#
# Elastic Constant Matrix: (Units=GPa)
#
#
# Indices 1 2 3 4 5 6 
#
# 1 -87.0429 -24.8232 -18.3083 0.0000 0.0000 0.0000
# 2 -24.8232 32.2638 -5.0564 0.0000 0.0000 0.0000
# 3 -18.3083 -5.0564 3.3231 0.0000 0.0000 0.0000
# 4 0.0000 0.0000 0.0000 23.0738 0.0000 0.0000
# 5 0.0000 0.0000 0.0000 0.0000 10.4584 0.0000
# 6 0.0000 0.0000 0.0000 0.0000 0.0000 11.9352
#
#
#
# Elastic Compliance Matrix: (Units=1/GPa)
#
#
# Indices 1 2 3 4 5 6 
#
# 1 -0.003324 -0.007126 -0.029156 0.000000 0.000000 0.000000
# 2 -0.007126 0.025420 -0.000584 0.000000 0.000000 0.000000
# 3 -0.029156 -0.000584 0.139406 0.000000 0.000000 0.000000
# 4 0.000000 0.000000 0.000000 0.043339 0.000000 0.000000
# 5 0.000000 0.000000 0.000000 0.000000 0.095617 0.000000
# 6 0.000000 0.000000 0.000000 0.000000 0.000000 0.083786
#
#
# Mechanical properties :
#
#
# Convention : Reuss Voigt Hill
#
# Bulk Modulus (GPa) = 11.39341 -16.42573 -2.51616
# Shear Modulus (GPa) = 10.26202 8.87560 9.56881
#
# Velocity S-wave (km/s) = 2.28176 2.12203 2.20334
# Velocity P-wave (km/s) = 3.56684 1.52629 2.27956
#
# Compressibility (1/GPa) = 0.08777001
#
# Stress axis : x y z
#
# Youngs Moduli (GPa) = -300.86374 39.33919 7.17328
#
# Poissons Ratio (x) = 0.28035 0.20914
# Poissons Ratio (y) = -2.14410 0.00419
# Poissons Ratio (z) = -8.77186 0.02298
#
# Static dielectric constant tensor:
#      x y z
#    x 1.554440 0.000000 0.000000 
#    y 0.000000 1.732830 0.000000 
#    z 0.000000 0.000000 1.668390 
# 
# From -- ./inp_files/6235.got.cif
#   From: 2010.05.17/outbox.ucp.g08.bks.cvg/sg58_4_cif.got.tgz:6235.got - 2010.06.11 16:41:41.
