data_PCOD9445968
_publ_section_title
;
Structure prediction by ZEFSAII (Michael W. Deem and Ramdas Pophale) SiO2 
 PCOD9445968
Probable space group: P N N M
;
_chemical_formula_sum "Si O2"
_cell_formula_units_Z 64
_cell_length_a 30.000000
_cell_length_b 12.000000
_cell_length_c 9.000000
_cell_angle_alpha 90.000000
_cell_angle_beta 90.000000
_cell_angle_gamma 90.000000
_cell_volume 3240.000000
_symmetry_space_group_name_H-M "P N N M"
_symmetry_group_IT_number 58
_symmetry_cell_setting 'orthorhombic'
loop_
_space_group_symop_operation_xyz
x,y,z
-x,-y,z
1/2+x,1/2-y,1/2-z
1/2-x,1/2+y,1/2-z
-x,-y,-z
x,y,-z
1/2-x,1/2+y,1/2+z
1/2+x,1/2-y,1/2+z
loop_
_atom_site_type_symbol
_atom_site_label
_atom_site_fract_x
_atom_site_fract_y
_atom_site_fract_z
Si Si1 0.810221 0.770637 0.819971
Si Si2 0.359964 0.328557 0.677398
Si Si3 0.073623 0.454344 0.324895
Si Si4 0.439272 0.203711 0.823728
Si Si5 0.832905 0.523596 0.824089
Si Si6 0.468166 0.712094 0.177172
Si Si7 0.891707 0.924323 0.820688
Si Si8 0.711608 0.811837 0.177721
O O1 0.811725 0.641408 0.778622
O O2 0.852798 0.840074 0.767229
O O3 0.762902 0.819026 0.774156
O O4 0.812200 0.774409 0.000000
O O5 0.355625 0.324782 0.500000
O O6 0.396054 0.238650 0.732982
O O7 0.377783 0.450556 0.721487
O O8 0.313608 0.293760 0.752068
O O9 0.086962 0.451352 0.500000
O O10 0.048714 0.572838 0.306052
O O11 0.115674 0.463357 0.218104
O O12 0.049871 0.337496 0.293971
O O13 0.480278 0.281781 0.777864
O O14 0.430720 0.219574 0.000000
O O15 0.812831 0.421664 0.734498
O O16 0.827169 0.506030 0.000000
O O17 0.437823 0.621215 0.256212
O O18 0.466196 0.694661 0.000000
O O19 0.893796 0.920307 0.000000
O O20 0.709298 0.804112 0.000000
#
# Coordination Sequence:
#
# PCOD9445968 Si02
#       8
#     8   8   8   8   8   8   8   8
#     4   9  21  40  61  85 117 155 192 236 292 346
#     4  11  24  40  60  85 116 154 200 245 289 346
#     4  10  19  35  59  88 120 153 190 235 290 347
#     4  10  21  38  60  85 120 157 191 238 295 347
#     4  11  21  37  62  90 120 151 192 242 289 343
#     4  10  21  37  60  90 117 151 197 242 288 347
#     4  10  22  42  61  81 115 158 195 240 294 345
#     4  11  23  40  62  87 119 157 195 238 295 349
#
# _framework density 19.753086
#
# number of rings (size 3 to 8) (size 9 to 14) (size 15 to 20)
#    0.000    1.750    2.500    1.500    1.750    3.500 
#    0.000    5.625    0.000    2.250    0.000    0.000 
#    0.000    0.000    0.000    0.000    0.000    0.000 
#
# Total GULP energy -357270.895845 kJ/mol
# GULP energy per Si atom -5582.357748 kJ/mol
# Density = 1.970813 g / cm^3
# Si number density = 19.753086 Si / 1000 Ang^3
#
#
#
# Elastic Constant Matrix: (Units=GPa)
#
#
# Indices 1 2 3 4 5 6 
#
# 1 44.7705 -13.0891 5.6278 0.0000 0.0000 0.0000
# 2 -13.0891 48.7842 10.0599 0.0000 0.0000 0.0000
# 3 5.6278 10.0599 23.0109 0.0000 0.0000 0.0000
# 4 0.0000 0.0000 0.0000 -10.7389 0.0000 0.0000
# 5 0.0000 0.0000 0.0000 0.0000 19.1562 0.0000
# 6 0.0000 0.0000 0.0000 0.0000 0.0000 15.4260
#
#
#
# Elastic Compliance Matrix: (Units=1/GPa)
#
#
# Indices 1 2 3 4 5 6 
#
# 1 0.026353 0.009232 -0.010481 0.000000 0.000000 0.000000
# 2 0.009232 0.025764 -0.013521 0.000000 0.000000 0.000000
# 3 -0.010481 -0.013521 0.051932 0.000000 0.000000 0.000000
# 4 0.000000 0.000000 0.000000 -0.093119 0.000000 0.000000
# 5 0.000000 0.000000 0.000000 0.000000 0.052202 0.000000
# 6 0.000000 0.000000 0.000000 0.000000 0.000000 0.064826
#
#
# Mechanical properties :
#
#
# Convention : Reuss Voigt Hill
#
# Bulk Modulus (GPa) = 13.42142 13.52921 13.47531
# Shear Modulus (GPa) = 27.42221 12.36647 19.89434
#
# Velocity S-wave (km/s) = 3.72996 2.50482 3.17701
# Velocity P-wave (km/s) = 5.03582 3.90250 4.50494
#
# Compressibility (1/GPa) = 0.07450776
#
# Stress axis : x y z
#
# Youngs Moduli (GPa) = 37.94683 38.81438 19.25586
#
# Poissons Ratio (x) = -0.35833 0.20182
# Poissons Ratio (y) = -0.35032 0.26036
# Poissons Ratio (z) = 0.39772 0.52482
#
# Static dielectric constant tensor:
#      x y z
#    x 1.713430 0.000000 0.000000 
#    y 0.000000 1.702310 0.000000 
#    z 0.000000 0.000000 1.657290 
# 
# From -- ./inp_files/10942.got.cif
#   From: 2010.05.17/outbox.ucp.g08.bks.cvg/sg58_6_cif.got.tgz:10942.got - 2010.06.11 16:41:41.
