data_PCOD9445722
_publ_section_title
;
Structure prediction by ZEFSAII (Michael W. Deem and Ramdas Pophale) SiO2 
 PCOD9445722
Probable space group: P N N M
;
_chemical_formula_sum "Si O2"
_cell_formula_units_Z 64
_cell_length_a 17.263789
_cell_length_b 5.729113
_cell_length_c 28.651414
_cell_angle_alpha 90.000000
_cell_angle_beta 90.000000
_cell_angle_gamma 90.000000
_cell_volume 2833.802426
_symmetry_space_group_name_H-M "P N N M"
_symmetry_group_IT_number 58
_symmetry_cell_setting 'orthorhombic'
loop_
_space_group_symop_operation_xyz
x,y,z
-x,-y,z
1/2+x,1/2-y,1/2-z
1/2-x,1/2+y,1/2-z
-x,-y,-z
x,y,-z
1/2-x,1/2+y,1/2+z
1/2+x,1/2-y,1/2+z
loop_
_atom_site_type_symbol
_atom_site_label
_atom_site_fract_x
_atom_site_fract_y
_atom_site_fract_z
Si Si1 0.793234 0.373035 0.176297
Si Si2 0.205592 0.954508 0.055111
Si Si3 0.682511 0.434833 0.950688
Si Si4 0.080645 0.370344 0.218088
Si Si5 0.957962 0.750356 0.585259
Si Si6 0.123225 0.349004 0.681545
Si Si7 0.408013 0.507651 0.367517
Si Si8 0.804377 0.264348 0.370998
O O1 0.845571 0.454839 0.219306
O O2 0.712402 0.241896 0.184979
O O3 0.762385 0.609379 0.152282
O O4 0.855865 0.216629 0.148201
O O5 0.127401 0.041539 0.080453
O O6 0.265777 0.053060 0.093632
O O7 0.233018 0.682248 0.055073
O O8 0.208794 0.019981 0.000000
O O9 0.616672 0.240235 0.948588
O O10 0.658587 0.592841 0.907971
O O11 0.680095 0.559354 0.000000
O O12 0.079503 0.284483 0.271086
O O13 0.096884 0.184292 0.177087
O O14 0.000000 0.500000 0.207376
O O15 0.925842 0.748702 0.638439
O O16 0.000000 0.500000 0.579537
O O17 0.000000 0.000000 0.575326
O O18 0.138779 0.618113 0.665972
O O19 0.500000 0.500000 0.373463
#
# Coordination Sequence:
#
# PCOD9445722 Si02
#       8
#     8   8   8   8   8   8   8   8
#     4  12  24  44  73  98 135 189 240 298 361 439
#     4  11  23  42  73 109 140 187 247 301 364 447
#     4  11  24  43  70 103 141 189 244 299 368 447
#     4  12  28  46  69 103 144 191 238 301 383 450
#     4  12  26  47  72 102 152 195 239 311 382 440
#     4  12  27  45  72 107 136 195 250 306 362 449
#     4  12  24  46  70 100 148 188 232 304 378 443
#     4  12  20  45  73 101 140 182 245 305 366 423
#
# _framework density 22.584496999999999
#
# number of rings (size 3 to 8) (size 9 to 14) (size 15 to 20)
#    0.000    0.250    7.500    1.500    3.500    1.250 
#    0.000    0.000    0.000    1.125    0.000    0.000 
#    0.000    0.000    0.000    0.000    0.000    0.000 
#
# Total GULP energy -356286.860981 kJ/mol
# GULP energy per Si atom -5566.982203 kJ/mol
# Density = 2.253309 g / cm^3
# Si number density = 22.584497 Si / 1000 Ang^3
#
#
#
# Elastic Constant Matrix: (Units=GPa)
#
#
# Indices 1 2 3 4 5 6 
#
# 1 87.0269 29.5428 12.8320 0.0000 0.0000 0.0000
# 2 29.5428 77.3907 29.0756 0.0000 0.0000 0.0000
# 3 12.8320 29.0756 120.1582 0.0000 0.0000 0.0000
# 4 0.0000 0.0000 0.0000 45.8965 0.0000 0.0000
# 5 0.0000 0.0000 0.0000 0.0000 18.3127 0.0000
# 6 0.0000 0.0000 0.0000 0.0000 0.0000 39.1949
#
#
#
# Elastic Compliance Matrix: (Units=1/GPa)
#
#
# Indices 1 2 3 4 5 6 
#
# 1 0.013206 -0.004963 -0.000209 0.000000 0.000000 0.000000
# 2 -0.004963 0.016078 -0.003361 0.000000 0.000000 0.000000
# 3 -0.000209 -0.003361 0.009158 0.000000 0.000000 0.000000
# 4 0.000000 0.000000 0.000000 0.021788 0.000000 0.000000
# 5 0.000000 0.000000 0.000000 0.000000 0.054607 0.000000
# 6 0.000000 0.000000 0.000000 0.000000 0.000000 0.025514
#
#
# Mechanical properties :
#
#
# Convention : Reuss Voigt Hill
#
# Bulk Modulus (GPa) = 46.77893 47.49739 47.13816
# Shear Modulus (GPa) = 30.38732 34.88919 32.63826
#
# Velocity S-wave (km/s) = 3.67208 3.93470 3.80565
# Velocity P-wave (km/s) = 6.22388 6.45903 6.34255
#
# Compressibility (1/GPa) = 0.02137714
#
# Stress axis : x y z
#
# Youngs Moduli (GPa) = 75.72194 62.19514 109.19496
#
# Poissons Ratio (x) = 0.30865 0.02288
# Poissons Ratio (y) = 0.37578 0.36697
# Poissons Ratio (z) = 0.01586 0.20902
#
# Static dielectric constant tensor:
#      x y z
#    x 1.902100 0.000000 0.000000 
#    y 0.000000 1.995750 0.000000 
#    z 0.000000 0.000000 1.855520 
# 
# From -- ./inp_files/35151.got.cif
#   From: 2010.05.17/outbox.cif.g08.bks.cpg/sg58_18_cif.got.tgz:35151.got - 2010.06.03 14:20:14.
