data_PCOD9445057
_publ_section_title
;
Structure prediction by ZEFSAII (Michael W. Deem and Ramdas Pophale) SiO2 
 PCOD9445057
Probable space group: P N N M
;
_chemical_formula_sum "Si O2"
_cell_formula_units_Z 34
_cell_length_a 22.187721
_cell_length_b 8.946968
_cell_length_c 9.164342
_cell_angle_alpha 90.000000
_cell_angle_beta 90.000000
_cell_angle_gamma 90.000000
_cell_volume 1819.239463
_symmetry_space_group_name_H-M "P N N M"
_symmetry_group_IT_number 58
_symmetry_cell_setting 'orthorhombic'
loop_
_space_group_symop_operation_xyz
x,y,z
-x,-y,z
1/2+x,1/2-y,1/2-z
1/2-x,1/2+y,1/2-z
-x,-y,-z
x,y,-z
1/2-x,1/2+y,1/2+z
1/2+x,1/2-y,1/2+z
loop_
_atom_site_type_symbol
_atom_site_label
_atom_site_fract_x
_atom_site_fract_y
_atom_site_fract_z
Si Si1 0.000000 0.000000 0.000000
Si Si2 0.175780 0.628868 0.825858
Si Si3 0.783778 0.035260 0.174701
Si Si4 0.896341 0.824893 0.839294
Si Si5 0.569860 0.029250 0.826928
O O1 0.046595 0.069161 0.875155
O O2 0.225141 0.516087 0.761125
O O3 0.112023 0.588783 0.755257
O O4 0.196706 0.796587 0.788944
O O5 0.172170 0.617978 0.000000
O O6 0.839379 0.924077 0.206459
O O7 0.772470 0.028499 0.000000
O O8 0.911809 0.692902 0.730046
O O9 0.881412 0.756096 0.000000
O O10 0.500000 0.000000 0.792847
O O11 0.578783 0.017949 0.000000
#
# Coordination Sequence:
#
# PCOD9445057 Si02
#       5
#     2   8   8   8   8
#     4   8  20  36  68  96 120 160 198 252 292 360
#     4  11  24  39  63  90 117 161 204 247 304 360
#     4  10  22  40  62  90 124 156 199 251 303 356
#     4   9  20  38  65  89 122 156 201 245 296 356
#     4  11  25  41  59  88 125 161 200 252 306 360
#
# _framework density 18.689128
#
# number of rings (size 3 to 8) (size 9 to 14) (size 15 to 20)
#    0.706    1.176    0.000    2.824    3.294    8.471 
#    0.000    0.588    0.000    0.000    0.000    0.000 
#    0.000    0.000    0.000    0.000    0.000    0.000 
#
# Total GULP energy -189291.463757 kJ/mol
# GULP energy per Si atom -5567.395993 kJ/mol
# Density = 1.864659 g / cm^3
# Si number density = 18.689128 Si / 1000 Ang^3
#
#
#
# Elastic Constant Matrix: (Units=GPa)
#
#
# Indices 1 2 3 4 5 6 
#
# 1 116.1391 65.9032 73.5608 0.0000 0.0000 0.0000
# 2 65.9032 93.3489 58.4408 0.0000 0.0000 0.0000
# 3 73.5608 58.4408 65.7624 0.0000 0.0000 0.0000
# 4 0.0000 0.0000 0.0000 20.3365 0.0000 0.0000
# 5 0.0000 0.0000 0.0000 0.0000 15.5864 0.0000
# 6 0.0000 0.0000 0.0000 0.0000 0.0000 34.0214
#
#
#
# Elastic Compliance Matrix: (Units=1/GPa)
#
#
# Indices 1 2 3 4 5 6 
#
# 1 0.029544 -0.000380 -0.032710 0.000000 0.000000 0.000000
# 2 -0.000380 0.024151 -0.021037 0.000000 0.000000 0.000000
# 3 -0.032710 -0.021037 0.070490 0.000000 0.000000 0.000000
# 4 0.000000 0.000000 0.000000 0.049173 0.000000 0.000000
# 5 0.000000 0.000000 0.000000 0.000000 0.064158 0.000000
# 6 0.000000 0.000000 0.000000 0.000000 0.000000 0.029393
#
#
# Mechanical properties :
#
#
# Convention : Reuss Voigt Hill
#
# Bulk Modulus (GPa) = 62.77035 74.56221 68.66628
# Shear Modulus (GPa) = 13.14156 19.14524 16.14340
#
# Velocity S-wave (km/s) = 2.65460 3.20410 2.94221
# Velocity P-wave (km/s) = 6.56166 7.32605 6.95437
#
# Compressibility (1/GPa) = 0.01593109
#
# Stress axis : x y z
#
# Youngs Moduli (GPa) = 33.84828 41.40631 14.18645
#
# Poissons Ratio (x) = 0.01572 0.46403
# Poissons Ratio (y) = 0.01285 0.29845
# Poissons Ratio (z) = 1.10716 0.87108
#
# Static dielectric constant tensor:
#      x y z
#    x 1.631050 0.000000 0.000000 
#    y 0.000000 1.641300 0.000000 
#    z 0.000000 0.000000 1.627320 
# 
# From -- ./inp_files/8655.got.cif
#   From: 2010.05.17/outbox.cif.g08.bks.cpg/sg58_5_cif.got.tgz:8655.got - 2010.06.03 14:20:14.
