data_PCOD9445893
_publ_section_title
;
Structure prediction by ZEFSAII (Michael W. Deem and Ramdas Pophale) SiO2 
 PCOD9445893
Probable space group: P N N M
;
_chemical_formula_sum "Si O2"
_cell_formula_units_Z 56
_cell_length_a 14.532215
_cell_length_b 19.630243
_cell_length_c 7.254879
_cell_angle_alpha 90.000000
_cell_angle_beta 90.000000
_cell_angle_gamma 90.000000
_cell_volume 2069.605947
_symmetry_space_group_name_H-M "P N N M"
_symmetry_group_IT_number 58
_symmetry_cell_setting 'orthorhombic'
loop_
_space_group_symop_operation_xyz
x,y,z
-x,-y,z
1/2+x,1/2-y,1/2-z
1/2-x,1/2+y,1/2-z
-x,-y,-z
x,y,-z
1/2-x,1/2+y,1/2+z
1/2+x,1/2-y,1/2+z
loop_
_atom_site_type_symbol
_atom_site_label
_atom_site_fract_x
_atom_site_fract_y
_atom_site_fract_z
Si Si1 0.780897 0.149947 0.722558
Si Si2 0.272234 0.201429 0.288229
Si Si3 0.938131 0.782033 0.723658
Si Si4 0.955900 0.929195 0.723689
Si Si5 0.927353 0.632135 0.789893
Si Si6 0.608827 0.925687 0.274158
Si Si7 0.719581 0.503070 0.777204
O O1 0.784865 0.152690 0.500000
O O2 0.816328 0.223262 0.782705
O O3 0.674308 0.142968 0.788085
O O4 0.819296 0.076544 0.780172
O O5 0.257203 0.181564 0.500000
O O6 0.168911 0.210993 0.213404
O O7 0.336500 0.142368 0.213188
O O8 0.941701 0.778818 0.500000
O O9 0.984268 0.853383 0.781503
O O10 0.970404 0.708466 0.791141
O O11 0.965324 0.928839 0.500000
O O12 0.848834 0.942286 0.771953
O O13 0.000000 0.000000 0.787007
O O14 0.004207 0.582281 0.710780
O O15 0.910626 0.609783 0.000000
O O16 0.603768 0.926509 0.500000
O O17 0.676517 0.986754 0.219036
O O18 0.720129 0.504591 0.000000
#
# Coordination Sequence:
#
# PCOD9445893 Si02
#       7
#     8   8   8   8   8   8   8
#     4   9  18  30  46  70  98 121 145 191 244 275
#     4   9  16  29  49  66  85 122 163 191 219 271
#     4   9  16  29  48  67  88 118 155 189 227 272
#     4   9  16  26  43  68  94 118 149 193 237 272
#     4   9  18  30  45  69  95 120 151 189 232 271
#     4   9  16  28  47  67  89 122 162 192 220 272
#     4   9  16  28  45  66  92 122 156 191 229 275
#
# _framework density 27.05829
#
# number of rings (size 3 to 8) (size 9 to 14) (size 15 to 20)
#    0.000    3.000    1.429    0.000    0.000    1.714 
#    0.000    5.000    0.000    3.000    0.000    4.000 
#    0.000    0.000    0.000    0.000    0.000    0.000 
#
# Total GULP energy -312887.001179 kJ/mol
# GULP energy per Si atom -5587.267878 kJ/mol
# Density = 2.699670 g / cm^3
# Si number density = 27.058290 Si / 1000 Ang^3
#
#
#
# Elastic Constant Matrix: (Units=GPa)
#
#
# Indices 1 2 3 4 5 6 
#
# 1 54.6203 9.8658 -7.5933 0.0000 0.0000 0.0000
# 2 9.8658 150.2019 -15.5346 0.0000 0.0000 0.0000
# 3 -7.5933 -15.5346 120.1165 0.0000 0.0000 0.0000
# 4 0.0000 0.0000 0.0000 13.9749 0.0000 0.0000
# 5 0.0000 0.0000 0.0000 0.0000 -11.1547 0.0000
# 6 0.0000 0.0000 0.0000 0.0000 0.0000 49.6653
#
#
#
# Elastic Compliance Matrix: (Units=1/GPa)
#
#
# Indices 1 2 3 4 5 6 
#
# 1 0.018654 -0.001118 0.001035 0.000000 0.000000 0.000000
# 2 -0.001118 0.006815 0.000811 0.000000 0.000000 0.000000
# 3 0.001035 0.000811 0.008496 0.000000 0.000000 0.000000
# 4 0.000000 0.000000 0.000000 0.071557 0.000000 0.000000
# 5 0.000000 0.000000 0.000000 0.000000 -0.089649 0.000000
# 6 0.000000 0.000000 0.000000 0.000000 0.000000 0.020135
#
#
# Mechanical properties :
#
#
# Convention : Reuss Voigt Hill
#
# Bulk Modulus (GPa) = 28.23375 33.15717 30.69546
# Shear Modulus (GPa) = 107.85273 33.04384 70.44828
#
# Velocity S-wave (km/s) = 6.32028 3.49837 5.10806
# Velocity P-wave (km/s) = 7.98238 5.34778 6.79401
#
# Compressibility (1/GPa) = 0.03541860
#
# Stress axis : x y z
#
# Youngs Moduli (GPa) = 53.60777 146.73512 117.70935
#
# Poissons Ratio (x) = 0.16409 -0.12178
# Poissons Ratio (y) = 0.05995 -0.09543
# Poissons Ratio (z) = -0.05546 -0.11896
#
# Static dielectric constant tensor:
#      x y z
#    x 2.156600 0.000000 0.000000 
#    y 0.000000 2.081700 0.000000 
#    z 0.000000 0.000000 2.103770 
# 
# From -- ./inp_files/8183.got.cif
#   From: 2010.05.17/outbox.cif.g08.bks.cpg/sg58_5_cif.got.tgz:8183.got - 2010.06.03 14:20:14.
