data_PCOD9445172
_publ_section_title
;
Structure prediction by ZEFSAII (Michael W. Deem and Ramdas Pophale) SiO2 
 PCOD9445172
Probable space group: P N N M
;
_chemical_formula_sum "Si O2"
_cell_formula_units_Z 56
_cell_length_a 13.025192
_cell_length_b 6.974803
_cell_length_c 31.741544
_cell_angle_alpha 90.000000
_cell_angle_beta 90.000000
_cell_angle_gamma 90.000000
_cell_volume 2883.660495
_symmetry_space_group_name_H-M "P N N M"
_symmetry_group_IT_number 58
_symmetry_cell_setting 'orthorhombic'
loop_
_space_group_symop_operation_xyz
x,y,z
-x,-y,z
1/2+x,1/2-y,1/2-z
1/2-x,1/2+y,1/2-z
-x,-y,-z
x,y,-z
1/2-x,1/2+y,1/2+z
1/2+x,1/2-y,1/2+z
loop_
_atom_site_type_symbol
_atom_site_label
_atom_site_fract_x
_atom_site_fract_y
_atom_site_fract_z
Si Si1 0.887604 0.909392 0.730788
Si Si2 0.739427 0.234951 0.693487
Si Si3 0.890360 0.045551 0.451698
Si Si4 0.884426 0.547535 0.883487
Si Si5 0.114308 0.424436 0.339137
Si Si6 0.757240 0.717849 0.581581
Si Si7 0.707472 0.306861 0.450015
O O1 0.841763 0.818349 0.773185
O O2 0.891686 0.744641 0.695301
O O3 0.809669 0.073867 0.715304
O O4 0.000000 0.000000 0.736850
O O5 0.679359 0.141305 0.654447
O O6 0.813658 0.405121 0.678054
O O7 0.911314 0.101603 0.500000
O O8 0.816397 0.212498 0.434706
O O9 0.822576 0.854099 0.449180
O O10 0.000000 0.000000 0.430787
O O11 0.829286 0.352981 0.898361
O O12 0.876973 0.695580 0.922682
O O13 0.000000 0.500000 0.871201
O O14 0.166843 0.346197 0.381267
O O15 0.000000 0.500000 0.347213
O O16 0.711839 0.530892 0.559561
O O17 0.696998 0.271085 0.500000
#
# Coordination Sequence:
#
# PCOD9445172 Si02
#       7
#     8   8   8   8   8   8   8
#     4  12  26  44  71 100 132 173 218 270 327 396
#     4  12  25  45  67  98 135 168 220 273 326 396
#     4   9  20  36  57  91 131 168 212 262 320 387
#     4  11  26  45  68  96 130 171 229 280 334 389
#     4  12  25  40  67  99 134 174 215 262 330 394
#     4  11  23  39  65  94 128 171 217 273 321 392
#     4  10  22  42  65  94 134 175 221 277 335 397
#
# _framework density 19.419763
#
# number of rings (size 3 to 8) (size 9 to 14) (size 15 to 20)
#    0.000    1.000    5.714    0.429    2.000    4.857 
#    0.000    2.857    0.000    0.000    0.000    0.000 
#    0.000    0.000    0.000    0.000    0.000    0.000 
#
# Total GULP energy -312960.682475 kJ/mol
# GULP energy per Si atom -5588.583616 kJ/mol
# Density = 1.937556 g / cm^3
# Si number density = 19.419763 Si / 1000 Ang^3
#
#
#
# Elastic Constant Matrix: (Units=GPa)
#
#
# Indices 1 2 3 4 5 6 
#
# 1 111.8065 46.8081 35.9266 0.0000 0.0000 0.0000
# 2 46.8081 122.7290 28.9195 0.0000 0.0000 0.0000
# 3 35.9266 28.9195 81.3453 0.0000 0.0000 0.0000
# 4 0.0000 0.0000 0.0000 35.1391 0.0000 0.0000
# 5 0.0000 0.0000 0.0000 0.0000 16.8526 0.0000
# 6 0.0000 0.0000 0.0000 0.0000 0.0000 25.9233
#
#
#
# Elastic Compliance Matrix: (Units=1/GPa)
#
#
# Indices 1 2 3 4 5 6 
#
# 1 0.011677 -0.003534 -0.003901 0.000000 0.000000 0.000000
# 2 -0.003534 0.009963 -0.001981 0.000000 0.000000 0.000000
# 3 -0.003901 -0.001981 0.014720 0.000000 0.000000 0.000000
# 4 0.000000 0.000000 0.000000 0.028458 0.000000 0.000000
# 5 0.000000 0.000000 0.000000 0.000000 0.059338 0.000000
# 6 0.000000 0.000000 0.000000 0.000000 0.000000 0.038575
#
#
# Mechanical properties :
#
#
# Convention : Reuss Voigt Hill
#
# Bulk Modulus (GPa) = 57.05131 59.90990 58.48061
# Shear Modulus (GPa) = 26.67990 29.19809 27.93900
#
# Velocity S-wave (km/s) = 3.71057 3.88174 3.79712
# Velocity P-wave (km/s) = 6.91372 7.14195 7.02876
#
# Compressibility (1/GPa) = 0.01752808
#
# Stress axis : x y z
#
# Youngs Moduli (GPa) = 85.63745 100.37308 67.93333
#
# Poissons Ratio (x) = 0.35476 0.26499
# Poissons Ratio (y) = 0.30268 0.13457
# Poissons Ratio (z) = 0.33405 0.19883
#
# Static dielectric constant tensor:
#      x y z
#    x 1.666010 0.000000 0.000000 
#    y 0.000000 1.664250 0.000000 
#    z 0.000000 0.000000 1.669230 
# 
# From -- ./inp_files/35043.got.cif
#   From: 2010.05.17/outbox.cif.g08.bks.cpg/sg58_18_cif.got.tgz:35043.got - 2010.06.03 14:20:14.
