data_PCOD9445235
_publ_section_title
;
Structure prediction by ZEFSAII (Michael W. Deem and Ramdas Pophale) SiO2 
 PCOD9445235
Probable space group: P N N M
;
_chemical_formula_sum "Si O2"
_cell_formula_units_Z 32
_cell_length_a 7.231824
_cell_length_b 12.808236
_cell_length_c 14.285287
_cell_angle_alpha 90.000000
_cell_angle_beta 90.000000
_cell_angle_gamma 90.000000
_cell_volume 1323.201972
_symmetry_space_group_name_H-M "P N N M"
_symmetry_group_IT_number 58
_symmetry_cell_setting 'orthorhombic'
loop_
_space_group_symop_operation_xyz
x,y,z
-x,-y,z
1/2+x,1/2-y,1/2-z
1/2-x,1/2+y,1/2-z
-x,-y,-z
x,y,-z
1/2-x,1/2+y,1/2+z
1/2+x,1/2-y,1/2+z
loop_
_atom_site_type_symbol
_atom_site_label
_atom_site_fract_x
_atom_site_fract_y
_atom_site_fract_z
Si Si1 0.775010 0.101888 0.000000
Si Si2 0.551740 0.114055 0.298485
Si Si3 0.477960 0.328464 0.201382
Si Si4 0.500000 0.500000 0.340119
Si Si5 0.462175 0.804160 0.500000
Si Si6 0.020020 0.766777 0.500000
O O1 0.571413 0.151719 0.000000
O O2 0.835964 0.038569 0.908285
O O3 0.912820 0.201439 0.000000
O O4 0.476390 0.210933 0.239110
O O5 0.496273 0.132044 0.406326
O O6 0.771505 0.127808 0.298075
O O7 0.500000 0.000000 0.265309
O O8 0.572926 0.405708 0.274953
O O9 0.545139 0.323991 0.094814
O O10 0.244263 0.769802 0.500000
#
# Coordination Sequence:
#
# PCOD9445235 Si02
#       6
#     4   8   8   4   4   4
#     4  11  22  45  72 102 145 189 246 304 373 421
#     4  11  25  44  72 105 146 193 245 306 368 440
#     4  11  25  44  70 105 146 190 247 300 374 435
#     4  11  24  41  74 104 138 199 238 303 366 434
#     4  10  22  45  72 103 150 187 245 300 372 435
#     4  10  25  45  66 108 144 187 239 307 352 453
#
# _framework density 24.183762999999999
#
# number of rings (size 3 to 8) (size 9 to 14) (size 15 to 20)
#    0.000    1.250    2.500    1.875    3.500    0.500 
#    0.000    3.125    0.000    0.000    0.000    0.000 
#    0.000    0.000    0.000    0.000    0.000    0.000 
#
# Total GULP energy -179300.530674 kJ/mol
# GULP energy per Si atom -5603.141584 kJ/mol
# Density = 2.412872 g / cm^3
# Si number density = 24.183763 Si / 1000 Ang^3
#
#
#
# Elastic Constant Matrix: (Units=GPa)
#
#
# Indices 1 2 3 4 5 6 
#
# 1 77.2120 36.2847 9.8112 0.0000 0.0000 0.0000
# 2 36.2847 187.3702 83.6525 0.0000 0.0000 0.0000
# 3 9.8112 83.6525 194.6220 0.0000 0.0000 0.0000
# 4 0.0000 0.0000 0.0000 46.2100 0.0000 0.0000
# 5 0.0000 0.0000 0.0000 0.0000 8.7721 0.0000
# 6 0.0000 0.0000 0.0000 0.0000 0.0000 15.8737
#
#
#
# Elastic Compliance Matrix: (Units=1/GPa)
#
#
# Indices 1 2 3 4 5 6 
#
# 1 0.014301 -0.003029 0.000581 0.000000 0.000000 0.000000
# 2 -0.003029 0.007246 -0.002962 0.000000 0.000000 0.000000
# 3 0.000581 -0.002962 0.006382 0.000000 0.000000 0.000000
# 4 0.000000 0.000000 0.000000 0.021640 0.000000 0.000000
# 5 0.000000 0.000000 0.000000 0.000000 0.113997 0.000000
# 6 0.000000 0.000000 0.000000 0.000000 0.000000 0.062997
#
#
# Mechanical properties :
#
#
# Convention : Reuss Voigt Hill
#
# Bulk Modulus (GPa) = 58.44733 79.85569 69.15151
# Shear Modulus (GPa) = 20.56885 36.13488 28.35187
#
# Velocity S-wave (km/s) = 2.91954 3.86966 3.42768
# Velocity P-wave (km/s) = 5.96535 7.28407 6.65744
#
# Compressibility (1/GPa) = 0.01710942
#
# Stress axis : x y z
#
# Youngs Moduli (GPa) = 69.92591 138.01049 156.69336
#
# Poissons Ratio (x) = 0.41800 -0.09102
# Poissons Ratio (y) = 0.21179 0.46408
# Poissons Ratio (z) = -0.04062 0.40875
#
# Static dielectric constant tensor:
#      x y z
#    x 1.952160 0.000000 0.000000 
#    y 0.000000 1.891310 0.000000 
#    z 0.000000 0.000000 1.952530 
# 
# From -- ./inp_files/19214.got.cif
#   From: 2010.05.17/outbox.cif.g08.bks.cpg/sg58_10_cif.got.tgz:19214.got - 2010.06.03 14:20:14.
