data_PCOD9445978
_publ_section_title
;
Structure prediction by ZEFSAII (Michael W. Deem and Ramdas Pophale) SiO2 
 PCOD9445978
Probable space group: P N N M
;
_chemical_formula_sum "Si O2"
_cell_formula_units_Z 64
_cell_length_a 24.000000
_cell_length_b 18.000000
_cell_length_c 9.000000
_cell_angle_alpha 90.000000
_cell_angle_beta 90.000000
_cell_angle_gamma 90.000000
_cell_volume 3888.000000
_symmetry_space_group_name_H-M "P N N M"
_symmetry_group_IT_number 58
_symmetry_cell_setting 'orthorhombic'
loop_
_space_group_symop_operation_xyz
x,y,z
-x,-y,z
1/2+x,1/2-y,1/2-z
1/2-x,1/2+y,1/2-z
-x,-y,-z
x,y,-z
1/2-x,1/2+y,1/2+z
1/2+x,1/2-y,1/2+z
loop_
_atom_site_type_symbol
_atom_site_label
_atom_site_fract_x
_atom_site_fract_y
_atom_site_fract_z
Si Si1 0.740884 0.693006 0.673401
Si Si2 0.901103 0.022291 0.676035
Si Si3 0.316784 0.698729 0.329204
Si Si4 0.271497 0.459700 0.826919
Si Si5 0.457197 0.320312 0.821738
Si Si6 0.287825 0.085583 0.170840
Si Si7 0.066772 0.125441 0.822952
Si Si8 0.140089 0.718762 0.678379
O O1 0.733871 0.701868 0.500000
O O2 0.796000 0.734762 0.727987
O O3 0.742287 0.608896 0.723528
O O4 0.687804 0.729517 0.753811
O O5 0.909557 0.011604 0.500000
O O6 0.933618 0.958149 0.761013
O O7 0.835114 0.015953 0.706644
O O8 0.922260 0.104700 0.713469
O O9 0.323251 0.723718 0.500000
O O10 0.265893 0.640163 0.328147
O O11 0.373861 0.660941 0.279858
O O12 0.227917 0.523207 0.787187
O O13 0.270086 0.438620 0.000000
O O14 0.516074 0.328359 0.743634
O O15 0.419654 0.250150 0.775761
O O16 0.464625 0.318443 0.000000
O O17 0.341298 0.135025 0.212154
O O18 0.293430 0.058573 0.000000
O O19 0.063641 0.123593 0.000000
O O20 0.143767 0.726454 0.500000
#
# Coordination Sequence:
#
# PCOD9445978 Si02
#       8
#     8   8   8   8   8   8   8   8
#     4  11  21  31  50  75  98 124 164 209 246 290
#     4  10  20  33  48  67  98 138 175 202 232 290
#     4   9  19  35  50  67  98 133 162 199 252 298
#     4  11  20  32  50  72 101 134 165 198 246 300
#     4  10  20  35  51  68  95 136 175 202 238 290
#     4   9  17  31  51  72  96 126 163 203 244 293
#     4  11  22  34  49  71  99 132 169 211 249 281
#     4   9  18  35  52  69  98 133 163 200 251 297
#
# _framework density 16.460905
#
# number of rings (size 3 to 8) (size 9 to 14) (size 15 to 20)
#    0.000    2.000    2.500    3.000    0.000    6.000 
#    0.000    0.000    0.000    0.000    0.000    0.875 
#    0.000    7.000    0.000    0.000    0.000    0.000 
#
# Total GULP energy -356845.918273 kJ/mol
# GULP energy per Si atom -5575.717473 kJ/mol
# Density = 1.642344 g / cm^3
# Si number density = 16.460905 Si / 1000 Ang^3
#
#
#
# Elastic Constant Matrix: (Units=GPa)
#
#
# Indices 1 2 3 4 5 6 
#
# 1 17.4605 -2.0770 -3.0441 0.0000 0.0000 0.0000
# 2 -2.0770 -0.7040 -6.1200 0.0000 0.0000 0.0000
# 3 -3.0441 -6.1200 -30.2448 0.0000 0.0000 0.0000
# 4 0.0000 0.0000 0.0000 17.5019 0.0000 0.0000
# 5 0.0000 0.0000 0.0000 0.0000 22.0326 0.0000
# 6 0.0000 0.0000 0.0000 0.0000 0.0000 21.9610
#
#
#
# Elastic Compliance Matrix: (Units=1/GPa)
#
#
# Indices 1 2 3 4 5 6 
#
# 1 0.072610 0.198515 -0.047477 0.000000 0.000000 0.000000
# 2 0.198515 2.413964 -0.508440 0.000000 0.000000 0.000000
# 3 -0.047477 -0.508440 0.074597 0.000000 0.000000 0.000000
# 4 0.000000 0.000000 0.000000 0.057137 0.000000 0.000000
# 5 0.000000 0.000000 0.000000 0.000000 0.045387 0.000000
# 6 0.000000 0.000000 0.000000 0.000000 0.000000 0.045535
#
#
# Mechanical properties :
#
#
# Convention : Reuss Voigt Hill
#
# Bulk Modulus (GPa) = 0.54160 -3.99671 -1.72755
# Shear Modulus (GPa) = 1.23778 12.14928 6.69353
#
# Velocity S-wave (km/s) = 0.86809 2.71969 2.01870
# Velocity P-wave (km/s) = 1.15521 2.72562 2.09327
#
# Compressibility (1/GPa) = 1.84636621
#
# Stress axis : x y z
#
# Youngs Moduli (GPa) = 13.77230 0.41426 13.40543
#
# Poissons Ratio (x) = -0.08224 0.63645
# Poissons Ratio (y) = -2.73401 6.81586
# Poissons Ratio (z) = 0.65387 0.21062
#
# Static dielectric constant tensor:
#      x y z
#    x 1.548470 0.000000 0.000000 
#    y 0.000000 1.575770 0.000000 
#    z 0.000000 0.000000 1.544430 
# 
# From -- ./inp_files/8482.got.cif
#   From: 2010.05.17/outbox.ucp.g08.bks.cvg/sg58_5_cif.got.tgz:8482.got - 2010.06.11 16:41:41.
