data_PCOD9445768
_publ_section_title
;
Structure prediction by ZEFSAII (Michael W. Deem and Ramdas Pophale) SiO2 
 PCOD9445768
Probable space group: P N N M
;
_chemical_formula_sum "Si O2"
_cell_formula_units_Z 48
_cell_length_a 8.528539
_cell_length_b 17.556693
_cell_length_c 15.489339
_cell_angle_alpha 90.000000
_cell_angle_beta 90.000000
_cell_angle_gamma 90.000000
_cell_volume 2319.264282
_symmetry_space_group_name_H-M "P N N M"
_symmetry_group_IT_number 58
_symmetry_cell_setting 'orthorhombic'
loop_
_space_group_symop_operation_xyz
x,y,z
-x,-y,z
1/2+x,1/2-y,1/2-z
1/2-x,1/2+y,1/2-z
-x,-y,-z
x,y,-z
1/2-x,1/2+y,1/2+z
1/2+x,1/2-y,1/2+z
loop_
_atom_site_type_symbol
_atom_site_label
_atom_site_fract_x
_atom_site_fract_y
_atom_site_fract_z
Si Si1 0.324784 0.964662 0.000000
Si Si2 0.665156 0.774501 0.334952
Si Si3 0.900049 0.924711 0.500000
Si Si4 0.167802 0.212683 0.843187
Si Si5 0.323688 0.531987 0.328175
Si Si6 0.849421 0.217153 0.500000
Si Si7 0.160562 0.286295 0.500000
Si Si8 0.646974 0.947130 0.347455
O O1 0.500000 0.000000 0.000000
O O2 0.244680 0.991652 0.911945
O O3 0.300521 0.874187 0.000000
O O4 0.762403 0.762210 0.248421
O O5 0.517817 0.720512 0.342897
O O6 0.773588 0.757782 0.416985
O O7 0.595660 0.859998 0.331152
O O8 0.784118 0.932853 0.417754
O O9 0.031920 0.856261 0.500000
O O10 0.000000 0.000000 0.500000
O O11 0.193340 0.122073 0.849795
O O12 0.242814 0.266822 0.916429
O O13 0.500000 0.500000 0.314019
O O14 0.224007 0.520238 0.240269
O O15 0.974085 0.285017 0.500000
O O16 0.500000 0.000000 0.374442
#
# Coordination Sequence:
#
# PCOD9445768 Si02
#       8
#     4   8   4   8   8   4   4   8
#     4  12  25  42  68 100 136 183 226 284 351 408
#     4  11  24  43  67 101 133 180 227 276 348 404
#     4  12  27  46  69  97 133 186 226 287 353 408
#     4  11  25  41  70  99 138 182 227 286 341 413
#     4  11  24  44  68 104 142 182 236 283 352 415
#     4  12  25  45  68 100 137 174 234 278 343 422
#     4  12  23  45  69  94 138 176 225 282 340 417
#     4  11  25  45  70 101 138 179 234 288 346 414
#
# _framework density 20.696217999999998
#
# number of rings (size 3 to 8) (size 9 to 14) (size 15 to 20)
#    0.000    0.667    1.667    5.500    4.667    5.333 
#    0.000    0.000    0.000    0.000    0.000    0.000 
#    0.000    0.000    0.000    0.000    0.000    0.000 
#
# Total GULP energy -268016.909193 kJ/mol
# GULP energy per Si atom -5583.685608 kJ/mol
# Density = 2.064911 g / cm^3
# Si number density = 20.696218 Si / 1000 Ang^3
#
#
#
# Elastic Constant Matrix: (Units=GPa)
#
#
# Indices 1 2 3 4 5 6 
#
# 1 70.4422 16.8025 22.9824 0.0000 0.0000 0.0000
# 2 16.8025 75.5969 39.8990 0.0000 0.0000 0.0000
# 3 22.9824 39.8990 140.6698 0.0000 0.0000 0.0000
# 4 0.0000 0.0000 0.0000 20.5578 0.0000 0.0000
# 5 0.0000 0.0000 0.0000 0.0000 37.4812 0.0000
# 6 0.0000 0.0000 0.0000 0.0000 0.0000 45.7055
#
#
#
# Elastic Compliance Matrix: (Units=1/GPa)
#
#
# Indices 1 2 3 4 5 6 
#
# 1 0.015375 -0.002460 -0.001814 0.000000 0.000000 0.000000
# 2 -0.002460 0.015950 -0.004122 0.000000 0.000000 0.000000
# 3 -0.001814 -0.004122 0.008574 0.000000 0.000000 0.000000
# 4 0.000000 0.000000 0.000000 0.048643 0.000000 0.000000
# 5 0.000000 0.000000 0.000000 0.000000 0.026680 0.000000
# 6 0.000000 0.000000 0.000000 0.000000 0.000000 0.021879
#
#
# Mechanical properties :
#
#
# Convention : Reuss Voigt Hill
#
# Bulk Modulus (GPa) = 43.27660 49.56408 46.42034
# Shear Modulus (GPa) = 30.94121 34.55058 32.74589
#
# Velocity S-wave (km/s) = 3.87074 4.09028 3.98202
# Velocity P-wave (km/s) = 6.39786 6.80497 6.60455
#
# Compressibility (1/GPa) = 0.02310718
#
# Stress axis : x y z
#
# Youngs Moduli (GPa) = 65.04216 62.69423 116.62525
#
# Poissons Ratio (x) = 0.15421 0.21158
# Poissons Ratio (y) = 0.15998 0.48076
# Poissons Ratio (z) = 0.11800 0.25844
#
# Static dielectric constant tensor:
#      x y z
#    x 1.683400 0.000000 0.000000 
#    y 0.000000 1.818850 0.000000 
#    z 0.000000 0.000000 1.055800 
# 
# From -- ./inp_files/19930.got.cif
#   From: 2010.05.17/outbox.cif.g08.bks.cpg/sg58_10_cif.got.tgz:19930.got - 2010.06.03 14:20:14.
