data_PCOD9445716
_publ_section_title
;
Structure prediction by ZEFSAII (Michael W. Deem and Ramdas Pophale) SiO2 
 PCOD9445716
Probable space group: P N N M
;
_chemical_formula_sum "Si O2"
_cell_formula_units_Z 32
_cell_length_a 8.592971
_cell_length_b 4.955676
_cell_length_c 35.175000
_cell_angle_alpha 90.000000
_cell_angle_beta 90.000000
_cell_angle_gamma 90.000000
_cell_volume 1497.891502
_symmetry_space_group_name_H-M "P N N M"
_symmetry_group_IT_number 58
_symmetry_cell_setting 'orthorhombic'
loop_
_space_group_symop_operation_xyz
x,y,z
-x,-y,z
1/2+x,1/2-y,1/2-z
1/2-x,1/2+y,1/2-z
-x,-y,-z
x,y,-z
1/2-x,1/2+y,1/2+z
1/2+x,1/2-y,1/2+z
loop_
_atom_site_type_symbol
_atom_site_label
_atom_site_fract_x
_atom_site_fract_y
_atom_site_fract_z
Si Si1 0.319027 0.916463 0.044287
Si Si2 0.320587 0.911081 0.586207
Si Si3 0.890908 0.260349 0.654659
Si Si4 0.674196 0.014235 0.235784
O O1 0.278581 0.659583 0.069764
O O2 0.500000 0.000000 0.048024
O O3 0.209813 0.161062 0.057998
O O4 0.291219 0.852988 0.000000
O O5 0.245714 0.821095 0.626180
O O6 0.500000 0.000000 0.588972
O O7 0.826258 0.387122 0.693775
O O8 0.000000 0.500000 0.638157
O O9 0.000000 0.000000 0.661650
O O10 0.775536 0.822172 0.262348
O O11 0.500000 0.000000 0.250404
#
# Coordination Sequence:
#
# PCOD9445716 Si02
#       4
#     8   8   8   8
#     4  11  24  43  67  93 126 172 217 256 311 386
#     4  12  25  41  65  97 130 164 210 270 324 365
#     4  11  23  43  67  91 126 173 216 253 309 385
#     4  11  23  42  67  96 128 166 211 261 316 375
#
# _framework density 21.363361999999999
#
# number of rings (size 3 to 8) (size 9 to 14) (size 15 to 20)
#    0.000    0.750    0.000    9.750    0.000    6.000 
#    0.000    7.500    0.000    0.000    0.000    0.000 
#    0.000    0.000    0.000    0.000    0.000    0.000 
#
# Total GULP energy -179143.926598 kJ/mol
# GULP energy per Si atom -5598.247706 kJ/mol
# Density = 2.131474 g / cm^3
# Si number density = 21.363362 Si / 1000 Ang^3
#
#
#
# Elastic Constant Matrix: (Units=GPa)
#
#
# Indices 1 2 3 4 5 6 
#
# 1 77.3775 -10.0249 6.9434 0.0000 0.0000 0.0000
# 2 -10.0249 73.4735 -11.2834 0.0000 0.0000 0.0000
# 3 6.9434 -11.2834 48.8251 0.0000 0.0000 0.0000
# 4 0.0000 0.0000 0.0000 42.4593 0.0000 0.0000
# 5 0.0000 0.0000 0.0000 0.0000 23.9039 0.0000
# 6 0.0000 0.0000 0.0000 0.0000 0.0000 47.0381
#
#
#
# Elastic Compliance Matrix: (Units=1/GPa)
#
#
# Indices 1 2 3 4 5 6 
#
# 1 0.013264 0.001576 -0.001522 0.000000 0.000000 0.000000
# 2 0.001576 0.014298 0.003080 0.000000 0.000000 0.000000
# 3 -0.001522 0.003080 0.021410 0.000000 0.000000 0.000000
# 4 0.000000 0.000000 0.000000 0.023552 0.000000 0.000000
# 5 0.000000 0.000000 0.000000 0.000000 0.041834 0.000000
# 6 0.000000 0.000000 0.000000 0.000000 0.000000 0.021259
#
#
# Mechanical properties :
#
#
# Convention : Reuss Voigt Hill
#
# Bulk Modulus (GPa) = 18.10254 18.99402 18.54828
# Shear Modulus (GPa) = 33.83796 36.94968 35.39382
#
# Velocity S-wave (km/s) = 3.98417 4.16334 4.07474
# Velocity P-wave (km/s) = 5.44581 5.65874 5.55330
#
# Compressibility (1/GPa) = 0.05524085
#
# Stress axis : x y z
#
# Youngs Moduli (GPa) = 75.38958 69.93774 46.70806
#
# Poissons Ratio (x) = -0.11023 0.07109
# Poissons Ratio (y) = -0.11882 -0.14387
# Poissons Ratio (z) = 0.11475 -0.21542
#
# Static dielectric constant tensor:
#      x y z
#    x 1.750200 0.000000 0.000000 
#    y 0.000000 1.736260 0.000000 
#    z 0.000000 0.000000 1.783040 
# 
# From -- ./inp_files/34332.got.cif
#   From: 2010.05.17/outbox.cif.g08.bks.cpg/sg58_18_cif.got.tgz:34332.got - 2010.06.03 14:20:14.
