data_PCOD9445628
_publ_section_title
;
Structure prediction by ZEFSAII (Michael W. Deem and Ramdas Pophale) SiO2 
 PCOD9445628
Probable space group: P N N M
;
_chemical_formula_sum "Si O2"
_cell_formula_units_Z 40
_cell_length_a 23.187003
_cell_length_b 4.871467
_cell_length_c 16.527013
_cell_angle_alpha 90.000000
_cell_angle_beta 90.000000
_cell_angle_gamma 90.000000
_cell_volume 1866.804125
_symmetry_space_group_name_H-M "P N N M"
_symmetry_group_IT_number 58
_symmetry_cell_setting 'orthorhombic'
loop_
_space_group_symop_operation_xyz
x,y,z
-x,-y,z
1/2+x,1/2-y,1/2-z
1/2-x,1/2+y,1/2-z
-x,-y,-z
x,y,-z
1/2-x,1/2+y,1/2+z
1/2+x,1/2-y,1/2+z
loop_
_atom_site_type_symbol
_atom_site_label
_atom_site_fract_x
_atom_site_fract_y
_atom_site_fract_z
Si Si1 0.195699 0.052809 0.650966
Si Si2 0.674939 0.027415 0.407359
Si Si3 0.125911 0.544100 0.405242
Si Si4 0.639410 0.519843 0.315793
Si Si5 0.962164 0.745590 0.284980
O O1 0.146009 0.850681 0.616261
O O2 0.188656 0.023489 0.747329
O O3 0.258082 0.984728 0.617379
O O4 0.179681 0.355873 0.621692
O O5 0.667615 0.944520 0.500000
O O6 0.640633 0.831859 0.344853
O O7 0.654342 0.334969 0.392312
O O8 0.114656 0.520836 0.500000
O O9 0.073841 0.420103 0.352830
O O10 0.581902 0.399295 0.275233
O O11 0.000000 0.500000 0.246157
O O12 0.000000 0.000000 0.318409
#
# Coordination Sequence:
#
# PCOD9445628 Si02
#       5
#     8   8   8   8   8
#     4  11  22  39  61  90 127 168 197 228 296 374
#     4  12  23  38  63  93 125 157 195 248 306 363
#     4  11  22  37  59  92 130 160 198 247 295 360
#     4  11  23  41  62  88 121 158 206 250 294 367
#     4  11  23  41  64  86 115 164 216 262 310 353
#
# _framework density 21.426991999999998
#
# number of rings (size 3 to 8) (size 9 to 14) (size 15 to 20)
#    0.000    0.800    0.000   10.800    0.000    0.800 
#    0.000    0.000    0.000   12.000    0.000    0.000 
#    0.000    0.000    0.000    0.000    0.000    0.000 
#
# Total GULP energy -223723.550269 kJ/mol
# GULP energy per Si atom -5593.088757 kJ/mol
# Density = 2.137822 g / cm^3
# Si number density = 21.426992 Si / 1000 Ang^3
#
#
#
# Elastic Constant Matrix: (Units=GPa)
#
#
# Indices 1 2 3 4 5 6 
#
# 1 50.1904 -2.5193 22.3165 0.0000 0.0000 0.0000
# 2 -2.5193 58.0530 1.2275 0.0000 0.0000 0.0000
# 3 22.3165 1.2275 106.6971 0.0000 0.0000 0.0000
# 4 0.0000 0.0000 0.0000 32.9653 0.0000 0.0000
# 5 0.0000 0.0000 0.0000 0.0000 -2.9528 0.0000
# 6 0.0000 0.0000 0.0000 0.0000 0.0000 34.7901
#
#
#
# Elastic Compliance Matrix: (Units=1/GPa)
#
#
# Indices 1 2 3 4 5 6 
#
# 1 0.022031 0.001054 -0.004620 0.000000 0.000000 0.000000
# 2 0.001054 0.017280 -0.000419 0.000000 0.000000 0.000000
# 3 -0.004620 -0.000419 0.010343 0.000000 0.000000 0.000000
# 4 0.000000 0.000000 0.000000 0.030335 0.000000 0.000000
# 5 0.000000 0.000000 0.000000 0.000000 -0.338667 0.000000
# 6 0.000000 0.000000 0.000000 0.000000 0.000000 0.028744
#
#
# Mechanical properties :
#
#
# Convention : Reuss Voigt Hill
#
# Bulk Modulus (GPa) = 23.99006 28.55443 26.27225
# Shear Modulus (GPa) = -24.03071 25.88824 0.92876
#
# Velocity S-wave (km/s) = -3.35254 3.47970 0.65909
# Velocity P-wave (km/s) = 1.94049 5.43136 3.58707
#
# Compressibility (1/GPa) = 0.04168392
#
# Stress axis : x y z
#
# Youngs Moduli (GPa) = 45.38991 57.86957 96.67920
#
# Poissons Ratio (x) = -0.06098 0.44667
# Poissons Ratio (y) = -0.04783 0.04053
# Poissons Ratio (z) = 0.20971 0.02426
#
# Static dielectric constant tensor:
#      x y z
#    x 1.801960 0.000000 0.000000 
#    y 0.000000 1.746140 0.000000 
#    z 0.000000 0.000000 1.739300 
# 
# From -- ./inp_files/27426.got.cif
#   From: 2010.05.17/outbox.cif.g08.bks.cpg/sg58_14_cif.got.tgz:27426.got - 2010.06.03 14:20:14.
