data_PCOD9445626
_publ_section_title
;
Structure prediction by ZEFSAII (Michael W. Deem and Ramdas Pophale) SiO2 
 PCOD9445626
Probable space group: P N N M
;
_chemical_formula_sum "Si O2"
_cell_formula_units_Z 40
_cell_length_a 12.142791
_cell_length_b 10.032660
_cell_length_c 18.515296
_cell_angle_alpha 90.000000
_cell_angle_beta 90.000000
_cell_angle_gamma 90.000000
_cell_volume 2255.616558
_symmetry_space_group_name_H-M "P N N M"
_symmetry_group_IT_number 58
_symmetry_cell_setting 'orthorhombic'
loop_
_space_group_symop_operation_xyz
x,y,z
-x,-y,z
1/2+x,1/2-y,1/2-z
1/2-x,1/2+y,1/2-z
-x,-y,-z
x,y,-z
1/2-x,1/2+y,1/2+z
1/2+x,1/2-y,1/2+z
loop_
_atom_site_type_symbol
_atom_site_label
_atom_site_fract_x
_atom_site_fract_y
_atom_site_fract_z
Si Si1 0.935272 0.364784 0.221350
Si Si2 0.911821 0.886655 0.204599
Si Si3 0.944009 0.355583 0.500000
Si Si4 0.781217 0.962507 0.648065
Si Si5 0.300022 0.218357 0.138724
Si Si6 0.900700 0.892705 0.500000
O O1 0.838279 0.399395 0.164728
O O2 0.875089 0.312216 0.292382
O O3 0.000000 0.500000 0.236842
O O4 0.022488 0.251789 0.201746
O O5 0.859687 0.920731 0.283950
O O6 0.809789 0.868557 0.150508
O O7 0.000000 0.000000 0.186830
O O8 0.867630 0.324933 0.431126
O O9 0.000000 0.500000 0.500000
O O10 0.042673 0.250049 0.500000
O O11 0.831458 0.912694 0.572882
O O12 0.774849 0.123364 0.641700
O O13 0.000000 0.000000 0.500000
#
# Coordination Sequence:
#
# PCOD9445626 Si02
#       6
#     8   8   4   8   8   4
#     4  11  22  37  59  89 122 155 202 252 297 353
#     4  11  22  38  62  89 124 159 201 250 302 351
#     4  12  26  42  62  94 124 155 200 255 316 356
#     4  11  22  38  63  94 117 160 209 242 303 365
#     4  11  22  39  63  90 122 159 204 250 298 369
#     4  12  22  40  68  85 120 157 199 253 301 363
#
# _framework density 17.733509999999999
#
# number of rings (size 3 to 8) (size 9 to 14) (size 15 to 20)
#    0.000    0.800    6.000    2.400    0.000    1.600 
#    0.000    2.000    0.000    0.000    0.000    0.000 
#    0.000    0.000    0.000    0.000    0.000    0.000 
#
# Total GULP energy -223397.474735 kJ/mol
# GULP energy per Si atom -5584.936868 kJ/mol
# Density = 1.769315 g / cm^3
# Si number density = 17.733510 Si / 1000 Ang^3
#
#
#
# Elastic Constant Matrix: (Units=GPa)
#
#
# Indices 1 2 3 4 5 6 
#
# 1 67.3263 6.8893 33.1619 0.0000 0.0000 0.0000
# 2 6.8893 99.8643 18.2517 0.0000 0.0000 0.0000
# 3 33.1619 18.2517 103.4433 0.0000 0.0000 0.0000
# 4 0.0000 0.0000 0.0000 14.9086 0.0000 0.0000
# 5 0.0000 0.0000 0.0000 0.0000 98.1635 0.0000
# 6 0.0000 0.0000 0.0000 0.0000 0.0000 45.4084
#
#
#
# Elastic Compliance Matrix: (Units=1/GPa)
#
#
# Indices 1 2 3 4 5 6 
#
# 1 0.017642 -0.000190 -0.005622 0.000000 0.000000 0.000000
# 2 -0.000190 0.010349 -0.001765 0.000000 0.000000 0.000000
# 3 -0.005622 -0.001765 0.011781 0.000000 0.000000 0.000000
# 4 0.000000 0.000000 0.000000 0.067075 0.000000 0.000000
# 5 0.000000 0.000000 0.000000 0.000000 0.010187 0.000000
# 6 0.000000 0.000000 0.000000 0.000000 0.000000 0.022022
#
#
# Mechanical properties :
#
#
# Convention : Reuss Voigt Hill
#
# Bulk Modulus (GPa) = 40.62066 43.02663 41.82365
# Shear Modulus (GPa) = 30.78507 45.85151 38.31829
#
# Velocity S-wave (km/s) = 4.17103 5.09038 4.65347
# Velocity P-wave (km/s) = 6.79357 7.67235 7.24629
#
# Compressibility (1/GPa) = 0.02461801
#
# Stress axis : x y z
#
# Youngs Moduli (GPa) = 56.68411 96.62495 84.88280
#
# Poissons Ratio (x) = 0.01831 0.47722
# Poissons Ratio (y) = 0.01074 0.14984
# Poissons Ratio (z) = 0.31869 0.17057
#
# Static dielectric constant tensor:
#      x y z
#    x 1.607320 0.000000 0.000000 
#    y 0.000000 1.732260 0.000000 
#    z 0.000000 0.000000 1.578200 
# 
# From -- ./inp_files/24989.got.cif
#   From: 2010.05.17/outbox.cif.g08.bks.cpg/sg58_13_cif.got.tgz:24989.got - 2010.06.03 14:20:14.
