data_PCOD9445423
_publ_section_title
;
Structure prediction by ZEFSAII (Michael W. Deem and Ramdas Pophale) SiO2 
 PCOD9445423
Probable space group: P N N M
;
_chemical_formula_sum "Si O2"
_cell_formula_units_Z 58
_cell_length_a 9.751751
_cell_length_b 11.326861
_cell_length_c 24.717400
_cell_angle_alpha 90.000000
_cell_angle_beta 90.000000
_cell_angle_gamma 90.000000
_cell_volume 2730.203131
_symmetry_space_group_name_H-M "P N N M"
_symmetry_group_IT_number 58
_symmetry_cell_setting 'orthorhombic'
loop_
_space_group_symop_operation_xyz
x,y,z
-x,-y,z
1/2+x,1/2-y,1/2-z
1/2-x,1/2+y,1/2-z
-x,-y,-z
x,y,-z
1/2-x,1/2+y,1/2+z
1/2+x,1/2-y,1/2+z
loop_
_atom_site_type_symbol
_atom_site_label
_atom_site_fract_x
_atom_site_fract_y
_atom_site_fract_z
Si Si1 0.141313 0.561603 0.755176
Si Si2 0.485686 0.360534 0.328754
Si Si3 0.000000 0.000000 0.500000
Si Si4 0.732107 0.215421 0.378729
Si Si5 0.387055 0.406134 0.780059
Si Si6 0.035925 0.634017 0.636904
Si Si7 0.721977 0.990391 0.558979
Si Si8 0.742156 0.285303 0.145955
O O1 0.259854 0.463873 0.747234
O O2 0.100908 0.614600 0.697084
O O3 0.215079 0.648699 0.797969
O O4 0.000000 0.500000 0.776583
O O5 0.500000 0.500000 0.331809
O O6 0.612918 0.292165 0.352834
O O7 0.468334 0.331377 0.264844
O O8 0.351119 0.319044 0.359423
O O9 0.880970 0.015989 0.545943
O O10 0.814736 0.149609 0.331094
O O11 0.849014 0.304284 0.400622
O O12 0.669484 0.112726 0.415905
O O13 0.500000 0.500000 0.799340
O O14 0.000000 0.500000 0.619306
O O15 0.906485 0.723325 0.642449
O O16 0.660389 0.960914 0.500000
O O17 0.725811 0.882709 0.600462
#
# Coordination Sequence:
#
# PCOD9445423 Si02
#       8
#     8   8   2   8   8   8   8   8
#     4  11  22  38  60  94 143 176 232 271 325 407
#     4  11  25  41  60  94 143 190 224 260 328 423
#     4   8  20  44  68 102 126 144 216 294 352 394
#     4  12  23  42  67  95 136 180 223 286 339 397
#     4  11  22  37  61  94 139 181 230 272 331 405
#     4  11  24  38  60  93 133 185 223 262 322 407
#     4  10  24  44  75 101 127 159 231 299 356 379
#     4  12  23  42  67  95 136 180 223 286 337 395
#
# _framework density 21.243842000000001
#
# number of rings (size 3 to 8) (size 9 to 14) (size 15 to 20)
#    0.414    0.552    1.379    7.448    0.966    4.414 
#    0.000    1.379    0.000    4.966    0.000    0.000 
#    0.000    0.000    0.000    0.000    0.000    0.000 
#
# Total GULP energy -323386.615734 kJ/mol
# GULP energy per Si atom -5575.631306 kJ/mol
# Density = 2.119549 g / cm^3
# Si number density = 21.243842 Si / 1000 Ang^3
#
#
#
# Elastic Constant Matrix: (Units=GPa)
#
#
# Indices 1 2 3 4 5 6 
#
# 1 93.2367 -1.3488 -1.3478 0.0000 0.0000 0.0000
# 2 -1.3488 75.1945 32.3181 0.0000 0.0000 0.0000
# 3 -1.3478 32.3181 56.1954 0.0000 0.0000 0.0000
# 4 0.0000 0.0000 0.0000 8.4964 0.0000 0.0000
# 5 0.0000 0.0000 0.0000 0.0000 6.4870 0.0000
# 6 0.0000 0.0000 0.0000 0.0000 0.0000 37.0918
#
#
#
# Elastic Compliance Matrix: (Units=1/GPa)
#
#
# Indices 1 2 3 4 5 6 
#
# 1 0.010730 0.000109 0.000195 0.000000 0.000000 0.000000
# 2 0.000109 0.017666 -0.010157 0.000000 0.000000 0.000000
# 3 0.000195 -0.010157 0.023641 0.000000 0.000000 0.000000
# 4 0.000000 0.000000 0.000000 0.117697 0.000000 0.000000
# 5 0.000000 0.000000 0.000000 0.000000 0.154154 0.000000
# 6 0.000000 0.000000 0.000000 0.000000 0.000000 0.026960
#
#
# Mechanical properties :
#
#
# Convention : Reuss Voigt Hill
#
# Bulk Modulus (GPa) = 30.93126 31.54108 31.23617
# Shear Modulus (GPa) = 13.11193 23.41539 18.26366
#
# Velocity S-wave (km/s) = 2.48707 3.32357 2.93527
# Velocity P-wave (km/s) = 4.77902 5.44128 5.12087
#
# Compressibility (1/GPa) = 0.03232975
#
# Stress axis : x y z
#
# Youngs Moduli (GPa) = 93.19853 56.60475 42.29896
#
# Poissons Ratio (x) = -0.00616 -0.00824
# Poissons Ratio (y) = -0.01013 0.42965
# Poissons Ratio (z) = -0.01815 0.57495
#
# Static dielectric constant tensor:
#      x y z
#    x 1.805150 0.000000 0.000000 
#    y 0.000000 1.902920 0.000000 
#    z 0.000000 0.000000 1.795210 
# 
# From -- ./inp_files/33334.got.cif
#   From: 2010.05.17/outbox.cif.g08.bks.cpg/sg58_17_cif.got.tgz:33334.got - 2010.06.03 14:20:14.
