data_PCOD9445989
_publ_section_title
;
Structure prediction by ZEFSAII (Michael W. Deem and Ramdas Pophale) SiO2 
 PCOD9445989
Probable space group: P N N M
;
_chemical_formula_sum "Si O2"
_cell_formula_units_Z 64
_cell_length_a 24.000000
_cell_length_b 15.000000
_cell_length_c 9.000000
_cell_angle_alpha 90.000000
_cell_angle_beta 90.000000
_cell_angle_gamma 90.000000
_cell_volume 3240.000000
_symmetry_space_group_name_H-M "P N N M"
_symmetry_group_IT_number 58
_symmetry_cell_setting 'orthorhombic'
loop_
_space_group_symop_operation_xyz
x,y,z
-x,-y,z
1/2+x,1/2-y,1/2-z
1/2-x,1/2+y,1/2-z
-x,-y,-z
x,y,-z
1/2-x,1/2+y,1/2+z
1/2+x,1/2-y,1/2+z
loop_
_atom_site_type_symbol
_atom_site_label
_atom_site_fract_x
_atom_site_fract_y
_atom_site_fract_z
Si Si1 0.237636 0.703965 0.823792
Si Si2 0.386205 0.148688 0.322517
Si Si3 0.127976 0.950635 0.674463
Si Si4 0.542748 0.706434 0.822417
Si Si5 0.359455 0.965233 0.170202
Si Si6 0.838375 0.712151 0.175046
Si Si7 0.231621 0.023198 0.169704
Si Si8 0.416992 0.648372 0.825663
O O1 0.172594 0.697297 0.779789
O O2 0.276423 0.774668 0.741436
O O3 0.263361 0.607985 0.778283
O O4 0.241383 0.717408 0.000000
O O5 0.386410 0.141333 0.500000
O O6 0.437250 0.206379 0.263249
O O7 0.384743 0.051381 0.249688
O O8 0.143106 0.941544 0.500000
O O9 0.086860 0.871016 0.715553
O O10 0.183211 0.959068 0.772640
O O11 0.094827 0.043706 0.690970
O O12 0.480355 0.674211 0.789590
O O13 0.546145 0.721547 0.000000
O O14 0.368240 0.873847 0.256037
O O15 0.292587 0.980061 0.170554
O O16 0.378214 0.959405 0.000000
O O17 0.874661 0.796524 0.225459
O O18 0.834765 0.704491 0.000000
O O19 0.220047 0.052680 0.000000
O O20 0.406692 0.670677 0.000000
#
# Coordination Sequence:
#
# PCOD9445989 Si02
#       8
#     8   8   8   8   8   8   8   8
#     4  10  20  36  57  82 117 159 195 235 294 356
#     4  10  22  40  61  87 120 156 198 250 303 350
#     4  10  20  35  58  87 120 159 199 241 289 350
#     4  10  22  39  61  88 117 159 207 246 295 357
#     4  10  22  40  61  85 120 159 197 244 299 362
#     4  12  24  37  59  90 121 155 200 249 298 353
#     4  10  20  34  55  86 120 153 192 239 292 349
#     4  10  21  40  62  85 120 161 203 248 295 353
#
# _framework density 19.753086
#
# number of rings (size 3 to 8) (size 9 to 14) (size 15 to 20)
#    0.000    1.750    1.250    3.000    1.750    5.500 
#    0.000    0.625    0.000    6.000    0.000    0.000 
#    0.000    0.000    0.000    0.000    0.000    0.000 
#
# Total GULP energy -357678.690613 kJ/mol
# GULP energy per Si atom -5588.729541 kJ/mol
# Density = 1.970813 g / cm^3
# Si number density = 19.753086 Si / 1000 Ang^3
#
#
#
# Elastic Constant Matrix: (Units=GPa)
#
#
# Indices 1 2 3 4 5 6 
#
# 1 12.4721 -21.5544 0.7847 0.0000 0.0000 0.0000
# 2 -21.5544 53.3063 14.2506 0.0000 0.0000 0.0000
# 3 0.7847 14.2506 47.6382 0.0000 0.0000 0.0000
# 4 0.0000 0.0000 0.0000 17.6099 0.0000 0.0000
# 5 0.0000 0.0000 0.0000 0.0000 -27.7148 0.0000
# 6 0.0000 0.0000 0.0000 0.0000 0.0000 10.4902
#
#
#
# Elastic Compliance Matrix: (Units=1/GPa)
#
#
# Indices 1 2 3 4 5 6 
#
# 1 0.359886 0.159891 -0.053758 0.000000 0.000000 0.000000
# 2 0.159891 0.091427 -0.029983 0.000000 0.000000 0.000000
# 3 -0.053758 -0.029983 0.030846 0.000000 0.000000 0.000000
# 4 0.000000 0.000000 0.000000 0.056786 0.000000 0.000000
# 5 0.000000 0.000000 0.000000 0.000000 -0.036082 0.000000
# 6 0.000000 0.000000 0.000000 0.000000 0.000000 0.095327
#
#
# Mechanical properties :
#
#
# Convention : Reuss Voigt Hill
#
# Bulk Modulus (GPa) = 1.57615 11.15315 6.36465
# Shear Modulus (GPa) = 7.60597 8.07275 7.83936
#
# Velocity S-wave (km/s) = 1.96440 2.02378 1.99431
# Velocity P-wave (km/s) = 2.43820 3.33459 2.92098
#
# Compressibility (1/GPa) = 0.63445936
#
# Stress axis : x y z
#
# Youngs Moduli (GPa) = 2.77866 10.93767 32.41872
#
# Poissons Ratio (x) = -1.74884 1.74277
# Poissons Ratio (y) = -0.44428 0.97202
# Poissons Ratio (z) = 0.14938 0.32795
#
# Static dielectric constant tensor:
#      x y z
#    x 1.681260 0.000000 0.000000 
#    y 0.000000 1.701000 0.000000 
#    z 0.000000 0.000000 1.669150 
# 
# From -- ./inp_files/6755.got.cif
#   From: 2010.05.17/outbox.ucp.g08.bks.cvg/sg58_4_cif.got.tgz:6755.got - 2010.06.11 16:41:41.
