data_PCOD9445535
_publ_section_title
;
Structure prediction by ZEFSAII (Michael W. Deem and Ramdas Pophale) SiO2 
 PCOD9445535
Probable space group: P N N M
;
_chemical_formula_sum "Si O2"
_cell_formula_units_Z 40
_cell_length_a 6.890362
_cell_length_b 14.857773
_cell_length_c 18.808382
_cell_angle_alpha 90.000000
_cell_angle_beta 90.000000
_cell_angle_gamma 90.000000
_cell_volume 1925.516279
_symmetry_space_group_name_H-M "P N N M"
_symmetry_group_IT_number 58
_symmetry_cell_setting 'orthorhombic'
loop_
_space_group_symop_operation_xyz
x,y,z
-x,-y,z
1/2+x,1/2-y,1/2-z
1/2-x,1/2+y,1/2-z
-x,-y,-z
x,y,-z
1/2-x,1/2+y,1/2+z
1/2+x,1/2-y,1/2+z
loop_
_atom_site_type_symbol
_atom_site_label
_atom_site_fract_x
_atom_site_fract_y
_atom_site_fract_z
Si Si1 0.771886 0.028053 0.229795
Si Si2 0.386754 0.295814 0.807669
Si Si3 0.669222 0.574851 0.578307
Si Si4 0.174574 0.648960 0.189150
Si Si5 0.070095 0.259983 0.917456
O O1 0.672135 0.944334 0.268342
O O2 0.774414 0.116807 0.277870
O O3 0.710199 0.052171 0.149228
O O4 0.000000 0.000000 0.223945
O O5 0.601639 0.327200 0.827773
O O6 0.399149 0.225926 0.743066
O O7 0.265589 0.252424 0.871487
O O8 0.500000 0.500000 0.573997
O O9 0.766477 0.576902 0.500000
O O10 0.560994 0.670192 0.590026
O O11 0.051754 0.659085 0.117730
O O12 0.111176 0.273320 0.000000
#
# Coordination Sequence:
#
# PCOD9445535 Si02
#       5
#     8   8   8   8   8
#     4   9  18  33  56  85 115 154 200 239 293 360
#     4  11  20  38  59  85 116 156 201 245 294 358
#     4   9  16  31  57  86 117 153 191 242 307 359
#     4  11  21  37  61  87 120 156 201 245 296 358
#     4  11  23  39  60  90 122 157 199 253 305 348
#
# _framework density 20.77365
#
# number of rings (size 3 to 8) (size 9 to 14) (size 15 to 20)
#    0.000    1.800    4.000    2.400    0.000    1.600 
#    0.000    2.000    0.000    3.600    0.000    9.800 
#    0.000    0.000    0.000    0.000    0.000    0.000 
#
# Total GULP energy -223527.394450 kJ/mol
# GULP energy per Si atom -5588.184861 kJ/mol
# Density = 2.072637 g / cm^3
# Si number density = 20.773650 Si / 1000 Ang^3
#
#
#
# Elastic Constant Matrix: (Units=GPa)
#
#
# Indices 1 2 3 4 5 6 
#
# 1 55.2156 0.4228 17.1555 0.0000 0.0000 0.0000
# 2 0.4228 82.4252 28.4718 0.0000 0.0000 0.0000
# 3 17.1555 28.4718 134.2077 0.0000 0.0000 0.0000
# 4 0.0000 0.0000 0.0000 -34.6386 0.0000 0.0000
# 5 0.0000 0.0000 0.0000 0.0000 29.9703 0.0000
# 6 0.0000 0.0000 0.0000 0.0000 0.0000 28.4630
#
#
#
# Elastic Compliance Matrix: (Units=1/GPa)
#
#
# Indices 1 2 3 4 5 6 
#
# 1 0.018908 0.000796 -0.002586 0.000000 0.000000 0.000000
# 2 0.000796 0.013125 -0.002886 0.000000 0.000000 0.000000
# 3 -0.002586 -0.002886 0.008394 0.000000 0.000000 0.000000
# 4 0.000000 0.000000 0.000000 -0.028869 0.000000 0.000000
# 5 0.000000 0.000000 0.000000 0.000000 0.033366 0.000000
# 6 0.000000 0.000000 0.000000 0.000000 0.000000 0.035133
#
#
# Mechanical properties :
#
#
# Convention : Reuss Voigt Hill
#
# Bulk Modulus (GPa) = 32.17973 40.43875 36.30924
# Shear Modulus (GPa) = 50.11640 19.81216 34.96428
#
# Velocity S-wave (km/s) = 4.91705 3.09158 4.10702
# Velocity P-wave (km/s) = 6.91092 5.67912 6.32508
#
# Compressibility (1/GPa) = 0.03107546
#
# Stress axis : x y z
#
# Youngs Moduli (GPa) = 52.88721 76.18982 119.13270
#
# Poissons Ratio (x) = -0.06067 0.30807
# Poissons Ratio (y) = -0.04211 0.34385
# Poissons Ratio (z) = 0.13676 0.21990
#
# Static dielectric constant tensor:
#      x y z
#    x 1.801680 0.000000 0.000000 
#    y 0.000000 1.738060 0.000000 
#    z 0.000000 0.000000 1.733470 
# 
# From -- ./inp_files/25106.got.cif
#   From: 2010.05.17/outbox.cif.g08.bks.cpg/sg58_13_cif.got.tgz:25106.got - 2010.06.03 14:20:14.
