data_PCOD9445600
_publ_section_title
;
Structure prediction by ZEFSAII (Michael W. Deem and Ramdas Pophale) SiO2 
 PCOD9445600
Probable space group: P N N M
;
_chemical_formula_sum "Si O2"
_cell_formula_units_Z 24
_cell_length_a 8.505169
_cell_length_b 5.742785
_cell_length_c 23.237922
_cell_angle_alpha 90.000000
_cell_angle_beta 90.000000
_cell_angle_gamma 90.000000
_cell_volume 1135.018119
_symmetry_space_group_name_H-M "P N N M"
_symmetry_group_IT_number 58
_symmetry_cell_setting 'orthorhombic'
loop_
_space_group_symop_operation_xyz
x,y,z
-x,-y,z
1/2+x,1/2-y,1/2-z
1/2-x,1/2+y,1/2-z
-x,-y,-z
x,y,-z
1/2-x,1/2+y,1/2+z
1/2+x,1/2-y,1/2+z
loop_
_atom_site_type_symbol
_atom_site_label
_atom_site_fract_x
_atom_site_fract_y
_atom_site_fract_z
Si Si1 0.143236 0.814817 0.500000
Si Si2 0.180884 0.547551 0.101931
Si Si3 0.816466 0.962395 0.272931
Si Si4 0.822581 0.095538 0.000000
O O1 0.157666 0.539616 0.500000
O O2 0.245536 0.862604 0.442331
O O3 0.000000 0.000000 0.500000
O O4 0.281294 0.563958 0.159282
O O5 0.000000 0.500000 0.117540
O O6 0.182523 0.767037 0.059974
O O7 0.763806 0.710576 0.246172
O O8 0.000000 0.000000 0.260920
O O9 0.000000 0.000000 0.000000
#
# Coordination Sequence:
#
# PCOD9445600 Si02
#       4
#     4   8   8   4
#     4  11  23  41  63 103 141 178 240 298 371 431
#     4  11  23  41  69 102 139 189 243 305 366 446
#     4  12  28  51  76 109 148 198 255 314 377 449
#     4  11  21  41  71 102 144 193 242 301 374 449
#
# _framework density 21.145035
#
# number of rings (size 3 to 8) (size 9 to 14) (size 15 to 20)
#    0.000    0.667    3.333    5.000    4.667    4.000 
#    6.000    0.000    0.000    0.000    0.000    0.000 
#    0.000    0.000    0.000    0.000    0.000    0.000 
#
# Total GULP energy -133611.211955 kJ/mol
# GULP energy per Si atom -5567.133831 kJ/mol
# Density = 2.109691 g / cm^3
# Si number density = 21.145035 Si / 1000 Ang^3
#
#
#
# Elastic Constant Matrix: (Units=GPa)
#
#
# Indices 1 2 3 4 5 6 
#
# 1 140.3726 64.8221 10.7147 0.0000 0.0000 0.0000
# 2 64.8221 131.1035 44.8612 0.0000 0.0000 0.0000
# 3 10.7147 44.8612 126.2494 0.0000 0.0000 0.0000
# 4 0.0000 0.0000 0.0000-6430.3033 0.0000 0.0000
# 5 0.0000 0.0000 0.0000 0.0000 41.1535 0.0000
# 6 0.0000 0.0000 0.0000 0.0000 0.0000 32.7523
#
#
#
# Elastic Compliance Matrix: (Units=1/GPa)
#
#
# Indices 1 2 3 4 5 6 
#
# 1 0.009334 -0.004945 0.000965 0.000000 0.000000 0.000000
# 2 -0.004945 0.011303 -0.003597 0.000000 0.000000 0.000000
# 3 0.000965 -0.003597 0.009117 0.000000 0.000000 0.000000
# 4 0.000000 0.000000 0.000000 -0.000156 0.000000 0.000000
# 5 0.000000 0.000000 0.000000 0.000000 0.024299 0.000000
# 6 0.000000 0.000000 0.000000 0.000000 0.000000 0.030532
#
#
# Mechanical properties :
#
#
# Convention : Reuss Voigt Hill
#
# Bulk Modulus (GPa) = 68.49160 70.94683 69.71922
# Shear Modulus (GPa) = 47.86933 -1252.79099 -602.46083
#
# Velocity S-wave (km/s) = 4.76316 -24.36722 -16.89784
# Velocity P-wave (km/s) = 7.91909 27.53283 18.64597
#
# Compressibility (1/GPa) = 0.01460033
#
# Stress axis : x y z
#
# Youngs Moduli (GPa) = 107.13684 88.46888 109.68498
#
# Poissons Ratio (x) = 0.43750 -0.10585
# Poissons Ratio (y) = 0.52981 0.39452
# Poissons Ratio (z) = -0.10339 0.31821
#
# Static dielectric constant tensor:
#      x y z
#    x 1.741710 0.000000 0.000000 
#    y 0.000000 1.783350 0.000000 
#    z 0.000000 0.000000 1.689390 
# 
# From -- ./inp_files/30701.got.cif
#   From: 2010.05.17/outbox.cif.g08.bks.cpg/sg58_16_cif.got.tgz:30701.got - 2010.06.03 14:20:14.
