data_PCOD9445883
_publ_section_title
;
Structure prediction by ZEFSAII (Michael W. Deem and Ramdas Pophale) SiO2 
 PCOD9445883
Probable space group: P N N M
;
_chemical_formula_sum "Si O2"
_cell_formula_units_Z 32
_cell_length_a 14.260432
_cell_length_b 10.814924
_cell_length_c 7.348479
_cell_angle_alpha 90.000000
_cell_angle_beta 90.000000
_cell_angle_gamma 90.000000
_cell_volume 1133.322762
_symmetry_space_group_name_H-M "P N N M"
_symmetry_group_IT_number 58
_symmetry_cell_setting 'orthorhombic'
loop_
_space_group_symop_operation_xyz
x,y,z
-x,-y,z
1/2+x,1/2-y,1/2-z
1/2-x,1/2+y,1/2-z
-x,-y,-z
x,y,-z
1/2-x,1/2+y,1/2+z
1/2+x,1/2-y,1/2+z
loop_
_atom_site_type_symbol
_atom_site_label
_atom_site_fract_x
_atom_site_fract_y
_atom_site_fract_z
Si Si1 0.848059 0.816771 0.720612
Si Si2 0.685994 0.982937 0.207605
Si Si3 0.021211 0.672371 0.276027
Si Si4 0.121112 0.917552 0.291115
O O1 0.841207 0.817201 0.500000
O O2 0.745672 0.852743 0.791931
O O3 0.913389 0.702308 0.774433
O O4 0.902160 0.944318 0.777238
O O5 0.586207 0.941466 0.284586
O O6 0.764698 0.074661 0.285958
O O7 0.672991 0.021965 0.000000
O O8 0.022939 0.665328 0.500000
O O9 0.076477 0.795432 0.211513
O O10 0.091572 0.915011 0.500000
#
# Coordination Sequence:
#
# PCOD9445883 Si02
#       4
#     8   8   8   8
#     4   8  15  28  45  63  83 107 143 172 199 248
#     4   9  17  27  40  65  91 106 131 174 216 244
#     4   9  15  27  48  63  80 116 143 164 204 253
#     4   8  15  28  45  63  83 107 143 172 199 248
#
# _framework density 28.235557
#
# number of rings (size 3 to 8) (size 9 to 14) (size 15 to 20)
#    1.500    2.000    0.000    0.750    0.000    3.000 
#    0.000    7.500    0.000    1.500    0.000   10.500 
#    0.000    0.000    0.000    0.000    0.000    0.000 
#
# Total GULP energy -178473.828343 kJ/mol
# GULP energy per Si atom -5577.307136 kJ/mol
# Density = 2.817129 g / cm^3
# Si number density = 28.235557 Si / 1000 Ang^3
#
#
#
# Elastic Constant Matrix: (Units=GPa)
#
#
# Indices 1 2 3 4 5 6 
#
# 1 178.3440 38.8620 -6.7792 0.0000 0.0000 0.0000
# 2 38.8620 128.1220 -2.0267 0.0000 0.0000 0.0000
# 3 -6.7792 -2.0267 104.9345 0.0000 0.0000 0.0000
# 4 0.0000 0.0000 0.0000 -8.6951 0.0000 0.0000
# 5 0.0000 0.0000 0.0000 0.0000 483.3427 0.0000
# 6 0.0000 0.0000 0.0000 0.0000 0.0000 66.1721
#
#
#
# Elastic Compliance Matrix: (Units=1/GPa)
#
#
# Indices 1 2 3 4 5 6 
#
# 1 0.006017 -0.001820 0.000354 0.000000 0.000000 0.000000
# 2 -0.001820 0.008358 0.000044 0.000000 0.000000 0.000000
# 3 0.000354 0.000044 0.009553 0.000000 0.000000 0.000000
# 4 0.000000 0.000000 0.000000 -0.115007 0.000000 0.000000
# 5 0.000000 0.000000 0.000000 0.000000 0.002069 0.000000
# 6 0.000000 0.000000 0.000000 0.000000 0.000000 0.015112
#
#
# Mechanical properties :
#
#
# Convention : Reuss Voigt Hill
#
# Bulk Modulus (GPa) = 47.42920 52.39030 49.90975
# Shear Modulus (GPa) = -78.09359 133.58689 27.74665
#
# Velocity S-wave (km/s) = -5.26478 6.88580 3.13818
# Velocity P-wave (km/s) = 4.48588 9.04511 5.55387
#
# Compressibility (1/GPa) = 0.02108406
#
# Stress axis : x y z
#
# Youngs Moduli (GPa) = 166.19412 119.65087 104.67427
#
# Poissons Ratio (x) = 0.21771 -0.03701
# Poissons Ratio (y) = 0.30239 -0.00459
# Poissons Ratio (z) = -0.05876 -0.00525
#
# Static dielectric constant tensor:
#      x y z
#    x 2.290360 0.000000 0.000000 
#    y 0.000000 2.318650 0.000000 
#    z 0.000000 0.000000 2.063500 
# 
# From -- ./inp_files/3501.got.cif
#   From: 2010.05.17/outbox.cif.g08.bks.cpg/sg58_2_cif.got.tgz:3501.got - 2010.06.03 14:20:14.
