data_PCOD9445077
_publ_section_title
;
Structure prediction by ZEFSAII (Michael W. Deem and Ramdas Pophale) SiO2 
 PCOD9445077
Probable space group: P N N M
;
_chemical_formula_sum "Si O2"
_cell_formula_units_Z 56
_cell_length_a 10.064601
_cell_length_b 20.263659
_cell_length_c 15.264476
_cell_angle_alpha 90.000000
_cell_angle_beta 90.000000
_cell_angle_gamma 90.000000
_cell_volume 3113.123367
_symmetry_space_group_name_H-M "P N N M"
_symmetry_group_IT_number 58
_symmetry_cell_setting 'orthorhombic'
loop_
_space_group_symop_operation_xyz
x,y,z
-x,-y,z
1/2+x,1/2-y,1/2-z
1/2-x,1/2+y,1/2-z
-x,-y,-z
x,y,-z
1/2-x,1/2+y,1/2+z
1/2+x,1/2-y,1/2+z
loop_
_atom_site_type_symbol
_atom_site_label
_atom_site_fract_x
_atom_site_fract_y
_atom_site_fract_z
Si Si1 0.069348 0.699870 0.097490
Si Si2 0.777099 0.123424 0.261829
Si Si3 0.648611 0.307657 0.365297
Si Si4 0.541188 0.576163 0.599193
Si Si5 0.583860 0.066631 0.396460
Si Si6 0.334305 0.750837 0.817709
Si Si7 0.397569 0.275935 0.902157
O O1 0.187058 0.731137 0.152789
O O2 0.947317 0.750685 0.097127
O O3 0.011348 0.629158 0.123332
O O4 0.123628 0.692407 0.000000
O O5 0.702026 0.071971 0.325522
O O6 0.673018 0.174999 0.219026
O O7 0.858456 0.170198 0.329183
O O8 0.863243 0.095368 0.180788
O O9 0.588580 0.376926 0.393978
O O10 0.633927 0.298493 0.261578
O O11 0.797545 0.286058 0.389541
O O12 0.500000 0.500000 0.606014
O O13 0.597765 0.587362 0.500000
O O14 0.625013 0.072801 0.500000
O O15 0.500000 0.000000 0.388084
O O16 0.450436 0.744146 0.887625
O O17 0.376407 0.302023 0.000000
#
# Coordination Sequence:
#
# PCOD9445077 Si02
#       7
#     8   8   8   8   8   8   8
#     4  11  20  35  60  86 116 158 203 244 294 363
#     4  11  22  39  61  90 120 162 197 262 295 362
#     4  11  20  37  60  86 115 157 207 249 292 357
#     4  11  24  42  63  87 117 165 214 250 298 364
#     4  10  22  40  64  92 123 164 204 243 302 378
#     4  11  21  34  58  92 124 154 200 252 306 349
#     4  11  21  35  60  94 125 154 194 255 312 358
#
# _framework density 17.988365000000002
#
# number of rings (size 3 to 8) (size 9 to 14) (size 15 to 20)
#    0.000    1.143    5.714    3.000    0.000    1.714 
#    0.000    0.000    0.000    1.286    0.000    0.000 
#    0.000    0.000    0.000    0.000    0.000    0.000 
#
# Total GULP energy -312246.943253 kJ/mol
# GULP energy per Si atom -5575.838272 kJ/mol
# Density = 1.794742 g / cm^3
# Si number density = 17.988365 Si / 1000 Ang^3
#
#
#
# Elastic Constant Matrix: (Units=GPa)
#
#
# Indices 1 2 3 4 5 6 
#
# 1 54.7110 9.2166 36.5412 0.0000 0.0000 0.0000
# 2 9.2166 83.4983 21.5476 0.0000 0.0000 0.0000
# 3 36.5412 21.5476 124.9934 0.0000 0.0000 0.0000
# 4 0.0000 0.0000 0.0000 33.2894 0.0000 0.0000
# 5 0.0000 0.0000 0.0000 0.0000 -93.0404 0.0000
# 6 0.0000 0.0000 0.0000 0.0000 0.0000 18.5938
#
#
#
# Elastic Compliance Matrix: (Units=1/GPa)
#
#
# Indices 1 2 3 4 5 6 
#
# 1 0.022768 -0.000833 -0.006513 0.000000 0.000000 0.000000
# 2 -0.000833 0.012564 -0.001923 0.000000 0.000000 0.000000
# 3 -0.006513 -0.001923 0.010236 0.000000 0.000000 0.000000
# 4 0.000000 0.000000 0.000000 0.030040 0.000000 0.000000
# 5 0.000000 0.000000 0.000000 0.000000 -0.010748 0.000000
# 6 0.000000 0.000000 0.000000 0.000000 0.000000 0.053781
#
#
# Mechanical properties :
#
#
# Convention : Reuss Voigt Hill
#
# Bulk Modulus (GPa) = 36.99232 44.20150 40.59691
# Shear Modulus (GPa) = 34.20277 4.82838 19.51557
#
# Velocity S-wave (km/s) = 4.36522 1.64012 3.29735
# Velocity P-wave (km/s) = 6.78351 5.31152 6.09214
#
# Compressibility (1/GPa) = 0.02703264
#
# Stress axis : x y z
#
# Youngs Moduli (GPa) = 43.92172 79.59039 97.69673
#
# Poissons Ratio (x) = 0.06626 0.63625
# Poissons Ratio (y) = 0.03657 0.18783
# Poissons Ratio (z) = 0.28604 0.15302
#
# Static dielectric constant tensor:
#      x y z
#    x 1.626610 0.000000 0.000000 
#    y 0.000000 1.596830 0.000000 
#    z 0.000000 0.000000 1.650350 
# 
# From -- ./inp_files/20154.got.cif
#   From: 2010.05.17/outbox.cif.g08.bks.cpg/sg58_11_cif.got.tgz:20154.got - 2010.06.03 14:20:14.
