data_PCOD9445160
_publ_section_title
;
Structure prediction by ZEFSAII (Michael W. Deem and Ramdas Pophale) SiO2 
 PCOD9445160
Probable space group: P N N M
;
_chemical_formula_sum "Si O2"
_cell_formula_units_Z 48
_cell_length_a 14.189250
_cell_length_b 18.976608
_cell_length_c 8.114237
_cell_angle_alpha 90.000000
_cell_angle_beta 90.000000
_cell_angle_gamma 90.000000
_cell_volume 2184.870573
_symmetry_space_group_name_H-M "P N N M"
_symmetry_group_IT_number 58
_symmetry_cell_setting 'orthorhombic'
loop_
_space_group_symop_operation_xyz
x,y,z
-x,-y,z
1/2+x,1/2-y,1/2-z
1/2-x,1/2+y,1/2-z
-x,-y,-z
x,y,-z
1/2-x,1/2+y,1/2+z
1/2+x,1/2-y,1/2+z
loop_
_atom_site_type_symbol
_atom_site_label
_atom_site_fract_x
_atom_site_fract_y
_atom_site_fract_z
Si Si1 0.657054 0.001147 0.808756
Si Si2 0.957421 0.899373 0.195327
Si Si3 0.174712 0.227117 0.700430
Si Si4 0.135696 0.655155 0.807567
Si Si5 0.644904 0.540761 0.808210
Si Si6 0.930181 0.638783 0.304702
O O1 0.759154 0.037729 0.794057
O O2 0.585156 0.059677 0.740345
O O3 0.660001 0.927429 0.715018
O O4 0.635184 0.984362 0.000000
O O5 0.904084 0.828450 0.242931
O O6 0.066484 0.903946 0.247898
O O7 0.904092 0.964262 0.283343
O O8 0.951014 0.911147 0.000000
O O9 0.175665 0.226574 0.500000
O O10 0.276631 0.200281 0.758263
O O11 0.143931 0.304127 0.759823
O O12 0.035166 0.665955 0.724287
O O13 0.124770 0.670988 0.000000
O O14 0.666154 0.551189 0.000000
O O15 0.914275 0.632606 0.500000
#
# Coordination Sequence:
#
# PCOD9445160 Si02
#       6
#     8   8   8   8   8   8
#     4  11  22  39  63  92 125 165 211 259 309 370
#     4  11  21  35  58  89 122 160 205 252 301 369
#     4  10  22  42  63  87 123 166 205 253 316 373
#     4  11  23  40  65  92 122 162 208 258 312 373
#     4  11  21  35  58  89 124 161 201 254 308 362
#     4  10  24  43  63  89 125 164 206 257 312 370
#
# _framework density 21.969266000000001
#
# number of rings (size 3 to 8) (size 9 to 14) (size 15 to 20)
#    0.000    1.333    1.667    5.500    0.000    6.000 
#    0.000    1.667    0.000    0.000    0.000    0.000 
#    0.000    0.000    0.000    0.000    0.000    0.000 
#
# Total GULP energy -268433.053004 kJ/mol
# GULP energy per Si atom -5592.355271 kJ/mol
# Density = 2.191926 g / cm^3
# Si number density = 21.969266 Si / 1000 Ang^3
#
#
#
# Elastic Constant Matrix: (Units=GPa)
#
#
# Indices 1 2 3 4 5 6 
#
# 1 89.3324 42.1036 -15.0089 0.0000 0.0000 0.0000
# 2 42.1036 76.5004 -4.0897 0.0000 0.0000 0.0000
# 3 -15.0089 -4.0897 41.5876 0.0000 0.0000 0.0000
# 4 0.0000 0.0000 0.0000 12.6074 0.0000 0.0000
# 5 0.0000 0.0000 0.0000 0.0000 35.7418 0.0000
# 6 0.0000 0.0000 0.0000 0.0000 0.0000 24.8264
#
#
#
# Elastic Compliance Matrix: (Units=1/GPa)
#
#
# Indices 1 2 3 4 5 6 
#
# 1 0.016071 -0.008580 0.004956 0.000000 0.000000 0.000000
# 2 -0.008580 0.017722 -0.001354 0.000000 0.000000 0.000000
# 3 0.004956 -0.001354 0.025701 0.000000 0.000000 0.000000
# 4 0.000000 0.000000 0.000000 0.079319 0.000000 0.000000
# 5 0.000000 0.000000 0.000000 0.000000 0.027978 0.000000
# 6 0.000000 0.000000 0.000000 0.000000 0.000000 0.040280
#
#
# Mechanical properties :
#
#
# Convention : Reuss Voigt Hill
#
# Bulk Modulus (GPa) = 20.18635 28.15894 24.17264
# Shear Modulus (GPa) = 21.40980 26.92947 24.16963
#
# Velocity S-wave (km/s) = 3.12514 3.50491 3.32046
# Velocity P-wave (km/s) = 4.71491 5.40596 5.07222
#
# Compressibility (1/GPa) = 0.04953843
#
# Stress axis : x y z
#
# Youngs Moduli (GPa) = 62.22530 56.42846 38.90874
#
# Poissons Ratio (x) = 0.48415 -0.19284
# Poissons Ratio (y) = 0.53388 0.05267
# Poissons Ratio (z) = -0.30840 0.07639
#
# Static dielectric constant tensor:
#      x y z
#    x 1.815210 0.000000 0.000000 
#    y 0.000000 1.815690 0.000000 
#    z 0.000000 0.000000 1.758730 
# 
# From -- ./inp_files/5824.got.cif
#   From: 2010.05.17/outbox.cif.g08.bks.cpg/sg58_3_cif.got.tgz:5824.got - 2010.06.03 14:20:14.
