data_PCOD9445982
_publ_section_title
;
Structure prediction by ZEFSAII (Michael W. Deem and Ramdas Pophale) SiO2 
 PCOD9445982
Probable space group: P N N M
;
_chemical_formula_sum "Si O2"
_cell_formula_units_Z 56
_cell_length_a 21.000000
_cell_length_b 9.000000
_cell_length_c 15.000000
_cell_angle_alpha 90.000000
_cell_angle_beta 90.000000
_cell_angle_gamma 90.000000
_cell_volume 2835.000000
_symmetry_space_group_name_H-M "P N N M"
_symmetry_group_IT_number 58
_symmetry_cell_setting 'orthorhombic'
loop_
_space_group_symop_operation_xyz
x,y,z
-x,-y,z
1/2+x,1/2-y,1/2-z
1/2-x,1/2+y,1/2-z
-x,-y,-z
x,y,-z
1/2-x,1/2+y,1/2+z
1/2+x,1/2-y,1/2+z
loop_
_atom_site_type_symbol
_atom_site_label
_atom_site_fract_x
_atom_site_fract_y
_atom_site_fract_z
Si Si1 0.280903 0.662264 0.197544
Si Si2 0.332993 0.378923 0.101160
Si Si3 0.134601 0.376253 0.396365
Si Si4 0.146121 0.568853 0.108927
Si Si5 0.985970 0.823128 0.601778
Si Si6 0.916442 0.343778 0.285173
Si Si7 0.805963 0.760898 0.899848
O O1 0.319142 0.535305 0.145771
O O2 0.303796 0.820207 0.157727
O O3 0.209096 0.631421 0.161448
O O4 0.299971 0.656464 0.303120
O O5 0.371122 0.282533 0.172337
O O6 0.265364 0.299881 0.091570
O O7 0.359456 0.393206 0.000000
O O8 0.147888 0.418265 0.500000
O O9 0.085746 0.237754 0.398721
O O10 0.102721 0.509666 0.341312
O O11 0.091982 0.625502 0.179235
O O12 0.151274 0.388585 0.111511
O O13 0.144259 0.606274 0.000000
O O14 0.009107 0.788173 0.500000
O O15 0.017441 0.722794 0.678954
O O16 0.000000 0.000000 0.615781
O O17 0.821477 0.827468 0.000000
#
# Coordination Sequence:
#
# PCOD9445982 Si02
#       7
#     8   8   8   8   8   8   8
#     4  11  19  36  57  83 117 160 192 234 287 348
#     4  10  20  33  52  79 115 155 188 224 284 345
#     4  11  22  35  57  89 118 148 195 245 290 347
#     4  10  21  37  57  84 120 157 193 237 290 347
#     4  10  22  40  60  86 117 151 190 239 301 359
#     4  12  21  36  59  83 118 154 192 239 292 345
#     4   9  18  34  54  79 115 153 193 238 282 339
#
# _framework density 19.753086
#
# number of rings (size 3 to 8) (size 9 to 14) (size 15 to 20)
#    0.000    1.571    2.857    4.714    0.000    2.286 
#    0.000    0.714    0.000    3.000    0.000    0.000 
#    0.000    0.000    0.000    0.000    0.000    0.000 
#
# Total GULP energy -311765.293950 kJ/mol
# GULP energy per Si atom -5567.237392 kJ/mol
# Density = 1.970813 g / cm^3
# Si number density = 19.753086 Si / 1000 Ang^3
#
#
#
# Elastic Constant Matrix: (Units=GPa)
#
#
# Indices 1 2 3 4 5 6 
#
# 1 32.8896 6.6335 7.9497 0.0000 0.0000 0.0000
# 2 6.6335 7.5486 -8.4972 0.0000 0.0000 0.0000
# 3 7.9497 -8.4972 147.2393 0.0000 0.0000 0.0000
# 4 0.0000 0.0000 0.0000 -0.3045 0.0000 0.0000
# 5 0.0000 0.0000 0.0000 0.0000 43.8779 0.0000
# 6 0.0000 0.0000 0.0000 0.0000 0.0000 17.4293
#
#
#
# Elastic Compliance Matrix: (Units=1/GPa)
#
#
# Indices 1 2 3 4 5 6 
#
# 1 0.039473 -0.039664 -0.004420 0.000000 0.000000 0.000000
# 2 -0.039664 0.181533 0.012618 0.000000 0.000000 0.000000
# 3 -0.004420 0.012618 0.007758 0.000000 0.000000 0.000000
# 4 0.000000 0.000000 0.000000 -3.284244 0.000000 0.000000
# 5 0.000000 0.000000 0.000000 0.000000 0.022791 0.000000
# 6 0.000000 0.000000 0.000000 0.000000 0.000000 0.057375
#
#
# Mechanical properties :
#
#
# Convention : Reuss Voigt Hill
#
# Bulk Modulus (GPa) = 6.03017 22.20551 14.11784
# Shear Modulus (GPa) = -1.75002 24.30662 11.27830
#
# Velocity S-wave (km/s) = -0.94227 3.51169 2.39208
# Velocity P-wave (km/s) = 1.36952 5.26389 3.84604
#
# Compressibility (1/GPa) = 0.16583268
#
# Stress axis : x y z
#
# Youngs Moduli (GPa) = 25.33378 5.50864 128.89108
#
# Poissons Ratio (x) = 0.21849 0.56972
# Poissons Ratio (y) = 1.00483 -1.62632
# Poissons Ratio (z) = 0.11198 -0.06951
#
# Static dielectric constant tensor:
#      x y z
#    x 1.835020 0.000000 0.000000 
#    y 0.000000 1.736170 0.000000 
#    z 0.000000 0.000000 1.736650 
# 
# From -- ./inp_files/23239.got.cif
#   From: 2010.05.17/outbox.ucp.g08.bks.cvg/sg58_12_cif.got.tgz:23239.got - 2010.06.11 16:41:41.
