data_PCOD9445675
_publ_section_title
;
Structure prediction by ZEFSAII (Michael W. Deem and Ramdas Pophale) SiO2 
 PCOD9445675
Probable space group: P N N M
;
_chemical_formula_sum "Si O2"
_cell_formula_units_Z 56
_cell_length_a 22.061869
_cell_length_b 14.954161
_cell_length_c 8.892954
_cell_angle_alpha 90.000000
_cell_angle_beta 90.000000
_cell_angle_gamma 90.000000
_cell_volume 2933.934401
_symmetry_space_group_name_H-M "P N N M"
_symmetry_group_IT_number 58
_symmetry_cell_setting 'orthorhombic'
loop_
_space_group_symop_operation_xyz
x,y,z
-x,-y,z
1/2+x,1/2-y,1/2-z
1/2-x,1/2+y,1/2-z
-x,-y,-z
x,y,-z
1/2-x,1/2+y,1/2+z
1/2+x,1/2-y,1/2+z
loop_
_atom_site_type_symbol
_atom_site_label
_atom_site_fract_x
_atom_site_fract_y
_atom_site_fract_z
Si Si1 0.570287 0.508406 0.683565
Si Si2 0.727570 0.823793 0.681923
Si Si3 0.852698 0.491873 0.824733
Si Si4 0.640042 0.329256 0.320178
Si Si5 0.617282 0.700365 0.317668
Si Si6 0.591890 0.154058 0.175574
Si Si7 0.968662 0.363666 0.824522
O O1 0.500000 0.500000 0.730595
O O2 0.570007 0.510251 0.500000
O O3 0.608713 0.421835 0.729710
O O4 0.600858 0.601208 0.735308
O O5 0.730946 0.819781 0.500000
O O6 0.697967 0.919967 0.720801
O O7 0.793351 0.817129 0.752021
O O8 0.680180 0.746591 0.732097
O O9 0.859352 0.580458 0.727757
O O10 0.915721 0.436849 0.814779
O O11 0.843800 0.515579 0.000000
O O12 0.643349 0.330003 0.500000
O O13 0.601013 0.245359 0.265859
O O14 0.620336 0.697946 0.500000
O O15 0.563247 0.769796 0.283176
O O16 0.525654 0.118448 0.220688
O O17 0.596964 0.170627 0.000000
O O18 0.988279 0.360470 0.000000
#
# Coordination Sequence:
#
# PCOD9445675 Si02
#       7
#     8   8   8   8   8   8   8
#     4   9  17  31  55  84 107 132 176 230 274 319
#     4   9  19  37  58  81 111 143 176 218 271 332
#     4   9  19  36  58  82 110 145 180 216 266 332
#     4  11  23  37  55  79 108 143 185 231 276 328
#     4   8  15  31  57  84 108 139 176 214 266 334
#     4  12  24  35  51  77 110 146 183 227 274 316
#     4   9  17  33  58  84 110 140 174 214 265 330
#
# _framework density 19.086998000000001
#
# number of rings (size 3 to 8) (size 9 to 14) (size 15 to 20)
#    0.000    2.429    0.000    4.714    0.000    6.286 
#    0.000    3.571    0.000    8.571    0.000    0.000 
#    0.000    0.000    0.000    0.000    0.000    0.000 
#
# Total GULP energy -312559.446701 kJ/mol
# GULP energy per Si atom -5581.418691 kJ/mol
# Density = 1.904356 g / cm^3
# Si number density = 19.086998 Si / 1000 Ang^3
#
#
#
# Elastic Constant Matrix: (Units=GPa)
#
#
# Indices 1 2 3 4 5 6 
#
# 1 58.3477 -0.8734 8.1804 0.0000 0.0000 0.0000
# 2 -0.8734 88.7146 13.9345 0.0000 0.0000 0.0000
# 3 8.1804 13.9345 14.5807 0.0000 0.0000 0.0000
# 4 0.0000 0.0000 0.0000 11.4381 0.0000 0.0000
# 5 0.0000 0.0000 0.0000 0.0000 20.6441 0.0000
# 6 0.0000 0.0000 0.0000 0.0000 0.0000 10.9476
#
#
#
# Elastic Compliance Matrix: (Units=1/GPa)
#
#
# Indices 1 2 3 4 5 6 
#
# 1 0.018955 0.002185 -0.012723 0.000000 0.000000 0.000000
# 2 0.002185 0.013515 -0.014142 0.000000 0.000000 0.000000
# 3 -0.012723 -0.014142 0.089237 0.000000 0.000000 0.000000
# 4 0.000000 0.000000 0.000000 0.087427 0.000000 0.000000
# 5 0.000000 0.000000 0.000000 0.000000 0.048440 0.000000
# 6 0.000000 0.000000 0.000000 0.000000 0.000000 0.091344
#
#
# Mechanical properties :
#
#
# Convention : Reuss Voigt Hill
#
# Bulk Modulus (GPa) = 13.82216 22.68068 18.25142
# Shear Modulus (GPa) = 11.83731 17.96606 14.90168
#
# Velocity S-wave (km/s) = 2.49304 3.07134 2.79718
# Velocity P-wave (km/s) = 3.94263 4.94835 4.47384
#
# Compressibility (1/GPa) = 0.07234759
#
# Stress axis : x y z
#
# Youngs Moduli (GPa) = 52.75626 73.99249 11.20613
#
# Poissons Ratio (x) = -0.16167 0.14257
# Poissons Ratio (y) = -0.11527 0.15848
# Poissons Ratio (z) = 0.67121 1.04639
#
# Static dielectric constant tensor:
#      x y z
#    x 1.678160 0.000000 0.000000 
#    y 0.000000 1.688440 0.000000 
#    z 0.000000 0.000000 1.634780 
# 
# From -- ./inp_files/9052.got.cif
#   From: 2010.05.17/outbox.cif.g08.bks.cpg/sg58_5_cif.got.tgz:9052.got - 2010.06.03 14:20:14.
