data_PCOD9445458
_publ_section_title
;
Structure prediction by ZEFSAII (Michael W. Deem and Ramdas Pophale) SiO2 
 PCOD9445458
Probable space group: P N N M
;
_chemical_formula_sum "Si O2"
_cell_formula_units_Z 26
_cell_length_a 15.000749
_cell_length_b 9.111026
_cell_length_c 7.616055
_cell_angle_alpha 90.000000
_cell_angle_beta 90.000000
_cell_angle_gamma 90.000000
_cell_volume 1040.903100
_symmetry_space_group_name_H-M "P N N M"
_symmetry_group_IT_number 58
_symmetry_cell_setting 'orthorhombic'
loop_
_space_group_symop_operation_xyz
x,y,z
-x,-y,z
1/2+x,1/2-y,1/2-z
1/2-x,1/2+y,1/2-z
-x,-y,-z
x,y,-z
1/2-x,1/2+y,1/2+z
1/2+x,1/2-y,1/2+z
loop_
_atom_site_type_symbol
_atom_site_label
_atom_site_fract_x
_atom_site_fract_y
_atom_site_fract_z
Si Si1 0.295881 0.453889 0.788483
Si Si2 0.062514 0.701029 0.696088
Si Si3 0.631908 0.236819 0.701287
Si Si4 0.000000 0.500000 0.000000
O O1 0.374175 0.336456 0.755814
O O2 0.318128 0.607779 0.701112
O O3 0.204103 0.378275 0.731940
O O4 0.291533 0.474929 0.000000
O O5 0.086470 0.650154 0.500000
O O6 0.959454 0.753021 0.695766
O O7 0.061696 0.578331 0.843457
O O8 0.602073 0.194900 0.500000
#
# Coordination Sequence:
#
# PCOD9445458 Si02
#       4
#     8   8   8   2
#     4  10  25  44  67  99 139 181 230 283 344 410
#     4  11  25  46  70 101 139 184 228 285 344 408
#     4  11  24  43  69 101 137 181 231 283 343 410
#     4  12  26  44  74 102 140 178 236 284 344 414
#
# _framework density 24.97831
#
# number of rings (size 3 to 8) (size 9 to 14) (size 15 to 20)
#    0.000    1.231    1.538    2.308    6.462    6.154 
#    0.000    0.000    0.000    0.000    0.000    0.000 
#    0.000    0.000    0.000    0.000    0.000    0.000 
#
# Total GULP energy -145387.683791 kJ/mol
# GULP energy per Si atom -5591.833992 kJ/mol
# Density = 2.492146 g / cm^3
# Si number density = 24.978310 Si / 1000 Ang^3
#
#
#
# Elastic Constant Matrix: (Units=GPa)
#
#
# Indices 1 2 3 4 5 6 
#
# 1 167.3822 49.3491 0.7687 0.0000 0.0000 0.0000
# 2 49.3491 113.9422 44.9923 0.0000 0.0000 0.0000
# 3 0.7687 44.9923 97.6980 0.0000 0.0000 0.0000
# 4 0.0000 0.0000 0.0000 39.6953 0.0000 0.0000
# 5 0.0000 0.0000 0.0000 0.0000 94.7812 0.0000
# 6 0.0000 0.0000 0.0000 0.0000 0.0000 54.9973
#
#
#
# Elastic Compliance Matrix: (Units=1/GPa)
#
#
# Indices 1 2 3 4 5 6 
#
# 1 0.007061 -0.003711 0.001653 0.000000 0.000000 0.000000
# 2 -0.003711 0.012677 -0.005809 0.000000 0.000000 0.000000
# 3 0.001653 -0.005809 0.012898 0.000000 0.000000 0.000000
# 4 0.000000 0.000000 0.000000 0.025192 0.000000 0.000000
# 5 0.000000 0.000000 0.000000 0.000000 0.010551 0.000000
# 6 0.000000 0.000000 0.000000 0.000000 0.000000 0.018183
#
#
# Mechanical properties :
#
#
# Convention : Reuss Voigt Hill
#
# Bulk Modulus (GPa) = 59.16144 63.24918 61.20531
# Shear Modulus (GPa) = 46.32678 56.82224 51.57451
#
# Velocity S-wave (km/s) = 4.31127 4.77473 4.54891
# Velocity P-wave (km/s) = 6.96558 7.46820 7.22126
#
# Compressibility (1/GPa) = 0.01690290
#
# Stress axis : x y z
#
# Youngs Moduli (GPa) = 141.62570 78.88017 77.53244
#
# Poissons Ratio (x) = 0.29272 -0.12820
# Poissons Ratio (y) = 0.52557 0.45039
# Poissons Ratio (z) = -0.23417 0.45822
#
# Static dielectric constant tensor:
#      x y z
#    x 1.864760 0.000000 0.000000 
#    y 0.000000 1.712690 0.000000 
#    z 0.000000 0.000000 1.943220 
# 
# From -- ./inp_files/1963.got.cif
#   From: 2010.05.17/outbox.cif.g08.bks.cpg/sg58_1_cif.got.tgz:1963.got - 2010.06.03 14:20:14.
