data_PCOD9445833
_publ_section_title
;
Structure prediction by ZEFSAII (Michael W. Deem and Ramdas Pophale) SiO2 
 PCOD9445833
Probable space group: P N N M
;
_chemical_formula_sum "Si O2"
_cell_formula_units_Z 34
_cell_length_a 25.760240
_cell_length_b 4.831455
_cell_length_c 12.806617
_cell_angle_alpha 90.000000
_cell_angle_beta 90.000000
_cell_angle_gamma 90.000000
_cell_volume 1593.904385
_symmetry_space_group_name_H-M "P N N M"
_symmetry_group_IT_number 58
_symmetry_cell_setting 'orthorhombic'
loop_
_space_group_symop_operation_xyz
x,y,z
-x,-y,z
1/2+x,1/2-y,1/2-z
1/2-x,1/2+y,1/2-z
-x,-y,-z
x,y,-z
1/2-x,1/2+y,1/2+z
1/2+x,1/2-y,1/2+z
loop_
_atom_site_type_symbol
_atom_site_label
_atom_site_fract_x
_atom_site_fract_y
_atom_site_fract_z
Si Si1 0.109256 0.807683 0.775461
Si Si2 0.500000 0.500000 0.000000
Si Si3 0.046987 0.315961 0.703258
Si Si4 0.726656 0.341409 0.500000
Si Si5 0.651562 0.843732 0.500000
Si Si6 0.776465 0.110133 0.295464
O O1 0.092241 0.546778 0.704278
O O2 0.119819 0.712085 0.893858
O O3 0.163285 0.920384 0.729016
O O4 0.067514 0.053252 0.767320
O O5 0.527746 0.307094 0.907239
O O6 0.000000 0.500000 0.749151
O O7 0.701803 0.643169 0.500000
O O8 0.761289 0.259991 0.401731
O O9 0.675010 0.150105 0.500000
O O10 0.751766 0.317779 0.210808
#
# Coordination Sequence:
#
# PCOD9445833 Si02
#       6
#     8   2   8   4   4   8
#     4  12  25  44  74 107 143 187 244 285 359 431
#     4  12  26  52  82  94 150 180 220 306 396 406
#     4  12  26  48  76 105 137 183 234 304 362 426
#     4  12  22  42  69  97 148 194 233 287 354 403
#     4  12  24  44  72 102 141 199 224 286 367 413
#     4  12  23  42  67 106 146 187 236 290 339 429
#
# _framework density 21.331265999999999
#
# number of rings (size 3 to 8) (size 9 to 14) (size 15 to 20)
#    0.000    0.000    7.059    3.176    0.000    1.882 
#    0.000    3.529    0.000    0.000    0.000    0.000 
#    0.000    0.000    0.000    0.000    0.000    0.000 
#
# Total GULP energy -189492.177450 kJ/mol
# GULP energy per Si atom -5573.299337 kJ/mol
# Density = 2.128271 g / cm^3
# Si number density = 21.331266 Si / 1000 Ang^3
#
#
#
# Elastic Constant Matrix: (Units=GPa)
#
#
# Indices 1 2 3 4 5 6 
#
# 1 83.8406 29.2939 40.4797 0.0000 0.0000 0.0000
# 2 29.2939 108.7043 27.8053 0.0000 0.0000 0.0000
# 3 40.4797 27.8053 108.7652 0.0000 0.0000 0.0000
# 4 0.0000 0.0000 0.0000 5.8625 0.0000 0.0000
# 5 0.0000 0.0000 0.0000 0.0000 27.9153 0.0000
# 6 0.0000 0.0000 0.0000 0.0000 0.0000 16.9742
#
#
#
# Elastic Compliance Matrix: (Units=1/GPa)
#
#
# Indices 1 2 3 4 5 6 
#
# 1 0.015328 -0.002858 -0.004974 0.000000 0.000000 0.000000
# 2 -0.002858 0.010376 -0.001589 0.000000 0.000000 0.000000
# 3 -0.004974 -0.001589 0.011451 0.000000 0.000000 0.000000
# 4 0.000000 0.000000 0.000000 0.170574 0.000000 0.000000
# 5 0.000000 0.000000 0.000000 0.000000 0.035823 0.000000
# 6 0.000000 0.000000 0.000000 0.000000 0.000000 0.058913
#
#
# Mechanical properties :
#
#
# Convention : Reuss Voigt Hill
#
# Bulk Modulus (GPa) = 54.60563 55.16310 54.88436
# Shear Modulus (GPa) = 15.27134 23.73249 19.50191
#
# Velocity S-wave (km/s) = 2.67856 3.33914 3.02692
# Velocity P-wave (km/s) = 5.93470 6.38614 6.16455
#
# Compressibility (1/GPa) = 0.01831313
#
# Stress axis : x y z
#
# Youngs Moduli (GPa) = 65.24217 96.37715 87.32543
#
# Poissons Ratio (x) = 0.27547 0.43434
# Poissons Ratio (y) = 0.18648 0.13874
# Poissons Ratio (z) = 0.32450 0.15312
#
# Static dielectric constant tensor:
#      x y z
#    x 1.947010 0.000000 0.000000 
#    y 0.000000 1.783210 0.000000 
#    z 0.000000 0.000000 1.794130 
# 
# From -- ./inp_files/11692.got.cif
#   From: 2010.05.17/outbox.cif.g08.bks.cpg/sg58_6_cif.got.tgz:11692.got - 2010.06.03 14:20:14.
