data_PCOD9445696
_publ_section_title
;
Structure prediction by ZEFSAII (Michael W. Deem and Ramdas Pophale) SiO2 
 PCOD9445696
Probable space group: P N N M
;
_chemical_formula_sum "Si O2"
_cell_formula_units_Z 52
_cell_length_a 17.284754
_cell_length_b 6.790498
_cell_length_c 17.583507
_cell_angle_alpha 90.000000
_cell_angle_beta 90.000000
_cell_angle_gamma 90.000000
_cell_volume 2063.812922
_symmetry_space_group_name_H-M "P N N M"
_symmetry_group_IT_number 58
_symmetry_cell_setting 'orthorhombic'
loop_
_space_group_symop_operation_xyz
x,y,z
-x,-y,z
1/2+x,1/2-y,1/2-z
1/2-x,1/2+y,1/2-z
-x,-y,-z
x,y,-z
1/2-x,1/2+y,1/2+z
1/2+x,1/2-y,1/2+z
loop_
_atom_site_type_symbol
_atom_site_label
_atom_site_fract_x
_atom_site_fract_y
_atom_site_fract_z
Si Si1 0.671959 0.589869 0.664125
Si Si2 0.443147 0.753643 0.334537
Si Si3 0.004141 0.750841 0.000000
Si Si4 0.682245 0.967354 0.587022
Si Si5 0.323582 0.137032 0.811605
Si Si6 0.865464 0.017528 0.409901
Si Si7 0.049853 0.330902 0.327478
O O1 0.599517 0.452843 0.678460
O O2 0.663120 0.735878 0.593106
O O3 0.687691 0.734684 0.735608
O O4 0.742557 0.437335 0.654720
O O5 0.495938 0.751810 0.407619
O O6 0.487123 0.790431 0.255202
O O7 0.374444 0.907171 0.359812
O O8 0.000000 0.500000 0.000000
O O9 0.000000 0.000000 0.000000
O O10 0.672781 0.038841 0.500000
O O11 0.773964 0.973004 0.605524
O O12 0.372069 0.274377 0.868612
O O13 0.370507 0.936631 0.802948
O O14 0.876171 0.026720 0.500000
O O15 0.923447 0.857672 0.374505
O O16 0.000000 0.500000 0.368007
#
# Coordination Sequence:
#
# PCOD9445696 Si02
#       7
#     8   8   4   8   8   8   8
#     4  12  23  38  73 105 140 180 236 311 389 444
#     4  12  25  44  75 106 148 198 249 310 374 455
#     4  12  32  54  76 114 170 220 261 310 379 466
#     4  11  23  40  70 110 149 178 234 307 385 457
#     4  12  23  42  69 104 139 182 239 307 384 449
#     4  11  25  46  69 103 141 179 236 314 386 449
#     4  12  27  47  69  99 138 199 254 294 361 461
#
# _framework density 25.196081
#
# number of rings (size 3 to 8) (size 9 to 14) (size 15 to 20)
#    0.000    0.308    6.923    2.308    3.231    3.385 
#    0.000    0.769    0.000    0.000    0.000    0.000 
#    0.000    0.000    0.000    0.000    0.000    0.000 
#
# Total GULP energy -290167.004075 kJ/mol
# GULP energy per Si atom -5580.134694 kJ/mol
# Density = 2.513873 g / cm^3
# Si number density = 25.196081 Si / 1000 Ang^3
#
#
#
# Elastic Constant Matrix: (Units=GPa)
#
#
# Indices 1 2 3 4 5 6 
#
# 1 74.9088 24.3978 11.2583 0.0000 0.0000 0.0000
# 2 24.3978 156.3371 46.3488 0.0000 0.0000 0.0000
# 3 11.2583 46.3488 144.1075 0.0000 0.0000 0.0000
# 4 0.0000 0.0000 0.0000 37.2973 0.0000 0.0000
# 5 0.0000 0.0000 0.0000 0.0000 17.1716 0.0000
# 6 0.0000 0.0000 0.0000 0.0000 0.0000 68.5157
#
#
#
# Elastic Compliance Matrix: (Units=1/GPa)
#
#
# Indices 1 2 3 4 5 6 
#
# 1 0.014089 -0.002070 -0.000435 0.000000 0.000000 0.000000
# 2 -0.002070 0.007375 -0.002210 0.000000 0.000000 0.000000
# 3 -0.000435 -0.002210 0.007684 0.000000 0.000000 0.000000
# 4 0.000000 0.000000 0.000000 0.026812 0.000000 0.000000
# 5 0.000000 0.000000 0.000000 0.000000 0.058236 0.000000
# 6 0.000000 0.000000 0.000000 0.000000 0.000000 0.014595
#
#
# Mechanical properties :
#
#
# Convention : Reuss Voigt Hill
#
# Bulk Modulus (GPa) = 50.71526 59.92925 55.32225
# Shear Modulus (GPa) = 34.53210 44.15350 39.34280
#
# Velocity S-wave (km/s) = 3.70609 4.19070 3.95582
# Velocity P-wave (km/s) = 6.20366 6.87407 6.54745
#
# Compressibility (1/GPa) = 0.01971793
#
# Stress axis : x y z
#
# Youngs Moduli (GPa) = 70.97704 135.59891 130.13869
#
# Poissons Ratio (x) = 0.28066 0.05661
# Poissons Ratio (y) = 0.14691 0.28763
# Poissons Ratio (z) = 0.03088 0.29970
#
# Static dielectric constant tensor:
#      x y z
#    x 2.113130 0.000000 0.000000 
#    y 0.000000 2.018830 0.000000 
#    z 0.000000 0.000000 1.936950 
# 
# From -- ./inp_files/30389.got.cif
#   From: 2010.05.17/outbox.cif.g08.bks.cpg/sg58_16_cif.got.tgz:30389.got - 2010.06.03 14:20:14.
