data_PCOD9445572
_publ_section_title
;
Structure prediction by ZEFSAII (Michael W. Deem and Ramdas Pophale) SiO2 
 PCOD9445572
Probable space group: P N N M
;
_chemical_formula_sum "Si O2"
_cell_formula_units_Z 56
_cell_length_a 14.993913
_cell_length_b 10.850192
_cell_length_c 16.222771
_cell_angle_alpha 90.000000
_cell_angle_beta 90.000000
_cell_angle_gamma 90.000000
_cell_volume 2639.231267
_symmetry_space_group_name_H-M "P N N M"
_symmetry_group_IT_number 58
_symmetry_cell_setting 'orthorhombic'
loop_
_space_group_symop_operation_xyz
x,y,z
-x,-y,z
1/2+x,1/2-y,1/2-z
1/2-x,1/2+y,1/2-z
-x,-y,-z
x,y,-z
1/2-x,1/2+y,1/2+z
1/2+x,1/2-y,1/2+z
loop_
_atom_site_type_symbol
_atom_site_label
_atom_site_fract_x
_atom_site_fract_y
_atom_site_fract_z
Si Si1 0.960258 0.867218 0.637234
Si Si2 0.230317 0.217407 0.592149
Si Si3 0.063435 0.614854 0.634456
Si Si4 0.752738 0.498074 0.406734
Si Si5 0.580224 0.410854 0.670618
Si Si6 0.571539 0.149403 0.594387
Si Si7 0.387923 0.087307 0.675374
O O1 0.863655 0.849248 0.598456
O O2 0.944150 0.871210 0.736394
O O3 0.020530 0.747924 0.615644
O O4 0.000000 0.000000 0.614164
O O5 0.268208 0.200897 0.500000
O O6 0.213947 0.362251 0.605098
O O7 0.300156 0.164212 0.657001
O O8 0.162569 0.591401 0.600437
O O9 0.075985 0.605876 0.733188
O O10 0.000000 0.500000 0.608601
O O11 0.715551 0.489093 0.500000
O O12 0.675460 0.475943 0.340212
O O13 0.500000 0.500000 0.642633
O O14 0.589133 0.289756 0.615749
O O15 0.591772 0.120901 0.500000
O O16 0.467116 0.128594 0.614214
O O17 0.624566 0.056576 0.654213
#
# Coordination Sequence:
#
# PCOD9445572 Si02
#       7
#     8   8   8   8   8   8   8
#     4  11  25  44  67  97 129 176 224 276 337 393
#     4  11  24  42  65  96 133 171 220 279 338 401
#     4  12  22  45  71  91 132 178 227 277 323 389
#     4  11  26  42  67 101 130 177 230 272 332 403
#     4  11  23  43  65  95 139 172 217 279 338 406
#     4  11  21  35  61  94 129 168 209 262 336 401
#     4  11  21  39  63  92 129 168 215 268 331 397
#
# _framework density 21.218299999999999
#
# number of rings (size 3 to 8) (size 9 to 14) (size 15 to 20)
#    0.000    0.857    4.286    3.857    2.000    4.571 
#    0.000    1.429    0.000    0.000    0.000    0.000 
#    0.000    0.000    0.000    0.000    0.000    0.000 
#
# Total GULP energy -313133.927464 kJ/mol
# GULP energy per Si atom -5591.677276 kJ/mol
# Density = 2.117001 g / cm^3
# Si number density = 21.218300 Si / 1000 Ang^3
#
#
#
# Elastic Constant Matrix: (Units=GPa)
#
#
# Indices 1 2 3 4 5 6 
#
# 1 86.9633 31.4336 -7.3705 0.0000 0.0000 0.0000
# 2 31.4336 117.4253 9.2135 0.0000 0.0000 0.0000
# 3 -7.3705 9.2135 30.3904 0.0000 0.0000 0.0000
# 4 0.0000 0.0000 0.0000 5.9440 0.0000 0.0000
# 5 0.0000 0.0000 0.0000 0.0000 18.3720 0.0000
# 6 0.0000 0.0000 0.0000 0.0000 0.0000 42.8647
#
#
#
# Elastic Compliance Matrix: (Units=1/GPa)
#
#
# Indices 1 2 3 4 5 6 
#
# 1 0.013282 -0.003901 0.004404 0.000000 0.000000 0.000000
# 2 -0.003901 0.009869 -0.003938 0.000000 0.000000 0.000000
# 3 0.004404 -0.003938 0.035167 0.000000 0.000000 0.000000
# 4 0.000000 0.000000 0.000000 0.168237 0.000000 0.000000
# 5 0.000000 0.000000 0.000000 0.000000 0.054431 0.000000
# 6 0.000000 0.000000 0.000000 0.000000 0.000000 0.023329
#
#
# Mechanical properties :
#
#
# Convention : Reuss Voigt Hill
#
# Bulk Modulus (GPa) = 19.43694 33.48137 26.45916
# Shear Modulus (GPa) = 15.22831 26.86964 21.04898
#
# Velocity S-wave (km/s) = 2.68189 3.56243 3.15305
# Velocity P-wave (km/s) = 4.33248 5.72145 5.07471
#
# Compressibility (1/GPa) = 0.05144842
#
# Stress axis : x y z
#
# Youngs Moduli (GPa) = 75.28724 101.32372 28.43555
#
# Poissons Ratio (x) = 0.39528 -0.12523
# Poissons Ratio (y) = 0.29371 0.11199
# Poissons Ratio (z) = -0.33157 0.39904
#
# Static dielectric constant tensor:
#      x y z
#    x 1.743870 0.000000 0.000000 
#    y 0.000000 1.796080 0.000000 
#    z 0.000000 0.000000 1.777840 
# 
# From -- ./inp_files/22195.got.cif
#   From: 2010.05.17/outbox.cif.g08.bks.cpg/sg58_12_cif.got.tgz:22195.got - 2010.06.03 14:20:14.
