data_PCOD9445823
_publ_section_title
;
Structure prediction by ZEFSAII (Michael W. Deem and Ramdas Pophale) SiO2 
 PCOD9445823
Probable space group: P N N M
;
_chemical_formula_sum "Si O2"
_cell_formula_units_Z 34
_cell_length_a 10.086094
_cell_length_b 16.887245
_cell_length_c 8.993545
_cell_angle_alpha 90.000000
_cell_angle_beta 90.000000
_cell_angle_gamma 90.000000
_cell_volume 1531.837608
_symmetry_space_group_name_H-M "P N N M"
_symmetry_group_IT_number 58
_symmetry_cell_setting 'orthorhombic'
loop_
_space_group_symop_operation_xyz
x,y,z
-x,-y,z
1/2+x,1/2-y,1/2-z
1/2-x,1/2+y,1/2-z
-x,-y,-z
x,y,-z
1/2-x,1/2+y,1/2+z
1/2+x,1/2-y,1/2+z
loop_
_atom_site_type_symbol
_atom_site_label
_atom_site_fract_x
_atom_site_fract_y
_atom_site_fract_z
Si Si1 0.695926 0.930639 0.262674
Si Si2 0.500000 0.000000 0.500000
Si Si3 0.213607 0.909545 0.166824
Si Si4 0.467208 0.655250 0.171285
Si Si5 0.539002 0.176839 0.681285
O O1 0.613020 0.984137 0.375026
O O2 0.825202 0.886963 0.323224
O O3 0.585979 0.863038 0.233762
O O4 0.746174 0.998524 0.153656
O O5 0.327718 0.859374 0.249805
O O6 0.081910 0.900868 0.264968
O O7 0.194031 0.877303 0.000000
O O8 0.463502 0.731008 0.280147
O O9 0.495386 0.678177 0.000000
O O10 0.529380 0.158942 0.500000
#
# Coordination Sequence:
#
# PCOD9445823 Si02
#       5
#     8   2   8   8   8
#     4  12  24  45  76  99 136 181 239 288 357 428
#     4  12  20  48  76 104 128 184 236 298 354 440
#     4  12  27  45  68 102 143 188 240 294 355 424
#     4  12  27  43  70 106 144 183 234 298 362 427
#     4  12  24  46  74 103 142 187 235 294 365 435
#
# _framework density 22.195564000000001
#
# number of rings (size 3 to 8) (size 9 to 14) (size 15 to 20)
#    0.000    0.000    4.706    4.235    1.647    6.588 
#    0.000    0.000    0.000    0.000    0.000    0.000 
#    0.000    0.000    0.000    0.000    0.000    0.000 
#
# Total GULP energy -189388.438168 kJ/mol
# GULP energy per Si atom -5570.248181 kJ/mol
# Density = 2.214505 g / cm^3
# Si number density = 22.195564 Si / 1000 Ang^3
#
#
#
# Elastic Constant Matrix: (Units=GPa)
#
#
# Indices 1 2 3 4 5 6 
#
# 1 168.6693 19.8771 20.2754 0.0000 0.0000 0.0000
# 2 19.8771 54.6308 -2.6557 0.0000 0.0000 0.0000
# 3 20.2754 -2.6557 59.1702 0.0000 0.0000 0.0000
# 4 0.0000 0.0000 0.0000 11.1669 0.0000 0.0000
# 5 0.0000 0.0000 0.0000 0.0000 23.8923 0.0000
# 6 0.0000 0.0000 0.0000 0.0000 0.0000 48.0368
#
#
#
# Elastic Compliance Matrix: (Units=1/GPa)
#
#
# Indices 1 2 3 4 5 6 
#
# 1 0.006502 -0.002480 -0.002339 0.000000 0.000000 0.000000
# 2 -0.002480 0.019290 0.001715 0.000000 0.000000 0.000000
# 3 -0.002339 0.001715 0.017779 0.000000 0.000000 0.000000
# 4 0.000000 0.000000 0.000000 0.089550 0.000000 0.000000
# 5 0.000000 0.000000 0.000000 0.000000 0.041854 0.000000
# 6 0.000000 0.000000 0.000000 0.000000 0.000000 0.020817
#
#
# Mechanical properties :
#
#
# Convention : Reuss Voigt Hill
#
# Bulk Modulus (GPa) = 26.76330 39.71822 33.24076
# Shear Modulus (GPa) = 23.31489 32.95078 28.13283
#
# Velocity S-wave (km/s) = 3.24455 3.85719 3.56406
# Velocity P-wave (km/s) = 5.11080 6.14579 5.65203
#
# Compressibility (1/GPa) = 0.03736460
#
# Stress axis : x y z
#
# Youngs Moduli (GPa) = 153.79481 51.83969 56.24612
#
# Poissons Ratio (x) = 0.12854 0.13158
# Poissons Ratio (y) = 0.38133 -0.09649
# Poissons Ratio (z) = 0.35978 -0.08893
#
# Static dielectric constant tensor:
#      x y z
#    x 1.759450 0.000000 0.000000 
#    y 0.000000 2.019220 0.000000 
#    z 0.000000 0.000000 1.755260 
# 
# From -- ./inp_files/2280.got.cif
#   From: 2010.05.17/outbox.cif.g08.bks.cpg/sg58_2_cif.got.tgz:2280.got - 2010.06.03 14:20:14.
