data_PCOD9445899
_publ_section_title
;
Structure prediction by ZEFSAII (Michael W. Deem and Ramdas Pophale) SiO2 
 PCOD9445899
Probable space group: P N N M
;
_chemical_formula_sum "Si O2"
_cell_formula_units_Z 48
_cell_length_a 9.000000
_cell_length_b 30.000000
_cell_length_c 9.000000
_cell_angle_alpha 90.000000
_cell_angle_beta 90.000000
_cell_angle_gamma 90.000000
_cell_volume 2430.000000
_symmetry_space_group_name_H-M "P N N M"
_symmetry_group_IT_number 58
_symmetry_cell_setting 'orthorhombic'
loop_
_space_group_symop_operation_xyz
x,y,z
-x,-y,z
1/2+x,1/2-y,1/2-z
1/2-x,1/2+y,1/2-z
-x,-y,-z
x,y,-z
1/2-x,1/2+y,1/2+z
1/2+x,1/2-y,1/2+z
loop_
_atom_site_type_symbol
_atom_site_label
_atom_site_fract_x
_atom_site_fract_y
_atom_site_fract_z
Si Si1 0.689006 0.727623 0.323951
Si Si2 0.511213 0.191157 0.322007
Si Si3 0.840254 0.385100 0.322724
Si Si4 0.291313 0.523430 0.678547
Si Si5 0.502907 0.357996 0.324547
Si Si6 0.601092 0.558388 0.822440
O O1 0.723052 0.729813 0.500000
O O2 0.621209 0.774841 0.275593
O O3 0.556456 0.691708 0.304857
O O4 0.834540 0.710250 0.240686
O O5 0.517673 0.190627 0.500000
O O6 0.465334 0.142916 0.260157
O O7 0.858730 0.379853 0.500000
O O8 0.829353 0.438099 0.290769
O O9 0.675654 0.365477 0.283558
O O10 0.308594 0.520048 0.500000
O O11 0.443424 0.542364 0.751603
O O12 0.277431 0.474685 0.750671
O O13 0.490858 0.369839 0.500000
O O14 0.396611 0.390770 0.231178
O O15 0.599346 0.554407 0.000000
#
# Coordination Sequence:
#
# PCOD9445899 Si02
#       6
#     8   8   8   8   8   8
#     4  10  22  39  57  77 104 139 175 211 256 313
#     4  11  23  37  56  81 106 134 171 216 263 308
#     4   9  18  33  54  78 106 140 176 214 256 307
#     4   9  16  28  46  69 101 141 179 211 250 305
#     4   9  18  34  54  75 103 141 180 213 252 309
#     4  10  17  25  43  74 107 135 169 217 265 300
#
# _framework density 19.753086
#
# number of rings (size 3 to 8) (size 9 to 14) (size 15 to 20)
#    0.000    2.333    0.000    5.500    0.000    6.667 
#    0.000    0.000    0.000    1.000    0.000    7.000 
#    0.000    0.000    0.000    0.000    0.000    0.000 
#
# Total GULP energy -267812.237598 kJ/mol
# GULP energy per Si atom -5579.421617 kJ/mol
# Density = 1.970813 g / cm^3
# Si number density = 19.753086 Si / 1000 Ang^3
#
#
#
# Elastic Constant Matrix: (Units=GPa)
#
#
# Indices 1 2 3 4 5 6 
#
# 1 17.7257 -33.3229 -7.9540 0.0000 0.0000 0.0000
# 2 -33.3229 26.2475 1.9391 0.0000 0.0000 0.0000
# 3 -7.9540 1.9391 52.3513 0.0000 0.0000 0.0000
# 4 0.0000 0.0000 0.0000 22.1695 0.0000 0.0000
# 5 0.0000 0.0000 0.0000 0.0000 20.0050 0.0000
# 6 0.0000 0.0000 0.0000 0.0000 0.0000 12.8557
#
#
#
# Elastic Compliance Matrix: (Units=1/GPa)
#
#
# Indices 1 2 3 4 5 6 
#
# 1 -0.039749 -0.050155 -0.004181 0.000000 0.000000 0.000000
# 2 -0.050155 -0.025082 -0.006691 0.000000 0.000000 0.000000
# 3 -0.004181 -0.006691 0.018714 0.000000 0.000000 0.000000
# 4 0.000000 0.000000 0.000000 0.045107 0.000000 0.000000
# 5 0.000000 0.000000 0.000000 0.000000 0.049987 0.000000
# 6 0.000000 0.000000 0.000000 0.000000 0.000000 0.077787
#
#
# Mechanical properties :
#
#
# Convention : Reuss Voigt Hill
#
# Bulk Modulus (GPa) = -5.94622 1.96101 -1.99260
# Shear Modulus (GPa) = 25.93872 20.05019 22.99445
#
# Velocity S-wave (km/s) = 3.62767 3.18943 3.41558
# Velocity P-wave (km/s) = 3.81180 3.81552 3.81366
#
# Compressibility (1/GPa) = -0.16817407
#
# Stress axis : x y z
#
# Youngs Moduli (GPa) = -25.15760 -39.86855 53.43522
#
# Poissons Ratio (x) = -1.99963 0.22344
# Poissons Ratio (y) = -1.26179 0.35755
# Poissons Ratio (z) = -0.10520 -0.26677
#
# Static dielectric constant tensor:
#      x y z
#    x 1.678360 0.000000 0.000000 
#    y 0.000000 1.760950 0.000000 
#    z 0.000000 0.000000 1.654810 
# 
# From -- ./inp_files/3016.got.cif
#   From: 2010.05.17/outbox.ucp.g08.bks.cvg/sg58_2_cif.got.tgz:3016.got - 2010.06.11 16:41:41.
