data_PCOD9445916
_publ_section_title
;
Structure prediction by ZEFSAII (Michael W. Deem and Ramdas Pophale) SiO2 
 PCOD9445916
Probable space group: P N N M
;
_chemical_formula_sum "Si O2"
_cell_formula_units_Z 64
_cell_length_a 18.000000
_cell_length_b 21.000000
_cell_length_c 9.000000
_cell_angle_alpha 90.000000
_cell_angle_beta 90.000000
_cell_angle_gamma 90.000000
_cell_volume 3402.000000
_symmetry_space_group_name_H-M "P N N M"
_symmetry_group_IT_number 58
_symmetry_cell_setting 'orthorhombic'
loop_
_space_group_symop_operation_xyz
x,y,z
-x,-y,z
1/2+x,1/2-y,1/2-z
1/2-x,1/2+y,1/2-z
-x,-y,-z
x,y,-z
1/2-x,1/2+y,1/2+z
1/2+x,1/2-y,1/2+z
loop_
_atom_site_type_symbol
_atom_site_label
_atom_site_fract_x
_atom_site_fract_y
_atom_site_fract_z
Si Si1 0.669291 0.527238 0.678609
Si Si2 0.547991 0.166125 0.320716
Si Si3 0.455132 0.393054 0.172421
Si Si4 0.390241 0.149272 0.819072
Si Si5 0.413856 0.686990 0.680202
Si Si6 0.227943 0.111340 0.821045
Si Si7 0.330404 0.282749 0.171307
Si Si8 0.288968 0.877796 0.680974
O O1 0.667466 0.535161 0.500000
O O2 0.590694 0.550904 0.745972
O O3 0.687131 0.454373 0.716082
O O4 0.738465 0.567538 0.745916
O O5 0.540890 0.164413 0.500000
O O6 0.472190 0.138921 0.248846
O O7 0.562499 0.240674 0.278065
O O8 0.624053 0.128074 0.281637
O O9 0.527471 0.363633 0.251864
O O10 0.393316 0.336676 0.174002
O O11 0.470707 0.408827 0.000000
O O12 0.314967 0.110970 0.774633
O O13 0.365723 0.219652 0.763895
O O14 0.397745 0.146849 0.000000
O O15 0.417384 0.683364 0.500000
O O16 0.329480 0.667295 0.725824
O O17 0.231676 0.115952 0.000000
O O18 0.254741 0.313461 0.229720
O O19 0.313925 0.265960 0.000000
O O20 0.282702 0.882431 0.500000
#
# Coordination Sequence:
#
# PCOD9445916 Si02
#       8
#     8   8   8   8   8   8   8   8
#     4  10  20  36  55  77 104 138 187 231 259 301
#     4  10  20  33  53  83 113 135 168 218 271 323
#     4  10  19  33  53  80 110 142 173 210 264 321
#     4  10  18  33  55  76 103 139 177 217 268 322
#     4  10  19  34  56  81 110 139 174 217 264 320
#     4   9  20  36  55  77 103 142 185 223 264 313
#     4   8  14  27  50  74  97 129 168 204 251 313
#     4   9  18  34  54  76 104 140 175 213 266 324
#
# _framework density 18.812463000000001
#
# number of rings (size 3 to 8) (size 9 to 14) (size 15 to 20)
#    0.000    2.500    1.250    2.250    0.000    4.000 
#    0.000    6.250    0.000    5.250    0.000    0.000 
#    0.000    0.000    0.000    0.000    0.000    0.000 
#
# Total GULP energy -356548.512483 kJ/mol
# GULP energy per Si atom -5571.070508 kJ/mol
# Density = 1.876965 g / cm^3
# Si number density = 18.812463 Si / 1000 Ang^3
#
#
#
# Elastic Constant Matrix: (Units=GPa)
#
#
# Indices 1 2 3 4 5 6 
#
# 1 118.5410 5.9802 19.6127 0.0000 0.0000 0.0000
# 2 5.9802 37.7364 7.6253 0.0000 0.0000 0.0000
# 3 19.6127 7.6253 35.5605 0.0000 0.0000 0.0000
# 4 0.0000 0.0000 0.0000 14.7185 0.0000 0.0000
# 5 0.0000 0.0000 0.0000 0.0000 33.3048 0.0000
# 6 0.0000 0.0000 0.0000 0.0000 0.0000 24.2268
#
#
#
# Elastic Compliance Matrix: (Units=1/GPa)
#
#
# Indices 1 2 3 4 5 6 
#
# 1 0.009291 -0.000457 -0.005026 0.000000 0.000000 0.000000
# 2 -0.000457 0.027722 -0.005693 0.000000 0.000000 0.000000
# 3 -0.005026 -0.005693 0.032114 0.000000 0.000000 0.000000
# 4 0.000000 0.000000 0.000000 0.067942 0.000000 0.000000
# 5 0.000000 0.000000 0.000000 0.000000 0.030026 0.000000
# 6 0.000000 0.000000 0.000000 0.000000 0.000000 0.041277
#
#
# Mechanical properties :
#
#
# Convention : Reuss Voigt Hill
#
# Bulk Modulus (GPa) = 21.37859 28.69714 25.03786
# Shear Modulus (GPa) = 20.29937 25.02468 22.66202
#
# Velocity S-wave (km/s) = 3.28844 3.65117 3.47454
# Velocity P-wave (km/s) = 5.08007 5.74997 5.42537
#
# Compressibility (1/GPa) = 0.04677577
#
# Stress axis : x y z
#
# Youngs Moduli (GPa) = 107.63670 36.07209 31.13925
#
# Poissons Ratio (x) = 0.01647 0.15651
# Poissons Ratio (y) = 0.04916 0.17726
# Poissons Ratio (z) = 0.54099 0.20535
#
# Static dielectric constant tensor:
#      x y z
#    x 1.662920 0.000000 0.000000 
#    y 0.000000 1.698680 0.000000 
#    z 0.000000 0.000000 1.644440 
# 
# From -- ./inp_files/8337.got.cif
#   From: 2010.05.17/outbox.ucp.g08.bks.cvg/sg58_5_cif.got.tgz:8337.got - 2010.06.11 16:41:41.
