data_PCOD9445194
_publ_section_title
;
Structure prediction by ZEFSAII (Michael W. Deem and Ramdas Pophale) SiO2 
 PCOD9445194
Probable space group: P N N M
;
_chemical_formula_sum "Si O2"
_cell_formula_units_Z 34
_cell_length_a 22.758370
_cell_length_b 8.531828
_cell_length_c 7.719015
_cell_angle_alpha 90.000000
_cell_angle_beta 90.000000
_cell_angle_gamma 90.000000
_cell_volume 1498.804990
_symmetry_space_group_name_H-M "P N N M"
_symmetry_group_IT_number 58
_symmetry_cell_setting 'orthorhombic'
loop_
_space_group_symop_operation_xyz
x,y,z
-x,-y,z
1/2+x,1/2-y,1/2-z
1/2-x,1/2+y,1/2-z
-x,-y,-z
x,y,-z
1/2-x,1/2+y,1/2+z
1/2+x,1/2-y,1/2+z
loop_
_atom_site_type_symbol
_atom_site_label
_atom_site_fract_x
_atom_site_fract_y
_atom_site_fract_z
Si Si1 0.419120 0.551845 0.690750
Si Si2 0.799043 0.069382 0.707371
Si Si3 0.941545 0.595759 0.288880
Si Si4 0.500000 0.500000 0.000000
Si Si5 0.175639 0.580497 0.292980
O O1 0.432755 0.490455 0.500000
O O2 0.349077 0.544077 0.718561
O O3 0.439399 0.731224 0.711489
O O4 0.451098 0.462474 0.846806
O O5 0.803321 0.065575 0.500000
O O6 0.814074 0.243717 0.772766
O O7 0.733532 0.019761 0.755201
O O8 0.940870 0.618207 0.500000
O O9 0.883893 0.501237 0.231619
O O10 0.000000 0.500000 0.246281
O O11 0.169586 0.591702 0.500000
#
# Coordination Sequence:
#
# PCOD9445194 Si02
#       5
#     8   8   8   2   8
#     4  12  26  44  72 102 138 181 232 282 339 411
#     4  11  23  42  67  97 139 180 229 289 344 404
#     4  10  22  42  70  98 141 187 228 285 347 407
#     4  12  26  48  70 102 144 184 218 288 340 414
#     4  10  23  40  66  99 134 184 233 282 346 410
#
# _framework density 22.684737999999999
#
# number of rings (size 3 to 8) (size 9 to 14) (size 15 to 20)
#    0.000    1.176    2.353    2.471    3.294    7.059 
#    0.000    0.000    0.000    0.000    0.000    0.000 
#    0.000    0.000    0.000    0.000    0.000    0.000 
#
# Total GULP energy -189814.216501 kJ/mol
# GULP energy per Si atom -5582.771074 kJ/mol
# Density = 2.263311 g / cm^3
# Si number density = 22.684738 Si / 1000 Ang^3
#
#
#
# Elastic Constant Matrix: (Units=GPa)
#
#
# Indices 1 2 3 4 5 6 
#
# 1 173.6058 25.0120 28.6285 0.0000 0.0000 0.0000
# 2 25.0120 76.3487 19.2398 0.0000 0.0000 0.0000
# 3 28.6285 19.2398 98.7287 0.0000 0.0000 0.0000
# 4 0.0000 0.0000 0.0000 19.9920 0.0000 0.0000
# 5 0.0000 0.0000 0.0000 0.0000 25.7613 0.0000
# 6 0.0000 0.0000 0.0000 0.0000 0.0000 41.8874
#
#
#
# Elastic Compliance Matrix: (Units=1/GPa)
#
#
# Indices 1 2 3 4 5 6 
#
# 1 0.006246 -0.001672 -0.001485 0.000000 0.000000 0.000000
# 2 -0.001672 0.014222 -0.002287 0.000000 0.000000 0.000000
# 3 -0.001485 -0.002287 0.011005 0.000000 0.000000 0.000000
# 4 0.000000 0.000000 0.000000 0.050020 0.000000 0.000000
# 5 0.000000 0.000000 0.000000 0.000000 0.038818 0.000000
# 6 0.000000 0.000000 0.000000 0.000000 0.000000 0.023874
#
#
# Mechanical properties :
#
#
# Convention : Reuss Voigt Hill
#
# Bulk Modulus (GPa) = 48.57901 54.93818 51.75859
# Shear Modulus (GPa) = 30.87680 35.91500 33.39590
#
# Velocity S-wave (km/s) = 3.69335 3.98329 3.84106
# Velocity P-wave (km/s) = 6.29675 6.73989 6.52209
#
# Compressibility (1/GPa) = 0.02058502
#
# Stress axis : x y z
#
# Youngs Moduli (GPa) = 160.10261 70.31481 90.86707
#
# Poissons Ratio (x) = 0.11756 0.13497
# Poissons Ratio (y) = 0.26767 0.20778
# Poissons Ratio (z) = 0.23781 0.16079
#
# Static dielectric constant tensor:
#      x y z
#    x 1.840400 0.000000 0.000000 
#    y 0.000000 1.850050 0.000000 
#    z 0.000000 0.000000 1.819770 
# 
# From -- ./inp_files/2276.got.cif
#   From: 2010.05.17/outbox.cif.g08.bks.cpg/sg58_2_cif.got.tgz:2276.got - 2010.06.03 14:20:14.
