data_PCOD9445478
_publ_section_title
;
Structure prediction by ZEFSAII (Michael W. Deem and Ramdas Pophale) SiO2 
 PCOD9445478
Probable space group: P N N M
;
_chemical_formula_sum "Si O2"
_cell_formula_units_Z 26
_cell_length_a 12.596654
_cell_length_b 9.118484
_cell_length_c 7.876244
_cell_angle_alpha 90.000000
_cell_angle_beta 90.000000
_cell_angle_gamma 90.000000
_cell_volume 904.684194
_symmetry_space_group_name_H-M "P N N M"
_symmetry_group_IT_number 58
_symmetry_cell_setting 'orthorhombic'
loop_
_space_group_symop_operation_xyz
x,y,z
-x,-y,z
1/2+x,1/2-y,1/2-z
1/2-x,1/2+y,1/2-z
-x,-y,-z
x,y,-z
1/2-x,1/2+y,1/2+z
1/2+x,1/2-y,1/2+z
loop_
_atom_site_type_symbol
_atom_site_label
_atom_site_fract_x
_atom_site_fract_y
_atom_site_fract_z
Si Si1 0.519009 0.201677 0.809169
Si Si2 0.110160 0.004554 0.704872
Si Si3 0.500000 0.000000 0.500000
Si Si4 0.800919 0.285844 0.809056
O O1 0.503121 0.379829 0.765500
O O2 0.552685 0.107736 0.649943
O O3 0.392616 0.161935 0.815317
O O4 0.560712 0.182837 0.000000
O O5 0.118223 0.978544 0.500000
O O6 0.188113 0.889189 0.800738
O O7 0.185836 0.153908 0.726108
O O8 0.837438 0.335521 0.000000
#
# Coordination Sequence:
#
# PCOD9445478 Si02
#       4
#     8   8   2   8
#     4  11  26  49  77 117 160 213 272 337 409 494
#     4  10  26  49  81 117 170 221 282 353 417 503
#     4  12  26  48  82 114 166 214 264 348 406 502
#     4  11  25  47  77 112 157 218 274 338 421 493
#
# _framework density 28.739312999999999
#
# number of rings (size 3 to 8) (size 9 to 14) (size 15 to 20)
#    0.000    1.231    1.538    1.385    6.462   14.154 
#    0.000    0.000    0.000    0.000    0.000    0.000 
#    0.000    0.000    0.000    0.000    0.000    0.000 
#
# Total GULP energy -144773.471984 kJ/mol
# GULP energy per Si atom -5568.210461 kJ/mol
# Density = 2.867390 g / cm^3
# Si number density = 28.739313 Si / 1000 Ang^3
#
#
#
# Elastic Constant Matrix: (Units=GPa)
#
#
# Indices 1 2 3 4 5 6 
#
# 1 134.6082 35.7222 19.4017 0.0000 0.0000 0.0000
# 2 35.7222 227.9715 131.3509 0.0000 0.0000 0.0000
# 3 19.4017 131.3509 191.1728 0.0000 0.0000 0.0000
# 4 0.0000 0.0000 0.0000 65.7775 0.0000 0.0000
# 5 0.0000 0.0000 0.0000 0.0000 37.3246 0.0000
# 6 0.0000 0.0000 0.0000 0.0000 0.0000 58.1299
#
#
#
# Elastic Compliance Matrix: (Units=1/GPa)
#
#
# Indices 1 2 3 4 5 6 
#
# 1 0.007752 -0.001260 0.000079 0.000000 0.000000 0.000000
# 2 -0.001260 0.007466 -0.005002 0.000000 0.000000 0.000000
# 3 0.000079 -0.005002 0.008659 0.000000 0.000000 0.000000
# 4 0.000000 0.000000 0.000000 0.015203 0.000000 0.000000
# 5 0.000000 0.000000 0.000000 0.000000 0.026792 0.000000
# 6 0.000000 0.000000 0.000000 0.000000 0.000000 0.017203
#
#
# Mechanical properties :
#
#
# Convention : Reuss Voigt Hill
#
# Bulk Modulus (GPa) = 86.86904 102.96691 94.91798
# Shear Modulus (GPa) = 50.36371 56.73158 53.54765
#
# Velocity S-wave (km/s) = 4.19075 4.44780 4.32119
# Velocity P-wave (km/s) = 7.32862 7.89195 7.61550
#
# Compressibility (1/GPa) = 0.01151158
#
# Stress axis : x y z
#
# Youngs Moduli (GPa) = 128.99862 133.94286 115.48115
#
# Poissons Ratio (x) = 0.16882 -0.00915
# Poissons Ratio (y) = 0.16258 0.57761
# Poissons Ratio (z) = -0.01022 0.66995
#
# Static dielectric constant tensor:
#      x y z
#    x -3.624300 0.000000 0.000000 
#    y 0.000000 1.482920 0.000000 
#    z 0.000000 0.000000 1.972860 
# 
# From -- ./inp_files/3655.got.cif
#   From: 2010.05.17/outbox.cif.g08.bks.cpg/sg58_2_cif.got.tgz:3655.got - 2010.06.03 14:20:14.
