data_PCOD9445674
_publ_section_title
;
Structure prediction by ZEFSAII (Michael W. Deem and Ramdas Pophale) SiO2 
 PCOD9445674
Probable space group: P N N M
;
_chemical_formula_sum "Si O2"
_cell_formula_units_Z 64
_cell_length_a 20.466073
_cell_length_b 8.714972
_cell_length_c 18.488309
_cell_angle_alpha 90.000000
_cell_angle_beta 90.000000
_cell_angle_gamma 90.000000
_cell_volume 3297.597962
_symmetry_space_group_name_H-M "P N N M"
_symmetry_group_IT_number 58
_symmetry_cell_setting 'orthorhombic'
loop_
_space_group_symop_operation_xyz
x,y,z
-x,-y,z
1/2+x,1/2-y,1/2-z
1/2-x,1/2+y,1/2-z
-x,-y,-z
x,y,-z
1/2-x,1/2+y,1/2+z
1/2+x,1/2-y,1/2+z
loop_
_atom_site_type_symbol
_atom_site_label
_atom_site_fract_x
_atom_site_fract_y
_atom_site_fract_z
Si Si1 0.769286 0.218442 0.321839
Si Si2 0.619691 0.658826 0.080820
Si Si3 0.606987 0.705492 0.413418
Si Si4 0.327383 0.501830 0.701567
Si Si5 0.162441 0.451128 0.087044
Si Si6 0.972384 0.674768 0.915882
Si Si7 0.568865 0.410070 0.816086
Si Si8 0.980437 0.675127 0.419590
O O1 0.831513 0.258186 0.371353
O O2 0.726436 0.367630 0.308042
O O3 0.725244 0.099409 0.368155
O O4 0.796378 0.133894 0.250743
O O5 0.609383 0.499842 0.122065
O O6 0.548225 0.732134 0.077778
O O7 0.644758 0.639355 0.000000
O O8 0.605564 0.680337 0.500000
O O9 0.645300 0.574443 0.371289
O O10 0.531605 0.723064 0.385622
O O11 0.641299 0.871721 0.401541
O O12 0.388096 0.575164 0.745088
O O13 0.101171 0.343671 0.111986
O O14 0.170718 0.431563 0.000000
O O15 0.000000 0.500000 0.915177
O O16 0.966028 0.719930 0.000000
O O17 0.500000 0.500000 0.806524
O O18 0.556998 0.244100 0.851029
O O19 0.949094 0.694352 0.500000
O O20 0.000000 0.500000 0.410547
#
# Coordination Sequence:
#
# PCOD9445674 Si02
#       8
#     8   8   8   8   8   8   8   8
#     4  11  23  37  52  74 109 149 186 223 266 331
#     4   9  18  34  56  79 105 139 175 214 263 323
#     4   9  18  35  58  82 108 139 184 241 287 322
#     4  11  24  38  54  76 110 152 192 232 276 330
#     4   9  17  33  58  83 108 142 181 223 278 340
#     4   7  12  26  51  81 107 132 167 214 268 321
#     4   9  19  36  56  79 109 144 179 219 272 331
#     4   9  17  32  58  89 112 131 168 225 279 325
#
# _framework density 19.408066999999999
#
# number of rings (size 3 to 8) (size 9 to 14) (size 15 to 20)
#    0.000    2.750    0.000    3.000    0.000    4.500 
#    0.000    1.250    0.000   12.375    0.000    0.000 
#    0.000    0.500    0.000    0.000    0.000    0.000 
#
# Total GULP energy -356757.233096 kJ/mol
# GULP energy per Si atom -5574.331767 kJ/mol
# Density = 1.936389 g / cm^3
# Si number density = 19.408067 Si / 1000 Ang^3
#
#
#
# Elastic Constant Matrix: (Units=GPa)
#
#
# Indices 1 2 3 4 5 6 
#
# 1 45.0170 6.2670 19.5626 0.0000 0.0000 0.0000
# 2 6.2670 49.0177 34.6233 0.0000 0.0000 0.0000
# 3 19.5626 34.6233 69.3281 0.0000 0.0000 0.0000
# 4 0.0000 0.0000 0.0000 -22.2843 0.0000 0.0000
# 5 0.0000 0.0000 0.0000 0.0000 23.4789 0.0000
# 6 0.0000 0.0000 0.0000 0.0000 0.0000 24.0907
#
#
#
# Elastic Compliance Matrix: (Units=1/GPa)
#
#
# Indices 1 2 3 4 5 6 
#
# 1 0.025569 0.002823 -0.008625 0.000000 0.000000 0.000000
# 2 0.002823 0.031831 -0.016693 0.000000 0.000000 0.000000
# 3 -0.008625 -0.016693 0.025195 0.000000 0.000000 0.000000
# 4 0.000000 0.000000 0.000000 -0.044875 0.000000 0.000000
# 5 0.000000 0.000000 0.000000 0.000000 0.042591 0.000000
# 6 0.000000 0.000000 0.000000 0.000000 0.000000 0.041510
#
#
# Mechanical properties :
#
#
# Convention : Reuss Voigt Hill
#
# Bulk Modulus (GPa) = 26.59265 31.58541 29.08903
# Shear Modulus (GPa) = 27.87905 11.91774 19.89839
#
# Velocity S-wave (km/s) = 3.79419 2.48071 3.20545
# Velocity P-wave (km/s) = 5.73812 4.95126 5.35915
#
# Compressibility (1/GPa) = 0.03760438
#
# Stress axis : x y z
#
# Youngs Moduli (GPa) = 39.11018 31.41577 39.69085
#
# Poissons Ratio (x) = -0.08869 0.34232
# Poissons Ratio (y) = -0.11041 0.66258
# Poissons Ratio (z) = 0.33731 0.52444
#
# Static dielectric constant tensor:
#      x y z
#    x 1.704230 0.000000 0.000000 
#    y 0.000000 1.736260 0.000000 
#    z 0.000000 0.000000 1.688320 
# 
# From -- ./inp_files/27558.got.cif
#   From: 2010.05.17/outbox.cif.g08.bks.cpg/sg58_14_cif.got.tgz:27558.got - 2010.06.03 14:20:14.
