data_PCOD9445305
_publ_section_title
;
Structure prediction by ZEFSAII (Michael W. Deem and Ramdas Pophale) SiO2 
 PCOD9445305
Probable space group: P N N M
;
_chemical_formula_sum "Si O2"
_cell_formula_units_Z 64
_cell_length_a 11.297350
_cell_length_b 15.961937
_cell_length_c 19.235660
_cell_angle_alpha 90.000000
_cell_angle_beta 90.000000
_cell_angle_gamma 90.000000
_cell_volume 3468.720190
_symmetry_space_group_name_H-M "P N N M"
_symmetry_group_IT_number 58
_symmetry_cell_setting 'orthorhombic'
loop_
_space_group_symop_operation_xyz
x,y,z
-x,-y,z
1/2+x,1/2-y,1/2-z
1/2-x,1/2+y,1/2-z
-x,-y,-z
x,y,-z
1/2-x,1/2+y,1/2+z
1/2+x,1/2-y,1/2+z
loop_
_atom_site_type_symbol
_atom_site_label
_atom_site_fract_x
_atom_site_fract_y
_atom_site_fract_z
Si Si1 0.037474 0.880390 0.390193
Si Si2 0.859348 0.480400 0.213799
Si Si3 0.200359 0.038107 0.421672
Si Si4 0.836741 0.286113 0.426246
Si Si5 0.947957 0.586978 0.420336
Si Si6 0.767611 0.816872 0.222410
Si Si7 0.766680 0.639771 0.303661
Si Si8 0.520527 0.598681 0.271401
O O1 0.089803 0.798816 0.423558
O O2 0.897434 0.890972 0.403579
O O3 0.056809 0.879969 0.307615
O O4 0.115601 0.956839 0.418400
O O5 0.799108 0.471487 0.137533
O O6 0.821143 0.391701 0.250850
O O7 0.802269 0.561487 0.252788
O O8 0.000000 0.500000 0.210901
O O9 0.245897 0.049121 0.500000
O O10 0.770376 0.292186 0.500000
O O11 0.764795 0.291580 0.355732
O O12 0.936447 0.356460 0.423972
O O13 0.904295 0.573722 0.500000
O O14 0.851243 0.627611 0.369960
O O15 0.000000 0.500000 0.391336
O O16 0.774076 0.732241 0.269063
O O17 0.897029 0.856441 0.218470
O O18 0.628186 0.626154 0.319776
O O19 0.500000 0.500000 0.275609
#
# Coordination Sequence:
#
# PCOD9445305 Si02
#       8
#     8   8   8   8   8   8   8   8
#     4  11  17  38  59  91 120 153 199 249 300 357
#     4  12  25  41  60  89 126 165 210 257 310 376
#     4  11  21  36  61  89 123 160 197 244 304 368
#     4  11  22  37  60  89 121 155 203 259 306 362
#     4  10  23  42  64  90 123 164 212 264 314 362
#     4  12  24  40  64  93 123 164 211 254 315 372
#     4  12  23  41  65  92 126 160 209 259 310 372
#     4  12  21  39  64  91 124 158 202 259 305 368
#
# _framework density 18.450607999999999
#
# number of rings (size 3 to 8) (size 9 to 14) (size 15 to 20)
#    0.000    0.625    6.250    4.125    1.750    0.250 
#    0.000    0.625    0.000    0.750    0.000    0.000 
#    0.000    0.000    0.000    0.000    0.000    0.000 
#
# Total GULP energy -357122.164189 kJ/mol
# GULP energy per Si atom -5580.033815 kJ/mol
# Density = 1.840861 g / cm^3
# Si number density = 18.450608 Si / 1000 Ang^3
#
#
#
# Elastic Constant Matrix: (Units=GPa)
#
#
# Indices 1 2 3 4 5 6 
#
# 1 99.0950 33.8907 40.5900 0.0000 0.0000 0.0000
# 2 33.8907 110.3065 45.0324 0.0000 0.0000 0.0000
# 3 40.5900 45.0324 76.4216 0.0000 0.0000 0.0000
# 4 0.0000 0.0000 0.0000 156.6109 0.0000 0.0000
# 5 0.0000 0.0000 0.0000 0.0000 11.8984 0.0000
# 6 0.0000 0.0000 0.0000 0.0000 0.0000 22.2304
#
#
#
# Elastic Compliance Matrix: (Units=1/GPa)
#
#
# Indices 1 2 3 4 5 6 
#
# 1 0.013098 -0.001559 -0.006038 0.000000 0.000000 0.000000
# 2 -0.001559 0.012123 -0.006315 0.000000 0.000000 0.000000
# 3 -0.006038 -0.006315 0.020014 0.000000 0.000000 0.000000
# 4 0.000000 0.000000 0.000000 0.006385 0.000000 0.000000
# 5 0.000000 0.000000 0.000000 0.000000 0.084045 0.000000
# 6 0.000000 0.000000 0.000000 0.000000 0.000000 0.044983
#
#
# Mechanical properties :
#
#
# Convention : Reuss Voigt Hill
#
# Bulk Modulus (GPa) = 57.44049 58.31657 57.87853
# Shear Modulus (GPa) = 23.33440 49.23529 36.28484
#
# Velocity S-wave (km/s) = 3.56011 5.17135 4.43944
# Velocity P-wave (km/s) = 6.93533 8.20564 7.59709
#
# Compressibility (1/GPa) = 0.01740932
#
# Stress axis : x y z
#
# Youngs Moduli (GPa) = 76.34921 82.48800 49.96591
#
# Poissons Ratio (x) = 0.12862 0.30169
# Poissons Ratio (y) = 0.11905 0.31556
# Poissons Ratio (z) = 0.46098 0.52095
#
# Static dielectric constant tensor:
#      x y z
#    x 1.619460 0.000000 0.000000 
#    y 0.000000 1.626470 0.000000 
#    z 0.000000 0.000000 1.669030 
# 
# From -- ./inp_files/26360.got.cif
#   From: 2010.05.17/outbox.cif.g08.bks.cpg/sg58_14_cif.got.tgz:26360.got - 2010.06.03 14:20:14.
