data_PCOD9445684
_publ_section_title
;
Structure prediction by ZEFSAII (Michael W. Deem and Ramdas Pophale) SiO2 
 PCOD9445684
Probable space group: P N N M
;
_chemical_formula_sum "Si O2"
_cell_formula_units_Z 40
_cell_length_a 7.732960
_cell_length_b 9.765031
_cell_length_c 26.046442
_cell_angle_alpha 90.000000
_cell_angle_beta 90.000000
_cell_angle_gamma 90.000000
_cell_volume 1966.834403
_symmetry_space_group_name_H-M "P N N M"
_symmetry_group_IT_number 58
_symmetry_cell_setting 'orthorhombic'
loop_
_space_group_symop_operation_xyz
x,y,z
-x,-y,z
1/2+x,1/2-y,1/2-z
1/2-x,1/2+y,1/2-z
-x,-y,-z
x,y,-z
1/2-x,1/2+y,1/2+z
1/2+x,1/2-y,1/2+z
loop_
_atom_site_type_symbol
_atom_site_label
_atom_site_fract_x
_atom_site_fract_y
_atom_site_fract_z
Si Si1 0.468851 0.341006 0.794867
Si Si2 0.851872 0.254321 0.813374
Si Si3 0.835238 0.412718 0.440347
Si Si4 0.151023 0.887852 0.405082
Si Si5 0.000000 0.000000 0.124041
Si Si6 0.500000 0.000000 0.381363
O O1 0.500000 0.500000 0.779439
O O2 0.646643 0.275743 0.814694
O O3 0.401342 0.256764 0.746523
O O4 0.346189 0.348487 0.844319
O O5 0.933986 0.379746 0.844228
O O6 0.919826 0.118878 0.840992
O O7 0.809595 0.448612 0.500000
O O8 0.878288 0.252192 0.434945
O O9 0.659113 0.443468 0.409842
O O10 0.000000 0.500000 0.420833
O O11 0.338261 0.951415 0.415231
O O12 0.000000 0.000000 0.411986
#
# Coordination Sequence:
#
# PCOD9445684 Si02
#       6
#     8   8   8   8   4   4
#     4  11  23  40  60 100 135 179 224 274 326 403
#     4  12  24  39  67  95 138 181 226 272 336 399
#     4  11  26  47  73 102 132 176 228 288 346 400
#     4  11  23  44  67  96 137 172 225 279 335 401
#     4  12  25  46  70 102 134 180 229 282 342 406
#     4  12  22  42  65  94 132 182 215 274 328 394
#
# _framework density 20.337249
#
# number of rings (size 3 to 8) (size 9 to 14) (size 15 to 20)
#    0.000    0.600    7.000    2.700    0.000    0.400 
#    1.800    0.500    0.000    0.000    0.000    0.000 
#    0.000    0.000    0.000    0.000    0.000    0.000 
#
# Total GULP energy -223696.324607 kJ/mol
# GULP energy per Si atom -5592.408115 kJ/mol
# Density = 2.029096 g / cm^3
# Si number density = 20.337249 Si / 1000 Ang^3
#
#
#
# Elastic Constant Matrix: (Units=GPa)
#
#
# Indices 1 2 3 4 5 6 
#
# 1 149.8188 44.8988 23.2509 0.0000 0.0000 0.0000
# 2 44.8988 109.5663 11.3028 0.0000 0.0000 0.0000
# 3 23.2509 11.3028 31.2037 0.0000 0.0000 0.0000
# 4 0.0000 0.0000 0.0000 18.3656 0.0000 0.0000
# 5 0.0000 0.0000 0.0000 0.0000 -10.2352 0.0000
# 6 0.0000 0.0000 0.0000 0.0000 0.0000 36.8104
#
#
#
# Elastic Compliance Matrix: (Units=1/GPa)
#
#
# Indices 1 2 3 4 5 6 
#
# 1 0.008342 -0.002885 -0.005171 0.000000 0.000000 0.000000
# 2 -0.002885 0.010479 -0.001646 0.000000 0.000000 0.000000
# 3 -0.005171 -0.001646 0.036497 0.000000 0.000000 0.000000
# 4 0.000000 0.000000 0.000000 0.054450 0.000000 0.000000
# 5 0.000000 0.000000 0.000000 0.000000 -0.097702 0.000000
# 6 0.000000 0.000000 0.000000 0.000000 0.000000 0.027166
#
#
# Mechanical properties :
#
#
# Convention : Reuss Voigt Hill
#
# Bulk Modulus (GPa) = 27.84446 49.94375 38.89410
# Shear Modulus (GPa) = 70.81568 23.06390 46.93979
#
# Velocity S-wave (km/s) = 5.90731 3.37125 4.80945
# Velocity P-wave (km/s) = 7.76205 6.30594 7.07157
#
# Compressibility (1/GPa) = 0.03591379
#
# Stress axis : x y z
#
# Youngs Moduli (GPa) = 119.87868 95.42973 27.39981
#
# Poissons Ratio (x) = 0.27531 0.14168
# Poissons Ratio (y) = 0.34584 0.04510
# Poissons Ratio (z) = 0.61986 0.15709
#
# Static dielectric constant tensor:
#      x y z
#    x 1.663170 0.000000 0.000000 
#    y 0.000000 1.702620 0.000000 
#    z 0.000000 0.000000 1.694830 
# 
# From -- ./inp_files/34453.got.cif
#   From: 2010.05.17/outbox.cif.g08.bks.cpg/sg58_18_cif.got.tgz:34453.got - 2010.06.03 14:20:14.
