data_PCOD9445971
_publ_section_title
;
Structure prediction by ZEFSAII (Michael W. Deem and Ramdas Pophale) SiO2 
 PCOD9445971
Probable space group: P N N M
;
_chemical_formula_sum "Si O2"
_cell_formula_units_Z 48
_cell_length_a 9.000000
_cell_length_b 30.000000
_cell_length_c 9.000000
_cell_angle_alpha 90.000000
_cell_angle_beta 90.000000
_cell_angle_gamma 90.000000
_cell_volume 2430.000000
_symmetry_space_group_name_H-M "P N N M"
_symmetry_group_IT_number 58
_symmetry_cell_setting 'orthorhombic'
loop_
_space_group_symop_operation_xyz
x,y,z
-x,-y,z
1/2+x,1/2-y,1/2-z
1/2-x,1/2+y,1/2-z
-x,-y,-z
x,y,-z
1/2-x,1/2+y,1/2+z
1/2+x,1/2-y,1/2+z
loop_
_atom_site_type_symbol
_atom_site_label
_atom_site_fract_x
_atom_site_fract_y
_atom_site_fract_z
Si Si1 0.170824 0.489307 0.163637
Si Si2 0.497723 0.362594 0.668986
Si Si3 0.888036 0.221478 0.322596
Si Si4 0.839359 0.602299 0.667516
Si Si5 0.398733 0.542143 0.677455
Si Si6 0.923374 0.695011 0.679318
O O1 0.179426 0.439899 0.228835
O O2 0.239254 0.525141 0.275061
O O3 0.000000 0.500000 0.150087
O O4 0.241865 0.492269 0.000000
O O5 0.552821 0.354749 0.500000
O O6 0.498274 0.317086 0.761145
O O7 0.324003 0.375887 0.658595
O O8 0.569520 0.407940 0.733284
O O9 0.880027 0.217798 0.500000
O O10 0.727236 0.212833 0.252987
O O11 0.948022 0.270368 0.282244
O O12 0.882039 0.588227 0.500000
O O13 0.943005 0.642976 0.720857
O O14 0.500000 0.500000 0.728960
O O15 0.419682 0.544818 0.500000
O O16 0.905652 0.695117 0.500000
#
# Coordination Sequence:
#
# PCOD9445971 Si02
#       6
#     8   8   8   8   8   8
#     4  11  24  38  51  77 116 146 175 222 274 321
#     4   9  18  34  57  83 109 136 176 227 270 315
#     4  10  20  35  57  83 111 142 179 221 270 323
#     4   9  17  35  59  77 102 142 185 221 259 317
#     4  10  19  36  60  82 104 138 183 223 260 315
#     4   9  20  38  57  80 110 142 178 223 267 317
#
# _framework density 19.753086
#
# number of rings (size 3 to 8) (size 9 to 14) (size 15 to 20)
#    0.000    2.333    1.667    2.000    0.000    6.333 
#    3.000    0.000    0.000    0.000    0.000    0.000 
#    0.000    0.000    0.000    0.000    0.000    0.000 
#
# Total GULP energy -267374.560249 kJ/mol
# GULP energy per Si atom -5570.303339 kJ/mol
# Density = 1.970813 g / cm^3
# Si number density = 19.753086 Si / 1000 Ang^3
#
#
#
# Elastic Constant Matrix: (Units=GPa)
#
#
# Indices 1 2 3 4 5 6 
#
# 1 8.8267 -28.0244 -6.4615 0.0000 0.0000 0.0000
# 2 -28.0244 11.6970 0.1541 0.0000 0.0000 0.0000
# 3 -6.4615 0.1541 -4.1882 0.0000 0.0000 0.0000
# 4 0.0000 0.0000 0.0000 12.1124 0.0000 0.0000
# 5 0.0000 0.0000 0.0000 0.0000 -10.4905 0.0000
# 6 0.0000 0.0000 0.0000 0.0000 0.0000 25.0853
#
#
#
# Elastic Compliance Matrix: (Units=1/GPa)
#
#
# Indices 1 2 3 4 5 6 
#
# 1 -0.020219 -0.048830 0.029397 0.000000 0.000000 0.000000
# 2 -0.048830 -0.032473 0.074138 0.000000 0.000000 0.000000
# 3 0.029397 0.074138 -0.281389 0.000000 0.000000 0.000000
# 4 0.000000 0.000000 0.000000 0.082560 0.000000 0.000000
# 5 0.000000 0.000000 0.000000 0.000000 -0.095324 0.000000
# 6 0.000000 0.000000 0.000000 0.000000 0.000000 0.039864
#
#
# Mechanical properties :
#
#
# Convention : Reuss Voigt Hill
#
# Bulk Modulus (GPa) = -4.45097 -5.81423 -5.13260
# Shear Modulus (GPa) = -10.17744 8.71926 -0.72909
#
# Velocity S-wave (km/s) = -2.27234 2.10326 -0.60820
# Velocity P-wave (km/s) = 3.02372 1.71710 1.75989
#
# Compressibility (1/GPa) = -0.22467023
#
# Stress axis : x y z
#
# Youngs Moduli (GPa) = -49.45791 -30.79440 -3.55380
#
# Poissons Ratio (x) = -1.50368 0.10447
# Poissons Ratio (y) = -2.41501 0.26347
# Poissons Ratio (z) = 1.45391 2.28304
#
# Static dielectric constant tensor:
#      x y z
#    x 1.717770 0.000000 0.000000 
#    y 0.000000 1.710350 0.000000 
#    z 0.000000 0.000000 1.697980 
# 
# From -- ./inp_files/2862.got.cif
#   From: 2010.05.17/outbox.ucp.g08.bks.cvg/sg58_2_cif.got.tgz:2862.got - 2010.06.11 16:41:41.
