data_PCOD9445308
_publ_section_title
;
Structure prediction by ZEFSAII (Michael W. Deem and Ramdas Pophale) SiO2 
 PCOD9445308
Probable space group: P N N M
;
_chemical_formula_sum "Si O2"
_cell_formula_units_Z 48
_cell_length_a 18.910815
_cell_length_b 15.165318
_cell_length_c 8.889567
_cell_angle_alpha 90.000000
_cell_angle_beta 90.000000
_cell_angle_gamma 90.000000
_cell_volume 2549.425791
_symmetry_space_group_name_H-M "P N N M"
_symmetry_group_IT_number 58
_symmetry_cell_setting 'orthorhombic'
loop_
_space_group_symop_operation_xyz
x,y,z
-x,-y,z
1/2+x,1/2-y,1/2-z
1/2-x,1/2+y,1/2-z
-x,-y,-z
x,y,-z
1/2-x,1/2+y,1/2+z
1/2+x,1/2-y,1/2+z
loop_
_atom_site_type_symbol
_atom_site_label
_atom_site_fract_x
_atom_site_fract_y
_atom_site_fract_z
Si Si1 0.212066 0.501041 0.680135
Si Si2 0.738359 0.695318 0.320086
Si Si3 0.411573 0.250885 0.179793
Si Si4 0.565754 0.937794 0.319867
Si Si5 0.974343 0.902233 0.680477
Si Si6 0.673880 0.347183 0.679512
O O1 0.199427 0.503425 0.500000
O O2 0.244129 0.405796 0.718291
O O3 0.138998 0.519857 0.763691
O O4 0.268616 0.577118 0.715945
O O5 0.733318 0.703031 0.500000
O O6 0.664946 0.726451 0.247328
O O7 0.799812 0.758399 0.258732
O O8 0.438732 0.158949 0.247223
O O9 0.465535 0.330114 0.214270
O O10 0.405205 0.242378 0.000000
O O11 0.566693 0.929320 0.500000
O O12 0.500000 0.000000 0.276966
O O13 0.962628 0.901758 0.500000
O O14 0.902216 0.876888 0.762261
O O15 0.000000 0.000000 0.723419
O O16 0.672984 0.335436 0.500000
#
# Coordination Sequence:
#
# PCOD9445308 Si02
#       6
#     8   8   8   8   8   8
#     4  10  23  42  64  91 124 163 205 253 313 372
#     4  11  23  40  64  93 124 162 206 255 311 369
#     4  11  23  41  65  93 126 167 209 255 314 370
#     4  11  25  42  62  91 124 164 212 260 313 372
#     4  10  23  42  64  92 126 165 207 254 310 372
#     4  11  23  40  63  93 126 162 206 256 308 369
#
# _framework density 18.827769
#
# number of rings (size 3 to 8) (size 9 to 14) (size 15 to 20)
#    0.000    1.333    1.667    3.000    2.333    5.000 
#    0.000    0.000    0.000    0.000    0.000    0.000 
#    0.000    0.000    0.000    0.000    0.000    0.000 
#
# Total GULP energy -268472.128984 kJ/mol
# GULP energy per Si atom -5593.169354 kJ/mol
# Density = 1.878492 g / cm^3
# Si number density = 18.827769 Si / 1000 Ang^3
#
#
#
# Elastic Constant Matrix: (Units=GPa)
#
#
# Indices 1 2 3 4 5 6 
#
# 1 92.2368 26.9950 36.3309 0.0000 0.0000 0.0000
# 2 26.9950 121.9161 39.9778 0.0000 0.0000 0.0000
# 3 36.3309 39.9778 38.4639 0.0000 0.0000 0.0000
# 4 0.0000 0.0000 0.0000 40.6399 0.0000 0.0000
# 5 0.0000 0.0000 0.0000 0.0000 -26.2886 0.0000
# 6 0.0000 0.0000 0.0000 0.0000 0.0000 33.5925
#
#
#
# Elastic Compliance Matrix: (Units=1/GPa)
#
#
# Indices 1 2 3 4 5 6 
#
# 1 0.017706 0.002372 -0.019189 0.000000 0.000000 0.000000
# 2 0.002372 0.012761 -0.015504 0.000000 0.000000 0.000000
# 3 -0.019189 -0.015504 0.060237 0.000000 0.000000 0.000000
# 4 0.000000 0.000000 0.000000 0.024606 0.000000 0.000000
# 5 0.000000 0.000000 0.000000 0.000000 -0.038039 0.000000
# 6 0.000000 0.000000 0.000000 0.000000 0.000000 0.029769
#
#
# Mechanical properties :
#
#
# Convention : Reuss Voigt Hill
#
# Bulk Modulus (GPa) = 38.36964 51.02493 44.69729
# Shear Modulus (GPa) = 27.72089 19.54298 23.63194
#
# Velocity S-wave (km/s) = 3.84127 3.22528 3.54667
# Velocity P-wave (km/s) = 6.33225 6.40543 6.36895
#
# Compressibility (1/GPa) = 0.02606227
#
# Stress axis : x y z
#
# Youngs Moduli (GPa) = 56.47842 78.36376 16.60097
#
# Poissons Ratio (x) = -0.18587 0.31856
# Poissons Ratio (y) = -0.13396 0.25738
# Poissons Ratio (z) = 1.08378 1.21492
#
# Static dielectric constant tensor:
#      x y z
#    x 1.608840 0.000000 0.000000 
#    y 0.000000 1.630430 0.000000 
#    z 0.000000 0.000000 1.629300 
# 
# From -- ./inp_files/7732.got.cif
#   From: 2010.05.17/outbox.cif.g08.bks.cpg/sg58_4_cif.got.tgz:7732.got - 2010.06.03 14:20:14.
