data_PCOD9445981
_publ_section_title
;
Structure prediction by ZEFSAII (Michael W. Deem and Ramdas Pophale) SiO2 
 PCOD9445981
Probable space group: P N N M
;
_chemical_formula_sum "Si O2"
_cell_formula_units_Z 64
_cell_length_a 21.000000
_cell_length_b 18.000000
_cell_length_c 9.000000
_cell_angle_alpha 90.000000
_cell_angle_beta 90.000000
_cell_angle_gamma 90.000000
_cell_volume 3402.000000
_symmetry_space_group_name_H-M "P N N M"
_symmetry_group_IT_number 58
_symmetry_cell_setting 'orthorhombic'
loop_
_space_group_symop_operation_xyz
x,y,z
-x,-y,z
1/2+x,1/2-y,1/2-z
1/2-x,1/2+y,1/2-z
-x,-y,-z
x,y,-z
1/2-x,1/2+y,1/2+z
1/2+x,1/2-y,1/2+z
loop_
_atom_site_type_symbol
_atom_site_label
_atom_site_fract_x
_atom_site_fract_y
_atom_site_fract_z
Si Si1 0.245883 0.928251 0.834805
Si Si2 0.062344 0.252619 0.321437
Si Si3 0.253276 0.065213 0.664150
Si Si4 0.199643 0.723988 0.829975
Si Si5 0.601677 0.413316 0.828922
Si Si6 0.314183 0.803049 0.673129
Si Si7 0.426174 0.285411 0.176774
Si Si8 0.407910 0.435802 0.329343
O O1 0.279421 0.879612 0.710877
O O2 0.169296 0.925585 0.821714
O O3 0.265658 0.011634 0.800231
O O4 0.264418 0.904478 0.000000
O O5 0.069234 0.259517 0.500000
O O6 0.078907 0.167391 0.281000
O O7 0.115566 0.300949 0.241553
O O8 0.988415 0.262526 0.281563
O O9 0.260020 0.029654 0.500000
O O10 0.298374 0.135657 0.669465
O O11 0.178761 0.087281 0.673630
O O12 0.266141 0.747216 0.755981
O O13 0.138838 0.755757 0.746587
O O14 0.198293 0.750843 0.000000
O O15 0.578724 0.482305 0.731748
O O16 0.581961 0.425139 0.000000
O O17 0.316283 0.786804 0.500000
O O18 0.435949 0.369617 0.232200
O O19 0.420917 0.285822 0.000000
O O20 0.427237 0.428302 0.500000
#
# Coordination Sequence:
#
# PCOD9445981 Si02
#       8
#     8   8   8   8   8   8   8   8
#     4  10  20  34  55  82 114 146 179 226 280 328
#     4  10  22  40  57  78 112 151 189 229 281 332
#     4   9  18  33  56  82 109 142 181 226 276 331
#     4  11  21  37  59  83 114 148 184 230 282 329
#     4   9  17  33  54  75 106 147 188 226 269 328
#     4  12  23  35  58  86 112 144 188 233 275 329
#     4  11  23  37  56  81 111 150 192 231 273 331
#     4  10  20  33  51  77 112 150 185 227 274 324
#
# _framework density 18.812463000000001
#
# number of rings (size 3 to 8) (size 9 to 14) (size 15 to 20)
#    0.000    1.750    2.500    2.625    0.000    4.000 
#    0.000    2.500    0.000    0.750    0.000    5.250 
#    0.000    0.000    0.000    0.000    0.000    0.000 
#
# Total GULP energy -357036.911349 kJ/mol
# GULP energy per Si atom -5578.701740 kJ/mol
# Density = 1.876965 g / cm^3
# Si number density = 18.812463 Si / 1000 Ang^3
#
#
#
# Elastic Constant Matrix: (Units=GPa)
#
#
# Indices 1 2 3 4 5 6 
#
# 1 -10.0300 -5.8336 13.0601 0.0000 0.0000 0.0000
# 2 -5.8336 31.8479 11.9221 0.0000 0.0000 0.0000
# 3 13.0601 11.9221 59.4062 0.0000 0.0000 0.0000
# 4 0.0000 0.0000 0.0000 16.5034 0.0000 0.0000
# 5 0.0000 0.0000 0.0000 0.0000 21.8341 0.0000
# 6 0.0000 0.0000 0.0000 0.0000 0.0000 14.1623
#
#
#
# Elastic Compliance Matrix: (Units=1/GPa)
#
#
# Indices 1 2 3 4 5 6 
#
# 1 -0.065241 -0.018726 0.018101 0.000000 0.000000 0.000000
# 2 -0.018726 0.028575 -0.001618 0.000000 0.000000 0.000000
# 3 0.018101 -0.001618 0.013179 0.000000 0.000000 0.000000
# 4 0.000000 0.000000 0.000000 0.060593 0.000000 0.000000
# 5 0.000000 0.000000 0.000000 0.000000 0.045800 0.000000
# 6 0.000000 0.000000 0.000000 0.000000 0.000000 0.070610
#
#
# Mechanical properties :
#
#
# Convention : Reuss Voigt Hill
#
# Bulk Modulus (GPa) = -35.74825 13.28013 -11.23406
# Shear Modulus (GPa) = 33.62971 14.63834 24.13402
#
# Velocity S-wave (km/s) = 4.23262 2.79251 3.58561
# Velocity P-wave (km/s) = 2.20071 4.17995 3.34029
#
# Compressibility (1/GPa) = -0.02797339
#
# Stress axis : x y z
#
# Youngs Moduli (GPa) = -15.32790 34.99597 75.88067
#
# Poissons Ratio (x) = 0.65534 -1.37350
# Poissons Ratio (y) = -0.28703 0.12276
# Poissons Ratio (z) = 0.27745 0.05662
#
# Static dielectric constant tensor:
#      x y z
#    x 1.654750 0.000000 0.000000 
#    y 0.000000 1.727390 0.000000 
#    z 0.000000 0.000000 1.645530 
# 
# From -- ./inp_files/8377.got.cif
#   From: 2010.05.17/outbox.ucp.g08.bks.cvg/sg58_5_cif.got.tgz:8377.got - 2010.06.11 16:41:41.
