data_PCOD9445869
_publ_section_title
;
Structure prediction by ZEFSAII (Michael W. Deem and Ramdas Pophale) SiO2 
 PCOD9445869
Probable space group: P N N M
;
_chemical_formula_sum "Si O2"
_cell_formula_units_Z 40
_cell_length_a 9.384297
_cell_length_b 15.929096
_cell_length_c 11.341290
_cell_angle_alpha 90.000000
_cell_angle_beta 90.000000
_cell_angle_gamma 90.000000
_cell_volume 1695.334224
_symmetry_space_group_name_H-M "P N N M"
_symmetry_group_IT_number 58
_symmetry_cell_setting 'orthorhombic'
loop_
_space_group_symop_operation_xyz
x,y,z
-x,-y,z
1/2+x,1/2-y,1/2-z
1/2-x,1/2+y,1/2-z
-x,-y,-z
x,y,-z
1/2-x,1/2+y,1/2+z
1/2+x,1/2-y,1/2+z
loop_
_atom_site_type_symbol
_atom_site_label
_atom_site_fract_x
_atom_site_fract_y
_atom_site_fract_z
Si Si1 0.102417 0.917749 0.874184
Si Si2 0.892108 0.078848 0.375598
Si Si3 0.166807 0.183371 0.365768
Si Si4 0.403875 0.749157 0.368351
Si Si5 0.921490 0.420725 0.138634
O O1 0.184392 0.920613 0.749926
O O2 0.003495 0.834284 0.871983
O O3 0.181319 0.918057 0.000000
O O4 0.000000 0.000000 0.874098
O O5 0.810158 0.078254 0.500000
O O6 0.001854 0.157090 0.375117
O O7 0.000000 0.000000 0.379161
O O8 0.210234 0.210071 0.500000
O O9 0.186763 0.241471 0.251781
O O10 0.259610 0.101820 0.329667
O O11 0.335573 0.752019 0.500000
O O12 0.495009 0.833202 0.351393
O O13 0.000000 0.500000 0.194874
O O14 0.911092 0.437396 0.000000
#
# Coordination Sequence:
#
# PCOD9445869 Si02
#       5
#     8   8   8   8   8
#     4   8  13  22  38  61  89 119 151 192 244 297
#     4   8  13  22  38  62  91 120 153 198 248 293
#     4   9  17  31  51  73 100 134 172 215 263 315
#     4   9  17  31  51  74 101 134 174 218 261 309
#     4   9  18  34  55  77 105 144 186 223 262 319
#
# _framework density 23.594166999999999
#
# number of rings (size 3 to 8) (size 9 to 14) (size 15 to 20)
#    0.000    3.400    0.000    0.000    0.000    0.000 
#    0.000    9.000    0.000   12.000    0.000    0.000 
#    0.000    0.000    0.000    0.000    0.000    0.000 
#
# Total GULP energy -222761.610457 kJ/mol
# GULP energy per Si atom -5569.040261 kJ/mol
# Density = 2.354047 g / cm^3
# Si number density = 23.594167 Si / 1000 Ang^3
#
#
#
# Elastic Constant Matrix: (Units=GPa)
#
#
# Indices 1 2 3 4 5 6 
#
# 1 51.9115 40.6758 23.0698 0.0000 0.0000 0.0000
# 2 40.6758 117.0661 18.8424 0.0000 0.0000 0.0000
# 3 23.0698 18.8424 260.2646 0.0000 0.0000 0.0000
# 4 0.0000 0.0000 0.0000 12.9942 0.0000 0.0000
# 5 0.0000 0.0000 0.0000 0.0000 2.4339 0.0000
# 6 0.0000 0.0000 0.0000 0.0000 0.0000 34.0772
#
#
#
# Elastic Compliance Matrix: (Units=1/GPa)
#
#
# Indices 1 2 3 4 5 6 
#
# 1 0.027235 -0.009182 -0.001749 0.000000 0.000000 0.000000
# 2 -0.009182 0.011738 -0.000036 0.000000 0.000000 0.000000
# 3 -0.001749 -0.000036 0.004000 0.000000 0.000000 0.000000
# 4 0.000000 0.000000 0.000000 0.076958 0.000000 0.000000
# 5 0.000000 0.000000 0.000000 0.000000 0.410860 0.000000
# 6 0.000000 0.000000 0.000000 0.000000 0.000000 0.029345
#
#
# Mechanical properties :
#
#
# Convention : Reuss Voigt Hill
#
# Bulk Modulus (GPa) = 47.52963 66.04645 56.78804
# Shear Modulus (GPa) = 8.48776 33.01134 20.74955
#
# Velocity S-wave (km/s) = 1.89874 3.74455 2.96875
# Velocity P-wave (km/s) = 4.99953 6.83733 5.98934
#
# Compressibility (1/GPa) = 0.02103951
#
# Stress axis : x y z
#
# Youngs Moduli (GPa) = 36.71700 85.19180 250.00537
#
# Poissons Ratio (x) = 0.78220 0.43736
# Poissons Ratio (y) = 0.33712 0.00899
# Poissons Ratio (z) = 0.06423 0.00306
#
# Static dielectric constant tensor:
#      x y z
#    x 1.889780 0.000000 0.000000 
#    y 0.000000 1.973300 0.000000 
#    z 0.000000 0.000000 1.985370 
# 
# From -- ./inp_files/14096.got.cif
#   From: 2010.05.17/outbox.cif.g08.bks.cpg/sg58_8_cif.got.tgz:14096.got - 2010.06.03 14:20:14.
