data_PCOD9445324
_publ_section_title
;
Structure prediction by ZEFSAII (Michael W. Deem and Ramdas Pophale) SiO2 
 PCOD9445324
Probable space group: P N N M
;
_chemical_formula_sum "Si O2"
_cell_formula_units_Z 40
_cell_length_a 14.225053
_cell_length_b 7.510004
_cell_length_c 14.453755
_cell_angle_alpha 90.000000
_cell_angle_beta 90.000000
_cell_angle_gamma 90.000000
_cell_volume 1544.097609
_symmetry_space_group_name_H-M "P N N M"
_symmetry_group_IT_number 58
_symmetry_cell_setting 'orthorhombic'
loop_
_space_group_symop_operation_xyz
x,y,z
-x,-y,z
1/2+x,1/2-y,1/2-z
1/2-x,1/2+y,1/2-z
-x,-y,-z
x,y,-z
1/2-x,1/2+y,1/2+z
1/2+x,1/2-y,1/2+z
loop_
_atom_site_type_symbol
_atom_site_label
_atom_site_fract_x
_atom_site_fract_y
_atom_site_fract_z
Si Si1 0.130515 0.047789 0.000000
Si Si2 0.000000 0.500000 0.836253
Si Si3 0.843005 0.487267 0.500000
Si Si4 0.646671 0.070554 0.800569
Si Si5 0.500000 0.500000 0.341331
Si Si6 0.665800 0.596340 0.000000
Si Si7 0.864250 0.381269 0.000000
Si Si8 0.845460 0.147221 0.705784
O O1 0.146346 0.833193 0.000000
O O2 0.067597 0.105424 0.086295
O O3 0.237787 0.106070 0.000000
O O4 0.060080 0.378183 0.764647
O O5 0.076905 0.578278 0.906878
O O6 0.857128 0.608385 0.590238
O O7 0.891441 0.293681 0.500000
O O8 0.645965 0.857174 0.805362
O O9 0.743309 0.121792 0.751877
O O10 0.576995 0.586462 0.277072
O O11 0.773321 0.508929 0.000000
O O12 0.642988 0.549619 0.107429
#
# Coordination Sequence:
#
# PCOD9445324 Si02
#       8
#     4   4   4   8   4   4   4   8
#     4  11  23  41  67 100 130 167 223 271 319 385
#     4  11  24  39  64  98 134 171 216 265 324 384
#     4  10  23  42  67  97 132 169 213 271 331 386
#     4  11  24  43  66  97 132 171 217 269 327 387
#     4  11  24  39  64  98 134 171 216 265 324 384
#     4  10  23  42  67  97 132 169 213 271 331 386
#     4  11  23  41  67 100 130 167 223 271 319 385
#     4  11  24  43  66  97 132 171 217 269 327 387
#
# _framework density 25.905099
#
# number of rings (size 3 to 8) (size 9 to 14) (size 15 to 20)
#    0.000    1.200    4.000    1.200    0.000    8.800 
#    0.000    0.000    0.000    0.000    0.000    0.000 
#    0.000    0.000    0.000    0.000    0.000    0.000 
#
# Total GULP energy -223385.403745 kJ/mol
# GULP energy per Si atom -5584.635094 kJ/mol
# Density = 2.584614 g / cm^3
# Si number density = 25.905099 Si / 1000 Ang^3
#
#
#
# Elastic Constant Matrix: (Units=GPa)
#
#
# Indices 1 2 3 4 5 6 
#
# 1 89.9382 -0.8872 66.5595 0.0000 0.0000 0.0000
# 2 -0.8872 63.3393 20.2230 0.0000 0.0000 0.0000
# 3 66.5595 20.2230 277.4342 0.0000 0.0000 0.0000
# 4 0.0000 0.0000 0.0000 23.7319 0.0000 0.0000
# 5 0.0000 0.0000 0.0000 0.0000 83.6507 0.0000
# 6 0.0000 0.0000 0.0000 0.0000 0.0000 17.9614
#
#
#
# Elastic Compliance Matrix: (Units=1/GPa)
#
#
# Indices 1 2 3 4 5 6 
#
# 1 0.013617 0.001263 -0.003359 0.000000 0.000000 0.000000
# 2 0.001263 0.016281 -0.001490 0.000000 0.000000 0.000000
# 3 -0.003359 -0.001490 0.004519 0.000000 0.000000 0.000000
# 4 0.000000 0.000000 0.000000 0.042137 0.000000 0.000000
# 5 0.000000 0.000000 0.000000 0.000000 0.011954 0.000000
# 6 0.000000 0.000000 0.000000 0.000000 0.000000 0.055675
#
#
# Mechanical properties :
#
#
# Convention : Reuss Voigt Hill
#
# Bulk Modulus (GPa) = 36.70255 66.94470 51.82362
# Shear Modulus (GPa) = 31.16482 48.05657 39.61070
#
# Velocity S-wave (km/s) = 3.47225 4.31176 3.91457
# Velocity P-wave (km/s) = 5.50220 7.11946 6.36243
#
# Compressibility (1/GPa) = 0.02724606
#
# Stress axis : x y z
#
# Youngs Moduli (GPa) = 73.43745 61.41997 221.29242
#
# Poissons Ratio (x) = -0.07758 0.74331
# Poissons Ratio (y) = -0.09277 0.32969
# Poissons Ratio (z) = 0.24667 0.09151
#
# Static dielectric constant tensor:
#      x y z
#    x 2.111480 0.000000 0.000000 
#    y 0.000000 2.073660 0.000000 
#    z 0.000000 0.000000 2.095520 
# 
# From -- ./inp_files/21949.got.cif
#   From: 2010.05.17/outbox.cif.g08.bks.cpg/sg58_11_cif.got.tgz:21949.got - 2010.06.03 14:20:14.
