data_PCOD9445632
_publ_section_title
;
Structure prediction by ZEFSAII (Michael W. Deem and Ramdas Pophale) SiO2 
 PCOD9445632
Probable space group: P N N M
;
_chemical_formula_sum "Si O2"
_cell_formula_units_Z 32
_cell_length_a 5.020917
_cell_length_b 11.712250
_cell_length_c 23.380618
_cell_angle_alpha 90.000000
_cell_angle_beta 90.000000
_cell_angle_gamma 90.000000
_cell_volume 1374.926120
_symmetry_space_group_name_H-M "P N N M"
_symmetry_group_IT_number 58
_symmetry_cell_setting 'orthorhombic'
loop_
_space_group_symop_operation_xyz
x,y,z
-x,-y,z
1/2+x,1/2-y,1/2-z
1/2-x,1/2+y,1/2-z
-x,-y,-z
x,y,-z
1/2-x,1/2+y,1/2+z
1/2+x,1/2-y,1/2+z
loop_
_atom_site_type_symbol
_atom_site_label
_atom_site_fract_x
_atom_site_fract_y
_atom_site_fract_z
Si Si1 0.000000 0.500000 0.827801
Si Si2 0.936566 0.182809 0.500000
Si Si3 0.571997 0.669947 0.500000
Si Si4 0.000000 0.000000 0.594278
Si Si5 0.648441 0.767432 0.283465
Si Si6 0.235825 0.922381 0.876096
O O1 0.747748 0.471841 0.866662
O O2 0.019717 0.383842 0.792960
O O3 0.735258 0.289755 0.500000
O O4 0.900576 0.103822 0.554948
O O5 0.244086 0.218136 0.500000
O O6 0.657981 0.607033 0.558168
O O7 0.422120 0.699679 0.248102
O O8 0.735074 0.693699 0.339028
O O9 0.500000 0.000000 0.874361
O O10 0.000000 0.000000 0.852168
#
# Coordination Sequence:
#
# PCOD9445632 Si02
#       6
#     4   4   4   4   8   8
#     4  12  26  47  72 100 142 179 252 294 378 438
#     4  11  22  37  68 101 150 183 244 285 366 426
#     4  12  24  44  70 105 148 196 242 301 368 451
#     4  11  22  40  66 104 138 192 230 307 354 436
#     4  12  28  47  75 105 143 193 246 314 377 440
#     4  12  26  46  74 106 150 194 249 304 372 443
#
# _framework density 23.273980000000002
#
# number of rings (size 3 to 8) (size 9 to 14) (size 15 to 20)
#    0.000    0.250    0.000    9.750    5.250    2.000 
#    0.000    0.000    0.000    0.000    0.000    0.000 
#    0.000    0.000    0.000    0.000    0.000    0.000 
#
# Total GULP energy -178993.415866 kJ/mol
# GULP energy per Si atom -5593.544246 kJ/mol
# Density = 2.322101 g / cm^3
# Si number density = 23.273980 Si / 1000 Ang^3
#
#
#
# Elastic Constant Matrix: (Units=GPa)
#
#
# Indices 1 2 3 4 5 6 
#
# 1 133.8848 20.9462 31.6022 0.0000 0.0000 0.0000
# 2 20.9462 108.7333 38.0230 0.0000 0.0000 0.0000
# 3 31.6022 38.0230 93.6266 0.0000 0.0000 0.0000
# 4 0.0000 0.0000 0.0000 42.1724 0.0000 0.0000
# 5 0.0000 0.0000 0.0000 0.0000 -601.8198 0.0000
# 6 0.0000 0.0000 0.0000 0.0000 0.0000 54.4282
#
#
#
# Elastic Compliance Matrix: (Units=1/GPa)
#
#
# Indices 1 2 3 4 5 6 
#
# 1 0.008162 -0.000710 -0.002467 0.000000 0.000000 0.000000
# 2 -0.000710 0.010781 -0.004139 0.000000 0.000000 0.000000
# 3 -0.002467 -0.004139 0.013194 0.000000 0.000000 0.000000
# 4 0.000000 0.000000 0.000000 0.023712 0.000000 0.000000
# 5 0.000000 0.000000 0.000000 0.000000 -0.001662 0.000000
# 6 0.000000 0.000000 0.000000 0.000000 0.000000 0.018373
#
#
# Mechanical properties :
#
#
# Convention : Reuss Voigt Hill
#
# Bulk Modulus (GPa) = 57.12062 57.48750 57.30406
# Shear Modulus (GPa) = 53.74788 -84.66564 -15.45888
#
# Velocity S-wave (km/s) = 4.81079 -6.03795 -2.58003
# Velocity P-wave (km/s) = 7.44676 4.88417 3.97487
#
# Compressibility (1/GPa) = 0.01750681
#
# Stress axis : x y z
#
# Youngs Moduli (GPa) = 122.51257 92.75758 75.79125
#
# Poissons Ratio (x) = 0.06584 0.18697
# Poissons Ratio (y) = 0.08695 0.31367
# Poissons Ratio (z) = 0.30222 0.38389
#
# Static dielectric constant tensor:
#      x y z
#    x 1.894210 0.000000 0.000000 
#    y 0.000000 2.042990 0.000000 
#    z 0.000000 0.000000 1.906920 
# 
# From -- ./inp_files/30787.got.cif
#   From: 2010.05.17/outbox.cif.g08.bks.cpg/sg58_16_cif.got.tgz:30787.got - 2010.06.03 14:20:14.
