data_PCOD9445753
_publ_section_title
;
Structure prediction by ZEFSAII (Michael W. Deem and Ramdas Pophale) SiO2 
 PCOD9445753
Probable space group: P N N M
;
_chemical_formula_sum "Si O2"
_cell_formula_units_Z 34
_cell_length_a 22.441818
_cell_length_b 4.887127
_cell_length_c 13.509088
_cell_angle_alpha 90.000000
_cell_angle_beta 90.000000
_cell_angle_gamma 90.000000
_cell_volume 1481.622934
_symmetry_space_group_name_H-M "P N N M"
_symmetry_group_IT_number 58
_symmetry_cell_setting 'orthorhombic'
loop_
_space_group_symop_operation_xyz
x,y,z
-x,-y,z
1/2+x,1/2-y,1/2-z
1/2-x,1/2+y,1/2-z
-x,-y,-z
x,y,-z
1/2-x,1/2+y,1/2+z
1/2+x,1/2-y,1/2+z
loop_
_atom_site_type_symbol
_atom_site_label
_atom_site_fract_x
_atom_site_fract_y
_atom_site_fract_z
Si Si1 0.789698 0.979190 0.744817
Si Si2 0.886026 0.242080 0.109211
Si Si3 0.108889 0.896715 0.387345
Si Si4 0.000000 0.000000 0.000000
Si Si5 0.433444 0.896634 0.225160
O O1 0.731707 0.169789 0.748338
O O2 0.836303 0.075566 0.829623
O O3 0.823715 0.031509 0.641995
O O4 0.949068 0.088059 0.084670
O O5 0.902372 0.509898 0.173105
O O6 0.862821 0.316910 0.000000
O O7 0.093812 0.951867 0.500000
O O8 0.097350 0.583766 0.359115
O O9 0.071881 0.089035 0.312403
O O10 0.500000 0.000000 0.232098
#
# Coordination Sequence:
#
# PCOD9445753 Si02
#       5
#     8   8   8   2   8
#     4  11  24  44  68  98 138 185 235 285 347 420
#     4   9  22  42  70 106 139 182 228 291 357 421
#     4  11  25  44  65  94 131 178 232 282 337 402
#     4   8  20  44  74 108 144 180 238 286 370 432
#     4  11  24  40  68  98 138 176 221 282 346 417
#
# _framework density 22.947806
#
# number of rings (size 3 to 8) (size 9 to 14) (size 15 to 20)
#    0.706    0.941    0.000    4.235    6.588    5.176 
#    0.000    9.412    0.000    0.000    0.000    0.000 
#    0.000    0.000    0.000    0.000    0.000    0.000 
#
# Total GULP energy -189486.636312 kJ/mol
# GULP energy per Si atom -5573.136362 kJ/mol
# Density = 2.289558 g / cm^3
# Si number density = 22.947806 Si / 1000 Ang^3
#
#
#
# Elastic Constant Matrix: (Units=GPa)
#
#
# Indices 1 2 3 4 5 6 
#
# 1 83.5151 9.0930 17.7733 0.0000 0.0000 0.0000
# 2 9.0930 53.7535 8.1190 0.0000 0.0000 0.0000
# 3 17.7733 8.1190 156.8692 0.0000 0.0000 0.0000
# 4 0.0000 0.0000 0.0000 0.8620 0.0000 0.0000
# 5 0.0000 0.0000 0.0000 0.0000 23.8585 0.0000
# 6 0.0000 0.0000 0.0000 0.0000 0.0000 -13.9647
#
#
#
# Elastic Compliance Matrix: (Units=1/GPa)
#
#
# Indices 1 2 3 4 5 6 
#
# 1 0.012461 -0.001910 -0.001313 0.000000 0.000000 0.000000
# 2 -0.001910 0.019043 -0.000769 0.000000 0.000000 0.000000
# 3 -0.001313 -0.000769 0.006563 0.000000 0.000000 0.000000
# 4 0.000000 0.000000 0.000000 1.160031 0.000000 0.000000
# 5 0.000000 0.000000 0.000000 0.000000 0.041914 0.000000
# 6 0.000000 0.000000 0.000000 0.000000 0.000000 -0.071609
#
#
# Mechanical properties :
#
#
# Convention : Reuss Voigt Hill
#
# Bulk Modulus (GPa) = 33.24087 40.45649 36.84868
# Shear Modulus (GPa) = 4.21438 19.42800 11.82119
#
# Velocity S-wave (km/s) = 1.35665 2.91282 2.27212
# Velocity P-wave (km/s) = 4.11957 5.38338 4.79331
#
# Compressibility (1/GPa) = 0.03008345
#
# Stress axis : x y z
#
# Youngs Moduli (GPa) = 80.24886 52.51368 152.36199
#
# Poissons Ratio (x) = 0.10028 0.20005
# Poissons Ratio (y) = 0.15325 0.11720
# Poissons Ratio (z) = 0.10537 0.04039
#
# Static dielectric constant tensor:
#      x y z
#    x 1.884530 0.000000 0.000000 
#    y 0.000000 1.860890 0.000000 
#    z 0.000000 0.000000 1.821360 
# 
# From -- ./inp_files/23082.got.cif
#   From: 2010.05.17/outbox.cif.g08.bks.cpg/sg58_12_cif.got.tgz:23082.got - 2010.06.03 14:20:14.
