data_PCOD9445245
_publ_section_title
;
Structure prediction by ZEFSAII (Michael W. Deem and Ramdas Pophale) SiO2 
 PCOD9445245
Probable space group: P N N M
;
_chemical_formula_sum "Si O2"
_cell_formula_units_Z 44
_cell_length_a 8.443394
_cell_length_b 17.500917
_cell_length_c 14.262102
_cell_angle_alpha 90.000000
_cell_angle_beta 90.000000
_cell_angle_gamma 90.000000
_cell_volume 2107.469989
_symmetry_space_group_name_H-M "P N N M"
_symmetry_group_IT_number 58
_symmetry_cell_setting 'orthorhombic'
loop_
_space_group_symop_operation_xyz
x,y,z
-x,-y,z
1/2+x,1/2-y,1/2-z
1/2-x,1/2+y,1/2-z
-x,-y,-z
x,y,-z
1/2-x,1/2+y,1/2+z
1/2+x,1/2-y,1/2+z
loop_
_atom_site_type_symbol
_atom_site_label
_atom_site_fract_x
_atom_site_fract_y
_atom_site_fract_z
Si Si1 0.847447 0.147849 0.000000
Si Si2 0.449203 0.704487 0.332607
Si Si3 0.583994 0.920640 0.866113
Si Si4 0.967461 0.709906 0.500000
Si Si5 0.552776 0.910664 0.500000
Si Si6 0.226522 0.289444 0.000000
Si Si7 0.817452 0.982410 0.000000
Si Si8 0.681425 0.845245 0.691269
O O1 0.721491 0.217488 0.000000
O O2 0.948297 0.152152 0.904545
O O3 0.752623 0.068808 0.000000
O O4 0.328141 0.744816 0.405871
O O5 0.577234 0.768102 0.301949
O O6 0.350583 0.672061 0.243368
O O7 0.510586 0.845310 0.912648
O O8 0.754900 0.934703 0.912521
O O9 0.598144 0.906998 0.757800
O O10 0.500000 0.000000 0.887311
O O11 0.082340 0.782962 0.500000
O O12 0.384237 0.864202 0.500000
O O13 0.656462 0.881366 0.588909
O O14 0.500000 0.000000 0.500000
O O15 0.000000 0.000000 0.000000
#
# Coordination Sequence:
#
# PCOD9445245 Si02
#       8
#     4   8   8   4   4   4   4   8
#     4  11  22  40  63  95 136 168 214 272 364 422
#     4  10  23  38  62  98 128 170 222 282 343 401
#     4  11  21  37  58  97 133 174 211 252 339 429
#     4  11  19  36  64  99 135 165 208 270 352 428
#     4  10  23  46  69  98 138 196 238 282 342 419
#     4   9  19  40  65  97 129 167 216 293 343 395
#     4  11  21  33  58  94 135 168 198 266 349 414
#     4  11  23  41  64  94 134 172 233 282 329 403
#
# _framework density 20.878115000000001
#
# number of rings (size 3 to 8) (size 9 to 14) (size 15 to 20)
#    0.000    1.455    3.636    2.727    5.091    0.000 
#    0.000    1.818    0.000    2.182    0.000   29.909 
#    0.000    0.000    0.000    0.000    0.000    0.000 
#
# Total GULP energy -245171.810411 kJ/mol
# GULP energy per Si atom -5572.086600 kJ/mol
# Density = 2.083060 g / cm^3
# Si number density = 20.878115 Si / 1000 Ang^3
#
#
#
# Elastic Constant Matrix: (Units=GPa)
#
#
# Indices 1 2 3 4 5 6 
#
# 1 104.0049 30.8600 45.8844 0.0000 0.0000 0.0000
# 2 30.8600 97.9561 42.9635 0.0000 0.0000 0.0000
# 3 45.8844 42.9635 172.4511 0.0000 0.0000 0.0000
# 4 0.0000 0.0000 0.0000 125.8909 0.0000 0.0000
# 5 0.0000 0.0000 0.0000 0.0000 -3.9153 0.0000
# 6 0.0000 0.0000 0.0000 0.0000 0.0000 36.7346
#
#
#
# Elastic Compliance Matrix: (Units=1/GPa)
#
#
# Indices 1 2 3 4 5 6 
#
# 1 0.011432 -0.002546 -0.002408 0.000000 0.000000 0.000000
# 2 -0.002546 0.012028 -0.002319 0.000000 0.000000 0.000000
# 3 -0.002408 -0.002319 0.007017 0.000000 0.000000 0.000000
# 4 0.000000 0.000000 0.000000 0.007943 0.000000 0.000000
# 5 0.000000 0.000000 0.000000 0.000000 -0.255405 0.000000
# 6 0.000000 0.000000 0.000000 0.000000 0.000000 0.027222
#
#
# Mechanical properties :
#
#
# Convention : Reuss Voigt Hill
#
# Bulk Modulus (GPa) = 62.76524 68.20310 65.48417
# Shear Modulus (GPa) = -29.42803 48.72231 9.64714
#
# Velocity S-wave (km/s) = -3.75842 4.83603 2.15191
# Velocity P-wave (km/s) = 3.36060 7.99507 6.13249
#
# Compressibility (1/GPa) = 0.01593238
#
# Stress axis : x y z
#
# Youngs Moduli (GPa) = 87.47013 83.14033 142.50805
#
# Poissons Ratio (x) = 0.21165 0.34311
# Poissons Ratio (y) = 0.22267 0.33051
# Poissons Ratio (z) = 0.21060 0.19282
#
# Static dielectric constant tensor:
#      x y z
#    x 1.843430 0.000000 0.000000 
#    y 0.000000 1.804700 0.000000 
#    z 0.000000 0.000000 1.774790 
# 
# From -- ./inp_files/19777.got.cif
#   From: 2010.05.17/outbox.cif.g08.bks.cpg/sg58_10_cif.got.tgz:19777.got - 2010.06.03 14:20:14.
