data_PCOD9445598
_publ_section_title
;
Structure prediction by ZEFSAII (Michael W. Deem and Ramdas Pophale) SiO2 
 PCOD9445598
Probable space group: P N N M
;
_chemical_formula_sum "Si O2"
_cell_formula_units_Z 24
_cell_length_a 18.458860
_cell_length_b 8.169141
_cell_length_c 8.087184
_cell_angle_alpha 90.000000
_cell_angle_beta 90.000000
_cell_angle_gamma 90.000000
_cell_volume 1219.490980
_symmetry_space_group_name_H-M "P N N M"
_symmetry_group_IT_number 58
_symmetry_cell_setting 'orthorhombic'
loop_
_space_group_symop_operation_xyz
x,y,z
-x,-y,z
1/2+x,1/2-y,1/2-z
1/2-x,1/2+y,1/2-z
-x,-y,-z
x,y,-z
1/2-x,1/2+y,1/2+z
1/2+x,1/2-y,1/2+z
loop_
_atom_site_type_symbol
_atom_site_label
_atom_site_fract_x
_atom_site_fract_y
_atom_site_fract_z
Si Si1 0.955512 0.754597 0.500000
Si Si2 0.341176 0.572781 0.814949
Si Si3 0.891428 0.389942 0.500000
Si Si4 0.306924 0.232023 0.685143
O O1 0.919879 0.847420 0.657516
O O2 0.923039 0.572469 0.500000
O O3 0.041146 0.737431 0.500000
O O4 0.330606 0.421016 0.696258
O O5 0.279308 0.708515 0.787364
O O6 0.324886 0.503787 0.000000
O O7 0.846329 0.361620 0.666626
O O8 0.323866 0.170854 0.500000
#
# Coordination Sequence:
#
# PCOD9445598 Si02
#       4
#     4   8   4   8
#     4   9  21  41  63  83 120 171 194 237 319 345
#     4   9  20  37  57  86 117 154 196 240 295 358
#     4  11  21  41  65  83 124 161 198 253 293 363
#     4  11  22  36  62  91 118 154 202 248 300 351
#
# _framework density 19.680342
#
# number of rings (size 3 to 8) (size 9 to 14) (size 15 to 20)
#    1.000    1.000    1.667    2.000    2.333    2.667 
#    0.000    8.333    0.000    0.000    0.000    0.000 
#    0.000    0.000    0.000    0.000    0.000    0.000 
#
# Total GULP energy -133677.691757 kJ/mol
# GULP energy per Si atom -5569.903823 kJ/mol
# Density = 1.963555 g / cm^3
# Si number density = 19.680342 Si / 1000 Ang^3
#
#
#
# Elastic Constant Matrix: (Units=GPa)
#
#
# Indices 1 2 3 4 5 6 
#
# 1 62.1671 -7.6339 26.4999 0.0000 0.0000 0.0000
# 2 -7.6339 49.5468 7.9369 0.0000 0.0000 0.0000
# 3 26.4999 7.9369 102.3286 0.0000 0.0000 0.0000
# 4 0.0000 0.0000 0.0000 -14.2865 0.0000 0.0000
# 5 0.0000 0.0000 0.0000 0.0000 24.2971 0.0000
# 6 0.0000 0.0000 0.0000 0.0000 0.0000 34.4957
#
#
#
# Elastic Compliance Matrix: (Units=1/GPa)
#
#
# Indices 1 2 3 4 5 6 
#
# 1 0.018732 0.003709 -0.005139 0.000000 0.000000 0.000000
# 2 0.003709 0.021171 -0.002603 0.000000 0.000000 0.000000
# 3 -0.005139 -0.002603 0.011305 0.000000 0.000000 0.000000
# 4 0.000000 0.000000 0.000000 -0.069996 0.000000 0.000000
# 5 0.000000 0.000000 0.000000 0.000000 0.041157 0.000000
# 6 0.000000 0.000000 0.000000 0.000000 0.000000 0.028989
#
#
# Mechanical properties :
#
#
# Convention : Reuss Voigt Hill
#
# Bulk Modulus (GPa) = 23.17826 29.73870 26.45848
# Shear Modulus (GPa) = 67.74753 21.38392 44.56572
#
# Velocity S-wave (km/s) = 5.87356 3.29988 4.76382
# Velocity P-wave (km/s) = 7.60271 5.44634 6.61301
#
# Compressibility (1/GPa) = 0.04314389
#
# Stress axis : x y z
#
# Youngs Moduli (GPa) = 53.38577 47.23360 88.45606
#
# Poissons Ratio (x) = -0.17520 0.45454
# Poissons Ratio (y) = -0.19802 0.23022
# Poissons Ratio (z) = 0.27433 0.12293
#
# Static dielectric constant tensor:
#      x y z
#    x 1.685820 0.000000 0.000000 
#    y 0.000000 1.733490 0.000000 
#    z 0.000000 0.000000 1.684230 
# 
# From -- ./inp_files/1911.got.cif
#   From: 2010.05.17/outbox.cif.g08.bks.cpg/sg58_1_cif.got.tgz:1911.got - 2010.06.03 14:20:14.
