data_PCOD9445532
_publ_section_title
;
Structure prediction by ZEFSAII (Michael W. Deem and Ramdas Pophale) SiO2 
 PCOD9445532
Probable space group: P N N M
;
_chemical_formula_sum "Si O2"
_cell_formula_units_Z 48
_cell_length_a 14.560171
_cell_length_b 14.965041
_cell_length_c 11.168292
_cell_angle_alpha 90.000000
_cell_angle_beta 90.000000
_cell_angle_gamma 90.000000
_cell_volume 2433.498858
_symmetry_space_group_name_H-M "P N N M"
_symmetry_group_IT_number 58
_symmetry_cell_setting 'orthorhombic'
loop_
_space_group_symop_operation_xyz
x,y,z
-x,-y,z
1/2+x,1/2-y,1/2-z
1/2-x,1/2+y,1/2-z
-x,-y,-z
x,y,-z
1/2-x,1/2+y,1/2+z
1/2+x,1/2-y,1/2+z
loop_
_atom_site_type_symbol
_atom_site_label
_atom_site_fract_x
_atom_site_fract_y
_atom_site_fract_z
Si Si1 0.147622 0.871140 0.144200
Si Si2 0.015192 0.355307 0.000000
Si Si3 0.758218 0.962998 0.746845
Si Si4 0.846184 0.480949 0.000000
Si Si5 0.000293 0.258801 0.757803
Si Si6 0.191316 0.224286 0.640872
Si Si7 0.073627 0.570667 0.638996
O O1 0.169084 0.966273 0.204292
O O2 0.060621 0.826841 0.210348
O O3 0.235383 0.804080 0.162030
O O4 0.133193 0.877337 0.000000
O O5 0.034078 0.297343 0.116221
O O6 0.080705 0.439904 0.000000
O O7 0.908978 0.390580 0.000000
O O8 0.714570 0.988495 0.618605
O O9 0.790159 0.861614 0.724381
O O10 0.674654 0.966032 0.840545
O O11 0.935224 0.335858 0.705182
O O12 0.086826 0.250755 0.670388
O O13 0.199611 0.199907 0.500000
O O14 0.052939 0.582946 0.500000
O O15 0.000000 0.500000 0.690413
#
# Coordination Sequence:
#
# PCOD9445532 Si02
#       7
#     8   4   8   4   8   8   8
#     4  11  24  46  69  95 137 182 223 277 345 407
#     4  11  20  36  66  99 128 163 225 298 349 383
#     4  12  23  42  66  99 132 179 226 274 338 408
#     4  11  20  36  66  99 128 163 225 298 349 383
#     4  12  23  42  66  99 132 179 226 274 338 408
#     4  11  24  46  69  95 137 182 223 277 345 407
#     4  11  22  39  65  99 133 169 225 290 343 391
#
# _framework density 19.724684
#
# number of rings (size 3 to 8) (size 9 to 14) (size 15 to 20)
#    0.000    0.667    5.000    4.000    0.000    3.333 
#    6.000    1.667    0.000    0.000    0.000    0.000 
#    0.000    0.000    0.000    0.000    0.000    0.000 
#
# Total GULP energy -268259.764555 kJ/mol
# GULP energy per Si atom -5588.745095 kJ/mol
# Density = 1.967979 g / cm^3
# Si number density = 19.724684 Si / 1000 Ang^3
#
#
#
# Elastic Constant Matrix: (Units=GPa)
#
#
# Indices 1 2 3 4 5 6 
#
# 1 31.0806 -19.3359 -9.9096 0.0000 0.0000 0.0000
# 2 -19.3359 43.1072 5.1301 0.0000 0.0000 0.0000
# 3 -9.9096 5.1301 53.4183 0.0000 0.0000 0.0000
# 4 0.0000 0.0000 0.0000 30.4536 0.0000 0.0000
# 5 0.0000 0.0000 0.0000 0.0000 31.8395 0.0000
# 6 0.0000 0.0000 0.0000 0.0000 0.0000 39.3440
#
#
#
# Elastic Compliance Matrix: (Units=1/GPa)
#
#
# Indices 1 2 3 4 5 6 
#
# 1 0.046924 0.020243 0.006761 0.000000 0.000000 0.000000
# 2 0.020243 0.032199 0.000663 0.000000 0.000000 0.000000
# 3 0.006761 0.000663 0.019911 0.000000 0.000000 0.000000
# 4 0.000000 0.000000 0.000000 0.032837 0.000000 0.000000
# 5 0.000000 0.000000 0.000000 0.000000 0.031408 0.000000
# 6 0.000000 0.000000 0.000000 0.000000 0.000000 0.025417
#
#
# Mechanical properties :
#
#
# Convention : Reuss Voigt Hill
#
# Bulk Modulus (GPa) = 6.47805 8.81947 7.64876
# Shear Modulus (GPa) = 27.05381 30.44216 28.74799
#
# Velocity S-wave (km/s) = 3.70749 3.93282 3.82181
# Velocity P-wave (km/s) = 4.64959 5.01036 4.83334
#
# Compressibility (1/GPa) = 0.15436751
#
# Stress axis : x y z
#
# Youngs Moduli (GPa) = 21.31118 31.05665 50.22428
#
# Poissons Ratio (x) = -0.62869 -0.33955
# Poissons Ratio (y) = -0.43141 -0.03330
# Poissons Ratio (z) = -0.14408 -0.02059
#
# Static dielectric constant tensor:
#      x y z
#    x 1.703970 0.000000 0.000000 
#    y 0.000000 1.700090 0.000000 
#    z 0.000000 0.000000 1.698940 
# 
# From -- ./inp_files/15621.got.cif
#   From: 2010.05.17/outbox.cif.g08.bks.cpg/sg58_8_cif.got.tgz:15621.got - 2010.06.03 14:20:14.
