data_PCOD9445444
_publ_section_title
;
Structure prediction by ZEFSAII (Michael W. Deem and Ramdas Pophale) SiO2 
 PCOD9445444
Probable space group: P N N M
;
_chemical_formula_sum "Si O2"
_cell_formula_units_Z 30
_cell_length_a 7.078300
_cell_length_b 36.742661
_cell_length_c 5.228346
_cell_angle_alpha 90.000000
_cell_angle_beta 90.000000
_cell_angle_gamma 90.000000
_cell_volume 1359.765105
_symmetry_space_group_name_H-M "P N N M"
_symmetry_group_IT_number 58
_symmetry_cell_setting 'orthorhombic'
loop_
_space_group_symop_operation_xyz
x,y,z
-x,-y,z
1/2+x,1/2-y,1/2-z
1/2-x,1/2+y,1/2-z
-x,-y,-z
x,y,-z
1/2-x,1/2+y,1/2+z
1/2+x,1/2-y,1/2+z
loop_
_atom_site_type_symbol
_atom_site_label
_atom_site_fract_x
_atom_site_fract_y
_atom_site_fract_z
Si Si1 0.500001 0.275644 0.000000
Si Si2 0.218460 0.880228 0.000000
Si Si3 0.281539 0.619772 0.500000
Si Si4 0.000000 0.500000 0.000000
Si Si5 0.757693 0.668570 0.000000
Si Si6 0.500000 0.945977 0.000000
Si Si7 0.500000 0.225964 0.500000
Si Si8 0.742306 0.831430 0.500000
O O1 0.500000 0.250839 0.748866
O O2 0.251408 0.285557 0.000000
O O3 0.500000 0.321924 0.000000
O O4 0.260819 0.855437 0.755260
O O5 0.326063 0.918085 0.000000
O O6 1.000000 0.888817 0.000000
O O7 0.173936 0.581915 0.500000
O O8 0.239180 0.644563 0.255260
O O9 0.000000 0.468843 0.765171
O O10 1.000000 0.680412 0.000000
O O11 0.248593 0.214443 0.500000
#
# Coordination Sequence:
#
# PCOD9445444 Si02
#       8
#     4   4   4   2   4   4   4   4
#     4  12  22  39  54  85 122 161 220 275 332 377
#     4  12  23  43  67  97 126 166 213 258 310 364
#     4  12  23  43  67  97 126 166 213 258 310 364
#     4  10  24  48  70 106 140 160 196 242 294 370
#     4  12  23  40  59  87 125 161 219 276 314 370
#     4  11  24  45  74  99 134 168 196 244 302 373
#     4  12  24  37  58  82 116 175 218 267 340 386
#     4  12  23  40  59  87 125 161 219 276 314 370
#
# _framework density 22.062633999999999
#
# number of rings (size 3 to 8) (size 9 to 14) (size 15 to 20)
#    0.000    0.267    2.667    8.000    0.000    0.000 
#    0.000    4.000    0.000    0.000    0.000    0.000 
#    0.000    0.000    0.000    0.000    0.000    0.000 
#
# Total GULP energy -167041.207336 kJ/mol
# GULP energy per Si atom -5568.040245 kJ/mol
# Density = 2.201242 g / cm^3
# Si number density = 22.062634 Si / 1000 Ang^3
#
#
#
# Elastic Constant Matrix: (Units=GPa)
#
#
# Indices 1 2 3 4 5 6 
#
# 1 217.8773 111.3468 74.2018 0.0000 0.0000 0.0000
# 2 111.3468 236.9784 167.8818 0.0000 0.0000 0.0000
# 3 74.2018 167.8818 301.7116 0.0000 0.0000 0.0000
# 4 0.0000 0.0000 0.0000 34.7483 0.0000 0.0000
# 5 0.0000 0.0000 0.0000 0.0000 44.9218 0.0000
# 6 0.0000 0.0000 0.0000 0.0000 0.0000 -11.0561
#
#
#
# Elastic Compliance Matrix: (Units=1/GPa)
#
#
# Indices 1 2 3 4 5 6 
#
# 1 0.006044 -0.002950 0.000155 0.000000 0.000000 0.000000
# 2 -0.002950 0.008405 -0.003951 0.000000 0.000000 0.000000
# 3 0.000155 -0.003951 0.005475 0.000000 0.000000 0.000000
# 4 0.000000 0.000000 0.000000 0.028778 0.000000 0.000000
# 5 0.000000 0.000000 0.000000 0.000000 0.022261 0.000000
# 6 0.000000 0.000000 0.000000 0.000000 0.000000 -0.090448
#
#
# Mechanical properties :
#
#
# Convention : Reuss Voigt Hill
#
# Bulk Modulus (GPa) = 155.47552 162.60314 159.03933
# Shear Modulus (GPa) = -1299.47963 40.59860 -629.44051
#
# Velocity S-wave (km/s) = -24.29556 4.29435 -16.90906
# Velocity P-wave (km/s) = 26.76583 9.92216 17.57783
#
# Compressibility (1/GPa) = 0.00643188
#
# Stress axis : x y z
#
# Youngs Moduli (GPa) = 165.44006 118.97702 182.64749
#
# Poissons Ratio (x) = 0.35095 -0.02826
# Poissons Ratio (y) = 0.48800 0.72171
# Poissons Ratio (z) = -0.02560 0.47012
#
# Static dielectric constant tensor:
#      x y z
#    x 2.861890 0.000000 0.000000 
#    y 0.000000 1.690760 0.000000 
#    z 0.000000 0.000000 1.501700 
# 
# From -- ./inp_files/290.got.cif
#   From: 2010.05.17/outbox.cif.g08.bks.cpg/sg58_1_cif.got.tgz:290.got - 2010.06.03 14:20:14.
