data_PCOD9445170
_publ_section_title
;
Structure prediction by ZEFSAII (Michael W. Deem and Ramdas Pophale) SiO2 
 PCOD9445170
Probable space group: P N N M
;
_chemical_formula_sum "Si O2"
_cell_formula_units_Z 48
_cell_length_a 22.168652
_cell_length_b 12.342739
_cell_length_c 8.915375
_cell_angle_alpha 90.000000
_cell_angle_beta 90.000000
_cell_angle_gamma 90.000000
_cell_volume 2439.441718
_symmetry_space_group_name_H-M "P N N M"
_symmetry_group_IT_number 58
_symmetry_cell_setting 'orthorhombic'
loop_
_space_group_symop_operation_xyz
x,y,z
-x,-y,z
1/2+x,1/2-y,1/2-z
1/2-x,1/2+y,1/2-z
-x,-y,-z
x,y,-z
1/2-x,1/2+y,1/2+z
1/2+x,1/2-y,1/2+z
loop_
_atom_site_type_symbol
_atom_site_label
_atom_site_fract_x
_atom_site_fract_y
_atom_site_fract_z
Si Si1 0.672694 0.127233 0.176665
Si Si2 0.896466 0.256876 0.678948
Si Si3 0.070299 0.514603 0.179815
Si Si4 0.504479 0.370092 0.672547
Si Si5 0.701040 0.580307 0.819350
Si Si6 0.368612 0.637766 0.822509
O O1 0.733357 0.080299 0.247387
O O2 0.672691 0.256955 0.196725
O O3 0.613389 0.077446 0.252887
O O4 0.670290 0.103654 0.000000
O O5 0.895356 0.272700 0.500000
O O6 0.904324 0.371274 0.760126
O O7 0.837632 0.186763 0.722794
O O8 0.953829 0.184424 0.725627
O O9 0.000000 0.500000 0.224725
O O10 0.072944 0.511912 0.000000
O O11 0.500000 0.500000 0.679428
O O12 0.496012 0.334992 0.500000
O O13 0.570566 0.342431 0.731454
O O14 0.663678 0.473117 0.775173
O O15 0.706507 0.578982 0.000000
O O16 0.383425 0.628039 0.000000
#
# Coordination Sequence:
#
# PCOD9445170 Si02
#       6
#     8   8   8   8   8   8
#     4  11  25  42  65  95 126 166 213 260 313 375
#     4  11  23  40  66  95 128 168 213 265 320 380
#     4  11  25  45  68  94 129 170 213 264 323 383
#     4  11  22  36  59  94 129 164 206 256 314 373
#     4  10  23  42  63  92 127 167 209 257 320 377
#     4  10  22  42  65  90 124 165 208 257 312 372
#
# _framework density 19.676634
#
# number of rings (size 3 to 8) (size 9 to 14) (size 15 to 20)
#    0.000    1.333    1.667    3.000    2.333    8.000 
#    0.000    0.000    0.000    0.000    0.000    0.000 
#    0.000    0.000    0.000    0.000    0.000    0.000 
#
# Total GULP energy -268398.658721 kJ/mol
# GULP energy per Si atom -5591.638723 kJ/mol
# Density = 1.963185 g / cm^3
# Si number density = 19.676634 Si / 1000 Ang^3
#
#
#
# Elastic Constant Matrix: (Units=GPa)
#
#
# Indices 1 2 3 4 5 6 
#
# 1 118.7637 32.7624 33.9640 0.0000 0.0000 0.0000
# 2 32.7624 92.7341 30.0087 0.0000 0.0000 0.0000
# 3 33.9640 30.0087 36.4446 0.0000 0.0000 0.0000
# 4 0.0000 0.0000 0.0000 24.6947 0.0000 0.0000
# 5 0.0000 0.0000 0.0000 0.0000 11.0406 0.0000
# 6 0.0000 0.0000 0.0000 0.0000 0.0000 19.8991
#
#
#
# Elastic Compliance Matrix: (Units=1/GPa)
#
#
# Indices 1 2 3 4 5 6 
#
# 1 0.011524 -0.000813 -0.010071 0.000000 0.000000 0.000000
# 2 -0.000813 0.014758 -0.011394 0.000000 0.000000 0.000000
# 3 -0.010071 -0.011394 0.046206 0.000000 0.000000 0.000000
# 4 0.000000 0.000000 0.000000 0.040495 0.000000 0.000000
# 5 0.000000 0.000000 0.000000 0.000000 0.090575 0.000000
# 6 0.000000 0.000000 0.000000 0.000000 0.000000 0.050254
#
#
# Mechanical properties :
#
#
# Convention : Reuss Voigt Hill
#
# Bulk Modulus (GPa) = 35.79997 49.04585 42.42291
# Shear Modulus (GPa) = 16.25075 21.20736 18.72905
#
# Velocity S-wave (km/s) = 2.87695 3.28654 3.08854
# Velocity P-wave (km/s) = 5.41012 6.27549 5.85881
#
# Compressibility (1/GPa) = 0.02793299
#
# Stress axis : x y z
#
# Youngs Moduli (GPa) = 86.77333 67.76073 21.64201
#
# Poissons Ratio (x) = 0.05506 0.21795
# Poissons Ratio (y) = 0.07051 0.24660
# Poissons Ratio (z) = 0.87388 0.77209
#
# Static dielectric constant tensor:
#      x y z
#    x 1.651780 0.000000 0.000000 
#    y 0.000000 1.705470 0.000000 
#    z 0.000000 0.000000 1.662580 
# 
# From -- ./inp_files/9733.got.cif
#   From: 2010.05.17/outbox.cif.g08.bks.cpg/sg58_5_cif.got.tgz:9733.got - 2010.06.03 14:20:14.
