data_PCOD9445346
_publ_section_title
;
Structure prediction by ZEFSAII (Michael W. Deem and Ramdas Pophale) SiO2 
 PCOD9445346
Probable space group: P N N M
;
_chemical_formula_sum "Si O2"
_cell_formula_units_Z 36
_cell_length_a 8.018417
_cell_length_b 9.021147
_cell_length_c 22.259991
_cell_angle_alpha 90.000000
_cell_angle_beta 90.000000
_cell_angle_gamma 90.000000
_cell_volume 1610.183538
_symmetry_space_group_name_H-M "P N N M"
_symmetry_group_IT_number 58
_symmetry_cell_setting 'orthorhombic'
loop_
_space_group_symop_operation_xyz
x,y,z
-x,-y,z
1/2+x,1/2-y,1/2-z
1/2-x,1/2+y,1/2-z
-x,-y,-z
x,y,-z
1/2-x,1/2+y,1/2+z
1/2+x,1/2-y,1/2+z
loop_
_atom_site_type_symbol
_atom_site_label
_atom_site_fract_x
_atom_site_fract_y
_atom_site_fract_z
Si Si1 0.000000 0.000000 0.358556
Si Si2 0.331996 0.927480 0.568983
Si Si3 0.318948 0.574404 0.566464
Si Si4 0.926452 0.740826 0.734524
Si Si5 0.732679 0.955641 0.803476
O O1 0.051633 0.140746 0.318582
O O2 0.836709 0.035411 0.396856
O O3 0.318580 0.981516 0.500000
O O4 0.345773 0.750597 0.568120
O O5 0.500000 0.000000 0.595617
O O6 0.500000 0.500000 0.571923
O O7 0.250099 0.535397 0.500000
O O8 0.212568 0.531292 0.624941
O O9 0.889568 0.847487 0.790970
O O10 0.778687 0.619415 0.724447
O O11 0.087400 0.636708 0.729584
#
# Coordination Sequence:
#
# PCOD9445346 Si02
#       5
#     4   8   8   8   8
#     4  12  23  44  68 106 141 186 236 308 354 430
#     4  10  23  43  69 103 142 190 238 289 358 429
#     4  10  23  44  71 100 138 186 237 293 351 429
#     4  11  26  44  69 102 140 181 238 290 370 419
#     4  11  25  46  68 104 139 186 233 298 352 443
#
# _framework density 22.357700000000001
#
# number of rings (size 3 to 8) (size 9 to 14) (size 15 to 20)
#    0.000    1.333    2.222    1.667    7.778    0.000 
#    0.000    3.333    0.000    0.000    0.000    0.000 
#    0.000    0.000    0.000    0.000    0.000    0.000 
#
# Total GULP energy -201087.067678 kJ/mol
# GULP energy per Si atom -5585.751880 kJ/mol
# Density = 2.230681 g / cm^3
# Si number density = 22.357700 Si / 1000 Ang^3
#
#
#
# Elastic Constant Matrix: (Units=GPa)
#
#
# Indices 1 2 3 4 5 6 
#
# 1 94.8313 36.3988 34.2637 0.0000 0.0000 0.0000
# 2 36.3988 142.7443 41.0190 0.0000 0.0000 0.0000
# 3 34.2637 41.0190 113.7681 0.0000 0.0000 0.0000
# 4 0.0000 0.0000 0.0000 25.7034 0.0000 0.0000
# 5 0.0000 0.0000 0.0000 0.0000 -18.0451 0.0000
# 6 0.0000 0.0000 0.0000 0.0000 0.0000 32.0891
#
#
#
# Elastic Compliance Matrix: (Units=1/GPa)
#
#
# Indices 1 2 3 4 5 6 
#
# 1 0.012501 -0.002349 -0.002918 0.000000 0.000000 0.000000
# 2 -0.002349 0.008257 -0.002269 0.000000 0.000000 0.000000
# 3 -0.002918 -0.002269 0.010487 0.000000 0.000000 0.000000
# 4 0.000000 0.000000 0.000000 0.038905 0.000000 0.000000
# 5 0.000000 0.000000 0.000000 0.000000 -0.055417 0.000000
# 6 0.000000 0.000000 0.000000 0.000000 0.000000 0.031163
#
#
# Mechanical properties :
#
#
# Convention : Reuss Voigt Hill
#
# Bulk Modulus (GPa) = 61.83741 63.85629 62.84685
# Shear Modulus (GPa) = 75.34652 23.92697 49.63675
#
# Velocity S-wave (km/s) = 5.81151 3.27492 4.71693
# Velocity P-wave (km/s) = 8.52935 6.55159 7.60504
#
# Compressibility (1/GPa) = 0.01617144
#
# Stress axis : x y z
#
# Youngs Moduli (GPa) = 79.99355 121.11374 95.35738
#
# Poissons Ratio (x) = 0.28452 0.27825
# Poissons Ratio (y) = 0.18792 0.21641
# Poissons Ratio (z) = 0.23342 0.27486
#
# Static dielectric constant tensor:
#      x y z
#    x 1.932870 0.000000 0.000000 
#    y 0.000000 1.718920 0.000000 
#    z 0.000000 0.000000 1.846610 
# 
# From -- ./inp_files/28566.got.cif
#   From: 2010.05.17/outbox.cif.g08.bks.cpg/sg58_15_cif.got.tgz:28566.got - 2010.06.03 14:20:14.
