data_PCOD9445969
_publ_section_title
;
Structure prediction by ZEFSAII (Michael W. Deem and Ramdas Pophale) SiO2 
 PCOD9445969
Probable space group: P N N M
;
_chemical_formula_sum "Si O2"
_cell_formula_units_Z 64
_cell_length_a 15.000000
_cell_length_b 24.000000
_cell_length_c 9.000000
_cell_angle_alpha 90.000000
_cell_angle_beta 90.000000
_cell_angle_gamma 90.000000
_cell_volume 3240.000000
_symmetry_space_group_name_H-M "P N N M"
_symmetry_group_IT_number 58
_symmetry_cell_setting 'orthorhombic'
loop_
_space_group_symop_operation_xyz
x,y,z
-x,-y,z
1/2+x,1/2-y,1/2-z
1/2-x,1/2+y,1/2-z
-x,-y,-z
x,y,-z
1/2-x,1/2+y,1/2+z
1/2+x,1/2-y,1/2+z
loop_
_atom_site_type_symbol
_atom_site_label
_atom_site_fract_x
_atom_site_fract_y
_atom_site_fract_z
Si Si1 0.704179 0.199043 0.320942
Si Si2 0.775763 0.523763 0.327428
Si Si3 0.947389 0.557393 0.170503
Si Si4 0.653313 0.606882 0.821818
Si Si5 0.971990 0.937448 0.680442
Si Si6 0.267993 0.582399 0.173701
Si Si7 0.497326 0.822039 0.322085
Si Si8 0.811075 0.294425 0.825155
O O1 0.701011 0.194821 0.500000
O O2 0.776871 0.153321 0.267124
O O3 0.602055 0.192419 0.266692
O O4 0.745485 0.256458 0.268170
O O5 0.757047 0.528930 0.500000
O O6 0.865010 0.555608 0.280956
O O7 0.696073 0.549110 0.230686
O O8 0.785168 0.460516 0.275279
O O9 0.000000 0.500000 0.180348
O O10 0.006683 0.611477 0.198825
O O11 0.912745 0.562869 0.000000
O O12 0.550454 0.605092 0.771384
O O13 0.653099 0.609767 0.000000
O O14 0.972957 0.938270 0.500000
O O15 0.871980 0.919959 0.721750
O O16 0.000000 0.000000 0.729169
O O17 0.225543 0.642966 0.182439
O O18 0.262654 0.564500 0.000000
O O19 0.496878 0.812494 0.500000
O O20 0.586771 0.792328 0.266943
O O21 0.809871 0.278032 0.000000
#
# Coordination Sequence:
#
# PCOD9445969 Si02
#       8
#     8   8   8   8   8   8   8   8
#     4  10  21  38  61  83 113 153 193 235 286 342
#     4  12  23  33  52  85 122 151 181 235 296 344
#     4  10  19  35  61  86 110 150 198 233 277 349
#     4  10  19  36  59  81 108 151 200 239 278 342
#     4   9  16  29  56  85 108 142 194 247 284 326
#     4  10  20  37  58  81 112 154 197 240 288 349
#     4   9  18  36  59  85 113 148 190 234 283 341
#     4  10  22  39  61  87 115 146 193 245 285 335
#
# _framework density 19.753086
#
# number of rings (size 3 to 8) (size 9 to 14) (size 15 to 20)
#    0.000    2.000    2.500    1.875    0.000    4.250 
#    0.000    3.750    0.000    0.000    0.000    0.000 
#    0.000    0.000    0.000    0.000    0.000    0.000 
#
# Total GULP energy -356859.373159 kJ/mol
# GULP energy per Si atom -5575.927706 kJ/mol
# Density = 1.970813 g / cm^3
# Si number density = 19.753086 Si / 1000 Ang^3
#
#
#
# Elastic Constant Matrix: (Units=GPa)
#
#
# Indices 1 2 3 4 5 6 
#
# 1 109.2110 16.6616 4.9875 0.0000 0.0000 0.0000
# 2 16.6616 33.5814 -4.9478 0.0000 0.0000 0.0000
# 3 4.9875 -4.9478 -24.3455 0.0000 0.0000 0.0000
# 4 0.0000 0.0000 0.0000 17.9061 0.0000 0.0000
# 5 0.0000 0.0000 0.0000 0.0000 10.0237 0.0000
# 6 0.0000 0.0000 0.0000 0.0000 0.0000 29.0826
#
#
#
# Elastic Compliance Matrix: (Units=1/GPa)
#
#
# Indices 1 2 3 4 5 6 
#
# 1 0.009694 -0.004386 0.002877 0.000000 0.000000 0.000000
# 2 -0.004386 0.030897 -0.007178 0.000000 0.000000 0.000000
# 3 0.002877 -0.007178 -0.039027 0.000000 0.000000 0.000000
# 4 0.000000 0.000000 0.000000 0.055847 0.000000 0.000000
# 5 0.000000 0.000000 0.000000 0.000000 0.099764 0.000000
# 6 0.000000 0.000000 0.000000 0.000000 0.000000 0.034385
#
#
# Mechanical properties :
#
#
# Convention : Reuss Voigt Hill
#
# Bulk Modulus (GPa) = -63.25677 16.87217 -23.19230
# Shear Modulus (GPa) = 24.55035 18.18550 21.36792
#
# Velocity S-wave (km/s) = 3.52925 3.03750 3.29257
# Velocity P-wave (km/s) = 3.93520 4.56749 1.63953
#
# Compressibility (1/GPa) = -0.01580858
#
# Stress axis : x y z
#
# Youngs Moduli (GPa) = 103.15321 32.36569 -25.62326
#
# Poissons Ratio (x) = 0.14195 0.07373
# Poissons Ratio (y) = 0.45242 -0.18392
# Poissons Ratio (z) = -0.29681 0.23232
#
# Static dielectric constant tensor:
#      x y z
#    x 1.726260 0.000000 0.000000 
#    y 0.000000 1.734140 0.000000 
#    z 0.000000 0.000000 1.661690 
# 
# From -- ./inp_files/6965.got.cif
#   From: 2010.05.17/outbox.ucp.g08.bks.cvg/sg58_4_cif.got.tgz:6965.got - 2010.06.11 16:41:41.
