data_PCOD9445701
_publ_section_title
;
Structure prediction by ZEFSAII (Michael W. Deem and Ramdas Pophale) SiO2 
 PCOD9445701
Probable space group: P N N M
;
_chemical_formula_sum "Si O2"
_cell_formula_units_Z 56
_cell_length_a 25.137155
_cell_length_b 6.473623
_cell_length_c 14.323393
_cell_angle_alpha 90.000000
_cell_angle_beta 90.000000
_cell_angle_gamma 90.000000
_cell_volume 2330.823753
_symmetry_space_group_name_H-M "P N N M"
_symmetry_group_IT_number 58
_symmetry_cell_setting 'orthorhombic'
loop_
_space_group_symop_operation_xyz
x,y,z
-x,-y,z
1/2+x,1/2-y,1/2-z
1/2-x,1/2+y,1/2-z
-x,-y,-z
x,y,-z
1/2-x,1/2+y,1/2+z
1/2+x,1/2-y,1/2+z
loop_
_atom_site_type_symbol
_atom_site_label
_atom_site_fract_x
_atom_site_fract_y
_atom_site_fract_z
Si Si1 0.374684 0.470078 0.394519
Si Si2 0.510620 0.757111 0.601149
Si Si3 0.469100 0.185893 0.203567
Si Si4 0.779865 0.111914 0.604458
Si Si5 0.599253 0.472278 0.895437
Si Si6 0.115503 0.356046 0.765311
Si Si7 0.207463 0.670908 0.209212
O O1 0.354685 0.488674 0.500000
O O2 0.429676 0.337885 0.399427
O O3 0.387591 0.694062 0.350890
O O4 0.331153 0.350176 0.331505
O O5 0.486022 0.692343 0.500000
O O6 0.496141 0.720517 0.710560
O O7 0.500000 0.000000 0.596568
O O8 0.443583 0.364749 0.143203
O O9 0.500000 0.000000 0.151932
O O10 0.423200 0.052467 0.254632
O O11 0.762135 0.171131 0.500000
O O12 0.843483 0.084034 0.602687
O O13 0.769735 0.266268 0.690121
O O14 0.752145 0.897667 0.635533
O O15 0.606870 0.281556 0.826350
O O16 0.585336 0.406686 0.000000
O O17 0.171764 0.468467 0.774800
#
# Coordination Sequence:
#
# PCOD9445701 Si02
#       7
#     8   8   8   8   8   8   8
#     4  11  23  41  66 100 137 176 223 276 340 405
#     4   9  17  35  61  89 129 172 209 259 320 386
#     4  11  23  43  69  96 136 179 226 283 348 404
#     4  11  24  44  72  99 133 183 223 275 347 409
#     4  11  24  46  67  96 133 173 230 283 347 413
#     4  12  22  43  67  99 131 179 223 282 341 396
#     4  12  24  46  68  99 144 172 230 284 335 413
#
# _framework density 24.025839000000001
#
# number of rings (size 3 to 8) (size 9 to 14) (size 15 to 20)
#    0.000    1.000    5.714    1.286    0.000    3.714 
#    0.000    1.429    0.000    4.286    0.000    0.000 
#    0.000    0.000    0.000    0.000    0.000    0.000 
#
# Total GULP energy -312721.974273 kJ/mol
# GULP energy per Si atom -5584.320969 kJ/mol
# Density = 2.397115 g / cm^3
# Si number density = 24.025839 Si / 1000 Ang^3
#
#
#
# Elastic Constant Matrix: (Units=GPa)
#
#
# Indices 1 2 3 4 5 6 
#
# 1 75.4676 22.5316 19.1230 0.0000 0.0000 0.0000
# 2 22.5316 118.5747 40.8695 0.0000 0.0000 0.0000
# 3 19.1230 40.8695 182.4140 0.0000 0.0000 0.0000
# 4 0.0000 0.0000 0.0000 -11.3740 0.0000 0.0000
# 5 0.0000 0.0000 0.0000 0.0000 3.2748 0.0000
# 6 0.0000 0.0000 0.0000 0.0000 0.0000 46.8220
#
#
#
# Elastic Compliance Matrix: (Units=1/GPa)
#
#
# Indices 1 2 3 4 5 6 
#
# 1 0.014201 -0.002368 -0.000958 0.000000 0.000000 0.000000
# 2 -0.002368 0.009534 -0.001888 0.000000 0.000000 0.000000
# 3 -0.000958 -0.001888 0.006005 0.000000 0.000000 0.000000
# 4 0.000000 0.000000 0.000000 -0.087920 0.000000 0.000000
# 5 0.000000 0.000000 0.000000 0.000000 0.305366 0.000000
# 6 0.000000 0.000000 0.000000 0.000000 0.000000 0.021357
#
#
# Mechanical properties :
#
#
# Convention : Reuss Voigt Hill
#
# Bulk Modulus (GPa) = 51.78145 60.16717 55.97431
# Shear Modulus (GPa) = 17.51868 27.34004 22.42936
#
# Velocity S-wave (km/s) = 2.70323 3.37700 3.05872
# Velocity P-wave (km/s) = 5.59843 6.34843 5.98519
#
# Compressibility (1/GPa) = 0.01931193
#
# Stress axis : x y z
#
# Youngs Moduli (GPa) = 70.41989 104.88566 166.51552
#
# Poissons Ratio (x) = 0.24839 0.15954
# Poissons Ratio (y) = 0.16677 0.31436
# Poissons Ratio (z) = 0.06747 0.19801
#
# Static dielectric constant tensor:
#      x y z
#    x 2.029820 0.000000 0.000000 
#    y 0.000000 1.911210 0.000000 
#    z 0.000000 0.000000 1.905580 
# 
# From -- ./inp_files/23764.got.cif
#   From: 2010.05.17/outbox.cif.g08.bks.cpg/sg58_12_cif.got.tgz:23764.got - 2010.06.03 14:20:14.
