data_PCOD9445224
_publ_section_title
;
Structure prediction by ZEFSAII (Michael W. Deem and Ramdas Pophale) SiO2 
 PCOD9445224
Probable space group: P N N M
;
_chemical_formula_sum "Si O2"
_cell_formula_units_Z 48
_cell_length_a 6.082757
_cell_length_b 13.852305
_cell_length_c 24.941099
_cell_angle_alpha 90.000000
_cell_angle_beta 90.000000
_cell_angle_gamma 90.000000
_cell_volume 2101.542120
_symmetry_space_group_name_H-M "P N N M"
_symmetry_group_IT_number 58
_symmetry_cell_setting 'orthorhombic'
loop_
_space_group_symop_operation_xyz
x,y,z
-x,-y,z
1/2+x,1/2-y,1/2-z
1/2-x,1/2+y,1/2-z
-x,-y,-z
x,y,-z
1/2-x,1/2+y,1/2+z
1/2+x,1/2-y,1/2+z
loop_
_atom_site_type_symbol
_atom_site_label
_atom_site_fract_x
_atom_site_fract_y
_atom_site_fract_z
Si Si1 0.409638 0.265412 0.811496
Si Si2 0.592394 0.293916 0.400755
Si Si3 0.746121 0.106612 0.779543
Si Si4 0.500000 0.500000 0.371918
Si Si5 0.744745 0.864815 0.614621
Si Si6 0.767832 0.186112 0.500000
Si Si7 0.500000 0.000000 0.693104
Si Si8 0.765423 0.406025 0.000000
O O1 0.192030 0.233739 0.843046
O O2 0.540685 0.167673 0.800295
O O3 0.386885 0.315945 0.753941
O O4 0.539723 0.337176 0.851888
O O5 0.582669 0.408904 0.405568
O O6 0.360577 0.236855 0.405365
O O7 0.742885 0.249469 0.446817
O O8 0.690985 0.031073 0.733066
O O9 0.834664 0.051252 0.830650
O O10 0.578656 0.913659 0.656065
O O11 0.754534 0.935464 0.562921
O O12 0.534322 0.123223 0.500000
O O13 0.015257 0.143959 0.500000
#
# Coordination Sequence:
#
# PCOD9445224 Si02
#       8
#     8   8   8   4   8   4   4   4
#     4  12  22  43  68  88 138 181 222 274 344 410
#     4  11  23  44  68  96 135 174 225 284 345 407
#     4  12  24  40  64  98 136 180 228 276 336 408
#     4  12  24  41  64 100 134 175 230 284 336 410
#     4  11  23  44  68  96 135 174 225 284 345 407
#     4  10  22  43  74 101 135 182 229 285 358 419
#     4  12  24  41  64 100 134 175 230 284 336 410
#     4  10  22  43  74 101 135 182 229 285 358 419
#
# _framework density 22.840371000000001
#
# number of rings (size 3 to 8) (size 9 to 14) (size 15 to 20)
#    0.000    0.667    5.000    4.000    0.000    0.667 
#    0.000    0.000    0.000    6.000    0.000    0.000 
#    0.000    0.000    0.000    0.000    0.000    0.000 
#
# Total GULP energy -267655.634038 kJ/mol
# GULP energy per Si atom -5576.159042 kJ/mol
# Density = 2.278839 g / cm^3
# Si number density = 22.840371 Si / 1000 Ang^3
#
#
#
# Elastic Constant Matrix: (Units=GPa)
#
#
# Indices 1 2 3 4 5 6 
#
# 1 65.9683 11.3880 4.6999 0.0000 0.0000 0.0000
# 2 11.3880 48.5172 -24.5328 0.0000 0.0000 0.0000
# 3 4.6999 -24.5328 78.5388 0.0000 0.0000 0.0000
# 4 0.0000 0.0000 0.0000 -0.7647 0.0000 0.0000
# 5 0.0000 0.0000 0.0000 0.0000 35.6103 0.0000
# 6 0.0000 0.0000 0.0000 0.0000 0.0000 39.9349
#
#
#
# Elastic Compliance Matrix: (Units=1/GPa)
#
#
# Indices 1 2 3 4 5 6 
#
# 1 0.016223 -0.005105 -0.002565 0.000000 0.000000 0.000000
# 2 -0.005105 0.026084 0.008453 0.000000 0.000000 0.000000
# 3 -0.002565 0.008453 0.015527 0.000000 0.000000 0.000000
# 4 0.000000 0.000000 0.000000 -1.307752 0.000000 0.000000
# 5 0.000000 0.000000 0.000000 0.000000 0.028082 0.000000
# 6 0.000000 0.000000 0.000000 0.000000 0.000000 0.025041
#
#
# Mechanical properties :
#
#
# Convention : Reuss Voigt Hill
#
# Bulk Modulus (GPa) = 16.83541 19.57051 18.20296
# Shear Modulus (GPa) = -4.24246 28.38738 12.07246
#
# Velocity S-wave (km/s) = -1.36436 3.52925 2.30153
# Velocity P-wave (km/s) = 2.21471 5.01941 3.87939
#
# Compressibility (1/GPa) = 0.05939861
#
# Stress axis : x y z
#
# Youngs Moduli (GPa) = 61.64144 38.33789 64.40578
#
# Poissons Ratio (x) = 0.19572 0.16523
# Poissons Ratio (y) = 0.31468 -0.54443
# Poissons Ratio (z) = 0.15814 -0.32408
#
# Static dielectric constant tensor:
#      x y z
#    x 1.851700 0.000000 0.000000 
#    y 0.000000 1.937000 0.000000 
#    z 0.000000 0.000000 1.814710 
# 
# From -- ./inp_files/32878.got.cif
#   From: 2010.05.17/outbox.cif.g08.bks.cpg/sg58_17_cif.got.tgz:32878.got - 2010.06.03 14:20:14.
