data_PCOD9445782
_publ_section_title
;
Structure prediction by ZEFSAII (Michael W. Deem and Ramdas Pophale) SiO2 
 PCOD9445782
Probable space group: P N N M
;
_chemical_formula_sum "Si O2"
_cell_formula_units_Z 24
_cell_length_a 7.391989
_cell_length_b 14.055969
_cell_length_c 9.934097
_cell_angle_alpha 90.000000
_cell_angle_beta 90.000000
_cell_angle_gamma 90.000000
_cell_volume 1032.168257
_symmetry_space_group_name_H-M "P N N M"
_symmetry_group_IT_number 58
_symmetry_cell_setting 'orthorhombic'
loop_
_space_group_symop_operation_xyz
x,y,z
-x,-y,z
1/2+x,1/2-y,1/2-z
1/2-x,1/2+y,1/2-z
-x,-y,-z
x,y,-z
1/2-x,1/2+y,1/2+z
1/2+x,1/2-y,1/2+z
loop_
_atom_site_type_symbol
_atom_site_label
_atom_site_fract_x
_atom_site_fract_y
_atom_site_fract_z
Si Si1 0.499607 0.155321 0.145168
Si Si2 0.630452 0.641575 0.223458
Si Si3 0.763848 0.935086 0.345363
O O1 0.406422 0.258917 0.150639
O O2 0.716255 0.162077 0.165719
O O3 0.414654 0.098185 0.269449
O O4 0.460284 0.111458 0.000000
O O5 0.425353 0.606412 0.248646
O O6 0.708025 0.548426 0.148863
O O7 0.775956 0.899739 0.500000
#
# Coordination Sequence:
#
# PCOD9445782 Si02
#       3
#     8   8   8
#     4  12  26  45  71 105 141 178 227 287 346 401
#     4  11  24  45  71 100 137 181 232 276 334 409
#     4  11  25  47  74 100 134 184 234 279 335 410
#
# _framework density 23.252023999999999
#
# number of rings (size 3 to 8) (size 9 to 14) (size 15 to 20)
#    0.000    0.667    3.333    5.000    0.000    9.333 
#    0.000    3.333    0.000    0.000    0.000    0.000 
#    0.000    0.000    0.000    0.000    0.000    0.000 
#
# Total GULP energy -133799.263425 kJ/mol
# GULP energy per Si atom -5574.969309 kJ/mol
# Density = 2.319910 g / cm^3
# Si number density = 23.252024 Si / 1000 Ang^3
#
#
#
# Elastic Constant Matrix: (Units=GPa)
#
#
# Indices 1 2 3 4 5 6 
#
# 1 148.6901 22.7804 46.5021 0.0000 0.0000 0.0000
# 2 22.7804 135.6447 29.9054 0.0000 0.0000 0.0000
# 3 46.5021 29.9054 80.9873 0.0000 0.0000 0.0000
# 4 0.0000 0.0000 0.0000 11.8117 0.0000 0.0000
# 5 0.0000 0.0000 0.0000 0.0000 7.9167 0.0000
# 6 0.0000 0.0000 0.0000 0.0000 0.0000 45.0765
#
#
#
# Elastic Compliance Matrix: (Units=1/GPa)
#
#
# Indices 1 2 3 4 5 6 
#
# 1 0.008214 -0.000370 -0.004580 0.000000 0.000000 0.000000
# 2 -0.000370 0.008042 -0.002757 0.000000 0.000000 0.000000
# 3 -0.004580 -0.002757 0.015996 0.000000 0.000000 0.000000
# 4 0.000000 0.000000 0.000000 0.084661 0.000000 0.000000
# 5 0.000000 0.000000 0.000000 0.000000 0.126315 0.000000
# 6 0.000000 0.000000 0.000000 0.000000 0.000000 0.022184
#
#
# Mechanical properties :
#
#
# Convention : Reuss Voigt Hill
#
# Bulk Modulus (GPa) = 59.39004 62.63311 61.01158
# Shear Modulus (GPa) = 17.45561 30.70327 24.07944
#
# Velocity S-wave (km/s) = 2.74289 3.63775 3.22154
# Velocity P-wave (km/s) = 5.96897 6.68127 6.33514
#
# Compressibility (1/GPa) = 0.01683784
#
# Stress axis : x y z
#
# Youngs Moduli (GPa) = 121.73659 124.34393 62.51697
#
# Poissons Ratio (x) = 0.04598 0.28633
# Poissons Ratio (y) = 0.04502 0.17238
# Poissons Ratio (z) = 0.55757 0.34286
#
# Static dielectric constant tensor:
#      x y z
#    x 1.870760 0.000000 0.000000 
#    y 0.000000 1.913360 0.000000 
#    z 0.000000 0.000000 1.827080 
# 
# From -- ./inp_files/1785.got.cif
#   From: 2010.05.17/outbox.cif.g08.bks.cpg/sg58_1_cif.got.tgz:1785.got - 2010.06.03 14:20:14.
