data_PCOD9445179
_publ_section_title
;
Structure prediction by ZEFSAII (Michael W. Deem and Ramdas Pophale) SiO2 
 PCOD9445179
Probable space group: P N N M
;
_chemical_formula_sum "Si O2"
_cell_formula_units_Z 34
_cell_length_a 11.322891
_cell_length_b 5.203905
_cell_length_c 24.211185
_cell_angle_alpha 90.000000
_cell_angle_beta 90.000000
_cell_angle_gamma 90.000000
_cell_volume 1426.601685
_symmetry_space_group_name_H-M "P N N M"
_symmetry_group_IT_number 58
_symmetry_cell_setting 'orthorhombic'
loop_
_space_group_symop_operation_xyz
x,y,z
-x,-y,z
1/2+x,1/2-y,1/2-z
1/2-x,1/2+y,1/2-z
-x,-y,-z
x,y,-z
1/2-x,1/2+y,1/2+z
1/2+x,1/2-y,1/2+z
loop_
_atom_site_type_symbol
_atom_site_label
_atom_site_fract_x
_atom_site_fract_y
_atom_site_fract_z
Si Si1 0.231452 0.092115 0.326935
Si Si2 0.367079 0.586729 0.295474
Si Si3 0.500000 0.000000 0.000000
Si Si4 0.559592 0.248994 0.436061
Si Si5 0.331451 0.389143 0.058851
O O1 0.328819 0.865503 0.318126
O O2 0.158664 0.077732 0.270185
O O3 0.161700 0.040163 0.383841
O O4 0.287606 0.373881 0.326149
O O5 0.500000 0.500000 0.300700
O O6 0.571393 0.826341 0.952647
O O7 0.500000 0.500000 0.412199
O O8 0.519997 0.247329 0.500000
O O9 0.700460 0.234247 0.438043
O O10 0.500000 0.000000 0.410249
O O11 0.334774 0.552292 0.000000
#
# Coordination Sequence:
#
# PCOD9445179 Si02
#       5
#     8   8   2   8   8
#     4  10  22  42  67 100 133 172 234 285 342 425
#     4  10  22  43  69  99 130 175 225 293 357 405
#     4   8  20  44  64  98 140 194 232 268 338 430
#     4   9  18  33  58  85 117 162 213 273 328 381
#     4   9  20  41  66  98 141 182 235 276 345 426
#
# _framework density 23.832861000000001
#
# number of rings (size 3 to 8) (size 9 to 14) (size 15 to 20)
#    0.706    1.882    0.000    0.706    0.000    4.706 
#   12.706    3.529    0.000    7.059    0.000    0.000 
#    0.000    0.000    0.000    0.000    0.000    0.000 
#
# Total GULP energy -189490.001351 kJ/mol
# GULP energy per Si atom -5573.235334 kJ/mol
# Density = 2.377862 g / cm^3
# Si number density = 23.832861 Si / 1000 Ang^3
#
#
#
# Elastic Constant Matrix: (Units=GPa)
#
#
# Indices 1 2 3 4 5 6 
#
# 1 83.3559 13.2236 32.9106 0.0000 0.0000 0.0000
# 2 13.2236 81.3217 26.6137 0.0000 0.0000 0.0000
# 3 32.9106 26.6137 206.2512 0.0000 0.0000 0.0000
# 4 0.0000 0.0000 0.0000 18.5240 0.0000 0.0000
# 5 0.0000 0.0000 0.0000 0.0000 5.7580 0.0000
# 6 0.0000 0.0000 0.0000 0.0000 0.0000 13.1630
#
#
#
# Elastic Compliance Matrix: (Units=1/GPa)
#
#
# Indices 1 2 3 4 5 6 
#
# 1 0.012975 -0.001495 -0.001877 0.000000 0.000000 0.000000
# 2 -0.001495 0.013011 -0.001440 0.000000 0.000000 0.000000
# 3 -0.001877 -0.001440 0.005334 0.000000 0.000000 0.000000
# 4 0.000000 0.000000 0.000000 0.053984 0.000000 0.000000
# 5 0.000000 0.000000 0.000000 0.000000 0.173670 0.000000
# 6 0.000000 0.000000 0.000000 0.000000 0.000000 0.075970
#
#
# Mechanical properties :
#
#
# Convention : Reuss Voigt Hill
#
# Bulk Modulus (GPa) = 46.09551 57.38052 51.73802
# Shear Modulus (GPa) = 14.21251 27.36774 20.79013
#
# Velocity S-wave (km/s) = 2.44466 3.39236 2.95673
# Velocity P-wave (km/s) = 5.22988 6.28273 5.78032
#
# Compressibility (1/GPa) = 0.02169408
#
# Stress axis : x y z
#
# Youngs Moduli (GPa) = 77.06987 76.85577 187.48071
#
# Poissons Ratio (x) = 0.11494 0.35198
# Poissons Ratio (y) = 0.11526 0.27003
# Poissons Ratio (z) = 0.14469 0.11070
#
# Static dielectric constant tensor:
#      x y z
#    x 2.061280 0.000000 0.000000 
#    y 0.000000 1.904070 0.000000 
#    z 0.000000 0.000000 1.825300 
# 
# From -- ./inp_files/31805.got.cif
#   From: 2010.05.17/outbox.cif.g08.bks.cpg/sg58_16_cif.got.tgz:31805.got - 2010.06.03 14:20:14.
