data_PCOD9446086
_publ_section_title
;
Structure prediction by ZEFSAII (Michael W. Deem and Ramdas Pophale) SiO2 
 PCOD9446086
Probable space group: P N N M
;
_chemical_formula_sum "Si O2"
_cell_formula_units_Z 48
_cell_length_a 30.000000
_cell_length_b 9.000000
_cell_length_c 9.000000
_cell_angle_alpha 90.000000
_cell_angle_beta 90.000000
_cell_angle_gamma 90.000000
_cell_volume 2430.000000
_symmetry_space_group_name_H-M "P N N M"
_symmetry_group_IT_number 58
_symmetry_cell_setting 'orthorhombic'
loop_
_space_group_symop_operation_xyz
x,y,z
-x,-y,z
1/2+x,1/2-y,1/2-z
1/2-x,1/2+y,1/2-z
-x,-y,-z
x,y,-z
1/2-x,1/2+y,1/2+z
1/2+x,1/2-y,1/2+z
loop_
_atom_site_type_symbol
_atom_site_label
_atom_site_fract_x
_atom_site_fract_y
_atom_site_fract_z
Si Si1 0.905604 0.994854 0.671168
Si Si2 0.619866 0.970036 0.820558
Si Si3 0.554899 0.755358 0.325520
Si Si4 0.710254 0.098194 0.321253
Si Si5 0.959976 0.688360 0.329317
Si Si6 0.801863 0.922052 0.678665
O O1 0.907564 0.054688 0.500000
O O2 0.931509 0.839018 0.666620
O O3 0.852797 0.977252 0.711344
O O4 0.935761 0.084722 0.787096
O O5 0.667718 0.012412 0.751122
O O6 0.578348 0.076273 0.774390
O O7 0.598804 0.819876 0.758062
O O8 0.623622 0.973124 0.000000
O O9 0.556006 0.788220 0.500000
O O10 0.506688 0.803030 0.258781
O O11 0.705713 0.095162 0.500000
O O12 0.706538 0.265896 0.260377
O O13 0.759345 0.028564 0.285415
O O14 0.971651 0.649972 0.500000
O O15 0.801266 0.898231 0.500000
#
# Coordination Sequence:
#
# PCOD9446086 Si02
#       6
#     8   8   8   8   8   8
#     4  10  21  42  66  89 122 167 214 254 299 373
#     4  11  23  43  67  90 123 168 213 255 307 373
#     4  12  26  39  58  95 132 163 203 261 317 367
#     4  11  24  41  66  99 129 160 205 259 314 364
#     4  10  21  41  67  90 116 164 217 257 305 375
#     4  10  23  44  66  93 126 165 209 250 304 374
#
# _framework density 19.753086
#
# number of rings (size 3 to 8) (size 9 to 14) (size 15 to 20)
#    0.000    1.333    1.667    3.500    2.333    8.000 
#    0.000    0.000    0.000    0.000    0.000    0.000 
#    0.000    0.000    0.000    0.000    0.000    0.000 
#
# Total GULP energy -267760.830730 kJ/mol
# GULP energy per Si atom -5578.350640 kJ/mol
# Density = 1.970813 g / cm^3
# Si number density = 19.753086 Si / 1000 Ang^3
#
#
#
# Elastic Constant Matrix: (Units=GPa)
#
#
# Indices 1 2 3 4 5 6 
#
# 1 130.5743 0.3277 39.4674 0.0000 0.0000 0.0000
# 2 0.3277 29.9304 0.4680 0.0000 0.0000 0.0000
# 3 39.4674 0.4680 52.8333 0.0000 0.0000 0.0000
# 4 0.0000 0.0000 0.0000 24.4924 0.0000 0.0000
# 5 0.0000 0.0000 0.0000 0.0000 40.9174 0.0000
# 6 0.0000 0.0000 0.0000 0.0000 0.0000 41.8554
#
#
#
# Elastic Compliance Matrix: (Units=1/GPa)
#
#
# Indices 1 2 3 4 5 6 
#
# 1 0.009892 0.000007 -0.007390 0.000000 0.000000 0.000000
# 2 0.000007 0.033416 -0.000301 0.000000 0.000000 0.000000
# 3 -0.007390 -0.000301 0.024450 0.000000 0.000000 0.000000
# 4 0.000000 0.000000 0.000000 0.040829 0.000000 0.000000
# 5 0.000000 0.000000 0.000000 0.000000 0.024439 0.000000
# 6 0.000000 0.000000 0.000000 0.000000 0.000000 0.023892
#
#
# Mechanical properties :
#
#
# Convention : Reuss Voigt Hill
#
# Bulk Modulus (GPa) = 19.08749 32.65157 25.86953
# Shear Modulus (GPa) = 26.35059 32.99136 29.67098
#
# Velocity S-wave (km/s) = 3.65636 4.09123 3.87989
# Velocity P-wave (km/s) = 5.24493 6.23564 5.76162
#
# Compressibility (1/GPa) = 0.05239035
#
# Stress axis : x y z
#
# Youngs Moduli (GPa) = 101.09142 29.92621 40.89932
#
# Poissons Ratio (x) = -0.00022 0.30223
# Poissons Ratio (y) = -0.00073 0.01233
# Poissons Ratio (z) = 0.74702 0.00902
#
# Static dielectric constant tensor:
#      x y z
#    x 1.646090 0.000000 0.000000 
#    y 0.000000 1.840480 0.000000 
#    z 0.000000 0.000000 1.685970 
# 
# From -- ./inp_files/2965.got.cif
#   From: 2010.05.17/outbox.ucp.g08.bks.cvg/sg58_2_cif.got.tgz:2965.got - 2010.06.11 16:41:41.
