data_PCOD9446422
_publ_section_title
;
Structure prediction by ZEFSAII (Michael W. Deem and Ramdas Pophale) SiO2 
 PCOD9446422
Probable space group: P M M N
;
_chemical_formula_sum "Si O2"
_cell_formula_units_Z 56
_cell_length_a 27.104223
_cell_length_b 7.356994
_cell_length_c 13.474890
_cell_angle_alpha 90.000000
_cell_angle_beta 90.000000
_cell_angle_gamma 90.000000
_cell_volume 2686.968606
_symmetry_space_group_name_H-M "P M M N"
_symmetry_group_IT_number 59
_space_group.IT_coordinate_system_code '2'
_symmetry_cell_setting 'orthorhombic'
loop_
_space_group_symop_operation_xyz
x,y,z
1/2-x,1/2-y,z
1/2+x,-y,-z
-x,1/2+y,-z
-x,-y,-z
1/2+x,1/2+y,-z
1/2-x,y,z
x,1/2-y,z
loop_
_atom_site_type_symbol
_atom_site_label
_atom_site_fract_x
_atom_site_fract_y
_atom_site_fract_z
Si Si1 0.403740 0.971977 0.625063
Si Si2 0.192307 0.528321 0.238943
Si Si3 0.484703 0.030322 0.318890
Si Si4 0.374152 0.971768 0.838133
Si Si5 0.120193 0.959636 0.411086
Si Si6 0.516551 0.465897 0.110738
Si Si7 0.192909 0.528985 0.018171
O O1 0.404610 0.750000 0.623323
O O2 0.461532 0.025170 0.638524
O O3 0.372954 0.026208 0.722755
O O4 0.381237 0.038220 0.521860
O O5 0.250000 0.477068 0.252284
O O6 0.191243 0.750000 0.238523
O O7 0.156342 0.463502 0.326519
O O8 0.175363 0.471246 0.128089
O O9 0.482916 0.250000 0.324196
O O10 0.484064 0.969342 0.203478
O O11 0.436386 0.963153 0.374235
O O12 0.372293 0.750000 0.838270
O O13 0.428041 0.031776 0.874068
O O14 0.335962 0.034486 0.921105
O O15 0.135649 0.750000 0.422093
O O16 0.518593 0.250000 0.123627
O O17 0.500000 0.500000 0.000000
O O18 0.250000 0.478167 0.011147
O O19 0.190382 0.750000 0.017886
#
# Coordination Sequence:
#
# PCOD9446422 Si02
#       7
#     8   8   8   8   8   8   8
#     4   8  15  28  41  58  85 115 145 177 214 253
#     4   8  15  26  38  59  90 113 134 176 227 259
#     4   9  18  31  43  60  90 121 144 175 219 258
#     4   8  14  25  40  56  82 115 139 167 212 255
#     4  10  18  27  46  68  84 112 152 183 210 255
#     4   9  18  29  42  61  87 116 142 173 213 254
#     4   8  13  22  37  57  82 112 143 172 207 258
#
# _framework density 20.841329999999999
#
# number of rings (size 3 to 8) (size 9 to 14) (size 15 to 20)
#    0.000    3.429    0.000    3.000    2.000    0.571 
#    0.000    0.714    0.000    5.571    0.000    0.000 
#    0.000    0.571    0.000    0.000    0.000    0.000 
#
# Total GULP energy -312166.342824 kJ/mol
# GULP energy per Si atom -5574.398979 kJ/mol
# Density = 2.079389 g / cm^3
# Si number density = 20.841330 Si / 1000 Ang^3
#
#
#
# Elastic Constant Matrix: (Units=GPa)
#
#
# Indices 1 2 3 4 5 6 
#
# 1 66.3785 0.5284 99.5163 0.0000 0.0000 0.0000
# 2 0.5284 73.5191 2.9764 0.0000 0.0000 0.0000
# 3 99.5163 2.9764 249.0677 0.0000 0.0000 0.0000
# 4 0.0000 0.0000 0.0000 -1.8104 0.0000 0.0000
# 5 0.0000 0.0000 0.0000 0.0000 37.8910 0.0000
# 6 0.0000 0.0000 0.0000 0.0000 0.0000 1.8176
#
#
#
# Elastic Compliance Matrix: (Units=1/GPa)
#
#
# Indices 1 2 3 4 5 6 
#
# 1 0.037579 0.000338 -0.015019 0.000000 0.000000 0.000000
# 2 0.000338 0.013612 -0.000298 0.000000 0.000000 0.000000
# 3 -0.015019 -0.000298 0.010020 0.000000 0.000000 0.000000
# 4 0.000000 0.000000 0.000000 -0.552369 0.000000 0.000000
# 5 0.000000 0.000000 0.000000 0.000000 0.026391 0.000000
# 6 0.000000 0.000000 0.000000 0.000000 0.000000 0.550189
#
#
# Mechanical properties :
#
#
# Convention : Reuss Voigt Hill
#
# Bulk Modulus (GPa) = 31.99714 66.11194 49.05454
# Shear Modulus (GPa) = 39.74654 26.64259 33.19457
#
# Velocity S-wave (km/s) = 4.37178 3.57929 3.99523
# Velocity P-wave (km/s) = 6.39291 6.99086 6.69856
#
# Compressibility (1/GPa) = 0.03125279
#
# Stress axis : x y z
#
# Youngs Moduli (GPa) = 26.61026 73.46713 99.80534
#
# Poissons Ratio (x) = -0.02483 1.49899
# Poissons Ratio (y) = -0.00899 0.02971
# Poissons Ratio (z) = 0.39966 0.02187
#
# Static dielectric constant tensor:
#      x y z
#    x 1.703610 0.000000 0.000000 
#    y 0.000000 1.549330 0.000000 
#    z 0.000000 0.000000 1.825450 
# 
# From -- ./inp_files/16305.got.cif
#   From: 2010.05.17/outbox.cif.g08.bks.cpg/sg59_9_cif.got.tgz:16305.got - 2010.06.03 14:40:33.
