data_PCOD9446692
_publ_section_title
;
Structure prediction by ZEFSAII (Michael W. Deem and Ramdas Pophale) SiO2 
 PCOD9446692
Probable space group: P M M N
;
_chemical_formula_sum "Si O2"
_cell_formula_units_Z 40
_cell_length_a 9.108239
_cell_length_b 21.224279
_cell_length_c 12.805989
_cell_angle_alpha 90.000000
_cell_angle_beta 90.000000
_cell_angle_gamma 90.000000
_cell_volume 2475.600082
_symmetry_space_group_name_H-M "P M M N"
_symmetry_group_IT_number 59
_space_group.IT_coordinate_system_code '2'
_symmetry_cell_setting 'orthorhombic'
loop_
_space_group_symop_operation_xyz
x,y,z
1/2-x,1/2-y,z
1/2+x,-y,-z
-x,1/2+y,-z
-x,-y,-z
1/2+x,1/2+y,-z
1/2-x,y,z
x,1/2-y,z
loop_
_atom_site_type_symbol
_atom_site_label
_atom_site_fract_x
_atom_site_fract_y
_atom_site_fract_z
Si Si1 0.926130 0.176031 0.258552
Si Si2 0.924308 0.590223 0.569654
Si Si3 0.575913 0.554209 0.142087
Si Si4 0.924305 0.445882 0.639934
Si Si5 0.424548 0.588790 0.934051
O O1 0.750000 0.167988 0.271396
O O2 0.958838 0.250000 0.255413
O O3 0.966235 0.141373 0.150317
O O4 0.007036 0.141108 0.352835
O O5 0.750000 0.598595 0.558961
O O6 0.950258 0.520501 0.618353
O O7 0.001086 0.589777 0.456831
O O8 0.750000 0.563149 0.151584
O O9 0.495640 0.570677 0.249467
O O10 0.548864 0.479968 0.117378
O O11 0.511896 0.590641 0.042188
O O12 0.750000 0.435399 0.640784
O O13 0.250000 0.593217 0.955056
#
# Coordination Sequence:
#
# PCOD9446692 Si02
#       5
#     8   8   8   8   8
#     4  10  20  35  54  74 101 137 173 207 244 295
#     4  10  20  32  49  74 103 133 168 208 254 301
#     4  10  18  29  49  74 102 132 163 207 257 302
#     4  10  19  31  50  74 103 134 164 206 258 308
#     4   9  18  31  47  71 102 133 167 205 249 300
#
# _framework density 16.157696999999999
#
# number of rings (size 3 to 8) (size 9 to 14) (size 15 to 20)
#    0.000    2.200    2.000    1.800    0.000    3.600 
#    0.000    0.000    0.000    1.200    0.000    2.800 
#    0.000    0.000    0.000    0.000    0.000    0.000 
#
# Total GULP energy -223186.904778 kJ/mol
# GULP energy per Si atom -5579.672619 kJ/mol
# Density = 1.612092 g / cm^3
# Si number density = 16.157697 Si / 1000 Ang^3
#
#
#
# Elastic Constant Matrix: (Units=GPa)
#
#
# Indices 1 2 3 4 5 6 
#
# 1 60.9710 48.4831 86.6069 0.0000 0.0000 0.0000
# 2 48.4831 78.2426 66.7977 0.0000 0.0000 0.0000
# 3 86.6069 66.7977 185.1056 0.0000 0.0000 0.0000
# 4 0.0000 0.0000 0.0000 18.9558 0.0000 0.0000
# 5 0.0000 0.0000 0.0000 0.0000 35.3750 0.0000
# 6 0.0000 0.0000 0.0000 0.0000 0.0000 18.1170
#
#
#
# Elastic Compliance Matrix: (Units=1/GPa)
#
#
# Indices 1 2 3 4 5 6 
#
# 1 0.066818 -0.021266 -0.023589 0.000000 0.000000 0.000000
# 2 -0.021266 0.025239 0.000842 0.000000 0.000000 0.000000
# 3 -0.023589 0.000842 0.016135 0.000000 0.000000 0.000000
# 4 0.000000 0.000000 0.000000 0.052754 0.000000 0.000000
# 5 0.000000 0.000000 0.000000 0.000000 0.028269 0.000000
# 6 0.000000 0.000000 0.000000 0.000000 0.000000 0.055197
#
#
# Mechanical properties :
#
#
# Convention : Reuss Voigt Hill
#
# Bulk Modulus (GPa) = 49.58459 80.89939 65.24199
# Shear Modulus (GPa) = 14.74226 22.65165 18.69695
#
# Velocity S-wave (km/s) = 3.02387 3.74827 3.40539
# Velocity P-wave (km/s) = 6.55334 8.30121 7.47851
#
# Compressibility (1/GPa) = 0.02016755
#
# Stress axis : x y z
#
# Youngs Moduli (GPa) = 14.96592 39.62062 61.97591
#
# Poissons Ratio (x) = 0.84256 1.46195
# Poissons Ratio (y) = 0.31826 -0.05217
# Poissons Ratio (z) = 0.35303 -0.03335
#
# Static dielectric constant tensor:
#      x y z
#    x 1.534020 0.000000 0.000000 
#    y 0.000000 1.517160 0.000000 
#    z 0.000000 0.000000 1.523360 
# 
# From -- ./inp_files/13853.got.cif
#   From: 2010.05.17/outbox.cif.g08.bks.cpg/sg59_7_cif.got.tgz:13853.got - 2010.06.03 14:40:33.
