data_PCOD9446817
_publ_section_title
;
Structure prediction by ZEFSAII (Michael W. Deem and Ramdas Pophale) SiO2 
 PCOD9446817
Probable space group: P M M N
;
_chemical_formula_sum "Si O2"
_cell_formula_units_Z 64
_cell_length_a 7.793465
_cell_length_b 20.571683
_cell_length_c 20.449433
_cell_angle_alpha 90.000000
_cell_angle_beta 90.000000
_cell_angle_gamma 90.000000
_cell_volume 3278.549036
_symmetry_space_group_name_H-M "P M M N"
_symmetry_group_IT_number 59
_space_group.IT_coordinate_system_code '2'
_symmetry_cell_setting 'orthorhombic'
loop_
_space_group_symop_operation_xyz
x,y,z
1/2-x,1/2-y,z
1/2+x,-y,-z
-x,1/2+y,-z
-x,-y,-z
1/2+x,1/2+y,-z
1/2-x,y,z
x,1/2-y,z
loop_
_atom_site_type_symbol
_atom_site_label
_atom_site_fract_x
_atom_site_fract_y
_atom_site_fract_z
Si Si1 0.450493 0.384134 0.382865
Si Si2 0.454960 0.030641 0.653107
Si Si3 0.448954 0.421951 0.145910
Si Si4 0.956415 0.676710 0.960918
Si Si5 0.455928 0.074276 0.518554
Si Si6 0.957071 0.323076 0.888575
Si Si7 0.042099 0.942109 0.198894
Si Si8 0.949351 0.177606 0.252392
O O1 0.250000 0.366757 0.383744
O O2 0.466665 0.459062 0.358489
O O3 0.521042 0.383506 0.457274
O O4 0.537916 0.339841 0.328705
O O5 0.250000 0.022312 0.646882
O O6 0.513589 0.078092 0.593892
O O7 0.494497 0.055746 0.725063
O O8 0.250000 0.433643 0.128722
O O9 0.524089 0.491960 0.164150
O O10 0.456986 0.376874 0.210153
O O11 0.525480 0.378431 0.087665
O O12 0.750000 0.678758 0.952851
O O13 0.021206 0.750000 0.946136
O O14 0.995190 0.662384 0.036421
O O15 0.250000 0.081847 0.517533
O O16 0.500000 0.000000 0.500000
O O17 0.750000 0.322111 0.885053
O O18 0.019519 0.250000 0.873626
O O19 0.019159 0.378485 0.839444
O O20 0.250000 0.943328 0.196125
O O21 0.750000 0.175519 0.233274
O O22 0.017212 0.250000 0.239822
#
# Coordination Sequence:
#
# PCOD9446817 Si02
#       8
#     8   8   8   8   8   8   8   8
#     4  10  18  31  50  71  98 133 173 212 251 302
#     4  10  18  30  49  75 105 132 162 207 260 303
#     4  10  20  34  52  74 102 134 171 214 256 305
#     4   9  18  33  52  73  98 130 169 210 253 304
#     4   8  16  28  45  70  97 126 161 201 245 294
#     4   9  19  36  55  74  99 132 169 210 258 310
#     4  10  20  33  51  76 104 135 171 212 256 308
#     4  11  23  35  48  71 104 140 178 218 258 303
#
# _framework density 19.520831999999999
#
# number of rings (size 3 to 8) (size 9 to 14) (size 15 to 20)
#    0.000    2.375    1.250    1.500    0.000    4.000 
#    0.000    1.250    0.000    0.750    0.000    3.500 
#    0.000    0.000    0.000    0.000    0.000    0.000 
#
# Total GULP energy -356870.514738 kJ/mol
# GULP energy per Si atom -5576.101793 kJ/mol
# Density = 1.947640 g / cm^3
# Si number density = 19.520832 Si / 1000 Ang^3
#
#
#
# Elastic Constant Matrix: (Units=GPa)
#
#
# Indices 1 2 3 4 5 6 
#
# 1 29.4274 0.1064 -5.4952 0.0000 0.0000 0.0000
# 2 0.1064 91.3119 74.7776 0.0000 0.0000 0.0000
# 3 -5.4952 74.7776 136.5225 0.0000 0.0000 0.0000
# 4 0.0000 0.0000 0.0000 16.5125 0.0000 0.0000
# 5 0.0000 0.0000 0.0000 0.0000 21.7215 0.0000
# 6 0.0000 0.0000 0.0000 0.0000 0.0000 4.0017
#
#
#
# Elastic Compliance Matrix: (Units=1/GPa)
#
#
# Indices 1 2 3 4 5 6 
#
# 1 0.034467 -0.002133 0.002556 0.000000 0.000000 0.000000
# 2 -0.002133 0.019991 -0.011036 0.000000 0.000000 0.000000
# 3 0.002556 -0.011036 0.013472 0.000000 0.000000 0.000000
# 4 0.000000 0.000000 0.000000 0.060560 0.000000 0.000000
# 5 0.000000 0.000000 0.000000 0.000000 0.046037 0.000000
# 6 0.000000 0.000000 0.000000 0.000000 0.000000 0.249893
#
#
# Mechanical properties :
#
#
# Convention : Reuss Voigt Hill
#
# Bulk Modulus (GPa) = 21.41135 44.00440 32.70788
# Shear Modulus (GPa) = 10.84090 20.97199 15.90645
#
# Velocity S-wave (km/s) = 2.35914 3.28127 2.85765
# Velocity P-wave (km/s) = 4.29104 6.07839 5.26117
#
# Compressibility (1/GPa) = 0.04670420
#
# Stress axis : x y z
#
# Youngs Moduli (GPa) = 29.01340 50.02130 74.22619
#
# Poissons Ratio (x) = 0.10670 -0.18970
# Poissons Ratio (y) = 0.06189 0.81915
# Poissons Ratio (z) = -0.07415 0.55203
#
# Static dielectric constant tensor:
#      x y z
#    x 1.722530 0.000000 0.000000 
#    y 0.000000 1.675160 0.000000 
#    z 0.000000 0.000000 1.703400 
# 
# From -- ./inp_files/26331.got.cif
#   From: 2010.05.17/outbox.cif.g08.bks.cpg/sg59_14_cif.got.tgz:26331.got - 2010.06.03 14:40:33.
