data_PCOD9446812
_publ_section_title
;
Structure prediction by ZEFSAII (Michael W. Deem and Ramdas Pophale) SiO2 
 PCOD9446812
Probable space group: P M M N
;
_chemical_formula_sum "Si O2"
_cell_formula_units_Z 64
_cell_length_a 15.175699
_cell_length_b 7.447939
_cell_length_c 24.973268
_cell_angle_alpha 90.000000
_cell_angle_beta 90.000000
_cell_angle_gamma 90.000000
_cell_volume 2822.670555
_symmetry_space_group_name_H-M "P M M N"
_symmetry_group_IT_number 59
_space_group.IT_coordinate_system_code '2'
_symmetry_cell_setting 'orthorhombic'
loop_
_space_group_symop_operation_xyz
x,y,z
1/2-x,1/2-y,z
1/2+x,-y,-z
-x,1/2+y,-z
-x,-y,-z
1/2+x,1/2+y,-z
1/2-x,y,z
x,1/2-y,z
loop_
_atom_site_type_symbol
_atom_site_label
_atom_site_fract_x
_atom_site_fract_y
_atom_site_fract_z
Si Si1 0.849165 0.470104 0.368613
Si Si2 0.483507 0.455013 0.310046
Si Si3 0.601798 0.036259 0.487490
Si Si4 0.654795 0.032327 0.602401
Si Si5 0.348890 0.466597 0.028078
Si Si6 0.035581 0.956792 0.127051
Si Si7 0.348833 0.042133 0.224975
Si Si8 0.651627 0.530788 0.096240
O O1 0.750000 0.520331 0.354605
O O2 0.854075 0.250000 0.369323
O O3 0.870700 0.532192 0.429247
O O4 0.923245 0.534966 0.327360
O O5 0.501447 0.250000 0.292700
O O6 0.425083 0.455227 0.363904
O O7 0.420003 0.540638 0.265722
O O8 0.616710 0.250000 0.485385
O O9 0.650757 0.972182 0.540790
O O10 0.500000 0.000000 0.500000
O O11 0.750000 0.984059 0.626072
O O12 0.647121 0.250000 0.603466
O O13 0.250000 0.521372 0.045882
O O14 0.351754 0.250000 0.029341
O O15 0.424030 0.533842 0.067523
O O16 0.358532 0.521558 0.966230
O O17 0.029866 0.750000 0.143302
O O18 0.936019 0.031378 0.126868
O O19 0.106304 0.041255 0.166878
O O20 0.250000 0.964976 0.224890
O O21 0.340147 0.250000 0.241672
O O22 0.750000 0.475109 0.114133
O O23 0.650578 0.750000 0.097278
#
# Coordination Sequence:
#
# PCOD9446812 Si02
#       8
#     8   8   8   8   8   8   8   8
#     4   9  17  31  53  78 103 132 166 205 251 302
#     4  10  20  36  57  77  96 127 174 218 251 295
#     4  10  18  30  49  74 105 138 168 199 242 299
#     4  10  20  32  49  75 106 136 163 199 253 309
#     4   9  17  31  52  76 106 144 176 203 247 308
#     4  11  21  32  52  80 105 133 173 219 258 296
#     4  10  22  39  55  72 100 136 169 207 260 315
#     4   8  16  32  52  75 105 141 176 206 246 305
#
# _framework density 22.673563000000001
#
# number of rings (size 3 to 8) (size 9 to 14) (size 15 to 20)
#    0.000    2.375    1.250    2.625    0.000    4.750 
#    0.000    1.250    0.000    6.000    0.000    0.000 
#    0.000    0.000    0.000    0.000    0.000    0.000 
#
# Total GULP energy -357356.060506 kJ/mol
# GULP energy per Si atom -5583.688445 kJ/mol
# Density = 2.262196 g / cm^3
# Si number density = 22.673563 Si / 1000 Ang^3
#
#
#
# Elastic Constant Matrix: (Units=GPa)
#
#
# Indices 1 2 3 4 5 6 
#
# 1 195.0814 0.4352 46.3607 0.0000 0.0000 0.0000
# 2 0.4352 69.0623 0.9463 0.0000 0.0000 0.0000
# 3 46.3607 0.9463 51.5804 0.0000 0.0000 0.0000
# 4 0.0000 0.0000 0.0000 8.0953 0.0000 0.0000
# 5 0.0000 0.0000 0.0000 0.0000 29.2804 0.0000
# 6 0.0000 0.0000 0.0000 0.0000 0.0000 2.0253
#
#
#
# Elastic Compliance Matrix: (Units=1/GPa)
#
#
# Indices 1 2 3 4 5 6 
#
# 1 0.006518 0.000039 -0.005860 0.000000 0.000000 0.000000
# 2 0.000039 0.014484 -0.000301 0.000000 0.000000 0.000000
# 3 -0.005860 -0.000301 0.024659 0.000000 0.000000 0.000000
# 4 0.000000 0.000000 0.000000 0.123528 0.000000 0.000000
# 5 0.000000 0.000000 0.000000 0.000000 0.034153 0.000000
# 6 0.000000 0.000000 0.000000 0.000000 0.000000 0.493761
#
#
# Mechanical properties :
#
#
# Convention : Reuss Voigt Hill
#
# Bulk Modulus (GPa) = 29.92332 45.68982 37.80657
# Shear Modulus (GPa) = 6.93977 25.74565 16.34271
#
# Velocity S-wave (km/s) = 1.75139 3.37336 2.68765
# Velocity P-wave (km/s) = 4.16124 5.94707 5.13243
#
# Compressibility (1/GPa) = 0.03341875
#
# Stress axis : x y z
#
# Youngs Moduli (GPa) = 153.40969 69.04378 40.55258
#
# Poissons Ratio (x) = -0.00271 0.23762
# Poissons Ratio (y) = -0.00602 0.01221
# Poissons Ratio (z) = 0.89891 0.02078
#
# Static dielectric constant tensor:
#      x y z
#    x 1.858530 0.000000 0.000000 
#    y 0.000000 1.893760 0.000000 
#    z 0.000000 0.000000 1.824450 
# 
# From -- ./inp_files/32110.got.cif
#   From: 2010.05.17/outbox.cif.g08.bks.cpg/sg59_17_cif.got.tgz:32110.got - 2010.06.03 14:40:33.
