data_PCOD9446581
_publ_section_title
;
Structure prediction by ZEFSAII (Michael W. Deem and Ramdas Pophale) SiO2 
 PCOD9446581
Probable space group: P M M N
;
_chemical_formula_sum "Si O2"
_cell_formula_units_Z 64
_cell_length_a 19.990687
_cell_length_b 9.344925
_cell_length_c 20.941028
_cell_angle_alpha 90.000000
_cell_angle_beta 90.000000
_cell_angle_gamma 90.000000
_cell_volume 3912.024239
_symmetry_space_group_name_H-M "P M M N"
_symmetry_group_IT_number 59
_space_group.IT_coordinate_system_code '2'
_symmetry_cell_setting 'orthorhombic'
loop_
_space_group_symop_operation_xyz
x,y,z
1/2-x,1/2-y,z
1/2+x,-y,-z
-x,1/2+y,-z
-x,-y,-z
1/2+x,1/2+y,-z
1/2-x,y,z
x,1/2-y,z
loop_
_atom_site_type_symbol
_atom_site_label
_atom_site_fract_x
_atom_site_fract_y
_atom_site_fract_z
Si Si1 0.397556 0.584692 0.681166
Si Si2 0.327807 0.582024 0.928495
Si Si3 0.046263 0.917371 0.177383
Si Si4 0.073830 0.915235 0.428881
Si Si5 0.062131 0.578550 0.032762
Si Si6 0.440169 0.414689 0.303200
Si Si7 0.411505 0.084559 0.555066
Si Si8 0.885248 0.917170 0.191821
O O1 0.376164 0.750000 0.678368
O O2 0.478721 0.584488 0.688656
O O3 0.383131 0.499493 0.616117
O O4 0.370413 0.503195 0.743299
O O5 0.250000 0.562701 0.942698
O O6 0.339264 0.750000 0.912558
O O7 0.349234 0.487379 0.868422
O O8 0.373378 0.548418 0.989603
O O9 0.063208 0.750000 0.187111
O O10 0.068734 0.963557 0.106839
O O11 0.965285 0.927535 0.179465
O O12 0.073623 0.011274 0.235461
O O13 0.095178 0.750000 0.428468
O O14 0.992660 0.915095 0.436815
O O15 0.087863 0.994918 0.362462
O O16 0.102016 0.001602 0.489311
O O17 0.050056 0.750000 0.032417
O O18 0.000000 0.500000 0.000000
O O19 0.418563 0.250000 0.305284
O O20 0.390260 0.250000 0.553212
O O21 0.868763 0.750000 0.198819
#
# Coordination Sequence:
#
# PCOD9446581 Si02
#       8
#     8   8   8   8   8   8   8   8
#     4   9  16  25  37  54  77 106 142 182 223 266
#     4  10  21  35  50  69  94 123 153 188 234 286
#     4   9  17  28  42  62  85 110 143 185 229 271
#     4   9  15  22  32  46  70 105 141 178 219 264
#     4  10  19  32  50  70  92 118 152 192 234 281
#     4   9  16  24  35  53  76 105 140 179 221 266
#     4   9  15  22  32  48  71 102 142 183 219 260
#     4  10  18  29  45  64  86 113 147 188 230 272
#
# _framework density 16.359818000000001
#
# number of rings (size 3 to 8) (size 9 to 14) (size 15 to 20)
#    0.000    2.625    1.250    1.875    0.000    7.250 
#    0.000    0.000    0.000    0.000    0.000    0.000 
#    0.000    0.000    0.000    1.125    0.000   21.250 
#
# Total GULP energy -356714.041201 kJ/mol
# GULP energy per Si atom -5573.656894 kJ/mol
# Density = 1.632258 g / cm^3
# Si number density = 16.359818 Si / 1000 Ang^3
#
#
#
# Elastic Constant Matrix: (Units=GPa)
#
#
# Indices 1 2 3 4 5 6 
#
# 1 18.1749 29.3615 28.5681 0.0000 0.0000 0.0000
# 2 29.3615 140.7539 110.0360 0.0000 0.0000 0.0000
# 3 28.5681 110.0360 190.2622 0.0000 0.0000 0.0000
# 4 0.0000 0.0000 0.0000 32.8413 0.0000 0.0000
# 5 0.0000 0.0000 0.0000 0.0000 5.2160 0.0000
# 6 0.0000 0.0000 0.0000 0.0000 0.0000 7.5674
#
#
#
# Elastic Compliance Matrix: (Units=1/GPa)
#
#
# Indices 1 2 3 4 5 6 
#
# 1 0.085123 -0.014173 -0.004585 0.000000 0.000000 0.000000
# 2 -0.014173 0.015327 -0.006736 0.000000 0.000000 0.000000
# 3 -0.004585 -0.006736 0.009840 0.000000 0.000000 0.000000
# 4 0.000000 0.000000 0.000000 0.030449 0.000000 0.000000
# 5 0.000000 0.000000 0.000000 0.000000 0.191717 0.000000
# 6 0.000000 0.000000 0.000000 0.000000 0.000000 0.132145
#
#
# Mechanical properties :
#
#
# Convention : Reuss Voigt Hill
#
# Bulk Modulus (GPa) = 16.86248 76.12469 46.49358
# Shear Modulus (GPa) = 9.33955 21.20663 15.27309
#
# Velocity S-wave (km/s) = 2.39191 3.60427 3.05876
# Velocity P-wave (km/s) = 4.23768 7.99710 6.39967
#
# Compressibility (1/GPa) = 0.05930326
#
# Stress axis : x y z
#
# Youngs Moduli (GPa) = 11.74765 65.24339 101.62437
#
# Poissons Ratio (x) = 0.92468 0.46592
# Poissons Ratio (y) = 0.16650 0.68457
# Poissons Ratio (z) = 0.05386 0.43950
#
# Static dielectric constant tensor:
#      x y z
#    x 1.511550 0.000000 0.000000 
#    y 0.000000 1.550900 0.000000 
#    z 0.000000 0.000000 1.522560 
# 
# From -- ./inp_files/30908.got.cif
#   From: 2010.05.17/outbox.cif.g08.bks.cpg/sg59_16_cif.got.tgz:30908.got - 2010.06.03 14:40:33.
