data_PCOD9446262
_publ_section_title
;
Structure prediction by ZEFSAII (Michael W. Deem and Ramdas Pophale) SiO2 
 PCOD9446262
Probable space group: P M M N
;
_chemical_formula_sum "Si O2"
_cell_formula_units_Z 56
_cell_length_a 14.034536
_cell_length_b 20.351339
_cell_length_c 13.011336
_cell_angle_alpha 90.000000
_cell_angle_beta 90.000000
_cell_angle_gamma 90.000000
_cell_volume 3716.318604
_symmetry_space_group_name_H-M "P M M N"
_symmetry_group_IT_number 59
_space_group.IT_coordinate_system_code '2'
_symmetry_cell_setting 'orthorhombic'
loop_
_space_group_symop_operation_xyz
x,y,z
1/2-x,1/2-y,z
1/2+x,-y,-z
-x,1/2+y,-z
-x,-y,-z
1/2+x,1/2+y,-z
1/2-x,y,z
x,1/2-y,z
loop_
_atom_site_type_symbol
_atom_site_label
_atom_site_fract_x
_atom_site_fract_y
_atom_site_fract_z
Si Si1 0.639405 0.451396 0.976588
Si Si2 0.358484 0.328682 0.879460
Si Si3 0.051499 0.094677 0.062914
Si Si4 0.860835 0.428530 0.735833
Si Si5 0.862466 0.673867 0.528065
Si Si6 0.635549 0.581142 0.719909
Si Si7 0.018904 0.171895 0.679502
O O1 0.750000 0.446723 0.007789
O O2 0.605942 0.527041 0.967870
O O3 0.630871 0.424097 0.860052
O O4 0.561174 0.416649 0.047797
O O5 0.250000 0.353955 0.877956
O O6 0.354742 0.250000 0.879677
O O7 0.415217 0.347693 0.776646
O O8 0.411825 0.352958 0.980873
O O9 0.082022 0.107788 0.179475
O O10 0.750000 0.419673 0.709097
O O11 0.888197 0.503764 0.708105
O O12 0.927079 0.374263 0.684871
O O13 0.750000 0.666373 0.503922
O O14 0.876617 0.750000 0.560406
O O15 0.885947 0.624012 0.619725
O O16 0.923359 0.662524 0.425833
O O17 0.750000 0.584301 0.739000
O O18 0.996784 0.250000 0.688774
#
# Coordination Sequence:
#
# PCOD9446262 Si02
#       7
#     8   8   8   8   8   8   8
#     4   9  17  29  47  69  94 126 159 189 229 283
#     4  10  19  29  43  68  99 123 148 192 243 286
#     4  10  17  29  48  69  95 124 155 190 234 279
#     4   9  17  31  48  68  95 123 156 200 237 272
#     4   9  18  33  51  69  92 123 155 189 233 290
#     4   9  18  31  48  71  95 123 159 194 234 282
#     4  10  19  31  47  68  92 123 160 193 234 285
#
# _framework density 15.068675000000001
#
# number of rings (size 3 to 8) (size 9 to 14) (size 15 to 20)
#    0.000    2.571    1.429    2.571    0.000    3.143 
#    0.000    1.429    0.000    1.286    0.000    0.000 
#    0.000    0.000    0.000    0.000    0.000    0.000 
#
# Total GULP energy -312007.821939 kJ/mol
# GULP energy per Si atom -5571.568249 kJ/mol
# Density = 1.503438 g / cm^3
# Si number density = 15.068675 Si / 1000 Ang^3
#
#
#
# Elastic Constant Matrix: (Units=GPa)
#
#
# Indices 1 2 3 4 5 6 
#
# 1 95.8596 43.3152 51.4305 0.0000 0.0000 0.0000
# 2 43.3152 46.2713 48.5440 0.0000 0.0000 0.0000
# 3 51.4305 48.5440 84.9115 0.0000 0.0000 0.0000
# 4 0.0000 0.0000 0.0000 22.2650 0.0000 0.0000
# 5 0.0000 0.0000 0.0000 0.0000 24.4072 0.0000
# 6 0.0000 0.0000 0.0000 0.0000 0.0000 23.0883
#
#
#
# Elastic Compliance Matrix: (Units=1/GPa)
#
#
# Indices 1 2 3 4 5 6 
#
# 1 0.018431 -0.013846 -0.003248 0.000000 0.000000 0.000000
# 2 -0.013846 0.064402 -0.028432 0.000000 0.000000 0.000000
# 3 -0.003248 -0.028432 0.029998 0.000000 0.000000 0.000000
# 4 0.000000 0.000000 0.000000 0.044914 0.000000 0.000000
# 5 0.000000 0.000000 0.000000 0.000000 0.040972 0.000000
# 6 0.000000 0.000000 0.000000 0.000000 0.000000 0.043312
#
#
# Mechanical properties :
#
#
# Convention : Reuss Voigt Hill
#
# Bulk Modulus (GPa) = 45.91448 57.06908 51.49178
# Shear Modulus (GPa) = 14.69121 19.53561 17.11341
#
# Velocity S-wave (km/s) = 3.12581 3.60452 3.37366
# Velocity P-wave (km/s) = 6.60029 7.43493 7.03001
#
# Compressibility (1/GPa) = 0.02177962
#
# Stress axis : x y z
#
# Youngs Moduli (GPa) = 54.25659 15.52754 33.33501
#
# Poissons Ratio (x) = 0.21500 0.10826
# Poissons Ratio (y) = 0.75126 0.94778
# Poissons Ratio (z) = 0.17620 0.44148
#
# Static dielectric constant tensor:
#      x y z
#    x 1.500860 0.000000 0.000000 
#    y 0.000000 1.497920 0.000000 
#    z 0.000000 0.000000 1.484160 
# 
# From -- ./inp_files/16021.got.cif
#   From: 2010.05.17/outbox.cif.g08.bks.cpg/sg59_9_cif.got.tgz:16021.got - 2010.06.03 14:40:33.
