data_PCOD9446483
_publ_section_title
;
Structure prediction by ZEFSAII (Michael W. Deem and Ramdas Pophale) SiO2 
 PCOD9446483
Probable space group: P M M N
;
_chemical_formula_sum "Si O2"
_cell_formula_units_Z 48
_cell_length_a 14.330424
_cell_length_b 7.387065
_cell_length_c 21.658903
_cell_angle_alpha 90.000000
_cell_angle_beta 90.000000
_cell_angle_gamma 90.000000
_cell_volume 2292.806567
_symmetry_space_group_name_H-M "P M M N"
_symmetry_group_IT_number 59
_space_group.IT_coordinate_system_code '2'
_symmetry_cell_setting 'orthorhombic'
loop_
_space_group_symop_operation_xyz
x,y,z
1/2-x,1/2-y,z
1/2+x,-y,-z
-x,1/2+y,-z
-x,-y,-z
1/2+x,1/2+y,-z
1/2-x,y,z
x,1/2-y,z
loop_
_atom_site_type_symbol
_atom_site_label
_atom_site_fract_x
_atom_site_fract_y
_atom_site_fract_z
Si Si1 0.859483 0.967869 0.453424
Si Si2 0.523761 0.456819 0.333578
Si Si3 0.354460 0.463656 0.038226
Si Si4 0.357558 0.971757 0.781417
Si Si5 0.357215 0.028533 0.408987
Si Si6 0.951492 0.031511 0.090983
O O1 0.750000 0.012522 0.447443
O O2 0.867726 0.750000 0.450930
O O3 0.888930 0.027784 0.522157
O O4 0.915426 0.043999 0.396038
O O5 0.503684 0.250000 0.315047
O O6 0.583536 0.535276 0.277751
O O7 0.426080 0.538067 0.356017
O O8 0.250000 0.538097 0.047899
O O9 0.349580 0.250000 0.051634
O O10 0.386055 0.483229 0.966975
O O11 0.443317 0.535643 0.076816
O O12 0.250000 0.029855 0.778598
O O13 0.355937 0.750000 0.780580
O O14 0.407093 0.028589 0.844781
O O15 0.250000 0.975502 0.400722
O O16 0.359559 0.250000 0.409278
O O17 0.955429 0.250000 0.092369
#
# Coordination Sequence:
#
# PCOD9446483 Si02
#       6
#     8   8   8   8   8   8
#     4   9  17  29  44  62  86 114 141 174 220 266
#     4  10  18  28  45  66  86 111 145 182 214 248
#     4   9  17  29  46  69  93 112 139 185 224 243
#     4   9  17  28  42  63  90 115 141 176 214 252
#     4   8  15  28  44  62  85 112 142 178 220 261
#     4   9  17  30  47  65  88 121 151 170 205 263
#
# _framework density 20.935041999999999
#
# number of rings (size 3 to 8) (size 9 to 14) (size 15 to 20)
#    0.000    3.000    0.000    2.500    0.000    2.000 
#    0.000    1.667    0.000    9.500    0.000    0.000 
#    0.000    2.667    0.000    0.000    0.000    0.000 
#
# Total GULP energy -267856.114769 kJ/mol
# GULP energy per Si atom -5580.335724 kJ/mol
# Density = 2.088739 g / cm^3
# Si number density = 20.935042 Si / 1000 Ang^3
#
#
#
# Elastic Constant Matrix: (Units=GPa)
#
#
# Indices 1 2 3 4 5 6 
#
# 1 149.3077 -0.0932 87.8140 0.0000 0.0000 0.0000
# 2 -0.0932 70.6792 -4.1589 0.0000 0.0000 0.0000
# 3 87.8140 -4.1589 136.2061 0.0000 0.0000 0.0000
# 4 0.0000 0.0000 0.0000 -14.2202 0.0000 0.0000
# 5 0.0000 0.0000 0.0000 0.0000 26.6845 0.0000
# 6 0.0000 0.0000 0.0000 0.0000 0.0000 2.9343
#
#
#
# Elastic Compliance Matrix: (Units=1/GPa)
#
#
# Indices 1 2 3 4 5 6 
#
# 1 0.010799 -0.000396 -0.006975 0.000000 0.000000 0.000000
# 2 -0.000396 0.014188 0.000689 0.000000 0.000000 0.000000
# 3 -0.006975 0.000689 0.011859 0.000000 0.000000 0.000000
# 4 0.000000 0.000000 0.000000 -0.070323 0.000000 0.000000
# 5 0.000000 0.000000 0.000000 0.000000 0.037475 0.000000
# 6 0.000000 0.000000 0.000000 0.000000 0.000000 0.340802
#
#
# Mechanical properties :
#
#
# Convention : Reuss Voigt Hill
#
# Bulk Modulus (GPa) = 42.58397 58.14631 50.36514
# Shear Modulus (GPa) = 13.66146 21.25512 17.45829
#
# Velocity S-wave (km/s) = 2.55730 3.18982 2.89091
# Velocity P-wave (km/s) = 5.39490 6.43440 5.93744
#
# Compressibility (1/GPa) = 0.02348301
#
# Stress axis : x y z
#
# Youngs Moduli (GPa) = 92.59787 70.48000 84.32082
#
# Poissons Ratio (x) = 0.02792 0.58810
# Poissons Ratio (y) = 0.03668 -0.05807
# Poissons Ratio (z) = 0.64583 -0.04854
#
# Static dielectric constant tensor:
#      x y z
#    x 1.764380 0.000000 0.000000 
#    y 0.000000 1.801910 0.000000 
#    z 0.000000 0.000000 1.705590 
# 
# From -- ./inp_files/26891.got.cif
#   From: 2010.05.17/outbox.cif.g08.bks.cpg/sg59_14_cif.got.tgz:26891.got - 2010.06.03 14:40:33.
