data_PCOD9446884
_publ_section_title
;
Structure prediction by ZEFSAII (Michael W. Deem and Ramdas Pophale) SiO2 
 PCOD9446884
Probable space group: P M M N
;
_chemical_formula_sum "Si O2"
_cell_formula_units_Z 48
_cell_length_a 19.182981
_cell_length_b 14.508437
_cell_length_c 6.983236
_cell_angle_alpha 90.000000
_cell_angle_beta 90.000000
_cell_angle_gamma 90.000000
_cell_volume 1943.539825
_symmetry_space_group_name_H-M "P M M N"
_symmetry_group_IT_number 59
_space_group.IT_coordinate_system_code '2'
_symmetry_cell_setting 'orthorhombic'
loop_
_space_group_symop_operation_xyz
x,y,z
1/2-x,1/2-y,z
1/2+x,-y,-z
-x,1/2+y,-z
-x,-y,-z
1/2+x,1/2+y,-z
1/2-x,y,z
x,1/2-y,z
loop_
_atom_site_type_symbol
_atom_site_label
_atom_site_fract_x
_atom_site_fract_y
_atom_site_fract_z
Si Si1 0.674203 0.955850 0.413403
Si Si2 0.331569 0.250000 0.442275
Si Si3 0.825870 0.583912 0.985492
Si Si4 0.917134 0.750000 0.947014
Si Si5 0.944551 0.250000 0.217700
Si Si6 0.953938 0.450737 0.282522
Si Si7 0.336256 0.750000 0.103069
Si Si8 0.412799 0.938051 0.172377
O O1 0.750000 0.981015 0.496002
O O2 0.660387 0.847519 0.450753
O O3 0.605477 0.016256 0.429074
O O4 0.682635 0.967789 0.183615
O O5 0.250000 0.250000 0.387344
O O6 0.385121 0.250000 0.267335
O O7 0.750000 0.623827 0.938342
O O8 0.883700 0.659352 0.030546
O O9 0.855211 0.520133 0.818285
O O10 0.999226 0.750000 0.955860
O O11 0.964626 0.342827 0.330434
O O12 0.868214 0.250000 0.117275
O O13 0.016475 0.524952 0.272207
O O14 0.932992 0.440679 0.056387
O O15 0.250000 0.750000 0.107163
O O16 0.371736 0.841471 0.198123
#
# Coordination Sequence:
#
# PCOD9446884 Si02
#       8
#     8   4   8   4   4   8   4   8
#     4   9  19  34  54  79 110 144 184 228 273 329
#     4  10  21  37  52  76 111 142 175 228 285 331
#     4  10  18  30  52  79 105 137 180 223 267 326
#     4  12  21  33  52  80 108 143 178 222 277 334
#     4  10  20  33  51  75 112 146 176 231 271 326
#     4   9  17  31  50  76 104 144 177 218 273 322
#     4  10  20  31  47  75 111 149 179 219 275 325
#     4   9  17  29  48  75 109 137 172 221 271 316
#
# _framework density 24.697205
#
# number of rings (size 3 to 8) (size 9 to 14) (size 15 to 20)
#    0.000    2.333    1.667    1.750    2.333    6.000 
#    0.000    0.833    0.000    0.000    0.000    0.000 
#    0.000    0.333    0.000    0.000    0.000    0.000 
#
# Total GULP energy -267554.463861 kJ/mol
# GULP energy per Si atom -5574.051330 kJ/mol
# Density = 2.464099 g / cm^3
# Si number density = 24.697205 Si / 1000 Ang^3
#
#
#
# Elastic Constant Matrix: (Units=GPa)
#
#
# Indices 1 2 3 4 5 6 
#
# 1 162.9029 72.0502 22.4737 0.0000 0.0000 0.0000
# 2 72.0502 143.6572 -6.3080 0.0000 0.0000 0.0000
# 3 22.4737 -6.3080 38.0583 0.0000 0.0000 0.0000
# 4 0.0000 0.0000 0.0000 14.2303 0.0000 0.0000
# 5 0.0000 0.0000 0.0000 0.0000 39.3684 0.0000
# 6 0.0000 0.0000 0.0000 0.0000 0.0000 71.0563
#
#
#
# Elastic Compliance Matrix: (Units=1/GPa)
#
#
# Indices 1 2 3 4 5 6 
#
# 1 0.009143 -0.004858 -0.006204 0.000000 0.000000 0.000000
# 2 -0.004858 0.009593 0.004459 0.000000 0.000000 0.000000
# 3 -0.006204 0.004459 0.030678 0.000000 0.000000 0.000000
# 4 0.000000 0.000000 0.000000 0.070273 0.000000 0.000000
# 5 0.000000 0.000000 0.000000 0.000000 0.025401 0.000000
# 6 0.000000 0.000000 0.000000 0.000000 0.000000 0.014073
#
#
# Mechanical properties :
#
#
# Convention : Reuss Voigt Hill
#
# Bulk Modulus (GPa) = 27.61863 57.89449 42.75656
# Shear Modulus (GPa) = 27.10930 42.02450 34.56690
#
# Velocity S-wave (km/s) = 3.31670 4.12951 3.74522
# Velocity P-wave (km/s) = 5.08670 6.79924 6.00434
#
# Compressibility (1/GPa) = 0.03620745
#
# Stress axis : x y z
#
# Youngs Moduli (GPa) = 109.36979 104.23846 32.59640
#
# Poissons Ratio (x) = 0.50641 0.20224
# Poissons Ratio (y) = 0.53134 -0.14534
# Poissons Ratio (z) = 0.67857 -0.46478
#
# Static dielectric constant tensor:
#      x y z
#    x 2.059070 0.000000 0.000000 
#    y 0.000000 2.089590 0.000000 
#    z 0.000000 0.000000 2.023720 
# 
# From -- ./inp_files/10305.got.cif
#   From: 2010.05.17/outbox.cif.g08.bks.cpg/sg59_6_cif.got.tgz:10305.got - 2010.06.03 14:40:33.
