data_PCOD9446713
_publ_section_title
;
Structure prediction by ZEFSAII (Michael W. Deem and Ramdas Pophale) SiO2 
 PCOD9446713
Probable space group: P M M N
;
_chemical_formula_sum "Si O2"
_cell_formula_units_Z 48
_cell_length_a 19.067119
_cell_length_b 14.030970
_cell_length_c 9.768620
_cell_angle_alpha 90.000000
_cell_angle_beta 90.000000
_cell_angle_gamma 90.000000
_cell_volume 2613.400615
_symmetry_space_group_name_H-M "P M M N"
_symmetry_group_IT_number 59
_space_group.IT_coordinate_system_code '2'
_symmetry_cell_setting 'orthorhombic'
loop_
_space_group_symop_operation_xyz
x,y,z
1/2-x,1/2-y,z
1/2+x,-y,-z
-x,1/2+y,-z
-x,-y,-z
1/2+x,1/2+y,-z
1/2-x,y,z
x,1/2-y,z
loop_
_atom_site_type_symbol
_atom_site_label
_atom_site_fract_x
_atom_site_fract_y
_atom_site_fract_z
Si Si1 0.395774 0.936216 0.134883
Si Si2 0.073981 0.988656 0.577085
Si Si3 0.451890 0.360373 0.776736
Si Si4 0.402269 0.145429 0.077749
Si Si5 0.066852 0.857756 0.844256
Si Si6 0.332253 0.643181 0.393261
O O1 0.475760 0.917042 0.188939
O O2 0.347492 0.874157 0.233184
O O3 0.374906 0.047444 0.141468
O O4 0.396867 0.904222 0.976922
O O5 0.073233 0.917934 0.707035
O O6 0.127676 0.940679 0.472516
O O7 0.085590 0.091085 0.648042
O O8 0.000000 0.000000 0.500000
O O9 0.470333 0.250000 0.753010
O O10 0.404645 0.364521 0.913008
O O11 0.372443 0.250000 0.113896
O O12 0.484399 0.146817 0.118838
O O13 0.092448 0.750000 0.825508
O O14 0.250000 0.638984 0.421429
O O15 0.358070 0.750000 0.430563
#
# Coordination Sequence:
#
# PCOD9446713 Si02
#       6
#     8   8   8   8   8   8
#     4  11  17  35  56  80 112 151 190 235 291 347
#     4  12  21  34  56  86 118 154 198 242 291 349
#     4  10  18  30  53  86 117 144 185 238 291 341
#     4   9  16  28  51  85 118 141 175 237 296 336
#     4  10  18  29  51  82 113 145 190 242 287 336
#     4  11  25  42  58  81 119 161 194 237 305 367
#
# _framework density 18.366873999999999
#
# number of rings (size 3 to 8) (size 9 to 14) (size 15 to 20)
#    0.000    1.500    5.000    4.000    0.000    0.667 
#    0.000    1.667    0.000    5.000    0.000    2.333 
#    0.000    0.000    0.000    0.000    0.000    0.000 
#
# Total GULP energy -267566.840024 kJ/mol
# GULP energy per Si atom -5574.309167 kJ/mol
# Density = 1.832507 g / cm^3
# Si number density = 18.366874 Si / 1000 Ang^3
#
#
#
# Elastic Constant Matrix: (Units=GPa)
#
#
# Indices 1 2 3 4 5 6 
#
# 1 28.6636 13.6406 12.9429 0.0000 0.0000 0.0000
# 2 13.6406 141.0562 29.9725 0.0000 0.0000 0.0000
# 3 12.9429 29.9725 90.6614 0.0000 0.0000 0.0000
# 4 0.0000 0.0000 0.0000 26.8136 0.0000 0.0000
# 5 0.0000 0.0000 0.0000 0.0000 8.9437 0.0000
# 6 0.0000 0.0000 0.0000 0.0000 0.0000 14.1142
#
#
#
# Elastic Compliance Matrix: (Units=1/GPa)
#
#
# Indices 1 2 3 4 5 6 
#
# 1 0.038244 -0.002730 -0.004557 0.000000 0.000000 0.000000
# 2 -0.002730 0.007820 -0.002196 0.000000 0.000000 0.000000
# 3 -0.004557 -0.002196 0.012406 0.000000 0.000000 0.000000
# 4 0.000000 0.000000 0.000000 0.037295 0.000000 0.000000
# 5 0.000000 0.000000 0.000000 0.000000 0.111811 0.000000
# 6 0.000000 0.000000 0.000000 0.000000 0.000000 0.070851
#
#
# Mechanical properties :
#
#
# Convention : Reuss Voigt Hill
#
# Bulk Modulus (GPa) = 25.31307 41.49923 33.40615
# Shear Modulus (GPa) = 16.09990 23.56264 19.83127
#
# Velocity S-wave (km/s) = 2.96391 3.58563 3.28949
# Velocity P-wave (km/s) = 5.05221 6.30761 5.71449
#
# Compressibility (1/GPa) = 0.03950529
#
# Stress axis : x y z
#
# Youngs Moduli (GPa) = 26.14756 127.87913 80.60307
#
# Poissons Ratio (x) = 0.34911 0.36733
# Poissons Ratio (y) = 0.07138 0.17696
# Poissons Ratio (z) = 0.11916 0.28076
#
# Static dielectric constant tensor:
#      x y z
#    x 1.622050 0.000000 0.000000 
#    y 0.000000 1.688250 0.000000 
#    z 0.000000 0.000000 1.665870 
# 
# From -- ./inp_files/9055.got.cif
#   From: 2010.05.17/outbox.cif.g08.bks.cpg/sg59_5_cif.got.tgz:9055.got - 2010.06.03 14:40:33.
