data_PCOD9446269
_publ_section_title
;
Structure prediction by ZEFSAII (Michael W. Deem and Ramdas Pophale) SiO2 
 PCOD9446269
Probable space group: P M M N
;
_chemical_formula_sum "Si O2"
_cell_formula_units_Z 64
_cell_length_a 7.510139
_cell_length_b 30.782798
_cell_length_c 12.824976
_cell_angle_alpha 90.000000
_cell_angle_beta 90.000000
_cell_angle_gamma 90.000000
_cell_volume 2964.917604
_symmetry_space_group_name_H-M "P M M N"
_symmetry_group_IT_number 59
_space_group.IT_coordinate_system_code '2'
_symmetry_cell_setting 'orthorhombic'
loop_
_space_group_symop_operation_xyz
x,y,z
1/2-x,1/2-y,z
1/2+x,-y,-z
-x,1/2+y,-z
-x,-y,-z
1/2+x,1/2+y,-z
1/2-x,y,z
x,1/2-y,z
loop_
_atom_site_type_symbol
_atom_site_label
_atom_site_fract_x
_atom_site_fract_y
_atom_site_fract_z
Si Si1 0.963603 0.084344 0.122373
Si Si2 0.532072 0.703206 0.604658
Si Si3 0.045228 0.702934 0.067550
Si Si4 0.543385 0.817137 0.835709
Si Si5 0.041473 0.034316 0.321815
Si Si6 0.534992 0.437667 0.679954
Si Si7 0.038769 0.389447 0.468877
Si Si8 0.531888 0.393441 0.892864
O O1 0.750000 0.084505 0.123969
O O2 0.027953 0.130669 0.166674
O O3 0.026726 0.047216 0.200464
O O4 0.022005 0.083974 0.001710
O O5 0.750000 0.702816 0.603817
O O6 0.476047 0.750000 0.561073
O O7 0.476632 0.700214 0.725827
O O8 0.469066 0.659117 0.550018
O O9 0.250000 0.703710 0.103226
O O10 0.964713 0.750000 0.094793
O O11 0.968721 0.656857 0.105665
O O12 0.045886 0.698654 0.941707
O O13 0.750000 0.805035 0.845226
O O14 0.250000 0.031922 0.349185
O O15 0.964136 0.073683 0.390598
O O16 0.966221 0.986424 0.340428
O O17 0.750000 0.439920 0.685570
O O18 0.487532 0.406378 0.585194
O O19 0.473420 0.418764 0.790515
O O20 0.250000 0.386848 0.447270
O O21 0.750000 0.392201 0.894011
#
# Coordination Sequence:
#
# PCOD9446269 Si02
#       8
#     8   8   8   8   8   8   8   8
#     4  10  19  32  53  79 108 139 170 208 260 320
#     4   9  17  30  50  74 102 137 168 201 257 318
#     4   9  17  30  49  73 102 137 175 213 256 307
#     4  10  17  29  49  75 108 139 169 209 259 316
#     4  10  20  35  55  80 106 135 172 220 272 318
#     4  10  21  37  56  75 101 139 183 222 262 313
#     4  10  20  36  54  75 106 135 173 220 265 315
#     4   8  17  34  51  72 104 139 172 211 260 310
#
# _framework density 21.585761000000002
#
# number of rings (size 3 to 8) (size 9 to 14) (size 15 to 20)
#    0.000    2.500    1.250    2.250    0.000    2.250 
#    0.000    3.750    0.000    2.625    0.000    0.000 
#    0.000    0.000    0.000    0.000    0.000    0.000 
#
# Total GULP energy -357234.261804 kJ/mol
# GULP energy per Si atom -5581.785341 kJ/mol
# Density = 2.153663 g / cm^3
# Si number density = 21.585761 Si / 1000 Ang^3
#
#
#
# Elastic Constant Matrix: (Units=GPa)
#
#
# Indices 1 2 3 4 5 6 
#
# 1 50.0810 -3.9008 -16.0857 0.0000 0.0000 0.0000
# 2 -3.9008 163.3908 66.9503 0.0000 0.0000 0.0000
# 3 -16.0857 66.9503 90.1564 0.0000 0.0000 0.0000
# 4 0.0000 0.0000 0.0000 22.6964 0.0000 0.0000
# 5 0.0000 0.0000 0.0000 0.0000 16.7394 0.0000
# 6 0.0000 0.0000 0.0000 0.0000 0.0000 2.1794
#
#
#
# Elastic Compliance Matrix: (Units=1/GPa)
#
#
# Indices 1 2 3 4 5 6 
#
# 1 0.021440 -0.001517 0.004952 0.000000 0.000000 0.000000
# 2 -0.001517 0.008905 -0.006883 0.000000 0.000000 0.000000
# 3 0.004952 -0.006883 0.017087 0.000000 0.000000 0.000000
# 4 0.000000 0.000000 0.000000 0.044060 0.000000 0.000000
# 5 0.000000 0.000000 0.000000 0.000000 0.059739 0.000000
# 6 0.000000 0.000000 0.000000 0.000000 0.000000 0.458831
#
#
# Mechanical properties :
#
#
# Convention : Reuss Voigt Hill
#
# Bulk Modulus (GPa) = 24.67029 44.17287 34.42158
# Shear Modulus (GPa) = 7.93059 25.43402 16.68230
#
# Velocity S-wave (km/s) = 1.91884 3.43633 2.78301
# Velocity P-wave (km/s) = 4.04513 6.02103 5.12913
#
# Compressibility (1/GPa) = 0.04053458
#
# Stress axis : x y z
#
# Youngs Moduli (GPa) = 46.64170 112.30262 58.52443
#
# Poissons Ratio (x) = 0.17040 -0.28982
# Poissons Ratio (y) = 0.07077 0.40284
# Poissons Ratio (z) = -0.23097 0.77300
#
# Static dielectric constant tensor:
#      x y z
#    x 1.808530 0.000000 0.000000 
#    y 0.000000 1.838880 0.000000 
#    z 0.000000 0.000000 1.737320 
# 
# From -- ./inp_files/15060.got.cif
#   From: 2010.05.17/outbox.cif.g08.bks.cpg/sg59_8_cif.got.tgz:15060.got - 2010.06.03 14:40:33.
