data_PCOD9446242
_publ_section_title
;
Structure prediction by ZEFSAII (Michael W. Deem and Ramdas Pophale) SiO2 
 PCOD9446242
Probable space group: P M M N
;
_chemical_formula_sum "Si O2"
_cell_formula_units_Z 48
_cell_length_a 8.674291
_cell_length_b 21.980665
_cell_length_c 15.697666
_cell_angle_alpha 90.000000
_cell_angle_beta 90.000000
_cell_angle_gamma 90.000000
_cell_volume 2993.021932
_symmetry_space_group_name_H-M "P M M N"
_symmetry_group_IT_number 59
_space_group.IT_coordinate_system_code '2'
_symmetry_cell_setting 'orthorhombic'
loop_
_space_group_symop_operation_xyz
x,y,z
1/2-x,1/2-y,z
1/2+x,-y,-z
-x,1/2+y,-z
-x,-y,-z
1/2+x,1/2+y,-z
1/2-x,y,z
x,1/2-y,z
loop_
_atom_site_type_symbol
_atom_site_label
_atom_site_fract_x
_atom_site_fract_y
_atom_site_fract_z
Si Si1 0.564737 0.540246 0.807458
Si Si2 0.433974 0.910967 0.444254
Si Si3 0.434115 0.567461 0.979645
Si Si4 0.064584 0.094033 0.847941
Si Si5 0.935421 0.546458 0.615450
Si Si6 0.064062 0.319695 0.692431
O O1 0.750000 0.538622 0.815105
O O2 0.494855 0.579514 0.884601
O O3 0.502332 0.471269 0.818381
O O4 0.522905 0.561657 0.712511
O O5 0.250000 0.908004 0.441542
O O6 0.490835 0.913159 0.541507
O O7 0.502939 0.857338 0.387903
O O8 0.481920 0.976283 0.403628
O O9 0.250000 0.566205 0.981331
O O10 0.500000 0.500000 0.000000
O O11 0.499173 0.606816 0.057722
O O12 0.250000 0.089479 0.852046
O O13 0.019569 0.144079 0.778191
O O14 0.750000 0.549436 0.607771
O O15 0.250000 0.319871 0.689415
O O16 0.010743 0.250000 0.692944
#
# Coordination Sequence:
#
# PCOD9446242 Si02
#       6
#     8   8   8   8   8   8
#     4  10  17  28  45  67  95 123 154 187 228 279
#     4  10  19  31  47  69  94 123 159 198 239 284
#     4  10  18  27  41  63  92 122 152 184 226 274
#     4  10  18  29  45  64  90 123 157 192 232 276
#     4   9  18  30  46  68  96 127 155 190 239 290
#     4  10  21  35  50  68  93 127 164 200 238 282
#
# _framework density 16.037303000000001
#
# number of rings (size 3 to 8) (size 9 to 14) (size 15 to 20)
#    0.000    2.167    1.667    5.000    0.000    3.000 
#    0.000    0.000    0.000    0.000    0.000    1.167 
#    0.000    4.000    0.000    0.000    0.000    0.000 
#
# Total GULP energy -267607.453609 kJ/mol
# GULP energy per Si atom -5575.155284 kJ/mol
# Density = 1.600080 g / cm^3
# Si number density = 16.037303 Si / 1000 Ang^3
#
#
#
# Elastic Constant Matrix: (Units=GPa)
#
#
# Indices 1 2 3 4 5 6 
#
# 1 54.5922 21.6773 47.4391 0.0000 0.0000 0.0000
# 2 21.6773 67.3077 57.8841 0.0000 0.0000 0.0000
# 3 47.4391 57.8841 179.2494 0.0000 0.0000 0.0000
# 4 0.0000 0.0000 0.0000 14.2348 0.0000 0.0000
# 5 0.0000 0.0000 0.0000 0.0000 27.5907 0.0000
# 6 0.0000 0.0000 0.0000 0.0000 0.0000 14.6530
#
#
#
# Elastic Compliance Matrix: (Units=1/GPa)
#
#
# Indices 1 2 3 4 5 6 
#
# 1 0.024268 -0.003174 -0.005398 0.000000 0.000000 0.000000
# 2 -0.003174 0.020985 -0.005936 0.000000 0.000000 0.000000
# 3 -0.005398 -0.005936 0.008924 0.000000 0.000000 0.000000
# 4 0.000000 0.000000 0.000000 0.070250 0.000000 0.000000
# 5 0.000000 0.000000 0.000000 0.000000 0.036244 0.000000
# 6 0.000000 0.000000 0.000000 0.000000 0.000000 0.068246
#
#
# Mechanical properties :
#
#
# Convention : Reuss Voigt Hill
#
# Bulk Modulus (GPa) = 39.74378 61.68334 50.71356
# Shear Modulus (GPa) = 18.77433 22.90561 20.83997
#
# Velocity S-wave (km/s) = 3.42521 3.78335 3.60873
# Velocity P-wave (km/s) = 6.36228 7.59150 7.00391
#
# Compressibility (1/GPa) = 0.02516117
#
# Stress axis : x y z
#
# Youngs Moduli (GPa) = 41.20573 47.65384 112.05217
#
# Poissons Ratio (x) = 0.15125 0.60484
# Poissons Ratio (y) = 0.13078 0.66520
# Poissons Ratio (z) = 0.22242 0.28290
#
# Static dielectric constant tensor:
#      x y z
#    x 1.538280 0.000000 0.000000 
#    y 0.000000 1.504600 0.000000 
#    z 0.000000 0.000000 1.579080 
# 
# From -- ./inp_files/20299.got.cif
#   From: 2010.05.17/outbox.cif.g08.bks.cpg/sg59_11_cif.got.tgz:20299.got - 2010.06.03 14:40:33.
