data_PCOD9446172
_publ_section_title
;
Structure prediction by ZEFSAII (Michael W. Deem and Ramdas Pophale) SiO2 
 PCOD9446172
Probable space group: P M M N
;
_chemical_formula_sum "Si O2"
_cell_formula_units_Z 56
_cell_length_a 8.593657
_cell_length_b 22.897492
_cell_length_c 18.455767
_cell_angle_alpha 90.000000
_cell_angle_beta 90.000000
_cell_angle_gamma 90.000000
_cell_volume 3631.600191
_symmetry_space_group_name_H-M "P M M N"
_symmetry_group_IT_number 59
_space_group.IT_coordinate_system_code '2'
_symmetry_cell_setting 'orthorhombic'
loop_
_space_group_symop_operation_xyz
x,y,z
1/2-x,1/2-y,z
1/2+x,-y,-z
-x,1/2+y,-z
-x,-y,-z
1/2+x,1/2+y,-z
1/2-x,y,z
x,1/2-y,z
loop_
_atom_site_type_symbol
_atom_site_label
_atom_site_fract_x
_atom_site_fract_y
_atom_site_fract_z
Si Si1 0.436674 0.968241 0.823302
Si Si2 0.935317 0.596762 0.376663
Si Si3 0.935567 0.436079 0.477818
Si Si4 0.062740 0.563375 0.976896
Si Si5 0.061874 0.682465 0.256270
Si Si6 0.934994 0.530763 0.667550
Si Si7 0.561755 0.095283 0.870098
O O1 0.250000 0.966587 0.816103
O O2 0.486102 0.929596 0.893305
O O3 0.513167 0.951092 0.747611
O O4 0.487664 0.034857 0.841606
O O5 0.750000 0.592183 0.378665
O O6 0.999791 0.604454 0.458214
O O7 0.989742 0.647666 0.323435
O O8 0.001819 0.535200 0.346103
O O9 0.750000 0.436641 0.479210
O O10 0.000000 0.500000 0.500000
O O11 0.995892 0.428816 0.396178
O O12 0.250000 0.561578 0.975540
O O13 0.017695 0.603588 0.045212
O O14 0.000000 0.500000 0.000000
O O15 0.250000 0.679833 0.262279
O O16 0.015225 0.750000 0.254258
O O17 0.017889 0.647602 0.183205
O O18 0.750000 0.529103 0.661359
O O19 0.750000 0.088500 0.866589
#
# Coordination Sequence:
#
# PCOD9446172 Si02
#       7
#     8   8   8   8   8   8   8
#     4  10  17  25  39  61  86 112 143 178 214 258
#     4  11  20  31  45  61  84 113 146 182 220 258
#     4  10  18  29  44  62  84 111 143 175 213 260
#     4   8  15  25  38  57  80 108 142 175 211 256
#     4  10  20  32  46  64  86 115 152 188 220 254
#     4  11  19  28  42  62  88 116 145 175 213 262
#     4   9  16  28  43  57  80 114 146 179 218 258
#
# _framework density 15.420199
#
# number of rings (size 3 to 8) (size 9 to 14) (size 15 to 20)
#    0.000    2.143    1.429    6.000    0.000    0.857 
#    0.000    0.000    0.000    0.000    0.000    0.000 
#    0.000    1.143    0.000    8.571    0.000    2.286 
#
# Total GULP energy -311960.477803 kJ/mol
# GULP energy per Si atom -5570.722818 kJ/mol
# Density = 1.538510 g / cm^3
# Si number density = 15.420199 Si / 1000 Ang^3
#
#
#
# Elastic Constant Matrix: (Units=GPa)
#
#
# Indices 1 2 3 4 5 6 
#
# 1 76.1890 23.7676 51.1650 0.0000 0.0000 0.0000
# 2 23.7676 46.7687 47.8381 0.0000 0.0000 0.0000
# 3 51.1650 47.8381 182.3291 0.0000 0.0000 0.0000
# 4 0.0000 0.0000 0.0000 12.8001 0.0000 0.0000
# 5 0.0000 0.0000 0.0000 0.0000 23.8574 0.0000
# 6 0.0000 0.0000 0.0000 0.0000 0.0000 10.5852
#
#
#
# Elastic Compliance Matrix: (Units=1/GPa)
#
#
# Indices 1 2 3 4 5 6 
#
# 1 0.017034 -0.005149 -0.003429 0.000000 0.000000 0.000000
# 2 -0.005149 0.030782 -0.006631 0.000000 0.000000 0.000000
# 3 -0.003429 -0.006631 0.008187 0.000000 0.000000 0.000000
# 4 0.000000 0.000000 0.000000 0.078124 0.000000 0.000000
# 5 0.000000 0.000000 0.000000 0.000000 0.041916 0.000000
# 6 0.000000 0.000000 0.000000 0.000000 0.000000 0.094471
#
#
# Mechanical properties :
#
#
# Convention : Reuss Voigt Hill
#
# Bulk Modulus (GPa) = 39.08783 61.20312 50.14548
# Shear Modulus (GPa) = 16.15712 21.61629 18.88670
#
# Velocity S-wave (km/s) = 3.24047 3.74815 3.50351
# Velocity P-wave (km/s) = 6.27729 7.64904 6.99686
#
# Compressibility (1/GPa) = 0.02558341
#
# Stress axis : x y z
#
# Youngs Moduli (GPa) = 58.70452 32.48702 122.14886
#
# Poissons Ratio (x) = 0.16728 0.41887
# Poissons Ratio (y) = 0.30228 0.81000
# Poissons Ratio (z) = 0.20131 0.21543
#
# Static dielectric constant tensor:
#      x y z
#    x 1.537420 0.000000 0.000000 
#    y 0.000000 1.455600 0.000000 
#    z 0.000000 0.000000 1.583420 
# 
# From -- ./inp_files/26407.got.cif
#   From: 2010.05.17/outbox.cif.g08.bks.cpg/sg59_14_cif.got.tgz:26407.got - 2010.06.03 14:40:33.
