data_PCOD9446228
_publ_section_title
;
Structure prediction by ZEFSAII (Michael W. Deem and Ramdas Pophale) SiO2 
 PCOD9446228
Probable space group: P M M N
;
_chemical_formula_sum "Si O2"
_cell_formula_units_Z 52
_cell_length_a 13.412359
_cell_length_b 18.539309
_cell_length_c 10.524896
_cell_angle_alpha 90.000000
_cell_angle_beta 90.000000
_cell_angle_gamma 90.000000
_cell_volume 2617.077150
_symmetry_space_group_name_H-M "P M M N"
_symmetry_group_IT_number 59
_space_group.IT_coordinate_system_code '2'
_symmetry_cell_setting 'orthorhombic'
loop_
_space_group_symop_operation_xyz
x,y,z
1/2-x,1/2-y,z
1/2+x,-y,-z
-x,1/2+y,-z
-x,-y,-z
1/2+x,1/2+y,-z
1/2-x,y,z
x,1/2-y,z
loop_
_atom_site_type_symbol
_atom_site_label
_atom_site_fract_x
_atom_site_fract_y
_atom_site_fract_z
Si Si1 0.368877 0.750000 0.754502
Si Si2 0.491822 0.606695 0.378125
Si Si3 0.453544 0.750000 0.035084
Si Si4 0.955547 0.604120 0.101647
Si Si5 0.368928 0.906379 0.714633
Si Si6 0.363260 0.530321 0.985889
Si Si7 0.633025 0.985290 0.522370
Si Si8 0.630515 0.250000 0.678038
O O1 0.250000 0.750000 0.732731
O O2 0.409426 0.825308 0.698488
O O3 0.388666 0.750000 0.906789
O O4 0.558844 0.612610 0.251516
O O5 0.417516 0.537410 0.373998
O O6 0.568596 0.585921 0.491339
O O7 0.423548 0.678556 0.378797
O O8 0.523177 0.819706 0.039102
O O9 0.391124 0.750000 0.168411
O O10 0.874600 0.554994 0.033051
O O11 0.060136 0.561389 0.086103
O O12 0.250000 0.898590 0.725993
O O13 0.399917 0.937676 0.850473
O O14 0.380809 0.963725 0.602891
O O15 0.250000 0.551861 0.010667
O O16 0.750000 0.972736 0.543171
O O17 0.750000 0.250000 0.655127
#
# Coordination Sequence:
#
# PCOD9446228 Si02
#       8
#     4   8   4   8   8   8   8   4
#     4  10  17  27  46  74 101 131 168 203 255 314
#     4  10  21  35  54  78 105 139 178 216 264 316
#     4  10  19  30  47  72 105 135 166 209 259 311
#     4  10  20  33  51  77 104 135 175 214 257 312
#     4   9  17  29  48  71  97 130 168 209 254 302
#     4  10  19  32  51  73 103 135 167 212 261 308
#     4  10  20  36  55  75 103 139 179 222 261 308
#     4  10  21  35  51  76 110 138 164 212 270 317
#
# _framework density 19.869492999999999
#
# number of rings (size 3 to 8) (size 9 to 14) (size 15 to 20)
#    0.000    2.154    3.077    0.692    0.000    3.692 
#    0.000    2.308    0.000    2.769    0.000    0.000 
#    0.000    5.231    0.000    0.000    0.000    0.000 
#
# Total GULP energy -289763.040663 kJ/mol
# GULP energy per Si atom -5572.366167 kJ/mol
# Density = 1.982427 g / cm^3
# Si number density = 19.869493 Si / 1000 Ang^3
#
#
#
# Elastic Constant Matrix: (Units=GPa)
#
#
# Indices 1 2 3 4 5 6 
#
# 1 42.2676 9.6611 -5.4814 0.0000 0.0000 0.0000
# 2 9.6611 111.4458 1.4229 0.0000 0.0000 0.0000
# 3 -5.4814 1.4229 37.9154 0.0000 0.0000 0.0000
# 4 0.0000 0.0000 0.0000 20.7941 0.0000 0.0000
# 5 0.0000 0.0000 0.0000 0.0000 14.6242 0.0000
# 6 0.0000 0.0000 0.0000 0.0000 0.0000 20.7078
#
#
#
# Elastic Compliance Matrix: (Units=1/GPa)
#
#
# Indices 1 2 3 4 5 6 
#
# 1 0.024630 -0.002182 0.003643 0.000000 0.000000 0.000000
# 2 -0.002182 0.009171 -0.000660 0.000000 0.000000 0.000000
# 3 0.003643 -0.000660 0.026926 0.000000 0.000000 0.000000
# 4 0.000000 0.000000 0.000000 0.048091 0.000000 0.000000
# 5 0.000000 0.000000 0.000000 0.000000 0.068380 0.000000
# 6 0.000000 0.000000 0.000000 0.000000 0.000000 0.048291
#
#
# Mechanical properties :
#
#
# Convention : Reuss Voigt Hill
#
# Bulk Modulus (GPa) = 16.04387 22.53709 19.29048
# Shear Modulus (GPa) = 20.43645 23.62698 22.03172
#
# Velocity S-wave (km/s) = 3.21056 3.45209 3.33351
# Velocity P-wave (km/s) = 4.67287 5.22076 4.95440
#
# Compressibility (1/GPa) = 0.06232911
#
# Stress axis : x y z
#
# Youngs Moduli (GPa) = 40.60120 109.04512 37.13897
#
# Poissons Ratio (x) = 0.23790 -0.13528
# Poissons Ratio (y) = 0.08858 0.02449
# Poissons Ratio (z) = -0.14789 0.07192
#
# Static dielectric constant tensor:
#      x y z
#    x 1.678360 0.000000 0.000000 
#    y 0.000000 1.771360 0.000000 
#    z 0.000000 0.000000 1.735050 
# 
# From -- ./inp_files/17113.got.cif
#   From: 2010.05.17/outbox.cif.g08.bks.cpg/sg59_9_cif.got.tgz:17113.got - 2010.06.03 14:40:33.
