data_PCOD9446797
_publ_section_title
;
Structure prediction by ZEFSAII (Michael W. Deem and Ramdas Pophale) SiO2 
 PCOD9446797
Probable space group: P M M N
;
_chemical_formula_sum "Si O2"
_cell_formula_units_Z 56
_cell_length_a 7.556239
_cell_length_b 21.720227
_cell_length_c 15.730397
_cell_angle_alpha 90.000000
_cell_angle_beta 90.000000
_cell_angle_gamma 90.000000
_cell_volume 2581.723507
_symmetry_space_group_name_H-M "P M M N"
_symmetry_group_IT_number 59
_space_group.IT_coordinate_system_code '2'
_symmetry_cell_setting 'orthorhombic'
loop_
_space_group_symop_operation_xyz
x,y,z
1/2-x,1/2-y,z
1/2+x,-y,-z
-x,1/2+y,-z
-x,-y,-z
1/2+x,1/2+y,-z
1/2-x,y,z
x,1/2-y,z
loop_
_atom_site_type_symbol
_atom_site_label
_atom_site_fract_x
_atom_site_fract_y
_atom_site_fract_z
Si Si1 0.957398 0.183676 0.525586
Si Si2 0.963025 0.059777 0.441949
Si Si3 0.536001 0.868807 0.298296
Si Si4 0.463315 0.958475 0.915282
Si Si5 0.048925 0.819497 0.932712
Si Si6 0.549047 0.678721 0.122861
Si Si7 0.965119 0.495020 0.271937
O O1 0.750000 0.185338 0.503160
O O2 0.035357 0.250000 0.502509
O O3 0.034612 0.122246 0.483708
O O4 0.969811 0.173689 0.626706
O O5 0.750000 0.063637 0.439353
O O6 0.024067 0.052506 0.344251
O O7 0.000000 0.000000 0.500000
O O8 0.750000 0.863044 0.296306
O O9 0.470871 0.853921 0.204066
O O10 0.486619 0.939311 0.312038
O O11 0.250000 0.954366 0.914059
O O12 0.529895 0.886989 0.911524
O O13 0.523909 0.988109 0.825681
O O14 0.500000 0.000000 0.000000
O O15 0.250000 0.818298 0.899221
O O16 0.972125 0.750000 0.914241
O O17 0.051738 0.823954 0.034997
O O18 0.750000 0.655195 0.106897
O O19 0.562108 0.750000 0.147015
O O20 0.750000 0.493206 0.268004
#
# Coordination Sequence:
#
# PCOD9446797 Si02
#       7
#     8   8   8   8   8   8   8
#     4  10  21  34  49  74 107 137 166 209 262 309
#     4  10  19  35  56  76 101 135 174 212 254 305
#     4  10  18  30  49  72  98 130 170 211 253 308
#     4  10  20  35  54  77 106 137 172 218 264 308
#     4   9  18  32  49  70  98 133 171 212 260 310
#     4   9  17  28  44  68  97 131 170 208 251 307
#     4   9  18  32  52  76 100 131 171 213 258 303
#
# _framework density 21.690936000000001
#
# number of rings (size 3 to 8) (size 9 to 14) (size 15 to 20)
#    0.000    2.429    1.429    1.286    0.000    3.143 
#    0.000    3.571    0.000    4.286    0.000    0.000 
#    0.000    4.571    0.000    0.000    0.000    0.000 
#
# Total GULP energy -312012.964937 kJ/mol
# GULP energy per Si atom -5571.660088 kJ/mol
# Density = 2.164157 g / cm^3
# Si number density = 21.690936 Si / 1000 Ang^3
#
#
#
# Elastic Constant Matrix: (Units=GPa)
#
#
# Indices 1 2 3 4 5 6 
#
# 1 54.6648 5.2619 -2.4916 0.0000 0.0000 0.0000
# 2 5.2619 146.9153 50.5108 0.0000 0.0000 0.0000
# 3 -2.4916 50.5108 91.8226 0.0000 0.0000 0.0000
# 4 0.0000 0.0000 0.0000 34.7835 0.0000 0.0000
# 5 0.0000 0.0000 0.0000 0.0000 21.3739 0.0000
# 6 0.0000 0.0000 0.0000 0.0000 0.0000 11.3070
#
#
#
# Elastic Compliance Matrix: (Units=1/GPa)
#
#
# Indices 1 2 3 4 5 6 
#
# 1 0.018441 -0.001027 0.001065 0.000000 0.000000 0.000000
# 2 -0.001027 0.008451 -0.004677 0.000000 0.000000 0.000000
# 3 0.001065 -0.004677 0.013492 0.000000 0.000000 0.000000
# 4 0.000000 0.000000 0.000000 0.028749 0.000000 0.000000
# 5 0.000000 0.000000 0.000000 0.000000 0.046786 0.000000
# 6 0.000000 0.000000 0.000000 0.000000 0.000000 0.088441
#
#
# Mechanical properties :
#
#
# Convention : Reuss Voigt Hill
#
# Bulk Modulus (GPa) = 32.14668 44.44055 38.29361
# Shear Modulus (GPa) = 22.32082 29.50100 25.91091
#
# Velocity S-wave (km/s) = 3.21134 3.69190 3.45998
# Velocity P-wave (km/s) = 5.34816 6.22142 5.80124
#
# Compressibility (1/GPa) = 0.03110742
#
# Stress axis : x y z
#
# Youngs Moduli (GPa) = 54.22791 118.32401 74.11702
#
# Poissons Ratio (x) = 0.12148 -0.07895
# Poissons Ratio (y) = 0.05568 0.34664
# Poissons Ratio (z) = -0.05776 0.55339
#
# Static dielectric constant tensor:
#      x y z
#    x 1.864300 0.000000 0.000000 
#    y 0.000000 1.904500 0.000000 
#    z 0.000000 0.000000 1.769040 
# 
# From -- ./inp_files/21076.got.cif
#   From: 2010.05.17/outbox.cif.g08.bks.cpg/sg59_11_cif.got.tgz:21076.got - 2010.06.03 14:40:33.
