data_PCOD9446284
_publ_section_title
;
Structure prediction by ZEFSAII (Michael W. Deem and Ramdas Pophale) SiO2 
 PCOD9446284
Probable space group: P M M N
;
_chemical_formula_sum "Si O2"
_cell_formula_units_Z 56
_cell_length_a 16.344514
_cell_length_b 7.425130
_cell_length_c 20.797758
_cell_angle_alpha 90.000000
_cell_angle_beta 90.000000
_cell_angle_gamma 90.000000
_cell_volume 2524.018848
_symmetry_space_group_name_H-M "P M M N"
_symmetry_group_IT_number 59
_space_group.IT_coordinate_system_code '2'
_symmetry_cell_setting 'orthorhombic'
loop_
_space_group_symop_operation_xyz
x,y,z
1/2-x,1/2-y,z
1/2+x,-y,-z
-x,1/2+y,-z
-x,-y,-z
1/2+x,1/2+y,-z
1/2-x,y,z
x,1/2-y,z
loop_
_atom_site_type_symbol
_atom_site_label
_atom_site_fract_x
_atom_site_fract_y
_atom_site_fract_z
Si Si1 0.664089 0.529962 0.625277
Si Si2 0.509721 0.034696 0.424370
Si Si3 0.656352 0.030238 0.329597
Si Si4 0.061707 0.529519 0.797423
Si Si5 0.071592 0.534278 0.946285
Si Si6 0.250000 0.964290 0.138959
Si Si7 0.885494 0.539363 0.761127
Si Si8 0.250000 0.970480 0.994083
O O1 0.750000 0.470152 0.594774
O O2 0.663957 0.750000 0.620280
O O3 0.576992 0.465024 0.601299
O O4 0.662858 0.473510 0.699619
O O5 0.510896 0.250000 0.415100
O O6 0.588723 0.970439 0.383095
O O7 0.500000 0.000000 0.500000
O O8 0.750000 0.972940 0.342569
O O9 0.656059 0.250000 0.330722
O O10 0.628175 0.977820 0.256891
O O11 0.063930 0.750000 0.799239
O O12 0.061427 0.471042 0.872216
O O13 0.975208 0.464223 0.769680
O O14 0.074279 0.750000 0.943322
O O15 0.162684 0.471225 0.965869
O O16 0.000000 0.500000 0.000000
O O17 0.250000 0.750000 0.137455
O O18 0.169517 0.022096 0.176510
O O19 0.250000 0.031229 0.067290
O O20 0.898390 0.750000 0.748590
O O21 0.250000 0.750000 0.991092
#
# Coordination Sequence:
#
# PCOD9446284 Si02
#       8
#     8   8   8   8   8   4   8   4
#     4   9  16  29  51  74  96 128 165 201 242 291
#     4  10  20  35  54  77 106 136 168 203 249 308
#     4   9  17  30  52  82 109 132 166 219 271 306
#     4   9  17  29  52  80 101 128 177 226 260 302
#     4  10  20  35  53  76 106 141 180 222 267 319
#     4  11  21  31  45  71 105 140 173 204 256 323
#     4  10  17  30  52  76  99 127 169 219 259 294
#     4   9  20  35  49  69 107 148 173 202 262 335
#
# _framework density 22.186838999999999
#
# number of rings (size 3 to 8) (size 9 to 14) (size 15 to 20)
#    0.000    2.429    2.143    1.071    1.000    0.571 
#    0.000    1.786    0.000    0.857    0.000    0.000 
#    0.000    0.000    0.000    0.000    0.000    0.000 
#
# Total GULP energy -312081.938559 kJ/mol
# GULP energy per Si atom -5572.891760 kJ/mol
# Density = 2.213634 g / cm^3
# Si number density = 22.186839 Si / 1000 Ang^3
#
#
#
# Elastic Constant Matrix: (Units=GPa)
#
#
# Indices 1 2 3 4 5 6 
#
# 1 233.4452 6.0147 102.4579 0.0000 0.0000 0.0000
# 2 6.0147 65.2709 -0.4896 0.0000 0.0000 0.0000
# 3 102.4579 -0.4896 147.8409 0.0000 0.0000 0.0000
# 4 0.0000 0.0000 0.0000 15.7693 0.0000 0.0000
# 5 0.0000 0.0000 0.0000 0.0000 11.6546 0.0000
# 6 0.0000 0.0000 0.0000 0.0000 0.0000 23.7922
#
#
#
# Elastic Compliance Matrix: (Units=1/GPa)
#
#
# Indices 1 2 3 4 5 6 
#
# 1 0.006180 -0.000602 -0.004285 0.000000 0.000000 0.000000
# 2 -0.000602 0.015380 0.000468 0.000000 0.000000 0.000000
# 3 -0.004285 0.000468 0.009735 0.000000 0.000000 0.000000
# 4 0.000000 0.000000 0.000000 0.063414 0.000000 0.000000
# 5 0.000000 0.000000 0.000000 0.000000 0.085803 0.000000
# 6 0.000000 0.000000 0.000000 0.000000 0.000000 0.042031
#
#
# Mechanical properties :
#
#
# Convention : Reuss Voigt Hill
#
# Bulk Modulus (GPa) = 44.52852 73.61366 59.07109
# Shear Modulus (GPa) = 20.93229 32.81482 26.87355
#
# Velocity S-wave (km/s) = 3.07490 3.84998 3.48406
# Velocity P-wave (km/s) = 5.72015 7.28108 6.54730
#
# Compressibility (1/GPa) = 0.02245752
#
# Stress axis : x y z
#
# Youngs Moduli (GPa) = 161.82035 65.02078 102.72221
#
# Poissons Ratio (x) = 0.03912 0.44013
# Poissons Ratio (y) = 0.09735 -0.04806
# Poissons Ratio (z) = 0.69335 -0.03042
#
# Static dielectric constant tensor:
#      x y z
#    x 1.856510 0.000000 0.000000 
#    y 0.000000 1.859430 0.000000 
#    z 0.000000 0.000000 1.865030 
# 
# From -- ./inp_files/30496.got.cif
#   From: 2010.05.17/outbox.cif.g08.bks.cpg/sg59_16_cif.got.tgz:30496.got - 2010.06.03 14:40:33.
