data_PCOD9446979
_publ_section_title
;
Structure prediction by ZEFSAII (Michael W. Deem and Ramdas Pophale) SiO2 
 PCOD9446979
Probable space group: P M M N
;
_chemical_formula_sum "Si O2"
_cell_formula_units_Z 48
_cell_length_a 7.626625
_cell_length_b 28.061761
_cell_length_c 10.463252
_cell_angle_alpha 90.000000
_cell_angle_beta 90.000000
_cell_angle_gamma 90.000000
_cell_volume 2239.308864
_symmetry_space_group_name_H-M "P M M N"
_symmetry_group_IT_number 59
_space_group.IT_coordinate_system_code '2'
_symmetry_cell_setting 'orthorhombic'
loop_
_space_group_symop_operation_xyz
x,y,z
1/2-x,1/2-y,z
1/2+x,-y,-z
-x,1/2+y,-z
-x,-y,-z
1/2+x,1/2+y,-z
1/2-x,y,z
x,1/2-y,z
loop_
_atom_site_type_symbol
_atom_site_label
_atom_site_fract_x
_atom_site_fract_y
_atom_site_fract_z
Si Si1 0.035746 0.803033 0.917546
Si Si2 0.043327 0.464610 0.167350
Si Si3 0.538500 0.372795 0.304308
Si Si4 0.453076 0.432197 0.889909
Si Si5 0.964831 0.303775 0.527826
Si Si6 0.048165 0.831311 0.194143
O O1 0.250000 0.805752 0.919796
O O2 0.989107 0.750000 0.874636
O O3 0.975020 0.842683 0.818446
O O4 0.971676 0.811936 0.061456
O O5 0.250000 0.471313 0.149174
O O6 0.012995 0.427247 0.280088
O O7 0.966002 0.517203 0.181064
O O8 0.974221 0.442050 0.033259
O O9 0.750000 0.371442 0.305030
O O10 0.477214 0.344554 0.429447
O O11 0.250000 0.418628 0.901971
O O12 0.544110 0.388440 0.820006
O O13 0.750000 0.305152 0.528012
O O14 0.014123 0.250000 0.489106
O O15 0.027665 0.314426 0.671565
O O16 0.250000 0.814756 0.195646
#
# Coordination Sequence:
#
# PCOD9446979 Si02
#       6
#     8   8   8   8   8   8
#     4   9  16  26  46  75 102 131 172 217 254 297
#     4  10  20  34  54  79 107 136 171 216 267 318
#     4  10  18  31  52  78 107 138 175 216 260 307
#     4  10  20  34  54  79 107 136 171 216 267 318
#     4   9  18  32  52  79 110 143 178 217 258 303
#     4  10  18  31  52  78 107 138 175 216 260 307
#
# _framework density 21.435184
#
# number of rings (size 3 to 8) (size 9 to 14) (size 15 to 20)
#    0.000    2.333    1.667    2.000    0.000    5.333 
#    0.000    1.667    0.000    6.000    0.000    0.000 
#    0.000    0.000    0.000    0.000    0.000    0.000 
#
# Total GULP energy -268014.272847 kJ/mol
# GULP energy per Si atom -5583.630684 kJ/mol
# Density = 2.138640 g / cm^3
# Si number density = 21.435184 Si / 1000 Ang^3
#
#
#
# Elastic Constant Matrix: (Units=GPa)
#
#
# Indices 1 2 3 4 5 6 
#
# 1 48.3808 -9.1617 1.4914 0.0000 0.0000 0.0000
# 2 -9.1617 74.0698 -7.8244 0.0000 0.0000 0.0000
# 3 1.4914 -7.8244 49.9446 0.0000 0.0000 0.0000
# 4 0.0000 0.0000 0.0000 28.2806 0.0000 0.0000
# 5 0.0000 0.0000 0.0000 0.0000 1.0820 0.0000
# 6 0.0000 0.0000 0.0000 0.0000 0.0000 12.9139
#
#
#
# Elastic Compliance Matrix: (Units=1/GPa)
#
#
# Indices 1 2 3 4 5 6 
#
# 1 0.021168 0.002594 -0.000226 0.000000 0.000000 0.000000
# 2 0.002594 0.014046 0.002123 0.000000 0.000000 0.000000
# 3 -0.000226 0.002123 0.020361 0.000000 0.000000 0.000000
# 4 0.000000 0.000000 0.000000 0.035360 0.000000 0.000000
# 5 0.000000 0.000000 0.000000 0.000000 0.924227 0.000000
# 6 0.000000 0.000000 0.000000 0.000000 0.000000 0.077436
#
#
# Mechanical properties :
#
#
# Convention : Reuss Voigt Hill
#
# Bulk Modulus (GPa) = 15.48983 15.71176 15.60079
# Shear Modulus (GPa) = 4.52434 20.98129 12.75281
#
# Velocity S-wave (km/s) = 1.45440 3.13201 2.44180
# Velocity P-wave (km/s) = 3.17213 4.51942 3.90433
#
# Compressibility (1/GPa) = 0.06455850
#
# Stress axis : x y z
#
# Youngs Moduli (GPa) = 47.24196 71.19498 49.11230
#
# Poissons Ratio (x) = -0.18471 0.01108
# Poissons Ratio (y) = -0.12256 -0.10426
# Poissons Ratio (z) = 0.01066 -0.15115
#
# Static dielectric constant tensor:
#      x y z
#    x 1.811130 0.000000 0.000000 
#    y 0.000000 1.766790 0.000000 
#    z 0.000000 0.000000 1.772920 
# 
# From -- ./inp_files/6264.got.cif
#   From: 2010.05.17/outbox.cif.g08.bks.cpg/sg59_4_cif.got.tgz:6264.got - 2010.06.03 14:40:33.
