data_PCOD9446970
_publ_section_title
;
Structure prediction by ZEFSAII (Michael W. Deem and Ramdas Pophale) SiO2 
 PCOD9446970
Probable space group: P M M N
;
_chemical_formula_sum "Si O2"
_cell_formula_units_Z 56
_cell_length_a 7.593141
_cell_length_b 14.773563
_cell_length_c 23.620494
_cell_angle_alpha 90.000000
_cell_angle_beta 90.000000
_cell_angle_gamma 90.000000
_cell_volume 2649.693798
_symmetry_space_group_name_H-M "P M M N"
_symmetry_group_IT_number 59
_space_group.IT_coordinate_system_code '2'
_symmetry_cell_setting 'orthorhombic'
loop_
_space_group_symop_operation_xyz
x,y,z
1/2-x,1/2-y,z
1/2+x,-y,-z
-x,1/2+y,-z
-x,-y,-z
1/2+x,1/2+y,-z
1/2-x,y,z
x,1/2-y,z
loop_
_atom_site_type_symbol
_atom_site_label
_atom_site_fract_x
_atom_site_fract_y
_atom_site_fract_z
Si Si1 0.962505 0.460393 0.415784
Si Si2 0.960626 0.899426 0.021230
Si Si3 0.037828 0.350954 0.853069
Si Si4 0.039082 0.146005 0.531107
Si Si5 0.042222 0.466536 0.196784
Si Si6 0.457687 0.852919 0.692948
Si Si7 0.535998 0.846005 0.902062
O O1 0.750000 0.467011 0.412459
O O2 0.026779 0.563171 0.428725
O O3 0.030931 0.412242 0.359081
O O4 0.004370 0.394522 0.468550
O O5 0.750000 0.885600 0.024714
O O6 0.029591 0.876976 0.083634
O O7 0.027830 0.846117 0.966427
O O8 0.000000 0.000000 0.000000
O O9 0.250000 0.349749 0.855837
O O10 0.976833 0.250000 0.839344
O O11 0.989772 0.426993 0.807699
O O12 0.250000 0.150811 0.538534
O O13 0.972411 0.250000 0.537637
O O14 0.250000 0.451409 0.196589
O O15 0.968855 0.425134 0.137959
O O16 0.974317 0.410750 0.249870
O O17 0.250000 0.843698 0.681696
O O18 0.529362 0.750000 0.697437
O O19 0.750000 0.853414 0.905525
O O20 0.494034 0.750000 0.874382
#
# Coordination Sequence:
#
# PCOD9446970 Si02
#       7
#     8   8   8   8   8   8   8
#     4   9  18  33  53  78 110 148 186 221 262 313
#     4  10  18  31  52  76 103 132 166 209 260 318
#     4  10  21  37  57  78 102 137 178 219 267 325
#     4   9  17  30  51  81 114 144 177 221 269 315
#     4  11  22  36  55  78 105 137 175 222 271 318
#     4  10  21  37  56  78 107 143 181 222 266 316
#     4   9  17  30  49  73 100 130 163 201 253 313
#
# _framework density 21.134516999999999
#
# number of rings (size 3 to 8) (size 9 to 14) (size 15 to 20)
#    0.000    2.286    1.429    1.714    0.000    4.286 
#    0.000    0.714    0.000    4.714    0.000    0.000 
#    0.000    0.000    0.000    0.000    0.000    0.000 
#
# Total GULP energy -312251.462859 kJ/mol
# GULP energy per Si atom -5575.918980 kJ/mol
# Density = 2.108641 g / cm^3
# Si number density = 21.134517 Si / 1000 Ang^3
#
#
#
# Elastic Constant Matrix: (Units=GPa)
#
#
# Indices 1 2 3 4 5 6 
#
# 1 45.8209 -3.1404 0.9684 0.0000 0.0000 0.0000
# 2 -3.1404 207.1779 84.2212 0.0000 0.0000 0.0000
# 3 0.9684 84.2212 112.7134 0.0000 0.0000 0.0000
# 4 0.0000 0.0000 0.0000 21.1372 0.0000 0.0000
# 5 0.0000 0.0000 0.0000 0.0000 8.1264 0.0000
# 6 0.0000 0.0000 0.0000 0.0000 0.0000 13.2017
#
#
#
# Elastic Compliance Matrix: (Units=1/GPa)
#
#
# Indices 1 2 3 4 5 6 
#
# 1 0.021877 0.000586 -0.000626 0.000000 0.000000 0.000000
# 2 0.000586 0.006948 -0.005197 0.000000 0.000000 0.000000
# 3 -0.000626 -0.005197 0.012761 0.000000 0.000000 0.000000
# 4 0.000000 0.000000 0.000000 0.047310 0.000000 0.000000
# 5 0.000000 0.000000 0.000000 0.000000 0.123055 0.000000
# 6 0.000000 0.000000 0.000000 0.000000 0.000000 0.075748
#
#
# Mechanical properties :
#
#
# Convention : Reuss Voigt Hill
#
# Bulk Modulus (GPa) = 32.14096 58.86785 45.50440
# Shear Modulus (GPa) = 16.20515 27.40394 21.80454
#
# Velocity S-wave (km/s) = 2.77205 3.60480 3.21550
# Velocity P-wave (km/s) = 5.04842 6.72610 5.94672
#
# Compressibility (1/GPa) = 0.03111295
#
# Stress axis : x y z
#
# Youngs Moduli (GPa) = 45.70909 143.92067 78.36607
#
# Poissons Ratio (x) = -0.08434 0.04905
# Poissons Ratio (y) = -0.02679 0.40726
# Poissons Ratio (z) = 0.02861 0.74794
#
# Static dielectric constant tensor:
#      x y z
#    x 1.792070 0.000000 0.000000 
#    y 0.000000 1.886790 0.000000 
#    z 0.000000 0.000000 1.742930 
# 
# From -- ./inp_files/29143.got.cif
#   From: 2010.05.17/outbox.cif.g08.bks.cpg/sg59_15_cif.got.tgz:29143.got - 2010.06.03 14:40:33.
