data_PCOD9446633
_publ_section_title
;
Structure prediction by ZEFSAII (Michael W. Deem and Ramdas Pophale) SiO2 
 PCOD9446633
Probable space group: P M M N
;
_chemical_formula_sum "Si O2"
_cell_formula_units_Z 40
_cell_length_a 23.649935
_cell_length_b 13.931310
_cell_length_c 7.771807
_cell_angle_alpha 90.000000
_cell_angle_beta 90.000000
_cell_angle_gamma 90.000000
_cell_volume 2560.612816
_symmetry_space_group_name_H-M "P M M N"
_symmetry_group_IT_number 59
_space_group.IT_coordinate_system_code '2'
_symmetry_cell_setting 'orthorhombic'
loop_
_space_group_symop_operation_xyz
x,y,z
1/2-x,1/2-y,z
1/2+x,-y,-z
-x,1/2+y,-z
-x,-y,-z
1/2+x,1/2+y,-z
1/2-x,y,z
x,1/2-y,z
loop_
_atom_site_type_symbol
_atom_site_label
_atom_site_fract_x
_atom_site_fract_y
_atom_site_fract_z
Si Si1 0.930864 0.636255 0.021882
Si Si2 0.429922 0.047917 0.331771
Si Si3 0.004259 0.860890 0.367958
Si Si4 0.185751 0.136453 0.422379
Si Si5 0.311593 0.134996 0.835048
O O1 0.927574 0.750000 0.979451
O O2 0.951562 0.579824 0.855433
O O3 0.969888 0.627888 0.189627
O O4 0.868049 0.600156 0.073057
O O5 0.462182 0.109395 0.477730
O O6 0.364025 0.074825 0.341327
O O7 0.445186 0.937533 0.366445
O O8 0.021103 0.750000 0.385618
O O9 0.250000 0.114810 0.366296
O O10 0.175690 0.250000 0.388538
O O11 0.183323 0.122494 0.629140
O O12 0.250000 0.097033 0.890392
O O13 0.310672 0.250000 0.862452
#
# Coordination Sequence:
#
# PCOD9446633 Si02
#       5
#     8   8   8   8   8
#     4  10  18  29  47  69  96 125 157 192 231 279
#     4  11  20  31  51  72  93 125 163 191 230 285
#     4  10  21  35  47  66  98 128 157 198 236 269
#     4   9  16  28  47  71  98 123 149 187 236 285
#     4   8  14  25  42  65  96 127 147 178 233 283
#
# _framework density 15.621259999999999
#
# number of rings (size 3 to 8) (size 9 to 14) (size 15 to 20)
#    0.000    2.400    2.000    3.600    0.000    0.800 
#    0.000    2.000    0.000    0.600    0.000    0.000 
#    0.000    0.000    0.000    0.000    0.000    0.000 
#
# Total GULP energy -222956.191275 kJ/mol
# GULP energy per Si atom -5573.904782 kJ/mol
# Density = 1.558570 g / cm^3
# Si number density = 15.621260 Si / 1000 Ang^3
#
#
#
# Elastic Constant Matrix: (Units=GPa)
#
#
# Indices 1 2 3 4 5 6 
#
# 1 76.0176 46.4219 16.2150 0.0000 0.0000 0.0000
# 2 46.4219 83.9469 29.5301 0.0000 0.0000 0.0000
# 3 16.2150 29.5301 66.9880 0.0000 0.0000 0.0000
# 4 0.0000 0.0000 0.0000 15.4156 0.0000 0.0000
# 5 0.0000 0.0000 0.0000 0.0000 1.6348 0.0000
# 6 0.0000 0.0000 0.0000 0.0000 0.0000 19.0633
#
#
#
# Elastic Compliance Matrix: (Units=1/GPa)
#
#
# Indices 1 2 3 4 5 6 
#
# 1 0.019862 -0.010998 0.000040 0.000000 0.000000 0.000000
# 2 -0.010998 0.020188 -0.006237 0.000000 0.000000 0.000000
# 3 0.000040 -0.006237 0.017668 0.000000 0.000000 0.000000
# 4 0.000000 0.000000 0.000000 0.064870 0.000000 0.000000
# 5 0.000000 0.000000 0.000000 0.000000 0.611691 0.000000
# 6 0.000000 0.000000 0.000000 0.000000 0.000000 0.052457
#
#
# Mechanical properties :
#
#
# Convention : Reuss Voigt Hill
#
# Bulk Modulus (GPa) = 42.86592 45.69848 44.28220
# Shear Modulus (GPa) = 6.03208 16.20843 11.12026
#
# Velocity S-wave (km/s) = 1.96719 3.22466 2.67098
# Velocity P-wave (km/s) = 5.71490 6.57131 6.15801
#
# Compressibility (1/GPa) = 0.02332856
#
# Stress axis : x y z
#
# Youngs Moduli (GPa) = 50.34648 49.53410 56.59993
#
# Poissons Ratio (x) = 0.54477 -0.00228
# Poissons Ratio (y) = 0.55370 0.35303
# Poissons Ratio (z) = -0.00203 0.30896
#
# Static dielectric constant tensor:
#      x y z
#    x 1.541660 0.000000 0.000000 
#    y 0.000000 1.493000 0.000000 
#    z 0.000000 0.000000 1.550700 
# 
# From -- ./inp_files/7646.got.cif
#   From: 2010.05.17/outbox.cif.g08.bks.cpg/sg59_4_cif.got.tgz:7646.got - 2010.06.03 14:40:33.
