data_PCOD9446500
_publ_section_title
;
Structure prediction by ZEFSAII (Michael W. Deem and Ramdas Pophale) SiO2 
 PCOD9446500
Probable space group: P M M N
;
_chemical_formula_sum "Si O2"
_cell_formula_units_Z 64
_cell_length_a 7.394880
_cell_length_b 25.902102
_cell_length_c 14.739945
_cell_angle_alpha 90.000000
_cell_angle_beta 90.000000
_cell_angle_gamma 90.000000
_cell_volume 2823.332342
_symmetry_space_group_name_H-M "P M M N"
_symmetry_group_IT_number 59
_space_group.IT_coordinate_system_code '2'
_symmetry_cell_setting 'orthorhombic'
loop_
_space_group_symop_operation_xyz
x,y,z
1/2-x,1/2-y,z
1/2+x,-y,-z
-x,1/2+y,-z
-x,-y,-z
1/2+x,1/2+y,-z
1/2-x,y,z
x,1/2-y,z
loop_
_atom_site_type_symbol
_atom_site_label
_atom_site_fract_x
_atom_site_fract_y
_atom_site_fract_z
Si Si1 0.043462 0.634256 0.536621
Si Si2 0.532481 0.966221 0.650882
Si Si3 0.539018 0.023746 0.135073
Si Si4 0.968772 0.080754 0.636373
Si Si5 0.462631 0.410616 0.848506
Si Si6 0.461582 0.192676 0.938105
Si Si7 0.528892 0.191809 0.293793
Si Si8 0.031007 0.865400 0.883952
O O1 0.250000 0.650822 0.519869
O O2 0.962549 0.620341 0.439243
O O3 0.962797 0.674696 0.607290
O O4 0.044104 0.580835 0.593615
O O5 0.750000 0.962643 0.648833
O O6 0.473812 0.966477 0.756230
O O7 0.475419 0.022161 0.613366
O O8 0.750000 0.021052 0.110376
O O9 0.464237 0.076735 0.092923
O O10 0.460678 0.966414 0.119794
O O11 0.750000 0.081353 0.633560
O O12 0.022543 0.091075 0.739567
O O13 0.250000 0.411488 0.871675
O O14 0.541199 0.357754 0.888375
O O15 0.250000 0.195145 0.912766
O O16 0.537742 0.250000 0.921942
O O17 0.474870 0.177001 0.043279
O O18 0.750000 0.189598 0.295472
O O19 0.477232 0.250000 0.271531
O O20 0.470215 0.152769 0.215303
O O21 0.250000 0.867280 0.883296
#
# Coordination Sequence:
#
# PCOD9446500 Si02
#       8
#     8   8   8   8   8   8   8   8
#     4  10  18  31  49  70 101 139 174 208 249 299
#     4  10  18  28  45  74 107 136 168 206 250 300
#     4   9  17  32  53  77 104 135 169 205 256 313
#     4   9  19  32  49  75 105 134 168 213 259 297
#     4   9  19  36  56  75 101 137 174 210 254 312
#     4  10  22  39  56  76 103 136 173 212 257 307
#     4   9  17  30  49  72  99 133 171 208 248 298
#     4  10  19  33  55  80 103 130 169 213 257 308
#
# _framework density 22.668248999999999
#
# number of rings (size 3 to 8) (size 9 to 14) (size 15 to 20)
#    0.000    2.500    1.250    1.125    0.000    3.250 
#    0.000    0.625    0.000    1.125    0.000    0.000 
#    0.000    0.000    0.000    0.000    0.000    0.000 
#
# Total GULP energy -357334.918004 kJ/mol
# GULP energy per Si atom -5583.358094 kJ/mol
# Density = 2.261666 g / cm^3
# Si number density = 22.668249 Si / 1000 Ang^3
#
#
#
# Elastic Constant Matrix: (Units=GPa)
#
#
# Indices 1 2 3 4 5 6 
#
# 1 85.6955 8.1362 -6.2128 0.0000 0.0000 0.0000
# 2 8.1362 175.9237 30.5119 0.0000 0.0000 0.0000
# 3 -6.2128 30.5119 32.4214 0.0000 0.0000 0.0000
# 4 0.0000 0.0000 0.0000 33.8599 0.0000 0.0000
# 5 0.0000 0.0000 0.0000 0.0000 12.7219 0.0000
# 6 0.0000 0.0000 0.0000 0.0000 0.0000 3.0390
#
#
#
# Elastic Compliance Matrix: (Units=1/GPa)
#
#
# Indices 1 2 3 4 5 6 
#
# 1 0.012023 -0.001142 0.003379 0.000000 0.000000 0.000000
# 2 -0.001142 0.006902 -0.006714 0.000000 0.000000 0.000000
# 3 0.003379 -0.006714 0.037810 0.000000 0.000000 0.000000
# 4 0.000000 0.000000 0.000000 0.029533 0.000000 0.000000
# 5 0.000000 0.000000 0.000000 0.000000 0.078604 0.000000
# 6 0.000000 0.000000 0.000000 0.000000 0.000000 0.329053
#
#
# Mechanical properties :
#
#
# Convention : Reuss Voigt Hill
#
# Bulk Modulus (GPa) = 20.92961 39.87903 30.40432
# Shear Modulus (GPa) = 9.63751 27.36452 18.50102
#
# Velocity S-wave (km/s) = 2.06416 3.47821 2.85996
# Velocity P-wave (km/s) = 3.86446 5.81044 4.93434
#
# Compressibility (1/GPa) = 0.04777920
#
# Stress axis : x y z
#
# Youngs Moduli (GPa) = 83.17675 144.89496 26.44820
#
# Poissons Ratio (x) = 0.16547 -0.08936
# Poissons Ratio (y) = 0.09499 0.17757
# Poissons Ratio (z) = -0.28102 0.97281
#
# Static dielectric constant tensor:
#      x y z
#    x 1.853800 0.000000 0.000000 
#    y 0.000000 1.859910 0.000000 
#    z 0.000000 0.000000 1.824920 
# 
# From -- ./inp_files/21440.got.cif
#   From: 2010.05.17/outbox.cif.g08.bks.cpg/sg59_11_cif.got.tgz:21440.got - 2010.06.03 14:40:33.
