data_PCOD9446870
_publ_section_title
;
Structure prediction by ZEFSAII (Michael W. Deem and Ramdas Pophale) SiO2 
 PCOD9446870
Probable space group: P M M N
;
_chemical_formula_sum "Si O2"
_cell_formula_units_Z 64
_cell_length_a 21.853778
_cell_length_b 9.124080
_cell_length_c 15.650930
_cell_angle_alpha 90.000000
_cell_angle_beta 90.000000
_cell_angle_gamma 90.000000
_cell_volume 3120.726872
_symmetry_space_group_name_H-M "P M M N"
_symmetry_group_IT_number 59
_space_group.IT_coordinate_system_code '2'
_symmetry_cell_setting 'orthorhombic'
loop_
_space_group_symop_operation_xyz
x,y,z
1/2-x,1/2-y,z
1/2+x,-y,-z
-x,1/2+y,-z
-x,-y,-z
1/2+x,1/2+y,-z
1/2-x,y,z
x,1/2-y,z
loop_
_atom_site_type_symbol
_atom_site_label
_atom_site_fract_x
_atom_site_fract_y
_atom_site_fract_z
Si Si1 0.317859 0.577416 0.462869
Si Si2 0.652113 0.921349 0.704219
Si Si3 0.505367 0.073326 0.130466
Si Si4 0.634171 0.926770 0.896489
Si Si5 0.993521 0.919994 0.674982
Si Si6 0.678219 0.423321 0.256133
Si Si7 0.598894 0.923556 0.402490
Si Si8 0.134433 0.573622 0.934076
O O1 0.250000 0.549246 0.499769
O O2 0.329766 0.750000 0.468438
O O3 0.317640 0.523730 0.365438
O O4 0.368668 0.489418 0.514449
O O5 0.669416 0.750000 0.693288
O O6 0.662107 0.961630 0.803487
O O7 0.579351 0.931806 0.684208
O O8 0.503724 0.250000 0.123179
O O9 0.437152 0.022184 0.108974
O O10 0.517290 0.041969 0.229911
O O11 0.563630 0.021887 0.077304
O O12 0.635126 0.750000 0.903680
O O13 0.661099 0.998998 0.981358
O O14 0.007933 0.750000 0.657055
O O15 0.029676 0.020035 0.609370
O O16 0.750000 0.442337 0.274010
O O17 0.663007 0.250000 0.266316
O O18 0.637805 0.514210 0.322315
O O19 0.665850 0.460357 0.156644
O O20 0.600737 0.750000 0.404806
O O21 0.135608 0.750000 0.944065
#
# Coordination Sequence:
#
# PCOD9446870 Si02
#       8
#     8   8   8   8   8   8   8   8
#     4  11  25  44  65  86 110 147 193 238 286 343
#     4   9  20  39  63  88 117 153 191 238 291 338
#     4   8  14  28  50  76 109 148 185 223 267 323
#     4   9  18  32  52  80 113 146 183 227 281 336
#     4   9  17  35  60  85 119 158 190 225 279 346
#     4  10  21  38  58  78 108 153 198 238 284 341
#     4  12  24  37  59  90 119 147 184 234 290 346
#     4  10  18  30  51  78 109 148 191 231 274 325
#
# _framework density 20.508043000000001
#
# number of rings (size 3 to 8) (size 9 to 14) (size 15 to 20)
#    0.000    2.250    1.250    3.750    0.000    4.750 
#    0.000    2.500    0.000    2.250    0.000    0.000 
#    0.000    0.000    0.000    0.000    0.000    0.000 
#
# Total GULP energy -357321.774028 kJ/mol
# GULP energy per Si atom -5583.152719 kJ/mol
# Density = 2.046137 g / cm^3
# Si number density = 20.508043 Si / 1000 Ang^3
#
#
#
# Elastic Constant Matrix: (Units=GPa)
#
#
# Indices 1 2 3 4 5 6 
#
# 1 26.6132 13.2982 13.5395 0.0000 0.0000 0.0000
# 2 13.2982 46.4746 34.8971 0.0000 0.0000 0.0000
# 3 13.5395 34.8971 100.1375 0.0000 0.0000 0.0000
# 4 0.0000 0.0000 0.0000 36.3867 0.0000 0.0000
# 5 0.0000 0.0000 0.0000 0.0000 6.7816 0.0000
# 6 0.0000 0.0000 0.0000 0.0000 0.0000 3.6903
#
#
#
# Elastic Compliance Matrix: (Units=1/GPa)
#
#
# Indices 1 2 3 4 5 6 
#
# 1 0.044175 -0.011046 -0.002124 0.000000 0.000000 0.000000
# 2 -0.011046 0.031905 -0.009625 0.000000 0.000000 0.000000
# 3 -0.002124 -0.009625 0.013628 0.000000 0.000000 0.000000
# 4 0.000000 0.000000 0.000000 0.027483 0.000000 0.000000
# 5 0.000000 0.000000 0.000000 0.000000 0.147458 0.000000
# 6 0.000000 0.000000 0.000000 0.000000 0.000000 0.270983
#
#
# Mechanical properties :
#
#
# Convention : Reuss Voigt Hill
#
# Bulk Modulus (GPa) = 22.66594 32.96610 27.81602
# Shear Modulus (GPa) = 8.39028 16.80440 12.59734
#
# Velocity S-wave (km/s) = 2.02487 2.86563 2.48112
# Velocity P-wave (km/s) = 4.06731 5.20180 4.66914
#
# Compressibility (1/GPa) = 0.04411906
#
# Stress axis : x y z
#
# Youngs Moduli (GPa) = 22.63719 31.34286 73.37992
#
# Poissons Ratio (x) = 0.34620 0.15583
# Poissons Ratio (y) = 0.25004 0.70630
# Poissons Ratio (z) = 0.04807 0.30168
#
# Static dielectric constant tensor:
#      x y z
#    x 1.775530 0.000000 0.000000 
#    y 0.000000 1.672350 0.000000 
#    z 0.000000 0.000000 1.747050 
# 
# From -- ./inp_files/24798.got.cif
#   From: 2010.05.17/outbox.cif.g08.bks.cpg/sg59_13_cif.got.tgz:24798.got - 2010.06.03 14:40:33.
