data_PCOD9446535
_publ_section_title
;
Structure prediction by ZEFSAII (Michael W. Deem and Ramdas Pophale) SiO2 
 PCOD9446535
Probable space group: P M M N
;
_chemical_formula_sum "Si O2"
_cell_formula_units_Z 64
_cell_length_a 14.976477
_cell_length_b 8.316024
_cell_length_c 28.945708
_cell_angle_alpha 90.000000
_cell_angle_beta 90.000000
_cell_angle_gamma 90.000000
_cell_volume 3605.035740
_symmetry_space_group_name_H-M "P M M N"
_symmetry_group_IT_number 59
_space_group.IT_coordinate_system_code '2'
_symmetry_cell_setting 'orthorhombic'
loop_
_space_group_symop_operation_xyz
x,y,z
1/2-x,1/2-y,z
1/2+x,-y,-z
-x,1/2+y,-z
-x,-y,-z
1/2+x,1/2+y,-z
1/2-x,y,z
x,1/2-y,z
loop_
_atom_site_type_symbol
_atom_site_label
_atom_site_fract_x
_atom_site_fract_y
_atom_site_fract_z
Si Si1 0.148433 0.559508 0.067660
Si Si2 0.351835 0.056011 0.424861
Si Si3 0.351619 0.555939 0.803853
Si Si4 0.146241 0.059674 0.965564
Si Si5 0.021306 0.560412 0.885230
Si Si6 0.147130 0.054226 0.529568
Si Si7 0.028660 0.443946 0.615142
Si Si8 0.647630 0.555646 0.299496
O O1 0.250000 0.510961 0.079880
O O2 0.147729 0.750000 0.059620
O O3 0.074357 0.517466 0.105210
O O4 0.124707 0.476890 0.018901
O O5 0.250000 0.005135 0.414968
O O6 0.352905 0.250000 0.425049
O O7 0.374518 0.001021 0.477380
O O8 0.426580 0.994846 0.390215
O O9 0.250000 0.499360 0.814011
O O10 0.350355 0.750000 0.806267
O O11 0.422554 0.496931 0.841493
O O12 0.373713 0.505503 0.751722
O O13 0.250000 0.012009 0.958441
O O14 0.138004 0.250000 0.957557
O O15 0.082240 0.970278 0.930228
O O16 0.008019 0.750000 0.879343
O O17 0.250000 0.009824 0.539439
O O18 0.144184 0.250000 0.529414
O O19 0.081752 0.996637 0.569623
O O20 0.033120 0.250000 0.614955
O O21 0.079781 0.500341 0.661004
O O22 0.750000 0.506838 0.310400
O O23 0.646043 0.750000 0.298752
#
# Coordination Sequence:
#
# PCOD9446535 Si02
#       8
#     8   8   8   8   8   8   8   8
#     4  10  21  36  52  71  99 134 169 205 243 283
#     4   9  18  31  45  63  91 128 164 195 230 274
#     4   9  19  35  53  74 100 128 156 189 235 288
#     4  10  20  33  50  74 104 136 169 203 239 283
#     4  11  21  33  52  75 100 130 164 202 243 290
#     4   8  14  26  44  66  94 126 157 189 229 280
#     4  10  18  28  47  72  94 120 156 196 236 278
#     4   9  18  32  50  73  99 124 151 187 234 287
#
# _framework density 17.752943999999999
#
# number of rings (size 3 to 8) (size 9 to 14) (size 15 to 20)
#    0.000    2.500    0.000    3.375    0.000    5.250 
#    0.000    1.250    0.000    2.625    0.000    0.000 
#    0.000    0.000    0.000    0.000    0.000    0.000 
#
# Total GULP energy -357096.596157 kJ/mol
# GULP energy per Si atom -5579.634315 kJ/mol
# Density = 1.771254 g / cm^3
# Si number density = 17.752944 Si / 1000 Ang^3
#
#
#
# Elastic Constant Matrix: (Units=GPa)
#
#
# Indices 1 2 3 4 5 6 
#
# 1 105.6129 2.7651 79.8016 0.0000 0.0000 0.0000
# 2 2.7651 4.0620 1.0863 0.0000 0.0000 0.0000
# 3 79.8016 1.0863 91.2543 0.0000 0.0000 0.0000
# 4 0.0000 0.0000 0.0000 21.1627 0.0000 0.0000
# 5 0.0000 0.0000 0.0000 0.0000 32.4020 0.0000
# 6 0.0000 0.0000 0.0000 0.0000 0.0000 22.7615
#
#
#
# Elastic Compliance Matrix: (Units=1/GPa)
#
#
# Indices 1 2 3 4 5 6 
#
# 1 0.028561 -0.012803 -0.024824 0.000000 0.000000 0.000000
# 2 -0.012803 0.252711 0.008188 0.000000 0.000000 0.000000
# 3 -0.024824 0.008188 0.032569 0.000000 0.000000 0.000000
# 4 0.000000 0.000000 0.000000 0.047253 0.000000 0.000000
# 5 0.000000 0.000000 0.000000 0.000000 0.030862 0.000000
# 6 0.000000 0.000000 0.000000 0.000000 0.000000 0.043934
#
#
# Mechanical properties :
#
#
# Convention : Reuss Voigt Hill
#
# Bulk Modulus (GPa) = 3.92213 40.91502 22.41858
# Shear Modulus (GPa) = 8.62431 23.08366 15.85398
#
# Velocity S-wave (km/s) = 2.20647 3.60984 2.99161
# Velocity P-wave (km/s) = 2.95050 6.36172 4.95868
#
# Compressibility (1/GPa) = 0.25496330
#
# Stress axis : x y z
#
# Youngs Moduli (GPa) = 35.01309 3.95708 30.70378
#
# Poissons Ratio (x) = 0.05066 0.76219
# Poissons Ratio (y) = 0.44828 -0.25140
# Poissons Ratio (z) = 0.86916 -0.03240
#
# Static dielectric constant tensor:
#      x y z
#    x 1.615330 0.000000 0.000000 
#    y 0.000000 1.619570 0.000000 
#    z 0.000000 0.000000 1.588740 
# 
# From -- ./inp_files/33307.got.cif
#   From: 2010.05.17/outbox.cif.g08.bks.cpg/sg59_17_cif.got.tgz:33307.got - 2010.06.03 14:40:33.
