data_PCOD9446348
_publ_section_title
;
Structure prediction by ZEFSAII (Michael W. Deem and Ramdas Pophale) SiO2 
 PCOD9446348
Probable space group: P M M N
;
_chemical_formula_sum "Si O2"
_cell_formula_units_Z 64
_cell_length_a 27.864510
_cell_length_b 7.602413
_cell_length_c 17.919920
_cell_angle_alpha 90.000000
_cell_angle_beta 90.000000
_cell_angle_gamma 90.000000
_cell_volume 3796.111287
_symmetry_space_group_name_H-M "P M M N"
_symmetry_group_IT_number 59
_space_group.IT_coordinate_system_code '2'
_symmetry_cell_setting 'orthorhombic'
loop_
_space_group_symop_operation_xyz
x,y,z
1/2-x,1/2-y,z
1/2+x,-y,-z
-x,1/2+y,-z
-x,-y,-z
1/2+x,1/2+y,-z
1/2-x,y,z
x,1/2-y,z
loop_
_atom_site_type_symbol
_atom_site_label
_atom_site_fract_x
_atom_site_fract_y
_atom_site_fract_z
Si Si1 0.944274 0.461000 0.982388
Si Si2 0.576782 0.460807 0.141009
Si Si3 0.884298 0.541120 0.524340
Si Si4 0.538845 0.956174 0.408626
Si Si5 0.303874 0.959106 0.590583
Si Si6 0.441621 0.960822 0.340869
Si Si7 0.880941 0.464087 0.290823
Si Si8 0.965325 0.462297 0.823200
O O1 0.937730 0.250000 0.980577
O O2 0.937959 0.527287 0.897825
O O3 0.917352 0.529365 0.056321
O O4 0.000000 0.500000 0.000000
O O5 0.581924 0.250000 0.137509
O O6 0.612431 0.524285 0.205750
O O7 0.521870 0.495242 0.167261
O O8 0.885613 0.750000 0.516750
O O9 0.928687 0.465428 0.474787
O O10 0.835513 0.484673 0.483905
O O11 0.894746 0.496447 0.609889
O O12 0.531643 0.750000 0.425509
O O13 0.487371 0.033268 0.387401
O O14 0.572316 0.973871 0.336071
O O15 0.250000 0.031076 0.586119
O O16 0.300280 0.750000 0.601342
O O17 0.335561 0.026400 0.660499
O O18 0.447282 0.750000 0.336570
O O19 0.445282 0.026833 0.256038
O O20 0.881024 0.250000 0.291804
O O21 0.962076 0.250000 0.823480
#
# Coordination Sequence:
#
# PCOD9446348 Si02
#       8
#     8   8   8   8   8   8   8   8
#     4   8  14  23  34  50  73 103 136 165 193 225
#     4   9  15  23  36  55  79 103 132 168 199 230
#     4  10  20  30  42  60  79 101 131 167 206 243
#     4   9  17  28  39  54  78 107 136 165 197 233
#     4   9  18  33  49  61  77 102 130 161 200 246
#     4  10  18  27  39  55  79 109 140 169 196 234
#     4   9  16  25  40  61  80 102 132 165 200 239
#     4   9  16  25  37  52  75 109 142 167 193 228
#
# _framework density 16.859359000000001
#
# number of rings (size 3 to 8) (size 9 to 14) (size 15 to 20)
#    0.000    2.875    1.250    0.750    0.000    1.750 
#    0.000    0.000    0.000    0.000    0.000    0.000 
#    0.000    1.000    0.000   10.500    0.000    2.000 
#
# Total GULP energy -356317.198619 kJ/mol
# GULP energy per Si atom -5567.456228 kJ/mol
# Density = 1.682099 g / cm^3
# Si number density = 16.859359 Si / 1000 Ang^3
#
#
#
# Elastic Constant Matrix: (Units=GPa)
#
#
# Indices 1 2 3 4 5 6 
#
# 1 77.7237 0.2694 64.7409 0.0000 0.0000 0.0000
# 2 0.2694 36.9849 -1.3753 0.0000 0.0000 0.0000
# 3 64.7409 -1.3753 116.6486 0.0000 0.0000 0.0000
# 4 0.0000 0.0000 0.0000 2.4904 0.0000 0.0000
# 5 0.0000 0.0000 0.0000 0.0000 9.8444 0.0000
# 6 0.0000 0.0000 0.0000 0.0000 0.0000 9.0574
#
#
#
# Elastic Compliance Matrix: (Units=1/GPa)
#
#
# Indices 1 2 3 4 5 6 
#
# 1 0.023945 -0.000669 -0.013297 0.000000 0.000000 0.000000
# 2 -0.000669 0.027069 0.000690 0.000000 0.000000 0.000000
# 3 -0.013297 0.000690 0.015961 0.000000 0.000000 0.000000
# 4 0.000000 0.000000 0.000000 0.401541 0.000000 0.000000
# 5 0.000000 0.000000 0.000000 0.000000 0.101580 0.000000
# 6 0.000000 0.000000 0.000000 0.000000 0.000000 0.110407
#
#
# Mechanical properties :
#
#
# Convention : Reuss Voigt Hill
#
# Bulk Modulus (GPa) = 24.73866 39.84746 32.29306
# Shear Modulus (GPa) = 6.93935 15.45993 11.19964
#
# Velocity S-wave (km/s) = 2.03100 3.03148 2.58019
# Velocity P-wave (km/s) = 4.49504 5.99497 5.29835
#
# Compressibility (1/GPa) = 0.04042256
#
# Stress axis : x y z
#
# Youngs Moduli (GPa) = 41.76316 36.94314 62.65274
#
# Poissons Ratio (x) = 0.02471 0.83311
# Poissons Ratio (y) = 0.02794 -0.04326
# Poissons Ratio (z) = 0.55534 -0.02551
#
# Static dielectric constant tensor:
#      x y z
#    x 1.543340 0.000000 0.000000 
#    y 0.000000 1.608590 0.000000 
#    z 0.000000 0.000000 1.649820 
# 
# From -- ./inp_files/26502.got.cif
#   From: 2010.05.17/outbox.cif.g08.bks.cpg/sg59_14_cif.got.tgz:26502.got - 2010.06.03 14:40:33.
