data_PCOD9446978
_publ_section_title
;
Structure prediction by ZEFSAII (Michael W. Deem and Ramdas Pophale) SiO2 
 PCOD9446978
Probable space group: P M M N
;
_chemical_formula_sum "Si O2"
_cell_formula_units_Z 44
_cell_length_a 13.531892
_cell_length_b 15.646327
_cell_length_c 12.477390
_cell_angle_alpha 90.000000
_cell_angle_beta 90.000000
_cell_angle_gamma 90.000000
_cell_volume 2641.768001
_symmetry_space_group_name_H-M "P M M N"
_symmetry_group_IT_number 59
_space_group.IT_coordinate_system_code '2'
_symmetry_cell_setting 'orthorhombic'
loop_
_space_group_symop_operation_xyz
x,y,z
1/2-x,1/2-y,z
1/2+x,-y,-z
-x,1/2+y,-z
-x,-y,-z
1/2+x,1/2+y,-z
1/2-x,y,z
x,1/2-y,z
loop_
_atom_site_type_symbol
_atom_site_label
_atom_site_fract_x
_atom_site_fract_y
_atom_site_fract_z
Si Si1 0.362233 0.580044 0.467285
Si Si2 0.868913 0.603192 0.788441
Si Si3 0.003015 0.250000 0.833220
Si Si4 0.368989 0.250000 0.045630
Si Si5 0.363046 0.250000 0.620571
Si Si6 0.634891 0.094670 0.784784
Si Si7 0.068361 0.384133 0.447661
O O1 0.250000 0.592958 0.505324
O O2 0.367783 0.609813 0.343776
O O3 0.450606 0.620717 0.534507
O O4 0.389403 0.479707 0.463009
O O5 0.750000 0.601728 0.780715
O O6 0.896245 0.666387 0.884299
O O7 0.898993 0.503709 0.802674
O O8 0.906400 0.638244 0.674374
O O9 0.063975 0.250000 0.721623
O O10 0.934200 0.334113 0.836163
O O11 0.077232 0.250000 0.932584
O O12 0.250000 0.250000 0.032758
O O13 0.250000 0.250000 0.657803
O O14 0.382895 0.171165 0.540879
O O15 0.750000 0.102028 0.818113
#
# Coordination Sequence:
#
# PCOD9446978 Si02
#       7
#     8   8   4   4   4   8   8
#     4   9  17  31  51  77 108 140 172 209 257 314
#     4   9  18  35  58  79  99 136 183 225 260 307
#     4  12  22  34  50  77 108 143 169 214 273 318
#     4  10  22  39  56  73 100 134 178 228 273 314
#     4  12  22  31  46  78 112 139 169 212 272 326
#     4   9  18  34  55  78 104 137 181 217 255 314
#     4  10  18  31  52  78 107 135 172 213 261 308
#
# _framework density 16.655512000000002
#
# number of rings (size 3 to 8) (size 9 to 14) (size 15 to 20)
#    0.000    2.182    1.818    3.818    0.000    1.455 
#    0.000    0.455    0.000    2.182    0.000    0.000 
#    0.000    0.000    0.000    0.000    0.000    0.000 
#
# Total GULP energy -245311.361756 kJ/mol
# GULP energy per Si atom -5575.258222 kJ/mol
# Density = 1.661760 g / cm^3
# Si number density = 16.655512 Si / 1000 Ang^3
#
#
#
# Elastic Constant Matrix: (Units=GPa)
#
#
# Indices 1 2 3 4 5 6 
#
# 1 75.5427 32.2389 26.4032 0.0000 0.0000 0.0000
# 2 32.2389 72.0957 49.8338 0.0000 0.0000 0.0000
# 3 26.4032 49.8338 91.6215 0.0000 0.0000 0.0000
# 4 0.0000 0.0000 0.0000 17.3052 0.0000 0.0000
# 5 0.0000 0.0000 0.0000 0.0000 30.6759 0.0000
# 6 0.0000 0.0000 0.0000 0.0000 0.0000 17.3465
#
#
#
# Elastic Compliance Matrix: (Units=1/GPa)
#
#
# Indices 1 2 3 4 5 6 
#
# 1 0.016439 -0.006532 -0.001184 0.000000 0.000000 0.000000
# 2 -0.006532 0.024823 -0.011619 0.000000 0.000000 0.000000
# 3 -0.001184 -0.011619 0.017575 0.000000 0.000000 0.000000
# 4 0.000000 0.000000 0.000000 0.057786 0.000000 0.000000
# 5 0.000000 0.000000 0.000000 0.000000 0.032599 0.000000
# 6 0.000000 0.000000 0.000000 0.000000 0.000000 0.057648
#
#
# Mechanical properties :
#
#
# Convention : Reuss Voigt Hill
#
# Bulk Modulus (GPa) = 49.58817 50.69018 50.13918
# Shear Modulus (GPa) = 19.82052 21.78448 20.80250
#
# Velocity S-wave (km/s) = 3.45342 3.62047 3.53793
# Velocity P-wave (km/s) = 6.76306 6.92659 6.84531
#
# Compressibility (1/GPa) = 0.02016610
#
# Stress axis : x y z
#
# Youngs Moduli (GPa) = 60.82975 40.28574 56.89792
#
# Poissons Ratio (x) = 0.26317 0.06739
# Poissons Ratio (y) = 0.39737 0.66108
# Poissons Ratio (z) = 0.07204 0.46807
#
# Static dielectric constant tensor:
#      x y z
#    x 1.561120 0.000000 0.000000 
#    y 0.000000 1.604960 0.000000 
#    z 0.000000 0.000000 1.525190 
# 
# From -- ./inp_files/16774.got.cif
#   From: 2010.05.17/outbox.cif.g08.bks.cpg/sg59_9_cif.got.tgz:16774.got - 2010.06.03 14:40:33.
