data_PCOD9446715
_publ_section_title
;
Structure prediction by ZEFSAII (Michael W. Deem and Ramdas Pophale) SiO2 
 PCOD9446715
Probable space group: P M M N
;
_chemical_formula_sum "Si O2"
_cell_formula_units_Z 64
_cell_length_a 19.988304
_cell_length_b 16.400151
_cell_length_c 9.968451
_cell_angle_alpha 90.000000
_cell_angle_beta 90.000000
_cell_angle_gamma 90.000000
_cell_volume 3267.769923
_symmetry_space_group_name_H-M "P M M N"
_symmetry_group_IT_number 59
_space_group.IT_coordinate_system_code '2'
_symmetry_cell_setting 'orthorhombic'
loop_
_space_group_symop_operation_xyz
x,y,z
1/2-x,1/2-y,z
1/2+x,-y,-z
-x,1/2+y,-z
-x,-y,-z
1/2+x,1/2+y,-z
1/2-x,y,z
x,1/2-y,z
loop_
_atom_site_type_symbol
_atom_site_label
_atom_site_fract_x
_atom_site_fract_y
_atom_site_fract_z
Si Si1 0.323285 0.577822 0.763102
Si Si2 0.544171 0.412943 0.099067
Si Si3 0.541974 0.601422 0.133280
Si Si4 0.976441 0.416087 0.576614
Si Si5 0.036994 0.338857 0.325857
Si Si6 0.823986 0.626020 0.545443
Si Si7 0.675868 0.070661 0.548923
Si Si8 0.175337 0.121559 0.766017
O O1 0.250000 0.601191 0.813912
O O2 0.384663 0.615187 0.843818
O O3 0.328134 0.598882 0.605964
O O4 0.326367 0.478182 0.764626
O O5 0.555006 0.509726 0.078068
O O6 0.489949 0.402779 0.217879
O O7 0.514895 0.369097 0.968389
O O8 0.516255 0.593790 0.285465
O O9 0.612865 0.646719 0.143123
O O10 0.897330 0.410150 0.607689
O O11 0.000000 0.500000 0.500000
O O12 0.997856 0.350723 0.465376
O O13 0.023256 0.250000 0.268672
O O14 0.114657 0.347025 0.363748
O O15 0.750000 0.654280 0.586093
O O16 0.823065 0.527743 0.548498
O O17 0.834218 0.648329 0.388742
O O18 0.750000 0.096822 0.601602
O O19 0.250000 0.145932 0.808442
#
# Coordination Sequence:
#
# PCOD9446715 Si02
#       8
#     8   8   8   8   8   8   8   8
#     4   8  13  24  45  72 101 132 165 212 268 311
#     4  10  19  32  47  76 105 135 176 215 263 328
#     4  10  18  29  54  78  99 134 177 222 271 309
#     4  12  17  33  57  78 103 135 177 231 267 311
#     4  12  23  34  51  77 110 144 176 218 272 325
#     4   9  16  29  50  76 102 135 178 220 267 316
#     4   9  15  25  50  81 103 129 171 224 274 310
#     4   8  13  24  45  75 101 124 166 223 268 305
#
# _framework density 19.585222000000002
#
# number of rings (size 3 to 8) (size 9 to 14) (size 15 to 20)
#    0.000    2.250    5.000    2.250    0.000    0.250 
#    0.000    1.875    0.000    6.000    0.000    0.000 
#    0.000    2.000    0.000    0.000    0.000    0.000 
#
# Total GULP energy -356374.473058 kJ/mol
# GULP energy per Si atom -5568.351142 kJ/mol
# Density = 1.954065 g / cm^3
# Si number density = 19.585222 Si / 1000 Ang^3
#
#
#
# Elastic Constant Matrix: (Units=GPa)
#
#
# Indices 1 2 3 4 5 6 
#
# 1 165.3021 10.4339 28.8506 0.0000 0.0000 0.0000
# 2 10.4339 18.6243 -0.1605 0.0000 0.0000 0.0000
# 3 28.8506 -0.1605 59.2922 0.0000 0.0000 0.0000
# 4 0.0000 0.0000 0.0000 -0.5397 0.0000 0.0000
# 5 0.0000 0.0000 0.0000 0.0000 26.9830 0.0000
# 6 0.0000 0.0000 0.0000 0.0000 0.0000 -5.5121
#
#
#
# Elastic Compliance Matrix: (Units=1/GPa)
#
#
# Indices 1 2 3 4 5 6 
#
# 1 0.006881 -0.003884 -0.003359 0.000000 0.000000 0.000000
# 2 -0.003884 0.055887 0.002041 0.000000 0.000000 0.000000
# 3 -0.003359 0.002041 0.018505 0.000000 0.000000 0.000000
# 4 0.000000 0.000000 0.000000 -1.852801 0.000000 0.000000
# 5 0.000000 0.000000 0.000000 0.000000 0.037060 0.000000
# 6 0.000000 0.000000 0.000000 0.000000 0.000000 -0.181420
#
#
# Mechanical properties :
#
#
# Convention : Reuss Voigt Hill
#
# Bulk Modulus (GPa) = 14.11028 35.71852 24.91440
# Shear Modulus (GPa) = -2.65694 17.79254 7.56780
#
# Velocity S-wave (km/s) = -1.16600 3.01735 1.96785
# Velocity P-wave (km/s) = 2.32539 5.51509 4.23224
#
# Compressibility (1/GPa) = 0.07087034
#
# Stress axis : x y z
#
# Youngs Moduli (GPa) = 145.33042 17.89331 54.03828
#
# Poissons Ratio (x) = 0.06949 0.18149
# Poissons Ratio (y) = 0.56444 -0.11030
# Poissons Ratio (z) = 0.48811 -0.03652
#
# Static dielectric constant tensor:
#      x y z
#    x 1.757630 0.000000 0.000000 
#    y 0.000000 1.705530 0.000000 
#    z 0.000000 0.000000 1.671150 
# 
# From -- ./inp_files/11745.got.cif
#   From: 2010.05.17/outbox.cif.g08.bks.cpg/sg59_6_cif.got.tgz:11745.got - 2010.06.03 14:40:33.
