data_PCOD9446894
_publ_section_title
;
Structure prediction by ZEFSAII (Michael W. Deem and Ramdas Pophale) SiO2 
 PCOD9446894
Probable space group: P M M N
;
_chemical_formula_sum "Si O2"
_cell_formula_units_Z 48
_cell_length_a 11.276184
_cell_length_b 18.910781
_cell_length_c 13.061848
_cell_angle_alpha 90.000000
_cell_angle_beta 90.000000
_cell_angle_gamma 90.000000
_cell_volume 2785.327357
_symmetry_space_group_name_H-M "P M M N"
_symmetry_group_IT_number 59
_space_group.IT_coordinate_system_code '2'
_symmetry_cell_setting 'orthorhombic'
loop_
_space_group_symop_operation_xyz
x,y,z
1/2-x,1/2-y,z
1/2+x,-y,-z
-x,1/2+y,-z
-x,-y,-z
1/2+x,1/2+y,-z
1/2-x,y,z
x,1/2-y,z
loop_
_atom_site_type_symbol
_atom_site_label
_atom_site_fract_x
_atom_site_fract_y
_atom_site_fract_z
Si Si1 0.383389 0.750000 0.805652
Si Si2 0.880707 0.750000 0.947114
Si Si3 0.113869 0.539292 0.877360
Si Si4 0.387549 0.664586 0.243264
Si Si5 0.895056 0.332386 0.528114
Si Si6 0.387144 0.895183 0.677127
Si Si7 0.039063 0.388793 0.946422
O O1 0.250000 0.750000 0.855547
O O2 0.388292 0.819249 0.734352
O O3 0.499470 0.750000 0.877725
O O4 0.750000 0.750000 0.895121
O O5 0.889978 0.820584 0.015519
O O6 0.250000 0.563948 0.876788
O O7 0.063331 0.551546 0.762755
O O8 0.109617 0.458341 0.912245
O O9 0.041659 0.585400 0.958640
O O10 0.250000 0.643573 0.233626
O O11 0.392175 0.750000 0.238455
O O12 0.430414 0.644988 0.357581
O O13 0.460483 0.633271 0.150381
O O14 0.750000 0.332550 0.526249
O O15 0.929297 0.250000 0.512333
O O16 0.939577 0.380914 0.435043
O O17 0.250000 0.916251 0.659993
#
# Coordination Sequence:
#
# PCOD9446894 Si02
#       7
#     4   4   8   8   8   8   8
#     4  10  18  30  53  82 104 132 179 221 256 306
#     4  12  24  36  51  76 110 144 177 217 270 322
#     4  10  21  34  50  72 100 134 173 222 268 311
#     4   9  17  29  49  77 104 131 168 218 265 306
#     4   8  13  23  43  75 108 128 153 210 278 315
#     4   9  15  27  49  77 104 128 162 216 269 309
#     4  11  21  35  50  70 102 138 181 208 261 319
#
# _framework density 17.233163000000001
#
# number of rings (size 3 to 8) (size 9 to 14) (size 15 to 20)
#    0.000    2.333    3.333    2.000    0.000    0.667 
#    0.000    0.833    0.000    0.000    0.000    3.500 
#    0.000    0.000    0.000    0.000    0.000    0.000 
#
# Total GULP energy -267210.063116 kJ/mol
# GULP energy per Si atom -5566.876315 kJ/mol
# Density = 1.719394 g / cm^3
# Si number density = 17.233163 Si / 1000 Ang^3
#
#
#
# Elastic Constant Matrix: (Units=GPa)
#
#
# Indices 1 2 3 4 5 6 
#
# 1 57.3088 10.2893 35.5687 0.0000 0.0000 0.0000
# 2 10.2893 52.9676 12.1564 0.0000 0.0000 0.0000
# 3 35.5687 12.1564 118.9563 0.0000 0.0000 0.0000
# 4 0.0000 0.0000 0.0000 21.6072 0.0000 0.0000
# 5 0.0000 0.0000 0.0000 0.0000 24.7035 0.0000
# 6 0.0000 0.0000 0.0000 0.0000 0.0000 1.6267
#
#
#
# Elastic Compliance Matrix: (Units=1/GPa)
#
#
# Indices 1 2 3 4 5 6 
#
# 1 0.021826 -0.002808 -0.006239 0.000000 0.000000 0.000000
# 2 -0.002808 0.019694 -0.001173 0.000000 0.000000 0.000000
# 3 -0.006239 -0.001173 0.010392 0.000000 0.000000 0.000000
# 4 0.000000 0.000000 0.000000 0.046281 0.000000 0.000000
# 5 0.000000 0.000000 0.000000 0.000000 0.040480 0.000000
# 6 0.000000 0.000000 0.000000 0.000000 0.000000 0.614731
#
#
# Mechanical properties :
#
#
# Convention : Reuss Voigt Hill
#
# Bulk Modulus (GPa) = 31.77452 38.36238 35.06845
# Shear Modulus (GPa) = 6.37483 21.00204 13.68843
#
# Velocity S-wave (km/s) = 1.92541 3.49477 2.82140
# Velocity P-wave (km/s) = 4.83952 6.21238 5.56842
#
# Compressibility (1/GPa) = 0.03147175
#
# Stress axis : x y z
#
# Youngs Moduli (GPa) = 45.81739 50.77660 96.22919
#
# Poissons Ratio (x) = 0.14257 0.60038
# Poissons Ratio (y) = 0.12865 0.11288
# Poissons Ratio (z) = 0.28586 0.05956
#
# Static dielectric constant tensor:
#      x y z
#    x 1.580720 0.000000 0.000000 
#    y 0.000000 1.594250 0.000000 
#    z 0.000000 0.000000 1.617040 
# 
# From -- ./inp_files/15963.got.cif
#   From: 2010.05.17/outbox.cif.g08.bks.cpg/sg59_8_cif.got.tgz:15963.got - 2010.06.03 14:40:33.
