data_PCOD9446565
_publ_section_title
;
Structure prediction by ZEFSAII (Michael W. Deem and Ramdas Pophale) SiO2 
 PCOD9446565
Probable space group: P M M N
;
_chemical_formula_sum "Si O2"
_cell_formula_units_Z 56
_cell_length_a 9.020641
_cell_length_b 22.727935
_cell_length_c 18.137237
_cell_angle_alpha 90.000000
_cell_angle_beta 90.000000
_cell_angle_gamma 90.000000
_cell_volume 3718.506166
_symmetry_space_group_name_H-M "P M M N"
_symmetry_group_IT_number 59
_space_group.IT_coordinate_system_code '2'
_symmetry_cell_setting 'orthorhombic'
loop_
_space_group_symop_operation_xyz
x,y,z
1/2-x,1/2-y,z
1/2+x,-y,-z
-x,1/2+y,-z
-x,-y,-z
1/2+x,1/2+y,-z
1/2-x,y,z
x,1/2-y,z
loop_
_atom_site_type_symbol
_atom_site_label
_atom_site_fract_x
_atom_site_fract_y
_atom_site_fract_z
Si Si1 0.072771 0.413227 0.963187
Si Si2 0.420121 0.555948 0.594151
Si Si3 0.426653 0.026294 0.259552
Si Si4 0.929663 0.600747 0.289257
Si Si5 0.425831 0.541558 0.892603
Si Si6 0.079298 0.417090 0.549682
Si Si7 0.430359 0.183068 0.845267
O O1 0.250000 0.409458 0.976128
O O2 0.047552 0.473537 0.917295
O O3 0.024074 0.358485 0.913131
O O4 0.988639 0.419965 0.040191
O O5 0.250000 0.570898 0.609434
O O6 0.516988 0.560393 0.667785
O O7 0.482376 0.590021 0.523199
O O8 0.424432 0.486603 0.571354
O O9 0.250000 0.023765 0.258028
O O10 0.494059 0.960417 0.266803
O O11 0.491313 0.052189 0.184001
O O12 0.750000 0.592059 0.286572
O O13 0.968103 0.614178 0.374415
O O14 0.970839 0.650739 0.230951
O O15 0.250000 0.549150 0.883946
O O16 0.250000 0.402187 0.533484
O O17 0.250000 0.184026 0.846659
O O18 0.483210 0.250000 0.849857
#
# Coordination Sequence:
#
# PCOD9446565 Si02
#       7
#     8   8   8   8   8   8   8
#     4   9  17  29  44  63  85 110 145 182 218 261
#     4   9  16  25  37  54  80 110 140 171 206 247
#     4  11  19  26  40  61  85 112 144 177 215 261
#     4   9  16  28  42  59  83 113 147 180 214 252
#     4  10  18  29  44  61  85 114 144 180 220 264
#     4   8  14  23  36  53  78 109 141 173 203 241
#     4   9  16  28  47  67  87 113 147 185 221 256
#
# _framework density 15.059811
#
# number of rings (size 3 to 8) (size 9 to 14) (size 15 to 20)
#    0.000    2.714    1.429    3.000    0.000    4.000 
#    0.000    0.000    0.000    1.714    0.000    0.000 
#    0.000    1.143    0.000    9.714    0.000    2.857 
#
# Total GULP energy -311902.839733 kJ/mol
# GULP energy per Si atom -5569.693567 kJ/mol
# Density = 1.502553 g / cm^3
# Si number density = 15.059811 Si / 1000 Ang^3
#
#
#
# Elastic Constant Matrix: (Units=GPa)
#
#
# Indices 1 2 3 4 5 6 
#
# 1 57.8165 17.3248 61.5729 0.0000 0.0000 0.0000
# 2 17.3248 55.3471 48.7185 0.0000 0.0000 0.0000
# 3 61.5729 48.7185 151.9443 0.0000 0.0000 0.0000
# 4 0.0000 0.0000 0.0000 11.2400 0.0000 0.0000
# 5 0.0000 0.0000 0.0000 0.0000 27.6651 0.0000
# 6 0.0000 0.0000 0.0000 0.0000 0.0000 8.5200
#
#
#
# Elastic Compliance Matrix: (Units=1/GPa)
#
#
# Indices 1 2 3 4 5 6 
#
# 1 0.030564 0.001860 -0.012982 0.000000 0.000000 0.000000
# 2 0.001860 0.025285 -0.008861 0.000000 0.000000 0.000000
# 3 -0.012982 -0.008861 0.014683 0.000000 0.000000 0.000000
# 4 0.000000 0.000000 0.000000 0.088968 0.000000 0.000000
# 5 0.000000 0.000000 0.000000 0.000000 0.036147 0.000000
# 6 0.000000 0.000000 0.000000 0.000000 0.000000 0.117371
#
#
# Mechanical properties :
#
#
# Convention : Reuss Voigt Hill
#
# Bulk Modulus (GPa) = 32.71538 57.81559 45.26549
# Shear Modulus (GPa) = 13.76750 18.65112 16.20931
#
# Velocity S-wave (km/s) = 3.02683 3.52301 3.28430
# Velocity P-wave (km/s) = 5.82979 7.41773 6.67118
#
# Compressibility (1/GPa) = 0.03056666
#
# Stress axis : x y z
#
# Youngs Moduli (GPa) = 32.71804 39.54848 68.10480
#
# Poissons Ratio (x) = -0.07356 0.88414
# Poissons Ratio (y) = -0.06086 0.60348
# Poissons Ratio (z) = 0.42475 0.35044
#
# Static dielectric constant tensor:
#      x y z
#    x 1.500560 0.000000 0.000000 
#    y 0.000000 1.471530 0.000000 
#    z 0.000000 0.000000 1.520400 
# 
# From -- ./inp_files/26387.got.cif
#   From: 2010.05.17/outbox.cif.g08.bks.cpg/sg59_14_cif.got.tgz:26387.got - 2010.06.03 14:40:33.
