data_PCOD9446760
_publ_section_title
;
Structure prediction by ZEFSAII (Michael W. Deem and Ramdas Pophale) SiO2 
 PCOD9446760
Probable space group: P M M N
;
_chemical_formula_sum "Si O2"
_cell_formula_units_Z 48
_cell_length_a 8.314129
_cell_length_b 26.521217
_cell_length_c 12.476492
_cell_angle_alpha 90.000000
_cell_angle_beta 90.000000
_cell_angle_gamma 90.000000
_cell_volume 2751.076709
_symmetry_space_group_name_H-M "P M M N"
_symmetry_group_IT_number 59
_space_group.IT_coordinate_system_code '2'
_symmetry_cell_setting 'orthorhombic'
loop_
_space_group_symop_operation_xyz
x,y,z
1/2-x,1/2-y,z
1/2+x,-y,-z
-x,1/2+y,-z
-x,-y,-z
1/2+x,1/2+y,-z
1/2-x,y,z
x,1/2-y,z
loop_
_atom_site_type_symbol
_atom_site_label
_atom_site_fract_x
_atom_site_fract_y
_atom_site_fract_z
Si Si1 0.562467 0.574738 0.729791
Si Si2 0.060420 0.470153 0.649181
Si Si3 0.442756 0.609053 0.178825
Si Si4 0.944879 0.691904 0.332533
Si Si5 0.940622 0.444198 0.033328
Si Si6 0.946372 0.886209 0.514391
O O1 0.750000 0.585097 0.743640
O O2 0.537831 0.519677 0.677346
O O3 0.489035 0.571906 0.847500
O O4 0.497494 0.612219 0.637287
O O5 0.250000 0.482183 0.639841
O O6 0.005580 0.437912 0.546344
O O7 0.033384 0.431545 0.747087
O O8 0.250000 0.601951 0.189539
O O9 0.488799 0.662822 0.228597
O O10 0.490853 0.596093 0.057371
O O11 0.750000 0.689865 0.328805
O O12 0.994353 0.750000 0.337984
O O13 0.996373 0.659693 0.437500
O O14 0.750000 0.447181 0.030554
O O15 0.000000 0.500000 0.000000
O O16 0.750000 0.886300 0.515372
#
# Coordination Sequence:
#
# PCOD9446760 Si02
#       6
#     8   8   8   8   8   8
#     4  11  20  30  46  69 102 139 173 205 246 299
#     4  10  18  30  48  69  99 135 171 208 246 293
#     4  10  20  33  50  74 102 132 170 212 256 301
#     4   9  18  35  59  81 100 125 161 209 263 311
#     4  11  22  34  49  70 101 140 178 213 249 297
#     4   8  17  31  47  72 101 130 164 205 251 299
#
# _framework density 17.447714000000001
#
# number of rings (size 3 to 8) (size 9 to 14) (size 15 to 20)
#    0.000    2.167    1.667    3.500    0.000    2.333 
#    0.000    7.500    0.000    1.000    0.000    2.333 
#    0.000    0.000    0.000    0.000    0.000    0.000 
#
# Total GULP energy -267622.245183 kJ/mol
# GULP energy per Si atom -5575.463441 kJ/mol
# Density = 1.740800 g / cm^3
# Si number density = 17.447714 Si / 1000 Ang^3
#
#
#
# Elastic Constant Matrix: (Units=GPa)
#
#
# Indices 1 2 3 4 5 6 
#
# 1 18.7098 2.1498 19.8760 0.0000 0.0000 0.0000
# 2 2.1498 82.0668 61.2286 0.0000 0.0000 0.0000
# 3 19.8760 61.2286 179.3019 0.0000 0.0000 0.0000
# 4 0.0000 0.0000 0.0000 9.1208 0.0000 0.0000
# 5 0.0000 0.0000 0.0000 0.0000 20.9171 0.0000
# 6 0.0000 0.0000 0.0000 0.0000 0.0000 16.2902
#
#
#
# Elastic Compliance Matrix: (Units=1/GPa)
#
#
# Indices 1 2 3 4 5 6 
#
# 1 0.061901 0.004694 -0.008465 0.000000 0.000000 0.000000
# 2 0.004694 0.016707 -0.006225 0.000000 0.000000 0.000000
# 3 -0.008465 -0.006225 0.008641 0.000000 0.000000 0.000000
# 4 0.000000 0.000000 0.000000 0.109640 0.000000 0.000000
# 5 0.000000 0.000000 0.000000 0.000000 0.047808 0.000000
# 6 0.000000 0.000000 0.000000 0.000000 0.000000 0.061386
#
#
# Mechanical properties :
#
#
# Convention : Reuss Voigt Hill
#
# Bulk Modulus (GPa) = 14.86841 49.62081 32.24461
# Shear Modulus (GPa) = 14.34740 22.38722 18.36731
#
# Velocity S-wave (km/s) = 2.87070 3.58593 3.24806
# Velocity P-wave (km/s) = 4.41906 6.75623 5.70854
#
# Compressibility (1/GPa) = 0.06725667
#
# Stress axis : x y z
#
# Youngs Moduli (GPa) = 16.15484 59.85525 115.72169
#
# Poissons Ratio (x) = -0.28095 0.97955
# Poissons Ratio (y) = -0.07583 0.72042
# Poissons Ratio (z) = 0.13675 0.37263
#
# Static dielectric constant tensor:
#      x y z
#    x 1.563280 0.000000 0.000000 
#    y 0.000000 1.590970 0.000000 
#    z 0.000000 0.000000 1.642560 
# 
# From -- ./inp_files/14484.got.cif
#   From: 2010.05.17/outbox.cif.g08.bks.cpg/sg59_8_cif.got.tgz:14484.got - 2010.06.03 14:40:33.
