data_PCOD9446932
_publ_section_title
;
Structure prediction by ZEFSAII (Michael W. Deem and Ramdas Pophale) SiO2 
 PCOD9446932
Probable space group: P M M N
;
_chemical_formula_sum "Si O2"
_cell_formula_units_Z 64
_cell_length_a 8.595981
_cell_length_b 30.703521
_cell_length_c 15.383659
_cell_angle_alpha 90.000000
_cell_angle_beta 90.000000
_cell_angle_gamma 90.000000
_cell_volume 4060.161171
_symmetry_space_group_name_H-M "P M M N"
_symmetry_group_IT_number 59
_space_group.IT_coordinate_system_code '2'
_symmetry_cell_setting 'orthorhombic'
loop_
_space_group_symop_operation_xyz
x,y,z
1/2-x,1/2-y,z
1/2+x,-y,-z
-x,1/2+y,-z
-x,-y,-z
1/2+x,1/2+y,-z
1/2-x,y,z
x,1/2-y,z
loop_
_atom_site_type_symbol
_atom_site_label
_atom_site_fract_x
_atom_site_fract_y
_atom_site_fract_z
Si Si1 0.437730 0.118816 0.795030
Si Si2 0.562209 0.943052 0.365531
Si Si3 0.562865 0.798574 0.491699
Si Si4 0.935450 0.030769 0.127503
Si Si5 0.565693 0.200700 0.701816
Si Si6 0.063807 0.462976 0.319993
Si Si7 0.937465 0.937272 0.045662
Si Si8 0.939852 0.892411 0.540980
O O1 0.250000 0.121336 0.792781
O O2 0.483630 0.083967 0.720494
O O3 0.507800 0.164696 0.768299
O O4 0.484390 0.101104 0.889291
O O5 0.750000 0.945834 0.366072
O O6 0.513406 0.916478 0.451333
O O7 0.496600 0.991614 0.359968
O O8 0.750000 0.797656 0.498561
O O9 0.504934 0.750000 0.517163
O O10 0.518941 0.805259 0.390723
O O11 0.507113 0.842080 0.540817
O O12 0.750000 0.031226 0.135734
O O13 0.007785 0.040165 0.220856
O O14 0.981806 0.982347 0.094470
O O15 0.989245 0.062108 0.049589
O O16 0.750000 0.196387 0.687533
O O17 0.533351 0.250000 0.731395
O O18 0.250000 0.463766 0.321717
O O19 0.009698 0.422357 0.378783
O O20 0.750000 0.937355 0.037329
O O21 0.750000 0.891652 0.540811
#
# Coordination Sequence:
#
# PCOD9446932 Si02
#       8
#     8   8   8   8   8   8   8   8
#     4  10  18  31  51  70  93 126 159 193 232 277
#     4  10  18  32  47  64  95 128 161 198 228 268
#     4   9  16  30  51  68  86 119 160 197 237 281
#     4  10  19  33  49  67  92 122 155 194 234 277
#     4  10  20  31  44  68 100 126 153 194 236 277
#     4  11  21  31  45  66  95 129 162 196 234 278
#     4   9  18  32  49  70  92 117 151 194 237 273
#     4   9  18  31  46  67  94 124 159 198 235 272
#
# _framework density 15.762922
#
# number of rings (size 3 to 8) (size 9 to 14) (size 15 to 20)
#    0.000    2.250    2.500    1.500    0.000    2.250 
#    0.000    1.875    0.000    0.000    0.000    0.875 
#    0.000    5.000    0.000    0.000    0.000    0.000 
#
# Total GULP energy -356859.035497 kJ/mol
# GULP energy per Si atom -5575.922430 kJ/mol
# Density = 1.572705 g / cm^3
# Si number density = 15.762922 Si / 1000 Ang^3
#
#
#
# Elastic Constant Matrix: (Units=GPa)
#
#
# Indices 1 2 3 4 5 6 
#
# 1 9.3335 19.2959 14.2202 0.0000 0.0000 0.0000
# 2 19.2959 130.9887 59.4176 0.0000 0.0000 0.0000
# 3 14.2202 59.4176 82.1469 0.0000 0.0000 0.0000
# 4 0.0000 0.0000 0.0000 21.9965 0.0000 0.0000
# 5 0.0000 0.0000 0.0000 0.0000 17.2579 0.0000
# 6 0.0000 0.0000 0.0000 0.0000 0.0000 20.7556
#
#
#
# Elastic Compliance Matrix: (Units=1/GPa)
#
#
# Indices 1 2 3 4 5 6 
#
# 1 0.168084 -0.017208 -0.016650 0.000000 0.000000 0.000000
# 2 -0.017208 0.013124 -0.006514 0.000000 0.000000 0.000000
# 3 -0.016650 -0.006514 0.019767 0.000000 0.000000 0.000000
# 4 0.000000 0.000000 0.000000 0.045462 0.000000 0.000000
# 5 0.000000 0.000000 0.000000 0.000000 0.057944 0.000000
# 6 0.000000 0.000000 0.000000 0.000000 0.000000 0.048180
#
#
# Mechanical properties :
#
#
# Convention : Reuss Voigt Hill
#
# Bulk Modulus (GPa) = 8.31727 45.37074 26.84400
# Shear Modulus (GPa) = 10.56231 20.63770 15.60000
#
# Velocity S-wave (km/s) = 2.59138 3.62229 3.14931
# Velocity P-wave (km/s) = 3.77381 6.80737 5.50372
#
# Compressibility (1/GPa) = 0.12023172
#
# Stress axis : x y z
#
# Youngs Moduli (GPa) = 5.94940 76.19727 50.58930
#
# Poissons Ratio (x) = 1.31119 0.84231
# Poissons Ratio (y) = 0.10238 0.32953
# Poissons Ratio (z) = 0.09906 0.49633
#
# Static dielectric constant tensor:
#      x y z
#    x 1.538820 0.000000 0.000000 
#    y 0.000000 1.538060 0.000000 
#    z 0.000000 0.000000 1.507350 
# 
# From -- ./inp_files/21875.got.cif
#   From: 2010.05.17/outbox.cif.g08.bks.cpg/sg59_11_cif.got.tgz:21875.got - 2010.06.03 14:40:33.
