data_PCOD9446482
_publ_section_title
;
Structure prediction by ZEFSAII (Michael W. Deem and Ramdas Pophale) SiO2 
 PCOD9446482
Probable space group: P M M N
;
_chemical_formula_sum "Si O2"
_cell_formula_units_Z 56
_cell_length_a 14.550611
_cell_length_b 7.531290
_cell_length_c 27.064289
_cell_angle_alpha 90.000000
_cell_angle_beta 90.000000
_cell_angle_gamma 90.000000
_cell_volume 2965.836622
_symmetry_space_group_name_H-M "P M M N"
_symmetry_group_IT_number 59
_space_group.IT_coordinate_system_code '2'
_symmetry_cell_setting 'orthorhombic'
loop_
_space_group_symop_operation_xyz
x,y,z
1/2-x,1/2-y,z
1/2+x,-y,-z
-x,1/2+y,-z
-x,-y,-z
1/2+x,1/2+y,-z
1/2-x,y,z
x,1/2-y,z
loop_
_atom_site_type_symbol
_atom_site_label
_atom_site_fract_x
_atom_site_fract_y
_atom_site_fract_z
Si Si1 0.857967 0.036047 0.041063
Si Si2 0.033567 0.963401 0.575710
Si Si3 0.644438 0.467339 0.930496
Si Si4 0.017540 0.453969 0.867226
Si Si5 0.353852 0.461511 0.782541
Si Si6 0.355006 0.535945 0.669479
Si Si7 0.354179 0.962385 0.479881
O O1 0.750000 0.994250 0.046777
O O2 0.867134 0.250000 0.043683
O O3 0.915791 0.955848 0.085272
O O4 0.885621 0.977905 0.985774
O O5 0.041074 0.750000 0.575715
O O6 0.075709 0.028265 0.627251
O O7 0.096332 0.030225 0.529961
O O8 0.927695 0.004010 0.563480
O O9 0.750000 0.519382 0.923510
O O10 0.641923 0.250000 0.930764
O O11 0.576502 0.533605 0.888238
O O12 0.996540 0.250000 0.853556
O O13 0.073072 0.535265 0.821554
O O14 0.250000 0.533145 0.789430
O O15 0.348441 0.250000 0.791448
O O16 0.379934 0.487694 0.725485
O O17 0.250000 0.473873 0.660326
O O18 0.353136 0.750000 0.667098
O O19 0.250000 0.029707 0.473404
O O20 0.347778 0.750000 0.484948
#
# Coordination Sequence:
#
# PCOD9446482 Si02
#       7
#     8   8   8   8   8   8   8
#     4   9  17  28  42  62  88 114 138 168 209 258
#     4   9  17  29  46  68  92 119 152 187 220 256
#     4   8  15  28  44  62  84 110 141 175 211 253
#     4  10  18  28  45  65  85 112 143 176 214 255
#     4   9  18  30  42  61  88 112 138 178 224 262
#     4   9  17  30  48  67  87 115 150 182 213 254
#     4   9  17  29  45  67  96 125 150 180 219 261
#
# _framework density 18.881688
#
# number of rings (size 3 to 8) (size 9 to 14) (size 15 to 20)
#    0.000    3.000    0.000    2.143    0.000    4.000 
#    0.000    1.429    0.000    4.714    0.000    2.000 
#    0.000    0.000    0.000    0.000    0.000    0.000 
#
# Total GULP energy -312269.820302 kJ/mol
# GULP energy per Si atom -5576.246791 kJ/mol
# Density = 1.883871 g / cm^3
# Si number density = 18.881688 Si / 1000 Ang^3
#
#
#
# Elastic Constant Matrix: (Units=GPa)
#
#
# Indices 1 2 3 4 5 6 
#
# 1 133.0536 0.7622 91.1769 0.0000 0.0000 0.0000
# 2 0.7622 46.1574 -3.4380 0.0000 0.0000 0.0000
# 3 91.1769 -3.4380 125.3208 0.0000 0.0000 0.0000
# 4 0.0000 0.0000 0.0000 11.2380 0.0000 0.0000
# 5 0.0000 0.0000 0.0000 0.0000 30.7573 0.0000
# 6 0.0000 0.0000 0.0000 0.0000 0.0000 10.8232
#
#
#
# Elastic Compliance Matrix: (Units=1/GPa)
#
#
# Indices 1 2 3 4 5 6 
#
# 1 0.015041 -0.001066 -0.010972 0.000000 0.000000 0.000000
# 2 -0.001066 0.021785 0.001373 0.000000 0.000000 0.000000
# 3 -0.010972 0.001373 0.016000 0.000000 0.000000 0.000000
# 4 0.000000 0.000000 0.000000 0.088984 0.000000 0.000000
# 5 0.000000 0.000000 0.000000 0.000000 0.032513 0.000000
# 6 0.000000 0.000000 0.000000 0.000000 0.000000 0.092394
#
#
# Mechanical properties :
#
#
# Convention : Reuss Voigt Hill
#
# Bulk Modulus (GPa) = 31.75011 53.50376 42.62693
# Shear Modulus (GPa) = 16.74798 24.96576 20.85687
#
# Velocity S-wave (km/s) = 2.98148 3.64018 3.32717
# Velocity P-wave (km/s) = 5.35762 6.78717 6.11432
#
# Compressibility (1/GPa) = 0.03149596
#
# Stress axis : x y z
#
# Youngs Moduli (GPa) = 66.48683 45.90341 62.50070
#
# Poissons Ratio (x) = 0.04892 0.68576
# Poissons Ratio (y) = 0.07085 -0.08581
# Poissons Ratio (z) = 0.72949 -0.06302
#
# Static dielectric constant tensor:
#      x y z
#    x 1.666770 0.000000 0.000000 
#    y 0.000000 1.707320 0.000000 
#    z 0.000000 0.000000 1.641490 
# 
# From -- ./inp_files/31927.got.cif
#   From: 2010.05.17/outbox.cif.g08.bks.cpg/sg59_16_cif.got.tgz:31927.got - 2010.06.03 14:40:33.
