data_PCOD9446552
_publ_section_title
;
Structure prediction by ZEFSAII (Michael W. Deem and Ramdas Pophale) SiO2 
 PCOD9446552
Probable space group: P M M N
;
_chemical_formula_sum "Si O2"
_cell_formula_units_Z 58
_cell_length_a 25.299544
_cell_length_b 7.418628
_cell_length_c 12.300042
_cell_angle_alpha 90.000000
_cell_angle_beta 90.000000
_cell_angle_gamma 90.000000
_cell_volume 2308.569121
_symmetry_space_group_name_H-M "P M M N"
_symmetry_group_IT_number 59
_space_group.IT_coordinate_system_code '2'
_symmetry_cell_setting 'orthorhombic'
loop_
_space_group_symop_operation_xyz
x,y,z
1/2-x,1/2-y,z
1/2+x,-y,-z
-x,1/2+y,-z
-x,-y,-z
1/2+x,1/2+y,-z
1/2-x,y,z
x,1/2-y,z
loop_
_atom_site_type_symbol
_atom_site_label
_atom_site_fract_x
_atom_site_fract_y
_atom_site_fract_z
Si Si1 0.982503 0.057481 0.382763
Si Si2 0.853926 0.466043 0.173439
Si Si3 0.340114 0.033382 0.343985
Si Si4 0.693627 0.959363 0.955018
Si Si5 0.525289 0.470509 0.145295
Si Si6 0.412686 0.032159 0.153128
Si Si7 0.866377 0.541420 0.412366
Si Si8 0.250000 0.750000 0.277054
O O1 0.008500 0.250000 0.364801
O O2 0.989070 0.962565 0.268455
O O3 0.919647 0.067042 0.393939
O O4 0.000000 0.000000 0.500000
O O5 0.854735 0.250000 0.171827
O O6 0.913496 0.530127 0.136792
O O7 0.838533 0.523478 0.295737
O O8 0.813463 0.533385 0.084016
O O9 0.329996 0.250000 0.334192
O O10 0.395296 0.996859 0.279056
O O11 0.341182 0.989027 0.472821
O O12 0.296149 0.908968 0.290517
O O13 0.750000 0.046086 0.925444
O O14 0.695222 0.750000 0.920735
O O15 0.639063 0.037399 0.909692
O O16 0.527526 0.250000 0.141567
O O17 0.467979 0.527249 0.095772
O O18 0.414217 0.250000 0.142959
O O19 0.881866 0.750000 0.425919
#
# Coordination Sequence:
#
# PCOD9446552 Si02
#       8
#     8   8   8   8   8   8   8   2
#     4  10  18  28  49  81 122 162 199 240 296 365
#     4  10  21  38  61  89 125 159 199 258 319 381
#     4  10  23  42  64  93 128 169 214 263 328 379
#     4  10  22  40  62  85 113 160 214 259 308 372
#     4   8  16  32  55  86 118 155 195 245 315 374
#     4   9  18  37  65  90 121 162 207 256 310 381
#     4  10  20  37  61  85 118 159 202 252 306 372
#     4  12  26  40  64  90 130 176 214 272 310 384
#
# _framework density 25.123787
#
# number of rings (size 3 to 8) (size 9 to 14) (size 15 to 20)
#    0.000    2.345    0.000    3.103    2.897    3.034 
#    2.483    0.000    3.034    0.000    0.000    0.000 
#    0.000    0.000    0.000    0.000    0.000    0.000 
#
# Total GULP energy -322899.180686 kJ/mol
# GULP energy per Si atom -5567.227253 kJ/mol
# Density = 2.506660 g / cm^3
# Si number density = 25.123787 Si / 1000 Ang^3
#
#
#
# Elastic Constant Matrix: (Units=GPa)
#
#
# Indices 1 2 3 4 5 6 
#
# 1 139.6245 10.2010 29.5505 0.0000 0.0000 0.0000
# 2 10.2010 94.4053 -20.2445 0.0000 0.0000 0.0000
# 3 29.5505 -20.2445 95.4807 0.0000 0.0000 0.0000
# 4 0.0000 0.0000 0.0000 -56.9358 0.0000 0.0000
# 5 0.0000 0.0000 0.0000 0.0000 33.9714 0.0000
# 6 0.0000 0.0000 0.0000 0.0000 0.0000 17.0062
#
#
#
# Elastic Compliance Matrix: (Units=1/GPa)
#
#
# Indices 1 2 3 4 5 6 
#
# 1 0.007845 -0.001434 -0.002732 0.000000 0.000000 0.000000
# 2 -0.001434 0.011359 0.002852 0.000000 0.000000 0.000000
# 3 -0.002732 0.002852 0.011924 0.000000 0.000000 0.000000
# 4 0.000000 0.000000 0.000000 -0.017564 0.000000 0.000000
# 5 0.000000 0.000000 0.000000 0.000000 0.029437 0.000000
# 6 0.000000 0.000000 0.000000 0.000000 0.000000 0.058802
#
#
# Mechanical properties :
#
#
# Convention : Reuss Voigt Hill
#
# Bulk Modulus (GPa) = 35.08648 40.94718 38.01683
# Shear Modulus (GPa) = 43.88672 19.47525 31.68098
#
# Velocity S-wave (km/s) = 4.18403 2.78721 3.55490
# Velocity P-wave (km/s) = 6.11042 5.16639 5.65813
#
# Compressibility (1/GPa) = 0.02850101
#
# Stress axis : x y z
#
# Youngs Moduli (GPa) = 127.46986 88.03484 83.86768
#
# Poissons Ratio (x) = 0.12620 0.22912
# Poissons Ratio (y) = 0.18273 -0.23920
# Poissons Ratio (z) = 0.34824 -0.25108
#
# Static dielectric constant tensor:
#      x y z
#    x 2.018540 0.000000 0.000000 
#    y 0.000000 1.980860 0.000000 
#    z 0.000000 0.000000 2.243670 
# 
# From -- ./inp_files/18923.got.cif
#   From: 2010.05.17/outbox.cif.g08.bks.cpg/sg59_10_cif.got.tgz:18923.got - 2010.06.03 14:40:33.
