data_PCOD9446796
_publ_section_title
;
Structure prediction by ZEFSAII (Michael W. Deem and Ramdas Pophale) SiO2 
 PCOD9446796
Probable space group: P M M N
;
_chemical_formula_sum "Si O2"
_cell_formula_units_Z 56
_cell_length_a 7.528686
_cell_length_b 14.795724
_cell_length_c 23.480064
_cell_angle_alpha 90.000000
_cell_angle_beta 90.000000
_cell_angle_gamma 90.000000
_cell_volume 2615.499745
_symmetry_space_group_name_H-M "P M M N"
_symmetry_group_IT_number 59
_space_group.IT_coordinate_system_code '2'
_symmetry_cell_setting 'orthorhombic'
loop_
_space_group_symop_operation_xyz
x,y,z
1/2-x,1/2-y,z
1/2+x,-y,-z
-x,1/2+y,-z
-x,-y,-z
1/2+x,1/2+y,-z
1/2-x,y,z
x,1/2-y,z
loop_
_atom_site_type_symbol
_atom_site_label
_atom_site_fract_x
_atom_site_fract_y
_atom_site_fract_z
Si Si1 0.462378 0.854093 0.030656
Si Si2 0.964873 0.347009 0.391841
Si Si3 0.467775 0.851391 0.358441
Si Si4 0.453010 0.480134 0.295493
Si Si5 0.539821 0.852641 0.802245
Si Si6 0.961560 0.396575 0.514485
Si Si7 0.961619 0.458134 0.082346
O O1 0.250000 0.846660 0.025727
O O2 0.527416 0.750000 0.039792
O O3 0.493549 0.935196 0.076106
O O4 0.531478 0.900265 0.971954
O O5 0.750000 0.357673 0.391373
O O6 0.008625 0.250000 0.365565
O O7 0.025260 0.347957 0.457292
O O8 0.046559 0.425703 0.354809
O O9 0.250000 0.857861 0.359536
O O10 0.515491 0.750000 0.343296
O O11 0.530086 0.871321 0.423149
O O12 0.534035 0.924334 0.313070
O O13 0.250000 0.497533 0.277068
O O14 0.536610 0.414495 0.248582
O O15 0.750000 0.843632 0.790796
O O16 0.467986 0.750000 0.805810
O O17 0.520027 0.908164 0.860503
O O18 0.750000 0.380499 0.516972
O O19 0.000000 0.500000 0.500000
O O20 0.750000 0.452969 0.080222
#
# Coordination Sequence:
#
# PCOD9446796 Si02
#       7
#     8   8   8   8   8   8   8
#     4   9  18  34  56  83 116 151 185 222 265 315
#     4  10  20  32  48  72 101 130 160 202 260 319
#     4   9  17  31  52  74  96 127 167 209 256 312
#     4  10  20  35  54  75  99 131 175 221 258 300
#     4  10  21  36  53  75 106 142 178 220 269 319
#     4  10  18  30  49  72  98 127 160 202 255 315
#     4  10  20  34  55  84 115 146 184 227 268 314
#
# _framework density 21.410820999999999
#
# number of rings (size 3 to 8) (size 9 to 14) (size 15 to 20)
#    0.000    2.286    1.429    1.714    0.000    4.857 
#    0.000    0.714    0.000    5.143    0.000    0.000 
#    0.000    0.000    0.000    0.000    0.000    0.000 
#
# Total GULP energy -312354.585050 kJ/mol
# GULP energy per Si atom -5577.760447 kJ/mol
# Density = 2.136209 g / cm^3
# Si number density = 21.410821 Si / 1000 Ang^3
#
#
#
# Elastic Constant Matrix: (Units=GPa)
#
#
# Indices 1 2 3 4 5 6 
#
# 1 56.8490 0.4483 -1.5721 0.0000 0.0000 0.0000
# 2 0.4483 215.1308 82.7777 0.0000 0.0000 0.0000
# 3 -1.5721 82.7777 112.0300 0.0000 0.0000 0.0000
# 4 0.0000 0.0000 0.0000 -70.6210 0.0000 0.0000
# 5 0.0000 0.0000 0.0000 0.0000 4.6600 0.0000
# 6 0.0000 0.0000 0.0000 0.0000 0.0000 11.3488
#
#
#
# Elastic Compliance Matrix: (Units=1/GPa)
#
#
# Indices 1 2 3 4 5 6 
#
# 1 0.017603 -0.000184 0.000383 0.000000 0.000000 0.000000
# 2 -0.000184 0.006497 -0.004803 0.000000 0.000000 0.000000
# 3 0.000383 -0.004803 0.012480 0.000000 0.000000 0.000000
# 4 0.000000 0.000000 0.000000 -0.014160 0.000000 0.000000
# 5 0.000000 0.000000 0.000000 0.000000 0.214594 0.000000
# 6 0.000000 0.000000 0.000000 0.000000 0.000000 0.088115
#
#
# Mechanical properties :
#
#
# Convention : Reuss Voigt Hill
#
# Bulk Modulus (GPa) = 36.53413 60.81305 48.67359
# Shear Modulus (GPa) = 14.55771 9.23460 11.89615
#
# Velocity S-wave (km/s) = 2.61036 2.07904 2.35970
# Velocity P-wave (km/s) = 5.11720 5.85046 5.49607
#
# Compressibility (1/GPa) = 0.02737167
#
# Stress axis : x y z
#
# Youngs Moduli (GPa) = 56.81010 153.92161 80.12535
#
# Poissons Ratio (x) = 0.02833 -0.03069
# Poissons Ratio (y) = 0.01046 0.38484
# Poissons Ratio (z) = -0.02176 0.73929
#
# Static dielectric constant tensor:
#      x y z
#    x 1.807700 0.000000 0.000000 
#    y 0.000000 1.159240 0.000000 
#    z 0.000000 0.000000 1.764080 
# 
# From -- ./inp_files/29152.got.cif
#   From: 2010.05.17/outbox.cif.g08.bks.cpg/sg59_15_cif.got.tgz:29152.got - 2010.06.03 14:40:33.
