data_PCOD9446287
_publ_section_title
;
Structure prediction by ZEFSAII (Michael W. Deem and Ramdas Pophale) SiO2 
 PCOD9446287
Probable space group: P M M N
;
_chemical_formula_sum "Si O2"
_cell_formula_units_Z 24
_cell_length_a 15.089531
_cell_length_b 5.540606
_cell_length_c 12.207910
_cell_angle_alpha 90.000000
_cell_angle_beta 90.000000
_cell_angle_gamma 90.000000
_cell_volume 1020.644098
_symmetry_space_group_name_H-M "P M M N"
_symmetry_group_IT_number 59
_space_group.IT_coordinate_system_code '2'
_symmetry_cell_setting 'orthorhombic'
loop_
_space_group_symop_operation_xyz
x,y,z
1/2-x,1/2-y,z
1/2+x,-y,-z
-x,1/2+y,-z
-x,-y,-z
1/2+x,1/2+y,-z
1/2-x,y,z
x,1/2-y,z
loop_
_atom_site_type_symbol
_atom_site_label
_atom_site_fract_x
_atom_site_fract_y
_atom_site_fract_z
Si Si1 0.389693 0.250000 0.433393
Si Si2 0.374766 0.750000 0.331239
Si Si3 0.414016 0.250000 0.688511
Si Si4 0.047151 0.250000 0.034412
Si Si5 0.250000 0.250000 0.009144
Si Si6 0.543245 0.250000 0.262869
Si Si7 0.250000 0.750000 0.134198
O O1 0.350245 0.500991 0.390346
O O2 0.383204 0.250000 0.563453
O O3 0.490374 0.250000 0.380659
O O4 0.479504 0.750000 0.318262
O O5 0.334004 0.750000 0.212389
O O6 0.397075 0.509132 0.743082
O O7 0.144353 0.250000 0.977951
O O8 0.032591 0.250000 0.167995
O O9 0.000000 0.500000 0.000000
O O10 0.250000 0.505706 0.069285
#
# Coordination Sequence:
#
# PCOD9446287 Si02
#       7
#     4   4   4   4   2   4   2
#     4  10  18  30  51  81 115 152 196 237 289 364
#     4  10  18  28  44  75 115 150 185 231 286 372
#     4  10  17  30  52  83 113 150 196 240 293 367
#     4  12  26  44  66  99 131 168 223 280 341 415
#     4  12  24  44  68  92 130 168 210 284 354 402
#     4  10  18  32  53  82 118 152 195 259 308 355
#     4  12  22  36  60  92 126 170 208 256 352 416
#
# _framework density 23.514562999999999
#
# number of rings (size 3 to 8) (size 9 to 14) (size 15 to 20)
#    0.000    1.333    0.000   12.000    0.000    0.000 
#    0.000    0.000    0.000    0.000    0.000   39.667 
#    0.000    0.000    0.000    0.000    0.000    0.000 
#
# Total GULP energy -133850.336630 kJ/mol
# GULP energy per Si atom -5577.097360 kJ/mol
# Density = 2.346104 g / cm^3
# Si number density = 23.514563 Si / 1000 Ang^3
#
#
#
# Elastic Constant Matrix: (Units=GPa)
#
#
# Indices 1 2 3 4 5 6 
#
# 1 66.3540 38.0282 -5.9285 0.0000 0.0000 0.0000
# 2 38.0282 279.3832 38.0204 0.0000 0.0000 0.0000
# 3 -5.9285 38.0204 64.1051 0.0000 0.0000 0.0000
# 4 0.0000 0.0000 0.0000 45.4714 0.0000 0.0000
# 5 0.0000 0.0000 0.0000 0.0000 46.5440 0.0000
# 6 0.0000 0.0000 0.0000 0.0000 0.0000 46.3526
#
#
#
# Elastic Compliance Matrix: (Units=1/GPa)
#
#
# Indices 1 2 3 4 5 6 
#
# 1 0.016925 -0.002738 0.003189 0.000000 0.000000 0.000000
# 2 -0.002738 0.004336 -0.002825 0.000000 0.000000 0.000000
# 3 0.003189 -0.002825 0.017570 0.000000 0.000000 0.000000
# 4 0.000000 0.000000 0.000000 0.021992 0.000000 0.000000
# 5 0.000000 0.000000 0.000000 0.000000 0.021485 0.000000
# 6 0.000000 0.000000 0.000000 0.000000 0.000000 0.021574
#
#
# Mechanical properties :
#
#
# Convention : Reuss Voigt Hill
#
# Bulk Modulus (GPa) = 29.34002 61.12027 45.23015
# Shear Modulus (GPa) = 41.67007 50.32175 45.99591
#
# Velocity S-wave (km/s) = 4.21419 4.63106 4.42754
# Velocity P-wave (km/s) = 6.01529 7.39220 6.73900
#
# Compressibility (1/GPa) = 0.03408314
#
# Stress axis : x y z
#
# Youngs Moduli (GPa) = 59.08569 230.60578 56.91570
#
# Poissons Ratio (x) = 0.63132 -0.18150
# Poissons Ratio (y) = 0.16176 0.16079
# Poissons Ratio (z) = -0.18842 0.65148
#
# Static dielectric constant tensor:
#      x y z
#    x 2.939470 0.000000 0.000000 
#    y 0.000000 1.987210 0.000000 
#    z 0.000000 0.000000 1.903450 
# 
# From -- ./inp_files/17396.got.cif
#   From: 2010.05.17/outbox.cif.g08.bks.cpg/sg59_9_cif.got.tgz:17396.got - 2010.06.03 14:40:33.
