data_PCOD9446648
_publ_section_title
;
Structure prediction by ZEFSAII (Michael W. Deem and Ramdas Pophale) SiO2 
 PCOD9446648
Probable space group: P M M N
;
_chemical_formula_sum "Si O2"
_cell_formula_units_Z 56
_cell_length_a 14.161029
_cell_length_b 19.701870
_cell_length_c 12.966056
_cell_angle_alpha 90.000000
_cell_angle_beta 90.000000
_cell_angle_gamma 90.000000
_cell_volume 3617.513448
_symmetry_space_group_name_H-M "P M M N"
_symmetry_group_IT_number 59
_space_group.IT_coordinate_system_code '2'
_symmetry_cell_setting 'orthorhombic'
loop_
_space_group_symop_operation_xyz
x,y,z
1/2-x,1/2-y,z
1/2+x,-y,-z
-x,1/2+y,-z
-x,-y,-z
1/2+x,1/2+y,-z
1/2-x,y,z
x,1/2-y,z
loop_
_atom_site_type_symbol
_atom_site_label
_atom_site_fract_x
_atom_site_fract_y
_atom_site_fract_z
Si Si1 0.860924 0.118058 0.541701
Si Si2 0.357518 0.041428 0.409448
Si Si3 0.551826 0.416010 0.323696
Si Si4 0.356990 0.832428 0.093684
Si Si5 0.860356 0.563811 0.348078
Si Si6 0.510965 0.328915 0.719247
Si Si7 0.862240 0.330725 0.142213
O O1 0.750000 0.135326 0.538912
O O2 0.904039 0.117758 0.427018
O O3 0.919819 0.163040 0.620932
O O4 0.869529 0.040111 0.582006
O O5 0.250000 0.055621 0.376137
O O6 0.440609 0.072852 0.342033
O O7 0.369275 0.066851 0.527312
O O8 0.598902 0.490521 0.316559
O O9 0.578684 0.372136 0.225035
O O10 0.250000 0.855760 0.117187
O O11 0.354492 0.750000 0.095444
O O12 0.430341 0.853266 0.180836
O O13 0.381436 0.851515 0.976397
O O14 0.750000 0.567672 0.322547
O O15 0.921614 0.623504 0.299775
O O16 0.485669 0.250000 0.732080
O O17 0.750000 0.341437 0.160305
O O18 0.879581 0.250000 0.151313
#
# Coordination Sequence:
#
# PCOD9446648 Si02
#       7
#     8   8   8   8   8   8   8
#     4  10  18  29  47  74 100 124 156 197 245 291
#     4   9  17  31  51  69  95 134 166 189 228 297
#     4  11  17  32  53  74  99 129 161 196 244 292
#     4   8  16  32  50  68  95 131 164 192 239 305
#     4  10  19  33  50  70  98 135 171 196 231 293
#     4  11  20  31  48  71  99 130 164 205 243 279
#     4   9  18  32  51  75  99 125 159 199 246 299
#
# _framework density 15.480245999999999
#
# number of rings (size 3 to 8) (size 9 to 14) (size 15 to 20)
#    0.000    2.286    2.857    4.286    0.000    1.714 
#    0.000    0.714    0.000    1.286    0.000    2.000 
#    0.000    0.000    0.000    0.000    0.000    0.000 
#
# Total GULP energy -312252.325889 kJ/mol
# GULP energy per Si atom -5575.934391 kJ/mol
# Density = 1.544501 g / cm^3
# Si number density = 15.480246 Si / 1000 Ang^3
#
#
#
# Elastic Constant Matrix: (Units=GPa)
#
#
# Indices 1 2 3 4 5 6 
#
# 1 117.8503 47.3267 57.8164 0.0000 0.0000 0.0000
# 2 47.3267 46.0474 42.0200 0.0000 0.0000 0.0000
# 3 57.8164 42.0200 73.2843 0.0000 0.0000 0.0000
# 4 0.0000 0.0000 0.0000 -0.9106 0.0000 0.0000
# 5 0.0000 0.0000 0.0000 0.0000 28.2185 0.0000
# 6 0.0000 0.0000 0.0000 0.0000 0.0000 22.3193
#
#
#
# Elastic Compliance Matrix: (Units=1/GPa)
#
#
# Indices 1 2 3 4 5 6 
#
# 1 0.015852 -0.010236 -0.006637 0.000000 0.000000 0.000000
# 2 -0.010236 0.052159 -0.021832 0.000000 0.000000 0.000000
# 3 -0.006637 -0.021832 0.031400 0.000000 0.000000 0.000000
# 4 0.000000 0.000000 0.000000 -1.098157 0.000000 0.000000
# 5 0.000000 0.000000 0.000000 0.000000 0.035438 0.000000
# 6 0.000000 0.000000 0.000000 0.000000 0.000000 0.044804
#
#
# Mechanical properties :
#
#
# Convention : Reuss Voigt Hill
#
# Bulk Modulus (GPa) = 45.45161 59.05646 52.25404
# Shear Modulus (GPa) = -5.99692 15.92672 4.96490
#
# Velocity S-wave (km/s) = -1.97036 3.21104 1.79282
# Velocity P-wave (km/s) = 4.92426 7.20972 6.17367
#
# Compressibility (1/GPa) = 0.02200142
#
# Stress axis : x y z
#
# Youngs Moduli (GPa) = 63.08383 19.17207 31.84734
#
# Poissons Ratio (x) = 0.19624 0.21137
# Poissons Ratio (y) = 0.64571 0.69529
# Poissons Ratio (z) = 0.41870 0.41856
#
# Static dielectric constant tensor:
#      x y z
#    x 1.517550 0.000000 0.000000 
#    y 0.000000 1.503110 0.000000 
#    z 0.000000 0.000000 1.506320 
# 
# From -- ./inp_files/23419.got.cif
#   From: 2010.05.17/outbox.cif.g08.bks.cpg/sg59_12_cif.got.tgz:23419.got - 2010.06.03 14:40:33.
