data_PCOD9446212
_publ_section_title
;
Structure prediction by ZEFSAII (Michael W. Deem and Ramdas Pophale) SiO2 
 PCOD9446212
Probable space group: P M M N
;
_chemical_formula_sum "Si O2"
_cell_formula_units_Z 56
_cell_length_a 9.164584
_cell_length_b 22.285386
_cell_length_c 18.199012
_cell_angle_alpha 90.000000
_cell_angle_beta 90.000000
_cell_angle_gamma 90.000000
_cell_volume 3716.898728
_symmetry_space_group_name_H-M "P M M N"
_symmetry_group_IT_number 59
_space_group.IT_coordinate_system_code '2'
_symmetry_cell_setting 'orthorhombic'
loop_
_space_group_symop_operation_xyz
x,y,z
1/2-x,1/2-y,z
1/2+x,-y,-z
-x,1/2+y,-z
-x,-y,-z
1/2+x,1/2+y,-z
1/2-x,y,z
x,1/2-y,z
loop_
_atom_site_type_symbol
_atom_site_label
_atom_site_fract_x
_atom_site_fract_y
_atom_site_fract_z
Si Si1 0.925171 0.025788 0.264792
Si Si2 0.417538 0.584051 0.450707
Si Si3 0.925712 0.103233 0.711178
Si Si4 0.917545 0.557913 0.592096
Si Si5 0.075537 0.412370 0.960714
Si Si6 0.924228 0.820589 0.165435
Si Si7 0.575805 0.455545 0.100360
O O1 0.750000 0.019307 0.269800
O O2 0.961744 0.053882 0.185547
O O3 0.986992 0.061961 0.334337
O O4 0.998755 0.959983 0.268186
O O5 0.250000 0.599112 0.468339
O O6 0.461365 0.615666 0.374596
O O7 0.420585 0.512977 0.429922
O O8 0.516928 0.592002 0.521891
O O9 0.750000 0.097294 0.716277
O O10 0.987721 0.152627 0.766122
O O11 0.750000 0.573983 0.605928
O O12 0.250000 0.411241 0.969774
O O13 0.033544 0.358236 0.907083
O O14 0.037533 0.475385 0.920559
O O15 0.001408 0.414349 0.040162
O O16 0.750000 0.830678 0.177082
O O17 0.948497 0.750000 0.156474
O O18 0.750000 0.449854 0.092666
#
# Coordination Sequence:
#
# PCOD9446212 Si02
#       7
#     8   8   8   8   8   8   8
#     4  10  17  27  42  60  87 117 146 177 215 265
#     4   8  15  26  37  53  79 112 143 172 207 247
#     4  10  19  29  43  62  84 111 148 185 218 256
#     4   9  16  24  36  58  83 110 144 175 207 246
#     4   9  17  30  44  62  84 110 145 181 220 263
#     4  10  20  34  49  64  86 116 149 183 222 268
#     4   9  17  28  43  63  85 113 146 179 218 265
#
# _framework density 15.066324
#
# number of rings (size 3 to 8) (size 9 to 14) (size 15 to 20)
#    0.000    2.714    1.429    2.143    0.000    6.000 
#    0.000    0.000    0.000    0.000    0.000    0.000 
#    0.000    1.143    0.000    8.571    0.000    4.857 
#
# Total GULP energy -311876.974289 kJ/mol
# GULP energy per Si atom -5569.231684 kJ/mol
# Density = 1.503203 g / cm^3
# Si number density = 15.066324 Si / 1000 Ang^3
#
#
#
# Elastic Constant Matrix: (Units=GPa)
#
#
# Indices 1 2 3 4 5 6 
#
# 1 57.6766 25.9553 68.2635 0.0000 0.0000 0.0000
# 2 25.9553 41.7772 44.0017 0.0000 0.0000 0.0000
# 3 68.2635 44.0017 156.3849 0.0000 0.0000 0.0000
# 4 0.0000 0.0000 0.0000 11.6879 0.0000 0.0000
# 5 0.0000 0.0000 0.0000 0.0000 31.2573 0.0000
# 6 0.0000 0.0000 0.0000 0.0000 0.0000 11.5520
#
#
#
# Elastic Compliance Matrix: (Units=1/GPa)
#
#
# Indices 1 2 3 4 5 6 
#
# 1 0.037980 -0.008718 -0.014125 0.000000 0.000000 0.000000
# 2 -0.008718 0.036019 -0.006329 0.000000 0.000000 0.000000
# 3 -0.014125 -0.006329 0.014341 0.000000 0.000000 0.000000
# 4 0.000000 0.000000 0.000000 0.085559 0.000000 0.000000
# 5 0.000000 0.000000 0.000000 0.000000 0.031993 0.000000
# 6 0.000000 0.000000 0.000000 0.000000 0.000000 0.086565
#
#
# Mechanical properties :
#
#
# Convention : Reuss Voigt Hill
#
# Bulk Modulus (GPa) = 33.33969 59.14216 46.24093
# Shear Modulus (GPa) = 13.85810 18.74065 16.29938
#
# Velocity S-wave (km/s) = 3.03612 3.53069 3.29270
# Velocity P-wave (km/s) = 5.87089 7.48069 6.72414
#
# Compressibility (1/GPa) = 0.02999428
#
# Stress axis : x y z
#
# Youngs Moduli (GPa) = 26.32983 27.76311 69.72968
#
# Poissons Ratio (x) = 0.24205 0.98496
# Poissons Ratio (y) = 0.22956 0.44131
# Poissons Ratio (z) = 0.37192 0.17571
#
# Static dielectric constant tensor:
#      x y z
#    x 1.508030 0.000000 0.000000 
#    y 0.000000 1.466470 0.000000 
#    z 0.000000 0.000000 1.519520 
# 
# From -- ./inp_files/26054.got.cif
#   From: 2010.05.17/outbox.cif.g08.bks.cpg/sg59_14_cif.got.tgz:26054.got - 2010.06.03 14:40:33.
