data_PCOD9446651
_publ_section_title
;
Structure prediction by ZEFSAII (Michael W. Deem and Ramdas Pophale) SiO2 
 PCOD9446651
Probable space group: P M M N
;
_chemical_formula_sum "Si O2"
_cell_formula_units_Z 56
_cell_length_a 22.283134
_cell_length_b 17.441496
_cell_length_c 8.354574
_cell_angle_alpha 90.000000
_cell_angle_beta 90.000000
_cell_angle_gamma 90.000000
_cell_volume 3247.015148
_symmetry_space_group_name_H-M "P M M N"
_symmetry_group_IT_number 59
_space_group.IT_coordinate_system_code '2'
_symmetry_cell_setting 'orthorhombic'
loop_
_space_group_symop_operation_xyz
x,y,z
1/2-x,1/2-y,z
1/2+x,-y,-z
-x,1/2+y,-z
-x,-y,-z
1/2+x,1/2+y,-z
1/2-x,y,z
x,1/2-y,z
loop_
_atom_site_type_symbol
_atom_site_label
_atom_site_fract_x
_atom_site_fract_y
_atom_site_fract_z
Si Si1 0.541364 0.372392 0.429098
Si Si2 0.407057 0.044097 0.069091
Si Si3 0.561897 0.394878 0.766849
Si Si4 0.517226 0.334590 0.088689
Si Si5 0.431054 0.467313 0.714784
Si Si6 0.097729 0.336560 0.509117
Si Si7 0.679735 0.663109 0.805127
O O1 0.573921 0.353137 0.597434
O O2 0.554303 0.337541 0.254351
O O3 0.556147 0.461854 0.400805
O O4 0.470519 0.352727 0.449397
O O5 0.466940 0.097341 0.094583
O O6 0.351439 0.100737 0.083839
O O7 0.403686 0.974020 0.193894
O O8 0.410811 0.009269 0.891488
O O9 0.493967 0.424645 0.741951
O O10 0.557120 0.346377 0.929678
O O11 0.487973 0.250000 0.079447
O O12 0.389141 0.403390 0.635134
O O13 0.099171 0.250000 0.575369
O O14 0.142671 0.340867 0.360572
O O15 0.750000 0.649114 0.779981
O O16 0.672741 0.750000 0.867244
#
# Coordination Sequence:
#
# PCOD9446651 Si02
#       7
#     8   8   8   8   8   8   8
#     4  11  18  30  47  67  95 129 161 195 237 289
#     4  11  18  32  48  66  93 130 166 201 239 284
#     4  10  19  30  47  68  98 128 165 194 234 291
#     4  11  20  29  44  70 100 129 161 193 232 287
#     4  10  18  29  48  67  90 122 165 197 239 291
#     4  10  19  30  45  67  93 128 168 200 240 288
#     4  10  20  33  48  66  91 126 169 213 249 277
#
# _framework density 17.24661
#
# number of rings (size 3 to 8) (size 9 to 14) (size 15 to 20)
#    0.000    1.571    4.286    4.286    0.000    6.286 
#    0.000    0.714    0.000    1.714    0.000    0.000 
#    0.000    0.571    0.000    1.714    0.000    3.000 
#
# Total GULP energy -311796.886548 kJ/mol
# GULP energy per Si atom -5567.801546 kJ/mol
# Density = 1.720736 g / cm^3
# Si number density = 17.246610 Si / 1000 Ang^3
#
#
#
# Elastic Constant Matrix: (Units=GPa)
#
#
# Indices 1 2 3 4 5 6 
#
# 1 40.5409 21.9254 10.3269 0.0000 0.0000 0.0000
# 2 21.9254 70.0654 24.7084 0.0000 0.0000 0.0000
# 3 10.3269 24.7084 108.6758 0.0000 0.0000 0.0000
# 4 0.0000 0.0000 0.0000 20.7916 0.0000 0.0000
# 5 0.0000 0.0000 0.0000 0.0000 8.3087 0.0000
# 6 0.0000 0.0000 0.0000 0.0000 0.0000 17.0011
#
#
#
# Elastic Compliance Matrix: (Units=1/GPa)
#
#
# Indices 1 2 3 4 5 6 
#
# 1 0.029751 -0.009038 -0.000772 0.000000 0.000000 0.000000
# 2 -0.009038 0.018262 -0.003293 0.000000 0.000000 0.000000
# 3 -0.000772 -0.003293 0.010024 0.000000 0.000000 0.000000
# 4 0.000000 0.000000 0.000000 0.048096 0.000000 0.000000
# 5 0.000000 0.000000 0.000000 0.000000 0.120356 0.000000
# 6 0.000000 0.000000 0.000000 0.000000 0.000000 0.058820
#
#
# Mechanical properties :
#
#
# Convention : Reuss Voigt Hill
#
# Bulk Modulus (GPa) = 31.41648 37.02262 34.21955
# Shear Modulus (GPa) = 15.52195 20.04171 17.78183
#
# Velocity S-wave (km/s) = 3.00325 3.41261 3.21445
# Velocity P-wave (km/s) = 5.50287 6.08614 5.80184
#
# Compressibility (1/GPa) = 0.03183043
#
# Stress axis : x y z
#
# Youngs Moduli (GPa) = 33.61243 54.75912 99.76253
#
# Poissons Ratio (x) = 0.49489 0.07705
# Poissons Ratio (y) = 0.30377 0.32854
# Poissons Ratio (z) = 0.02596 0.18033
#
# Static dielectric constant tensor:
#      x y z
#    x 1.540450 0.000000 0.000000 
#    y 0.000000 1.643660 0.000000 
#    z 0.000000 0.000000 1.704850 
# 
# From -- ./inp_files/10730.got.cif
#   From: 2010.05.17/outbox.cif.g08.bks.cpg/sg59_6_cif.got.tgz:10730.got - 2010.06.03 14:40:33.
