data_PCOD9446013
_publ_section_title
;
Structure prediction by ZEFSAII (Michael W. Deem and Ramdas Pophale) SiO2 
 PCOD9446013
Probable space group: P N N M
;
_chemical_formula_sum "Si O2"
_cell_formula_units_Z 64
_cell_length_a 18.000000
_cell_length_b 21.000000
_cell_length_c 9.000000
_cell_angle_alpha 90.000000
_cell_angle_beta 90.000000
_cell_angle_gamma 90.000000
_cell_volume 3402.000000
_symmetry_space_group_name_H-M "P N N M"
_symmetry_group_IT_number 58
_symmetry_cell_setting 'orthorhombic'
loop_
_space_group_symop_operation_xyz
x,y,z
-x,-y,z
1/2+x,1/2-y,1/2-z
1/2-x,1/2+y,1/2-z
-x,-y,-z
x,y,-z
1/2-x,1/2+y,1/2+z
1/2+x,1/2-y,1/2+z
loop_
_atom_site_type_symbol
_atom_site_label
_atom_site_fract_x
_atom_site_fract_y
_atom_site_fract_z
Si Si1 0.813289 0.114993 0.327019
Si Si2 0.153719 0.759474 0.167198
Si Si3 0.169542 0.235182 0.334831
Si Si4 0.807132 0.890256 0.175201
Si Si5 0.653265 0.121609 0.177383
Si Si6 0.362851 0.130119 0.177079
Si Si7 0.415441 0.509367 0.173149
Si Si8 0.007005 0.425245 0.834217
O O1 0.801639 0.132261 0.500000
O O2 0.853505 0.171948 0.240105
O O3 0.731897 0.104094 0.253921
O O4 0.867401 0.054985 0.319273
O O5 0.242537 0.749388 0.156005
O O6 0.128121 0.703382 0.273941
O O7 0.123051 0.755191 0.000000
O O8 0.144366 0.215112 0.500000
O O9 0.162220 0.179243 0.218353
O O10 0.136738 0.303444 0.296006
O O11 0.720145 0.892872 0.227864
O O12 0.863821 0.939682 0.245664
O O13 0.804938 0.898887 0.000000
O O14 0.582215 0.087031 0.243621
O O15 0.660687 0.112325 0.000000
O O16 0.432188 0.096273 0.252378
O O17 0.365560 0.123547 0.000000
O O18 0.500000 0.500000 0.229999
O O19 0.422232 0.528331 0.000000
O O20 0.000000 0.500000 0.849415
O O21 0.011777 0.396158 0.000000
#
# Coordination Sequence:
#
# PCOD9446013 Si02
#       8
#     8   8   8   8   8   8   8   8
#     4  10  20  36  61  88 115 152 196 244 295 352
#     4   9  17  33  58  87 116 149 191 239 291 346
#     4   8  16  33  57  84 112 147 187 230 281 344
#     4  10  21  36  60  90 116 149 191 241 292 343
#     4  10  21  38  61  88 118 155 195 239 294 351
#     4  10  21  38  60  88 119 155 197 241 293 350
#     4  10  23  42  60  82 114 154 196 237 289 352
#     4  11  25  41  57  84 122 160 200 244 289 343
#
# _framework density 18.812463000000001
#
# number of rings (size 3 to 8) (size 9 to 14) (size 15 to 20)
#    0.000    2.250    0.000    3.000    1.750    7.250 
#    2.250    0.000    0.000    0.000    0.000    0.000 
#    0.000    0.000    0.000    0.000    0.000    0.000 
#
# Total GULP energy -356708.119678 kJ/mol
# GULP energy per Si atom -5573.564370 kJ/mol
# Density = 1.876965 g / cm^3
# Si number density = 18.812463 Si / 1000 Ang^3
#
#
#
# Elastic Constant Matrix: (Units=GPa)
#
#
# Indices 1 2 3 4 5 6 
#
# 1 90.1981 27.5746 32.6379 0.0000 0.0000 0.0000
# 2 27.5746 47.5321 25.9369 0.0000 0.0000 0.0000
# 3 32.6379 25.9369 59.6309 0.0000 0.0000 0.0000
# 4 0.0000 0.0000 0.0000 27.7821 0.0000 0.0000
# 5 0.0000 0.0000 0.0000 0.0000 -16.7556 0.0000
# 6 0.0000 0.0000 0.0000 0.0000 0.0000 24.5210
#
#
#
# Elastic Compliance Matrix: (Units=1/GPa)
#
#
# Indices 1 2 3 4 5 6 
#
# 1 0.014837 -0.005476 -0.005739 0.000000 0.000000 0.000000
# 2 -0.005476 0.029607 -0.009880 0.000000 0.000000 0.000000
# 3 -0.005739 -0.009880 0.024209 0.000000 0.000000 0.000000
# 4 0.000000 0.000000 0.000000 0.035994 0.000000 0.000000
# 5 0.000000 0.000000 0.000000 0.000000 -0.059681 0.000000
# 6 0.000000 0.000000 0.000000 0.000000 0.000000 0.040781
#
#
# Mechanical properties :
#
#
# Convention : Reuss Voigt Hill
#
# Bulk Modulus (GPa) = 37.79066 41.07332 39.43199
# Shear Modulus (GPa) = 36.56070 14.52361 25.54215
#
# Velocity S-wave (km/s) = 4.41322 2.78154 3.68873
# Velocity P-wave (km/s) = 6.78972 5.67419 6.25687
#
# Compressibility (1/GPa) = 0.02646157
#
# Stress axis : x y z
#
# Youngs Moduli (GPa) = 67.39690 33.77626 41.30744
#
# Poissons Ratio (x) = 0.18495 0.23708
# Poissons Ratio (y) = 0.36905 0.40814
# Poissons Ratio (z) = 0.38681 0.33373
#
# Static dielectric constant tensor:
#      x y z
#    x 1.626930 0.000000 0.000000 
#    y 0.000000 1.693450 0.000000 
#    z 0.000000 0.000000 1.667230 
# 
# From -- ./inp_files/8242.got.cif
#   From: 2010.05.17/outbox.ucp.g08.bks.cvg/sg58_5_cif.got.tgz:8242.got - 2010.06.11 16:41:41.
