data_PCOD9446016
_publ_section_title
;
Structure prediction by ZEFSAII (Michael W. Deem and Ramdas Pophale) SiO2 
 PCOD9446016
Probable space group: P N N M
;
_chemical_formula_sum "Si O2"
_cell_formula_units_Z 48
_cell_length_a 15.000000
_cell_length_b 18.000000
_cell_length_c 9.000000
_cell_angle_alpha 90.000000
_cell_angle_beta 90.000000
_cell_angle_gamma 90.000000
_cell_volume 2430.000000
_symmetry_space_group_name_H-M "P N N M"
_symmetry_group_IT_number 58
_symmetry_cell_setting 'orthorhombic'
loop_
_space_group_symop_operation_xyz
x,y,z
-x,-y,z
1/2+x,1/2-y,1/2-z
1/2-x,1/2+y,1/2-z
-x,-y,-z
x,y,-z
1/2-x,1/2+y,1/2+z
1/2+x,1/2-y,1/2+z
loop_
_atom_site_type_symbol
_atom_site_label
_atom_site_fract_x
_atom_site_fract_y
_atom_site_fract_z
Si Si1 0.751714 0.145514 0.322431
Si Si2 0.938988 0.180596 0.174254
Si Si3 0.445780 0.075833 0.834111
Si Si4 0.561249 0.427344 0.166559
Si Si5 0.561789 0.190333 0.677157
Si Si6 0.233738 0.530161 0.823983
O O1 0.759097 0.155003 0.500000
O O2 0.844423 0.168552 0.250581
O O3 0.663292 0.188054 0.266689
O O4 0.735083 0.058193 0.295078
O O5 0.008878 0.115741 0.206715
O O6 0.995039 0.248592 0.239114
O O7 0.923259 0.190352 0.000000
O O8 0.508157 0.117215 0.716790
O O9 0.345811 0.065509 0.771445
O O10 0.500000 0.000000 0.850111
O O11 0.442453 0.110323 0.000000
O O12 0.500000 0.500000 0.152157
O O13 0.664835 0.442221 0.203271
O O14 0.558883 0.392018 0.000000
O O15 0.568333 0.199953 0.500000
O O16 0.215675 0.541463 0.000000
#
# Coordination Sequence:
#
# PCOD9446016 Si02
#       6
#     8   8   8   8   8   8
#     4  10  20  39  64  85 114 161 205 242 292 356
#     4  11  24  39  59  91 125 155 195 248 303 354
#     4  11  23  37  58  91 123 150 192 248 302 349
#     4  10  20  38  61  87 115 151 204 245 286 354
#     4  10  23  42  62  85 118 161 205 241 289 360
#     4  10  20  36  63  90 116 158 205 245 287 349
#
# _framework density 19.753086
#
# number of rings (size 3 to 8) (size 9 to 14) (size 15 to 20)
#    0.000    1.667    3.333    1.000    0.000    5.667 
#    0.000    3.333    0.000    0.000    0.000    0.000 
#    0.000    0.000    0.000    0.000    0.000    0.000 
#
# Total GULP energy -267344.453293 kJ/mol
# GULP energy per Si atom -5569.676110 kJ/mol
# Density = 1.970813 g / cm^3
# Si number density = 19.753086 Si / 1000 Ang^3
#
#
#
# Elastic Constant Matrix: (Units=GPa)
#
#
# Indices 1 2 3 4 5 6 
#
# 1 148.2033 -1.9787 22.5000 0.0000 0.0000 0.0000
# 2 -1.9787 16.5236 -3.9243 0.0000 0.0000 0.0000
# 3 22.5000 -3.9243 -18.2688 0.0000 0.0000 0.0000
# 4 0.0000 0.0000 0.0000 -7.8804 0.0000 0.0000
# 5 0.0000 0.0000 0.0000 0.0000 88.4053 0.0000
# 6 0.0000 0.0000 0.0000 0.0000 0.0000 -14.8121
#
#
#
# Elastic Compliance Matrix: (Units=1/GPa)
#
#
# Indices 1 2 3 4 5 6 
#
# 1 0.005772 0.002264 0.006623 0.000000 0.000000 0.000000
# 2 0.002264 0.058470 -0.009771 0.000000 0.000000 0.000000
# 3 0.006623 -0.009771 -0.044482 0.000000 0.000000 0.000000
# 4 0.000000 0.000000 0.000000 -0.126897 0.000000 0.000000
# 5 0.000000 0.000000 0.000000 0.000000 0.011312 0.000000
# 6 0.000000 0.000000 0.000000 0.000000 0.000000 -0.067512
#
#
# Mechanical properties :
#
#
# Convention : Reuss Voigt Hill
#
# Bulk Modulus (GPa) = 55.58417 19.96134 37.77276
# Shear Modulus (GPa) = -32.13934 21.79997 -5.16968
#
# Velocity S-wave (km/s) = -4.03805 3.32569 -1.61952
# Velocity P-wave (km/s) = 2.54154 4.98741 3.95814
#
# Compressibility (1/GPa) = 0.01799074
#
# Stress axis : x y z
#
# Youngs Moduli (GPa) = 173.24260 17.10283 -22.48080
#
# Poissons Ratio (x) = -0.03872 0.14889
# Poissons Ratio (y) = -0.39224 -0.21967
# Poissons Ratio (z) = -1.14735 0.16712
#
# Static dielectric constant tensor:
#      x y z
#    x 1.656920 0.000000 0.000000 
#    y 0.000000 1.792390 0.000000 
#    z 0.000000 0.000000 1.701730 
# 
# From -- ./inp_files/5908.got.cif
#   From: 2010.05.17/outbox.ucp.g08.bks.cvg/sg58_3_cif.got.tgz:5908.got - 2010.06.11 16:41:41.
