data_PCOD9446680
_publ_section_title
;
Structure prediction by ZEFSAII (Michael W. Deem and Ramdas Pophale) SiO2 
 PCOD9446680
Probable space group: P M M N
;
_chemical_formula_sum "Si O2"
_cell_formula_units_Z 48
_cell_length_a 8.821048
_cell_length_b 21.252815
_cell_length_c 15.339501
_cell_angle_alpha 90.000000
_cell_angle_beta 90.000000
_cell_angle_gamma 90.000000
_cell_volume 2875.728485
_symmetry_space_group_name_H-M "P M M N"
_symmetry_group_IT_number 59
_space_group.IT_coordinate_system_code '2'
_symmetry_cell_setting 'orthorhombic'
loop_
_space_group_symop_operation_xyz
x,y,z
1/2-x,1/2-y,z
1/2+x,-y,-z
-x,1/2+y,-z
-x,-y,-z
1/2+x,1/2+y,-z
1/2-x,y,z
x,1/2-y,z
loop_
_atom_site_type_symbol
_atom_site_label
_atom_site_fract_x
_atom_site_fract_y
_atom_site_fract_z
Si Si1 0.932381 0.041683 0.423293
Si Si2 0.570817 0.855984 0.803661
Si Si3 0.570089 0.447707 0.934473
Si Si4 0.432838 0.818727 0.622915
Si Si5 0.430763 0.989283 0.773820
Si Si6 0.930112 0.819127 0.999427
O O1 0.750000 0.040393 0.428993
O O2 0.979252 0.115787 0.423673
O O3 0.974283 0.013288 0.328295
O O4 0.000000 0.000000 0.500000
O O5 0.750000 0.868096 0.791755
O O6 0.505982 0.821973 0.718741
O O7 0.481018 0.921328 0.809593
O O8 0.551353 0.821041 0.894784
O O9 0.750000 0.453884 0.938487
O O10 0.511477 0.461648 0.836920
O O11 0.517437 0.378488 0.962494
O O12 0.500000 0.500000 0.000000
O O13 0.250000 0.821733 0.631855
O O14 0.470577 0.750000 0.583527
O O15 0.250000 0.996347 0.779675
O O16 0.750000 0.826969 0.016478
O O17 0.977358 0.750000 0.031571
#
# Coordination Sequence:
#
# PCOD9446680 Si02
#       6
#     8   8   8   8   8   8
#     4   9  19  34  54  79 105 134 170 213 263 315
#     4  10  18  29  48  75 105 137 171 208 256 313
#     4  12  23  35  54  78 105 141 183 222 261 310
#     4   9  18  32  49  71 103 139 171 207 256 313
#     4  10  20  35  54  77 104 137 177 220 264 312
#     4  10  21  35  50  72 106 144 180 221 267 313
#
# _framework density 16.691423
#
# number of rings (size 3 to 8) (size 9 to 14) (size 15 to 20)
#    0.000    2.000    1.667    4.000    0.000    5.333 
#    0.000    0.000    0.000    1.000    0.000    4.667 
#    0.000    0.000    0.000    0.000    0.000    0.000 
#
# Total GULP energy -267654.467121 kJ/mol
# GULP energy per Si atom -5576.134732 kJ/mol
# Density = 1.665343 g / cm^3
# Si number density = 16.691423 Si / 1000 Ang^3
#
#
#
# Elastic Constant Matrix: (Units=GPa)
#
#
# Indices 1 2 3 4 5 6 
#
# 1 57.6196 54.9518 39.9694 0.0000 0.0000 0.0000
# 2 54.9518 140.8929 70.1451 0.0000 0.0000 0.0000
# 3 39.9694 70.1451 81.2960 0.0000 0.0000 0.0000
# 4 0.0000 0.0000 0.0000 15.6856 0.0000 0.0000
# 5 0.0000 0.0000 0.0000 0.0000 26.2423 0.0000
# 6 0.0000 0.0000 0.0000 0.0000 0.0000 21.9298
#
#
#
# Elastic Compliance Matrix: (Units=1/GPa)
#
#
# Indices 1 2 3 4 5 6 
#
# 1 0.030527 -0.007773 -0.008302 0.000000 0.000000 0.000000
# 2 -0.007773 0.014422 -0.008622 0.000000 0.000000 0.000000
# 3 -0.008302 -0.008622 0.023822 0.000000 0.000000 0.000000
# 4 0.000000 0.000000 0.000000 0.063753 0.000000 0.000000
# 5 0.000000 0.000000 0.000000 0.000000 0.038106 0.000000
# 6 0.000000 0.000000 0.000000 0.000000 0.000000 0.045600
#
#
# Mechanical properties :
#
#
# Convention : Reuss Voigt Hill
#
# Bulk Modulus (GPa) = 51.60802 67.77123 59.68962
# Shear Modulus (GPa) = 18.37676 20.42105 19.39890
#
# Velocity S-wave (km/s) = 3.32169 3.50157 3.41282
# Velocity P-wave (km/s) = 6.75999 7.55239 7.16715
#
# Compressibility (1/GPa) = 0.01937683
#
# Stress axis : x y z
#
# Youngs Moduli (GPa) = 32.75751 69.33892 41.97864
#
# Poissons Ratio (x) = 0.53899 0.34850
# Poissons Ratio (y) = 0.25463 0.36194
# Poissons Ratio (z) = 0.27194 0.59784
#
# Static dielectric constant tensor:
#      x y z
#    x 1.559860 0.000000 0.000000 
#    y 0.000000 1.607800 0.000000 
#    z 0.000000 0.000000 1.553260 
# 
# From -- ./inp_files/20717.got.cif
#   From: 2010.05.17/outbox.cif.g08.bks.cpg/sg59_11_cif.got.tgz:20717.got - 2010.06.03 14:40:33.
