data_PCOD9446800
_publ_section_title
;
Structure prediction by ZEFSAII (Michael W. Deem and Ramdas Pophale) SiO2 
 PCOD9446800
Probable space group: P M M N
;
_chemical_formula_sum "Si O2"
_cell_formula_units_Z 64
_cell_length_a 8.552544
_cell_length_b 20.517573
_cell_length_c 20.358599
_cell_angle_alpha 90.000000
_cell_angle_beta 90.000000
_cell_angle_gamma 90.000000
_cell_volume 3572.474954
_symmetry_space_group_name_H-M "P M M N"
_symmetry_group_IT_number 59
_space_group.IT_coordinate_system_code '2'
_symmetry_cell_setting 'orthorhombic'
loop_
_space_group_symop_operation_xyz
x,y,z
1/2-x,1/2-y,z
1/2+x,-y,-z
-x,1/2+y,-z
-x,-y,-z
1/2+x,1/2+y,-z
1/2-x,y,z
x,1/2-y,z
loop_
_atom_site_type_symbol
_atom_site_label
_atom_site_fract_x
_atom_site_fract_y
_atom_site_fract_z
Si Si1 0.437425 0.420230 0.349463
Si Si2 0.062591 0.888389 0.885519
Si Si3 0.937129 0.556083 0.304072
Si Si4 0.562968 0.324540 0.459152
Si Si5 0.937937 0.029906 0.840375
Si Si6 0.061652 0.570666 0.022166
Si Si7 0.938648 0.675961 0.394126
Si Si8 0.061891 0.321537 0.237375
O O1 0.250000 0.425617 0.347105
O O2 0.508578 0.491872 0.343383
O O3 0.486765 0.378278 0.412409
O O4 0.492784 0.377953 0.286476
O O5 0.250000 0.886409 0.882512
O O6 0.993572 0.836028 0.835959
O O7 0.012249 0.882931 0.962024
O O8 0.005526 0.958683 0.858424
O O9 0.750000 0.555977 0.300192
O O10 0.988112 0.620982 0.342611
O O11 0.003657 0.551814 0.230482
O O12 0.750000 0.328084 0.453373
O O13 0.513515 0.250000 0.441619
O O14 0.513063 0.335240 0.534462
O O15 0.750000 0.024521 0.838687
O O16 0.984683 0.076907 0.901574
O O17 0.250000 0.569517 0.021266
O O18 0.000000 0.500000 0.000000
O O19 0.750000 0.672363 0.401039
O O20 0.978193 0.750000 0.373543
O O21 0.250000 0.322655 0.238746
O O22 0.008596 0.250000 0.259360
#
# Coordination Sequence:
#
# PCOD9446800 Si02
#       8
#     8   8   8   8   8   8   8   8
#     4  11  22  36  55  78 108 146 182 218 265 320
#     4  10  18  30  49  73 101 134 176 224 266 306
#     4  11  22  35  55  83 111 138 174 224 271 315
#     4  10  21  37  58  83 110 140 179 225 264 307
#     4  10  18  31  50  74 106 140 171 210 264 319
#     4   8  16  28  45  70  98 130 169 210 254 306
#     4   9  20  40  62  81 104 137 175 215 267 328
#     4  10  21  35  50  71 103 145 187 222 262 318
#
# _framework density 17.914750000000002
#
# number of rings (size 3 to 8) (size 9 to 14) (size 15 to 20)
#    0.000    2.125    1.250    2.250    0.000    4.500 
#    0.000    0.000    0.000    0.750    0.000    3.500 
#    0.000    0.000    0.000    0.000    0.000    0.000 
#
# Total GULP energy -356910.462503 kJ/mol
# GULP energy per Si atom -5576.725977 kJ/mol
# Density = 1.787398 g / cm^3
# Si number density = 17.914750 Si / 1000 Ang^3
#
#
#
# Elastic Constant Matrix: (Units=GPa)
#
#
# Indices 1 2 3 4 5 6 
#
# 1 4.9003 6.7751 -2.8991 0.0000 0.0000 0.0000
# 2 6.7751 82.5655 45.5750 0.0000 0.0000 0.0000
# 3 -2.8991 45.5750 85.7245 0.0000 0.0000 0.0000
# 4 0.0000 0.0000 0.0000 18.2512 0.0000 0.0000
# 5 0.0000 0.0000 0.0000 0.0000 26.7838 0.0000
# 6 0.0000 0.0000 0.0000 0.0000 0.0000 17.1164
#
#
#
# Elastic Compliance Matrix: (Units=1/GPa)
#
#
# Indices 1 2 3 4 5 6 
#
# 1 0.276493 -0.039417 0.030306 0.000000 0.000000 0.000000
# 2 -0.039417 0.022761 -0.013434 0.000000 0.000000 0.000000
# 3 0.030306 -0.013434 0.019832 0.000000 0.000000 0.000000
# 4 0.000000 0.000000 0.000000 0.054791 0.000000 0.000000
# 5 0.000000 0.000000 0.000000 0.000000 0.037336 0.000000
# 6 0.000000 0.000000 0.000000 0.000000 0.000000 0.058424
#
#
# Mechanical properties :
#
#
# Convention : Reuss Voigt Hill
#
# Bulk Modulus (GPa) = 3.64967 30.23247 16.94107
# Shear Modulus (GPa) = 8.25003 20.67956 14.46480
#
# Velocity S-wave (km/s) = 2.14829 3.40123 2.84460
# Velocity P-wave (km/s) = 2.86273 5.68655 4.50178
#
# Compressibility (1/GPa) = 0.27399765
#
# Stress axis : x y z
#
# Youngs Moduli (GPa) = 3.61673 43.93410 50.42278
#
# Poissons Ratio (x) = 1.73174 -1.52813
# Poissons Ratio (y) = 0.14256 0.67738
# Poissons Ratio (z) = -0.10961 0.59021
#
# Static dielectric constant tensor:
#      x y z
#    x 1.611430 0.000000 0.000000 
#    y 0.000000 1.601230 0.000000 
#    z 0.000000 0.000000 1.636240 
# 
# From -- ./inp_files/26258.got.cif
#   From: 2010.05.17/outbox.cif.g08.bks.cpg/sg59_14_cif.got.tgz:26258.got - 2010.06.03 14:40:33.
