data_PCOD9446205
_publ_section_title
;
Structure prediction by ZEFSAII (Michael W. Deem and Ramdas Pophale) SiO2 
 PCOD9446205
Probable space group: P M M N
;
_chemical_formula_sum "Si O2"
_cell_formula_units_Z 64
_cell_length_a 30.813277
_cell_length_b 7.667039
_cell_length_c 15.557297
_cell_angle_alpha 90.000000
_cell_angle_beta 90.000000
_cell_angle_gamma 90.000000
_cell_volume 3675.358467
_symmetry_space_group_name_H-M "P M M N"
_symmetry_group_IT_number 59
_space_group.IT_coordinate_system_code '2'
_symmetry_cell_setting 'orthorhombic'
loop_
_space_group_symop_operation_xyz
x,y,z
1/2-x,1/2-y,z
1/2+x,-y,-z
-x,1/2+y,-z
-x,-y,-z
1/2+x,1/2+y,-z
1/2-x,y,z
x,1/2-y,z
loop_
_atom_site_type_symbol
_atom_site_label
_atom_site_fract_x
_atom_site_fract_y
_atom_site_fract_z
Si Si1 0.963944 0.957416 0.818418
Si Si2 0.033894 0.042575 0.374194
Si Si3 0.606755 0.043261 0.956598
Si Si4 0.383871 0.459872 0.710187
Si Si5 0.201839 0.463046 0.799687
Si Si6 0.701884 0.540627 0.002259
Si Si7 0.438511 0.038298 0.554441
Si Si8 0.557158 0.040529 0.125904
O O1 0.970939 0.750000 0.809376
O O2 0.959310 0.029267 0.721528
O O3 0.007699 0.025790 0.865029
O O4 0.921883 0.983221 0.876494
O O5 0.042021 0.250000 0.370337
O O6 0.061119 0.974290 0.456008
O O7 0.984042 0.014189 0.401956
O O8 0.602882 0.250000 0.960124
O O9 0.584505 0.971178 0.044452
O O10 0.657913 0.003887 0.952763
O O11 0.381194 0.250000 0.704718
O O12 0.337294 0.526273 0.741161
O O13 0.401231 0.524120 0.618735
O O14 0.417951 0.500902 0.785717
O O15 0.250000 0.515697 0.772021
O O16 0.200802 0.250000 0.800346
O O17 0.195690 0.519123 0.898762
O O18 0.750000 0.478805 0.973281
O O19 0.703960 0.750000 0.004144
O O20 0.437709 0.250000 0.552394
O O21 0.555573 0.250000 0.116750
#
# Coordination Sequence:
#
# PCOD9446205 Si02
#       8
#     8   8   8   8   8   8   8   8
#     4  10  20  33  47  60  85 127 164 189 222 271
#     4   9  17  30  45  62  87 118 149 184 225 268
#     4  11  22  32  45  67  93 119 151 196 234 264
#     4  10  17  26  45  68  90 117 148 185 222 264
#     4   8  14  25  42  64  88 115 146 177 212 261
#     4   9  17  31  50  68  88 117 152 185 220 272
#     4   9  17  27  43  68  90 111 145 185 227 266
#     4  10  20  32  43  62  91 123 156 185 221 270
#
# _framework density 17.413267999999999
#
# number of rings (size 3 to 8) (size 9 to 14) (size 15 to 20)
#    0.000    2.500    2.500    1.500    0.000    1.750 
#    0.000    0.000    0.000    0.375    0.000    0.875 
#    0.000    5.000    0.000    0.000    0.000    0.125 
#
# Total GULP energy -356749.758724 kJ/mol
# GULP energy per Si atom -5574.214980 kJ/mol
# Density = 1.737363 g / cm^3
# Si number density = 17.413268 Si / 1000 Ang^3
#
#
#
# Elastic Constant Matrix: (Units=GPa)
#
#
# Indices 1 2 3 4 5 6 
#
# 1 120.6022 -13.5729 66.5277 0.0000 0.0000 0.0000
# 2 -13.5729 21.1065 7.4100 0.0000 0.0000 0.0000
# 3 66.5277 7.4100 94.5390 0.0000 0.0000 0.0000
# 4 0.0000 0.0000 0.0000 6.7344 0.0000 0.0000
# 5 0.0000 0.0000 0.0000 0.0000 21.8045 0.0000
# 6 0.0000 0.0000 0.0000 0.0000 0.0000 13.3496
#
#
#
# Elastic Compliance Matrix: (Units=1/GPa)
#
#
# Indices 1 2 3 4 5 6 
#
# 1 0.017671 0.016174 -0.013703 0.000000 0.000000 0.000000
# 2 0.016174 0.063524 -0.016361 0.000000 0.000000 0.000000
# 3 -0.013703 -0.016361 0.021503 0.000000 0.000000 0.000000
# 4 0.000000 0.000000 0.000000 0.148491 0.000000 0.000000
# 5 0.000000 0.000000 0.000000 0.000000 0.045862 0.000000
# 6 0.000000 0.000000 0.000000 0.000000 0.000000 0.074908
#
#
# Mechanical properties :
#
#
# Convention : Reuss Voigt Hill
#
# Bulk Modulus (GPa) = 13.34782 39.66416 26.50599
# Shear Modulus (GPa) = 11.77271 20.10324 15.93797
#
# Velocity S-wave (km/s) = 2.60297 3.40145 3.02864
# Velocity P-wave (km/s) = 4.08851 6.18498 5.24261
#
# Compressibility (1/GPa) = 0.07491858
#
# Stress axis : x y z
#
# Youngs Moduli (GPa) = 56.58996 15.74209 46.50538
#
# Poissons Ratio (x) = -0.25462 0.63726
# Poissons Ratio (y) = -0.91531 0.76088
# Poissons Ratio (z) = 0.77545 0.25756
#
# Static dielectric constant tensor:
#      x y z
#    x -1.863330 0.000000 0.000000 
#    y 0.000000 1.634260 0.000000 
#    z 0.000000 0.000000 1.604690 
# 
# From -- ./inp_files/25123.got.cif
#   From: 2010.05.17/outbox.cif.g08.bks.cpg/sg59_13_cif.got.tgz:25123.got - 2010.06.03 14:40:33.
