data_PCOD9446625
_publ_section_title
;
Structure prediction by ZEFSAII (Michael W. Deem and Ramdas Pophale) SiO2 
 PCOD9446625
Probable space group: P M M N
;
_chemical_formula_sum "Si O2"
_cell_formula_units_Z 64
_cell_length_a 7.767868
_cell_length_b 28.584009
_cell_length_c 15.151021
_cell_angle_alpha 90.000000
_cell_angle_beta 90.000000
_cell_angle_gamma 90.000000
_cell_volume 3364.084353
_symmetry_space_group_name_H-M "P M M N"
_symmetry_group_IT_number 59
_space_group.IT_coordinate_system_code '2'
_symmetry_cell_setting 'orthorhombic'
loop_
_space_group_symop_operation_xyz
x,y,z
1/2-x,1/2-y,z
1/2+x,-y,-z
-x,1/2+y,-z
-x,-y,-z
1/2+x,1/2+y,-z
1/2-x,y,z
x,1/2-y,z
loop_
_atom_site_type_symbol
_atom_site_label
_atom_site_fract_x
_atom_site_fract_y
_atom_site_fract_z
Si Si1 0.449876 0.466695 0.632037
Si Si2 0.041987 0.929830 0.844654
Si Si3 0.044624 0.536825 0.166995
Si Si4 0.954914 0.697028 0.140430
Si Si5 0.454950 0.888776 0.024322
Si Si6 0.550913 0.121649 0.523960
Si Si7 0.038496 0.927001 0.645386
Si Si8 0.457464 0.696417 0.337893
O O1 0.250000 0.465068 0.605962
O O2 0.464439 0.456532 0.736438
O O3 0.545258 0.426947 0.577778
O O4 0.514478 0.519900 0.620573
O O5 0.250000 0.927675 0.841523
O O6 0.982075 0.917542 0.745687
O O7 0.978348 0.898530 0.925908
O O8 0.992279 0.983688 0.861613
O O9 0.250000 0.542922 0.176849
O O10 0.977424 0.573213 0.094630
O O11 0.750000 0.699105 0.135964
O O12 0.024367 0.750000 0.131894
O O13 0.015756 0.661912 0.065442
O O14 0.001796 0.679657 0.238762
O O15 0.250000 0.896437 0.019980
O O16 0.750000 0.134796 0.509379
O O17 0.476522 0.109361 0.428090
O O18 0.474198 0.161654 0.586882
O O19 0.250000 0.927440 0.644330
O O20 0.250000 0.697255 0.344056
O O21 0.520383 0.750000 0.346407
#
# Coordination Sequence:
#
# PCOD9446625 Si02
#       8
#     8   8   8   8   8   8   8   8
#     4  10  19  30  44  65  94 125 155 189 230 274
#     4   9  18  33  49  67  94 127 160 192 230 273
#     4  10  19  30  45  69  98 126 158 193 230 274
#     4  10  21  35  51  72  96 121 151 189 232 278
#     4  10  20  32  49  71  95 125 158 192 232 279
#     4  10  18  29  47  68  90 119 154 189 227 272
#     4   8  16  30  46  64  90 123 154 188 227 265
#     4   9  18  32  49  69  93 119 146 180 226 277
#
# _framework density 19.024493
#
# number of rings (size 3 to 8) (size 9 to 14) (size 15 to 20)
#    0.000    2.500    0.000    3.375    0.000    5.750 
#    0.000    2.500    0.000    0.750    0.000    3.500 
#    0.000    2.000    0.000    0.000    0.000    0.000 
#
# Total GULP energy -357111.983232 kJ/mol
# GULP energy per Si atom -5579.874738 kJ/mol
# Density = 1.898119 g / cm^3
# Si number density = 19.024493 Si / 1000 Ang^3
#
#
#
# Elastic Constant Matrix: (Units=GPa)
#
#
# Indices 1 2 3 4 5 6 
#
# 1 23.6362 -8.4315 -5.5707 0.0000 0.0000 0.0000
# 2 -8.4315 62.9180 61.3751 0.0000 0.0000 0.0000
# 3 -5.5707 61.3751 91.7699 0.0000 0.0000 0.0000
# 4 0.0000 0.0000 0.0000 32.6762 0.0000 0.0000
# 5 0.0000 0.0000 0.0000 0.0000 6.2897 0.0000
# 6 0.0000 0.0000 0.0000 0.0000 0.0000 18.0123
#
#
#
# Elastic Compliance Matrix: (Units=1/GPa)
#
#
# Indices 1 2 3 4 5 6 
#
# 1 0.044872 0.009655 -0.003733 0.000000 0.000000 0.000000
# 2 0.009655 0.047801 -0.031383 0.000000 0.000000 0.000000
# 3 -0.003733 -0.031383 0.031659 0.000000 0.000000 0.000000
# 4 0.000000 0.000000 0.000000 0.030603 0.000000 0.000000
# 5 0.000000 0.000000 0.000000 0.000000 0.158991 0.000000
# 6 0.000000 0.000000 0.000000 0.000000 0.000000 0.055518
#
#
# Mechanical properties :
#
#
# Convention : Reuss Voigt Hill
#
# Bulk Modulus (GPa) = 13.62223 30.34111 21.98167
# Shear Modulus (GPa) = 11.24010 20.12570 15.68290
#
# Velocity S-wave (km/s) = 2.43332 3.25604 2.87427
# Velocity P-wave (km/s) = 3.88209 5.48806 4.75339
#
# Compressibility (1/GPa) = 0.07340944
#
# Stress axis : x y z
#
# Youngs Moduli (GPa) = 22.28556 20.92017 31.58681
#
# Poissons Ratio (x) = -0.20198 0.11792
# Poissons Ratio (y) = -0.21517 0.99128
# Poissons Ratio (z) = 0.08320 0.65653
#
# Static dielectric constant tensor:
#      x y z
#    x 1.690620 0.000000 0.000000 
#    y 0.000000 1.685320 0.000000 
#    z 0.000000 0.000000 1.682210 
# 
# From -- ./inp_files/21895.got.cif
#   From: 2010.05.17/outbox.cif.g08.bks.cpg/sg59_11_cif.got.tgz:21895.got - 2010.06.03 14:40:33.
