data_PCOD9446224
_publ_section_title
;
Structure prediction by ZEFSAII (Michael W. Deem and Ramdas Pophale) SiO2 
 PCOD9446224
Probable space group: P M M N
;
_chemical_formula_sum "Si O2"
_cell_formula_units_Z 64
_cell_length_a 8.595211
_cell_length_b 27.588820
_cell_length_c 17.793507
_cell_angle_alpha 90.000000
_cell_angle_beta 90.000000
_cell_angle_gamma 90.000000
_cell_volume 4219.405082
_symmetry_space_group_name_H-M "P M M N"
_symmetry_group_IT_number 59
_space_group.IT_coordinate_system_code '2'
_symmetry_cell_setting 'orthorhombic'
loop_
_space_group_symop_operation_xyz
x,y,z
1/2-x,1/2-y,z
1/2+x,-y,-z
-x,1/2+y,-z
-x,-y,-z
1/2+x,1/2+y,-z
1/2-x,y,z
x,1/2-y,z
loop_
_atom_site_type_symbol
_atom_site_label
_atom_site_fract_x
_atom_site_fract_y
_atom_site_fract_z
Si Si1 0.934986 0.372274 0.286407
Si Si2 0.564679 0.061243 0.664516
Si Si3 0.936685 0.446491 0.980753
Si Si4 0.563301 0.612051 0.472417
Si Si5 0.936007 0.963888 0.174932
Si Si6 0.562338 0.694849 0.587671
Si Si7 0.562577 0.544724 0.608002
Si Si8 0.060748 0.575162 0.857692
O O1 0.750000 0.365178 0.285324
O O2 0.991376 0.384776 0.202266
O O3 0.010121 0.328942 0.333752
O O4 0.976949 0.420571 0.333205
O O5 0.750000 0.062664 0.670233
O O6 0.507523 0.103341 0.609120
O O7 0.494600 0.058897 0.747688
O O8 0.519540 0.010287 0.624770
O O9 0.750000 0.447461 0.976691
O O10 0.003793 0.435713 0.898781
O O11 0.983147 0.416557 0.055317
O O12 0.000000 0.500000 0.000000
O O13 0.750000 0.613996 0.465693
O O14 0.510937 0.659122 0.520042
O O15 0.523659 0.566327 0.526385
O O16 0.750000 0.964598 0.173860
O O17 0.989754 0.020597 0.167290
O O18 0.750000 0.694510 0.586409
O O19 0.507930 0.750000 0.579452
O O20 0.750000 0.550048 0.617518
O O21 0.250000 0.574310 0.854999
#
# Coordination Sequence:
#
# PCOD9446224 Si02
#       8
#     8   8   8   8   8   8   8   8
#     4  10  17  27  45  68  89 113 146 182 220 261
#     4  11  20  28  41  62  87 116 150 186 219 257
#     4   9  16  27  40  57  82 115 153 185 216 252
#     4   9  18  31  45  61  82 111 144 179 221 268
#     4  10  18  29  41  57  84 120 155 185 221 255
#     4   9  19  36  52  65  86 114 143 180 226 270
#     4   9  18  30  41  58  85 117 150 179 215 258
#     4   8  15  26  40  59  85 114 144 180 217 251
#
# _framework density 15.168015
#
# number of rings (size 3 to 8) (size 9 to 14) (size 15 to 20)
#    0.000    2.625    1.250    3.375    0.000    2.750 
#    0.000    1.875    0.000    0.000    0.000    0.000 
#    0.000    1.000    0.000    7.250    0.000    3.750 
#
# Total GULP energy -356399.831225 kJ/mol
# GULP energy per Si atom -5568.747363 kJ/mol
# Density = 1.513349 g / cm^3
# Si number density = 15.168015 Si / 1000 Ang^3
#
#
#
# Elastic Constant Matrix: (Units=GPa)
#
#
# Indices 1 2 3 4 5 6 
#
# 1 13.9605 15.5016 33.2739 0.0000 0.0000 0.0000
# 2 15.5016 59.1258 53.2515 0.0000 0.0000 0.0000
# 3 33.2739 53.2515 153.6008 0.0000 0.0000 0.0000
# 4 0.0000 0.0000 0.0000 10.9251 0.0000 0.0000
# 5 0.0000 0.0000 0.0000 0.0000 24.6793 0.0000
# 6 0.0000 0.0000 0.0000 0.0000 0.0000 12.4356
#
#
#
# Elastic Compliance Matrix: (Units=1/GPa)
#
#
# Indices 1 2 3 4 5 6 
#
# 1 0.157091 -0.015321 -0.028718 0.000000 0.000000 0.000000
# 2 -0.015321 0.026086 -0.005725 0.000000 0.000000 0.000000
# 3 -0.028718 -0.005725 0.014716 0.000000 0.000000 0.000000
# 4 0.000000 0.000000 0.000000 0.091532 0.000000 0.000000
# 5 0.000000 0.000000 0.000000 0.000000 0.040520 0.000000
# 6 0.000000 0.000000 0.000000 0.000000 0.000000 0.080415
#
#
# Mechanical properties :
#
#
# Convention : Reuss Voigt Hill
#
# Bulk Modulus (GPa) = 10.16622 47.86014 29.01318
# Shear Modulus (GPa) = 9.21359 17.91867 13.56613
#
# Velocity S-wave (km/s) = 2.46729 3.44080 2.99388
# Velocity P-wave (km/s) = 3.85145 6.88530 5.57857
#
# Compressibility (1/GPa) = 0.09836495
#
# Stress axis : x y z
#
# Youngs Moduli (GPa) = 6.36573 38.33481 67.95234
#
# Poissons Ratio (x) = 0.58733 1.95148
# Poissons Ratio (y) = 0.09753 0.38901
# Poissons Ratio (z) = 0.18281 0.21946
#
# Static dielectric constant tensor:
#      x y z
#    x 1.511760 0.000000 0.000000 
#    y 0.000000 1.482610 0.000000 
#    z 0.000000 0.000000 1.535420 
# 
# From -- ./inp_files/21909.got.cif
#   From: 2010.05.17/outbox.cif.g08.bks.cpg/sg59_11_cif.got.tgz:21909.got - 2010.06.03 14:40:33.
