data_PCOD9446677
_publ_section_title
;
Structure prediction by ZEFSAII (Michael W. Deem and Ramdas Pophale) SiO2 
 PCOD9446677
Probable space group: P M M N
;
_chemical_formula_sum "Si O2"
_cell_formula_units_Z 48
_cell_length_a 8.577034
_cell_length_b 21.416754
_cell_length_c 15.364275
_cell_angle_alpha 90.000000
_cell_angle_beta 90.000000
_cell_angle_gamma 90.000000
_cell_volume 2822.297894
_symmetry_space_group_name_H-M "P M M N"
_symmetry_group_IT_number 59
_space_group.IT_coordinate_system_code '2'
_symmetry_cell_setting 'orthorhombic'
loop_
_space_group_symop_operation_xyz
x,y,z
1/2-x,1/2-y,z
1/2+x,-y,-z
-x,1/2+y,-z
-x,-y,-z
1/2+x,1/2+y,-z
1/2-x,y,z
x,1/2-y,z
loop_
_atom_site_type_symbol
_atom_site_label
_atom_site_fract_x
_atom_site_fract_y
_atom_site_fract_z
Si Si1 0.437498 0.317487 0.012926
Si Si2 0.436899 0.051385 0.931531
Si Si3 0.565389 0.142986 0.192581
Si Si4 0.933238 0.988797 0.765274
Si Si5 0.062897 0.957360 0.577367
Si Si6 0.062089 0.817947 0.612083
O O1 0.250000 0.320939 0.023812
O O2 0.474029 0.250000 0.972011
O O3 0.516184 0.320471 0.107349
O O4 0.486228 0.379381 0.961389
O O5 0.250000 0.047674 0.932911
O O6 0.496287 0.036422 0.834866
O O7 0.500000 0.000000 0.000000
O O8 0.750000 0.128488 0.190677
O O9 0.469005 0.079046 0.193746
O O10 0.534015 0.176746 0.284113
O O11 0.750000 0.998550 0.756129
O O12 0.010371 0.985504 0.670167
O O13 0.250000 0.956181 0.575090
O O14 0.006648 0.884539 0.573662
O O15 0.000000 0.000000 0.500000
O O16 0.250000 0.817404 0.600452
O O17 0.002520 0.750000 0.581095
#
# Coordination Sequence:
#
# PCOD9446677 Si02
#       6
#     8   8   8   8   8   8
#     4  10  21  34  48  70 103 141 178 220 270 318
#     4  11  21  34  53  76 105 140 180 220 260 313
#     4  10  18  29  48  74 104 137 173 211 258 316
#     4  11  21  34  53  77 105 138 177 221 264 312
#     4  10  20  35  56  81 108 137 172 216 266 320
#     4   8  15  28  47  73 103 133 165 204 252 307
#
# _framework density 17.007417
#
# number of rings (size 3 to 8) (size 9 to 14) (size 15 to 20)
#    0.000    2.000    1.667    4.500    0.000    1.667 
#    0.000    0.000    0.000   11.000    0.000    0.000 
#    0.000    0.000    0.000    0.000    0.000    0.000 
#
# Total GULP energy -267646.282306 kJ/mol
# GULP energy per Si atom -5575.964215 kJ/mol
# Density = 1.696871 g / cm^3
# Si number density = 17.007417 Si / 1000 Ang^3
#
#
#
# Elastic Constant Matrix: (Units=GPa)
#
#
# Indices 1 2 3 4 5 6 
#
# 1 45.3445 34.7576 22.9108 0.0000 0.0000 0.0000
# 2 34.7576 152.5769 73.7975 0.0000 0.0000 0.0000
# 3 22.9108 73.7975 86.2856 0.0000 0.0000 0.0000
# 4 0.0000 0.0000 0.0000 18.7580 0.0000 0.0000
# 5 0.0000 0.0000 0.0000 0.0000 27.7938 0.0000
# 6 0.0000 0.0000 0.0000 0.0000 0.0000 15.3940
#
#
#
# Elastic Compliance Matrix: (Units=1/GPa)
#
#
# Indices 1 2 3 4 5 6 
#
# 1 0.027254 -0.004619 -0.003286 0.000000 0.000000 0.000000
# 2 -0.004619 0.011961 -0.009003 0.000000 0.000000 0.000000
# 3 -0.003286 -0.009003 0.020162 0.000000 0.000000 0.000000
# 4 0.000000 0.000000 0.000000 0.053311 0.000000 0.000000
# 5 0.000000 0.000000 0.000000 0.000000 0.035979 0.000000
# 6 0.000000 0.000000 0.000000 0.000000 0.000000 0.064960
#
#
# Mechanical properties :
#
#
# Convention : Reuss Voigt Hill
#
# Bulk Modulus (GPa) = 39.12291 60.79321 49.95806
# Shear Modulus (GPa) = 19.53386 22.57189 21.05287
#
# Velocity S-wave (km/s) = 3.39270 3.64700 3.52215
# Velocity P-wave (km/s) = 6.19682 7.31825 6.78076
#
# Compressibility (1/GPa) = 0.02556047
#
# Stress axis : x y z
#
# Youngs Moduli (GPa) = 36.69123 83.60427 49.59759
#
# Poissons Ratio (x) = 0.38620 0.16297
# Poissons Ratio (y) = 0.16949 0.44655
# Poissons Ratio (z) = 0.12056 0.75273
#
# Static dielectric constant tensor:
#      x y z
#    x 1.584250 0.000000 0.000000 
#    y 0.000000 1.623350 0.000000 
#    z 0.000000 0.000000 1.551630 
# 
# From -- ./inp_files/20723.got.cif
#   From: 2010.05.17/outbox.cif.g08.bks.cpg/sg59_11_cif.got.tgz:20723.got - 2010.06.03 14:40:33.
