data_PCOD9446480
_publ_section_title
;
Structure prediction by ZEFSAII (Michael W. Deem and Ramdas Pophale) SiO2 
 PCOD9446480
Probable space group: P M M N
;
_chemical_formula_sum "Si O2"
_cell_formula_units_Z 40
_cell_length_a 25.553984
_cell_length_b 8.611499
_cell_length_c 10.511409
_cell_angle_alpha 90.000000
_cell_angle_beta 90.000000
_cell_angle_gamma 90.000000
_cell_volume 2313.120773
_symmetry_space_group_name_H-M "P M M N"
_symmetry_group_IT_number 59
_space_group.IT_coordinate_system_code '2'
_symmetry_cell_setting 'orthorhombic'
loop_
_space_group_symop_operation_xyz
x,y,z
1/2-x,1/2-y,z
1/2+x,-y,-z
-x,1/2+y,-z
-x,-y,-z
1/2+x,1/2+y,-z
1/2-x,y,z
x,1/2-y,z
loop_
_atom_site_type_symbol
_atom_site_label
_atom_site_fract_x
_atom_site_fract_y
_atom_site_fract_z
Si Si1 0.142141 0.563589 0.986350
Si Si2 0.139772 0.063297 0.274984
Si Si3 0.027152 0.437473 0.373963
Si Si4 0.031902 0.562955 0.880373
Si Si5 0.250000 0.434708 0.993352
Si Si6 0.250000 0.934876 0.281476
O O1 0.146327 0.750000 0.993122
O O2 0.134116 0.500433 0.130382
O O3 0.196022 0.493000 0.933899
O O4 0.092237 0.519549 0.901963
O O5 0.142293 0.250000 0.267616
O O6 0.087853 0.017014 0.352509
O O7 0.194706 0.001009 0.330745
O O8 0.025976 0.250000 0.376891
O O9 0.000000 0.500000 0.500000
O O10 0.994428 0.490621 0.250259
O O11 0.028995 0.750000 0.882564
O O12 0.000000 0.500000 0.000000
O O13 0.250000 0.250000 0.006345
O O14 0.250000 0.511610 0.133738
O O15 0.250000 0.750000 0.289368
#
# Coordination Sequence:
#
# PCOD9446480 Si02
#       6
#     8   8   8   8   4   4
#     4  10  18  29  49  75 103 133 169 213 259 307
#     4  10  18  31  50  73 104 135 169 213 258 306
#     4  10  22  37  53  76 107 141 177 216 260 313
#     4  10  20  34  53  78 105 135 172 214 257 308
#     4  10  18  28  44  69 104 137 166 208 258 308
#     4  10  18  28  46  73 102 131 170 212 256 308
#
# _framework density 17.292655
#
# number of rings (size 3 to 8) (size 9 to 14) (size 15 to 20)
#    0.000    2.000    2.000    5.400    0.000    3.200 
#    0.000    0.000    0.000    1.200    0.000    1.400 
#    0.000    0.000    0.000    0.000    0.000    0.000 
#
# Total GULP energy -223075.995908 kJ/mol
# GULP energy per Si atom -5576.899898 kJ/mol
# Density = 1.725330 g / cm^3
# Si number density = 17.292655 Si / 1000 Ang^3
#
#
#
# Elastic Constant Matrix: (Units=GPa)
#
#
# Indices 1 2 3 4 5 6 
#
# 1 209.0872 46.7389 69.5836 0.0000 0.0000 0.0000
# 2 46.7389 48.6831 16.7664 0.0000 0.0000 0.0000
# 3 69.5836 16.7664 84.3086 0.0000 0.0000 0.0000
# 4 0.0000 0.0000 0.0000 17.5481 0.0000 0.0000
# 5 0.0000 0.0000 0.0000 0.0000 20.4382 0.0000
# 6 0.0000 0.0000 0.0000 0.0000 0.0000 28.0297
#
#
#
# Elastic Compliance Matrix: (Units=1/GPa)
#
#
# Indices 1 2 3 4 5 6 
#
# 1 0.007826 -0.005677 -0.005330 0.000000 0.000000 0.000000
# 2 -0.005677 0.026170 -0.000519 0.000000 0.000000 0.000000
# 3 -0.005330 -0.000519 0.016363 0.000000 0.000000 0.000000
# 4 0.000000 0.000000 0.000000 0.056986 0.000000 0.000000
# 5 0.000000 0.000000 0.000000 0.000000 0.048928 0.000000
# 6 0.000000 0.000000 0.000000 0.000000 0.000000 0.035676
#
#
# Mechanical properties :
#
#
# Convention : Reuss Voigt Hill
#
# Bulk Modulus (GPa) = 36.61996 67.58407 52.10201
# Shear Modulus (GPa) = 22.31108 27.13585 24.72347
#
# Velocity S-wave (km/s) = 3.59584 3.96563 3.78525
# Velocity P-wave (km/s) = 6.20183 7.75472 7.02133
#
# Compressibility (1/GPa) = 0.02730751
#
# Stress axis : x y z
#
# Youngs Moduli (GPa) = 127.78695 38.21114 61.11294
#
# Poissons Ratio (x) = 0.21694 0.32571
# Poissons Ratio (y) = 0.72551 0.03169
# Poissons Ratio (z) = 0.68106 0.01982
#
# Static dielectric constant tensor:
#      x y z
#    x 1.647210 0.000000 0.000000 
#    y 0.000000 1.582450 0.000000 
#    z 0.000000 0.000000 1.548390 
# 
# From -- ./inp_files/12439.got.cif
#   From: 2010.05.17/outbox.cif.g08.bks.cpg/sg59_7_cif.got.tgz:12439.got - 2010.06.03 14:40:33.
