data_PCOD9446158
_publ_section_title
;
Structure prediction by ZEFSAII (Michael W. Deem and Ramdas Pophale) SiO2 
 PCOD9446158
Probable space group: P M M N
;
_chemical_formula_sum "Si O2"
_cell_formula_units_Z 30
_cell_length_a 33.087448
_cell_length_b 8.172012
_cell_length_c 5.197742
_cell_angle_alpha 90.000000
_cell_angle_beta 90.000000
_cell_angle_gamma 90.000000
_cell_volume 1405.422772
_symmetry_space_group_name_H-M "P M M N"
_symmetry_group_IT_number 59
_space_group.IT_coordinate_system_code '2'
_symmetry_cell_setting 'orthorhombic'
loop_
_space_group_symop_operation_xyz
x,y,z
1/2-x,1/2-y,z
1/2+x,-y,-z
-x,1/2+y,-z
-x,-y,-z
1/2+x,1/2+y,-z
1/2-x,y,z
x,1/2-y,z
loop_
_atom_site_type_symbol
_atom_site_label
_atom_site_fract_x
_atom_site_fract_y
_atom_site_fract_z
Si Si1 0.116641 0.552270 0.804573
Si Si2 0.750000 0.984920 0.745592
Si Si3 0.250000 0.250000 0.755528
Si Si4 0.336434 0.054269 0.302984
Si Si5 0.024219 0.555111 0.749860
O O1 0.118100 0.750000 0.794614
O O2 0.144880 0.480033 0.581344
O O3 0.070557 0.496168 0.757163
O O4 0.132174 0.492297 0.080586
O O5 0.750000 0.888345 0.473928
O O6 0.795758 0.051387 0.739480
O O7 0.750000 0.888718 0.015842
O O8 0.327166 0.250000 0.281677
O O9 0.026132 0.750000 0.749169
O O10 0.000000 0.500000 0.500000
O O11 0.000000 0.500000 0.000000
#
# Coordination Sequence:
#
# PCOD9446158 Si02
#       5
#     8   4   2   8   8
#     4  11  26  44  61  92 136 171 196 259 335 382
#     4  11  22  36  63  92 129 164 213 268 327 350
#     4  10  16  34  56  82 126 154 200 250 334 346
#     4  12  23  40  67  95 124 163 225 266 304 371
#     4  11  24  43  68  93 126 166 210 259 318 382
#
# _framework density 21.345893
#
# number of rings (size 3 to 8) (size 9 to 14) (size 15 to 20)
#    0.000    0.800    2.667    5.600    0.000   10.667 
#    0.000    4.000    0.000    0.000    0.000    0.000 
#    0.000    0.000    0.000    0.000    0.000    0.000 
#
# Total GULP energy -167067.707570 kJ/mol
# GULP energy per Si atom -5568.923586 kJ/mol
# Density = 2.129731 g / cm^3
# Si number density = 21.345893 Si / 1000 Ang^3
#
#
#
# Elastic Constant Matrix: (Units=GPa)
#
#
# Indices 1 2 3 4 5 6 
#
# 1 96.7847 8.9002 -20.7778 0.0000 0.0000 0.0000
# 2 8.9002 57.4767 2.9306 0.0000 0.0000 0.0000
# 3 -20.7778 2.9306 126.3198 0.0000 0.0000 0.0000
# 4 0.0000 0.0000 0.0000 33.8663 0.0000 0.0000
# 5 0.0000 0.0000 0.0000 0.0000 -18.3484 0.0000
# 6 0.0000 0.0000 0.0000 0.0000 0.0000 -21.0865
#
#
#
# Elastic Compliance Matrix: (Units=1/GPa)
#
#
# Indices 1 2 3 4 5 6 
#
# 1 0.010889 -0.001780 0.001832 0.000000 0.000000 0.000000
# 2 -0.001780 0.017710 -0.000704 0.000000 0.000000 0.000000
# 3 0.001832 -0.000704 0.008234 0.000000 0.000000 0.000000
# 4 0.000000 0.000000 0.000000 0.029528 0.000000 0.000000
# 5 0.000000 0.000000 0.000000 0.000000 -0.054501 0.000000
# 6 0.000000 0.000000 0.000000 0.000000 0.000000 -0.047424
#
#
# Mechanical properties :
#
#
# Convention : Reuss Voigt Hill
#
# Bulk Modulus (GPa) = 28.14396 29.18747 28.66571
# Shear Modulus (GPa) = -223.03626 18.18817 -102.42405
#
# Velocity S-wave (km/s) = -10.23296 2.92219 -6.93449
# Velocity P-wave (km/s) = 11.24299 5.00888 7.11744
#
# Compressibility (1/GPa) = 0.03553161
#
# Stress axis : x y z
#
# Youngs Moduli (GPa) = 91.83375 56.46594 121.44555
#
# Poissons Ratio (x) = 0.10049 -0.22254
# Poissons Ratio (y) = 0.16343 0.08545
# Poissons Ratio (z) = -0.16828 0.03973
#
# Static dielectric constant tensor:
#      x y z
#    x 1.829160 0.000000 0.000000 
#    y 0.000000 1.820030 0.000000 
#    z 0.000000 0.000000 1.671810 
# 
# From -- ./inp_files/4417.got.cif
#   From: 2010.05.17/outbox.cif.g08.bks.cpg/sg59_3_cif.got.tgz:4417.got - 2010.06.03 14:40:33.
