data_PCOD9446874
_publ_section_title
;
Structure prediction by ZEFSAII (Michael W. Deem and Ramdas Pophale) SiO2 
 PCOD9446874
Probable space group: P M M N
;
_chemical_formula_sum "Si O2"
_cell_formula_units_Z 64
_cell_length_a 8.237353
_cell_length_b 23.512623
_cell_length_c 15.846015
_cell_angle_alpha 90.000000
_cell_angle_beta 90.000000
_cell_angle_gamma 90.000000
_cell_volume 3069.084321
_symmetry_space_group_name_H-M "P M M N"
_symmetry_group_IT_number 59
_space_group.IT_coordinate_system_code '2'
_symmetry_cell_setting 'orthorhombic'
loop_
_space_group_symop_operation_xyz
x,y,z
1/2-x,1/2-y,z
1/2+x,-y,-z
-x,1/2+y,-z
-x,-y,-z
1/2+x,1/2+y,-z
1/2-x,y,z
x,1/2-y,z
loop_
_atom_site_type_symbol
_atom_site_label
_atom_site_fract_x
_atom_site_fract_y
_atom_site_fract_z
Si Si1 0.555471 0.311727 0.454219
Si Si2 0.945359 0.886143 0.897398
Si Si3 0.060391 0.135899 0.923537
Si Si4 0.445102 0.868569 0.711693
Si Si5 0.441485 0.515451 0.125156
Si Si6 0.441865 0.815430 0.251049
Si Si7 0.440516 0.393535 0.597860
Si Si8 0.446799 0.998648 0.688608
O O1 0.750000 0.308950 0.448675
O O2 0.494527 0.250000 0.483383
O O3 0.494440 0.326247 0.360409
O O4 0.518083 0.360704 0.520397
O O5 0.750000 0.888515 0.901535
O O6 0.992310 0.861457 0.806655
O O7 0.001918 0.952298 0.899098
O O8 0.001174 0.853190 0.981219
O O9 0.250000 0.150997 0.917522
O O10 0.039038 0.067871 0.912978
O O11 0.971922 0.165127 0.845185
O O12 0.250000 0.865214 0.716042
O O13 0.486788 0.932386 0.680029
O O14 0.250000 0.520980 0.105282
O O15 0.467916 0.518596 0.225547
O O16 0.250000 0.818285 0.268837
O O17 0.495390 0.750000 0.261824
O O18 0.528025 0.857242 0.316909
O O19 0.250000 0.395589 0.582082
O O20 0.497569 0.457857 0.615770
O O21 0.250000 0.003166 0.699089
#
# Coordination Sequence:
#
# PCOD9446874 Si02
#       8
#     8   8   8   8   8   8   8   8
#     4  10  22  40  60  82 109 144 188 234 278 329
#     4   9  20  35  53  81 114 146 184 229 277 328
#     4  11  21  34  53  79 113 150 187 228 275 329
#     4   9  19  37  59  81 110 148 188 232 282 332
#     4  10  18  30  51  80 113 149 186 223 268 325
#     4  11  24  40  57  79 110 148 191 237 281 332
#     4  11  22  36  58  86 114 143 180 227 281 342
#     4   9  18  33  53  81 115 147 180 223 279 339
#
# _framework density 20.853124999999999
#
# number of rings (size 3 to 8) (size 9 to 14) (size 15 to 20)
#    0.000    2.000    1.250    2.250    0.000    5.750 
#    0.000    0.625    0.000    2.250    0.000    0.000 
#    0.000    0.000    0.000    0.000    0.000    0.000 
#
# Total GULP energy -357321.031367 kJ/mol
# GULP energy per Si atom -5583.141115 kJ/mol
# Density = 2.080566 g / cm^3
# Si number density = 20.853125 Si / 1000 Ang^3
#
#
#
# Elastic Constant Matrix: (Units=GPa)
#
#
# Indices 1 2 3 4 5 6 
#
# 1 9.3926 6.0903 -5.8547 0.0000 0.0000 0.0000
# 2 6.0903 -0.6575 9.8561 0.0000 0.0000 0.0000
# 3 -5.8547 9.8561 53.3465 0.0000 0.0000 0.0000
# 4 0.0000 0.0000 0.0000 10.1172 0.0000 0.0000
# 5 0.0000 0.0000 0.0000 0.0000 27.4785 0.0000
# 6 0.0000 0.0000 0.0000 0.0000 0.0000 -18.1409
#
#
#
# Elastic Compliance Matrix: (Units=1/GPa)
#
#
# Indices 1 2 3 4 5 6 
#
# 1 0.033895 0.098079 -0.014401 0.000000 0.000000 0.000000
# 2 0.098079 -0.119660 0.032872 0.000000 0.000000 0.000000
# 3 -0.014401 0.032872 0.011092 0.000000 0.000000 0.000000
# 4 0.000000 0.000000 0.000000 0.098842 0.000000 0.000000
# 5 0.000000 0.000000 0.000000 0.000000 0.036392 0.000000
# 6 0.000000 0.000000 0.000000 0.000000 0.000000 -0.055124
#
#
# Mechanical properties :
#
#
# Convention : Reuss Voigt Hill
#
# Bulk Modulus (GPa) = 6.31205 9.14055 7.72630
# Shear Modulus (GPa) = -28.59503 7.35694 -10.61904
#
# Velocity S-wave (km/s) = -3.70707 1.88033 -2.25906
# Velocity P-wave (km/s) = 3.91020 3.01778 1.75822
#
# Compressibility (1/GPa) = 0.15842702
#
# Stress axis : x y z
#
# Youngs Moduli (GPa) = 29.50295 -8.35701 90.15844
#
# Poissons Ratio (x) = 0.81965 1.29836
# Poissons Ratio (y) = -2.89363 -2.96368
# Poissons Ratio (z) = 0.42487 0.27471
#
# Static dielectric constant tensor:
#      x y z
#    x 1.715660 0.000000 0.000000 
#    y 0.000000 1.759140 0.000000 
#    z 0.000000 0.000000 1.763130 
# 
# From -- ./inp_files/21627.got.cif
#   From: 2010.05.17/outbox.cif.g08.bks.cpg/sg59_11_cif.got.tgz:21627.got - 2010.06.03 14:40:33.
