data_PCOD9446091
_publ_section_title
;
Structure prediction by ZEFSAII (Michael W. Deem and Ramdas Pophale) SiO2 
 PCOD9446091
Probable space group: P N N M
;
_chemical_formula_sum "Si O2"
_cell_formula_units_Z 64
_cell_length_a 15.000000
_cell_length_b 30.000000
_cell_length_c 9.000000
_cell_angle_alpha 90.000000
_cell_angle_beta 90.000000
_cell_angle_gamma 90.000000
_cell_volume 4050.000000
_symmetry_space_group_name_H-M "P N N M"
_symmetry_group_IT_number 58
_symmetry_cell_setting 'orthorhombic'
loop_
_space_group_symop_operation_xyz
x,y,z
-x,-y,z
1/2+x,1/2-y,1/2-z
1/2-x,1/2+y,1/2-z
-x,-y,-z
x,y,-z
1/2-x,1/2+y,1/2+z
1/2+x,1/2-y,1/2+z
loop_
_atom_site_type_symbol
_atom_site_label
_atom_site_fract_x
_atom_site_fract_y
_atom_site_fract_z
Si Si1 0.343287 0.639669 0.829129
Si Si2 0.269578 0.216706 0.177901
Si Si3 0.201185 0.867053 0.821207
Si Si4 0.658545 0.193312 0.321122
Si Si5 0.107463 0.954340 0.179481
Si Si6 0.964164 0.183484 0.327853
Si Si7 0.963518 0.276347 0.822655
Si Si8 0.902043 0.945643 0.179523
O O1 0.287144 0.675518 0.738541
O O2 0.446975 0.654218 0.826427
O O3 0.342403 0.591562 0.754414
O O4 0.313742 0.639065 0.000000
O O5 0.215514 0.262044 0.220171
O O6 0.368840 0.213742 0.245799
O O7 0.275012 0.215995 0.000000
O O8 0.292154 0.847176 0.758972
O O9 0.179785 0.917914 0.777780
O O10 0.120455 0.839863 0.746024
O O11 0.196976 0.862647 0.000000
O O12 0.664654 0.189249 0.500000
O O13 0.553885 0.197083 0.281973
O O14 0.006659 0.941005 0.223530
O O15 0.124945 0.004669 0.226819
O O16 0.104864 0.955284 0.000000
O O17 0.943793 0.195206 0.500000
O O18 0.984778 0.226517 0.230352
O O19 0.952658 0.278728 0.000000
O O20 0.897890 0.941838 0.000000
#
# Coordination Sequence:
#
# PCOD9446091 Si02
#       8
#     8   8   8   8   8   8   8   8
#     4  11  22  33  48  74 104 136 175 210 247 297
#     4  11  22  36  53  74 101 133 170 208 251 300
#     4  11  20  31  51  75 100 134 175 208 246 295
#     4  10  22  36  50  72 102 133 167 206 251 299
#     4   8  16  29  48  74 100 132 169 207 249 303
#     4  11  21  31  46  70 103 136 168 207 247 291
#     4  11  22  37  53  70  97 133 172 211 247 290
#     4   9  16  31  51  70 100 135 169 206 251 301
#
# _framework density 15.802469
#
# number of rings (size 3 to 8) (size 9 to 14) (size 15 to 20)
#    0.000    1.750    3.750    2.625    0.000    2.500 
#    0.000    2.500    0.000    0.000    0.000    0.875 
#    0.000    7.000    0.000    0.000    0.000    0.000 
#
# Total GULP energy -356836.432584 kJ/mol
# GULP energy per Si atom -5575.569259 kJ/mol
# Density = 1.576650 g / cm^3
# Si number density = 15.802469 Si / 1000 Ang^3
#
#
#
# Elastic Constant Matrix: (Units=GPa)
#
#
# Indices 1 2 3 4 5 6 
#
# 1 53.2188 10.8010 23.8374 0.0000 0.0000 0.0000
# 2 10.8010 73.9745 16.4016 0.0000 0.0000 0.0000
# 3 23.8374 16.4016 36.9534 0.0000 0.0000 0.0000
# 4 0.0000 0.0000 0.0000 18.3519 0.0000 0.0000
# 5 0.0000 0.0000 0.0000 0.0000 10.7089 0.0000
# 6 0.0000 0.0000 0.0000 0.0000 0.0000 23.3311
#
#
#
# Elastic Compliance Matrix: (Units=1/GPa)
#
#
# Indices 1 2 3 4 5 6 
#
# 1 0.026426 -0.000088 -0.017008 0.000000 0.000000 0.000000
# 2 -0.000088 0.014994 -0.006599 0.000000 0.000000 0.000000
# 3 -0.017008 -0.006599 0.040961 0.000000 0.000000 0.000000
# 4 0.000000 0.000000 0.000000 0.054490 0.000000 0.000000
# 5 0.000000 0.000000 0.000000 0.000000 0.093380 0.000000
# 6 0.000000 0.000000 0.000000 0.000000 0.000000 0.042861
#
#
# Mechanical properties :
#
#
# Convention : Reuss Voigt Hill
#
# Bulk Modulus (GPa) = 28.57682 29.58076 29.07879
# Shear Modulus (GPa) = 15.05278 18.01885 16.53581
#
# Velocity S-wave (km/s) = 3.08970 3.38043 3.23833
# Velocity P-wave (km/s) = 5.55440 5.83062 5.69419
#
# Compressibility (1/GPa) = 0.03499340
#
# Stress axis : x y z
#
# Youngs Moduli (GPa) = 37.84136 66.69348 24.41353
#
# Poissons Ratio (x) = 0.00584 0.41522
# Poissons Ratio (y) = 0.00331 0.16109
# Poissons Ratio (z) = 0.64360 0.44008
#
# Static dielectric constant tensor:
#      x y z
#    x 1.530370 0.000000 0.000000 
#    y 0.000000 1.549710 0.000000 
#    z 0.000000 0.000000 1.531230 
# 
# From -- ./inp_files/7156.got.cif
#   From: 2010.05.17/outbox.ucp.g08.bks.cvg/sg58_4_cif.got.tgz:7156.got - 2010.06.11 16:41:41.
