data_PCOD9446251
_publ_section_title
;
Structure prediction by ZEFSAII (Michael W. Deem and Ramdas Pophale) SiO2 
 PCOD9446251
Probable space group: P M M N
;
_chemical_formula_sum "Si O2"
_cell_formula_units_Z 56
_cell_length_a 18.135243
_cell_length_b 23.129140
_cell_length_c 8.873567
_cell_angle_alpha 90.000000
_cell_angle_beta 90.000000
_cell_angle_gamma 90.000000
_cell_volume 3722.040521
_symmetry_space_group_name_H-M "P M M N"
_symmetry_group_IT_number 59
_space_group.IT_coordinate_system_code '2'
_symmetry_cell_setting 'orthorhombic'
loop_
_space_group_symop_operation_xyz
x,y,z
1/2-x,1/2-y,z
1/2+x,-y,-z
-x,1/2+y,-z
-x,-y,-z
1/2+x,1/2+y,-z
1/2-x,y,z
x,1/2-y,z
loop_
_atom_site_type_symbol
_atom_site_label
_atom_site_fract_x
_atom_site_fract_y
_atom_site_fract_z
Si Si1 0.033314 0.411592 0.607201
Si Si2 0.436403 0.996579 0.190354
Si Si3 0.167812 0.818109 0.377461
Si Si4 0.336262 0.478055 0.469992
Si Si5 0.605347 0.094669 0.389876
Si Si6 0.455250 0.590100 0.933203
Si Si7 0.975921 0.318528 0.820546
O O1 0.112615 0.429170 0.545706
O O2 0.999328 0.462589 0.712624
O O3 0.975448 0.407789 0.469255
O O4 0.028981 0.353394 0.705807
O O5 0.370376 0.009501 0.304543
O O6 0.473330 0.053917 0.122528
O O7 0.417554 0.952813 0.055052
O O8 0.250000 0.834165 0.326091
O O9 0.166261 0.750000 0.409890
O O10 0.147046 0.853799 0.525538
O O11 0.105213 0.828760 0.252732
O O12 0.250000 0.465385 0.465735
O O13 0.352711 0.536039 0.565685
O O14 0.594128 0.101235 0.212828
O O15 0.476888 0.648245 0.021007
O O16 0.989301 0.250000 0.828664
#
# Coordination Sequence:
#
# PCOD9446251 Si02
#       7
#     8   8   8   8   8   8   8
#     4   9  16  32  51  67  93 123 159 197 239 273
#     4   9  17  31  49  69  94 133 155 182 243 290
#     4   9  18  33  48  64  94 133 164 195 234 272
#     4  11  19  30  48  72  98 125 160 197 241 287
#     4  10  17  29  48  73  94 125 161 198 225 276
#     4  10  17  28  51  67  97 124 155 192 236 280
#     4   9  19  32  51  73  91 123 168 200 230 288
#
# _framework density 15.04551
#
# number of rings (size 3 to 8) (size 9 to 14) (size 15 to 20)
#    0.000    2.429    2.857    2.143    0.000    0.571 
#    0.000    2.857    0.000    2.143    0.000    0.000 
#    0.000    0.000    0.000    0.000    0.000    0.000 
#
# Total GULP energy -312021.540618 kJ/mol
# GULP energy per Si atom -5571.813225 kJ/mol
# Density = 1.501127 g / cm^3
# Si number density = 15.045510 Si / 1000 Ang^3
#
#
#
# Elastic Constant Matrix: (Units=GPa)
#
#
# Indices 1 2 3 4 5 6 
#
# 1 88.7227 35.6934 31.9670 0.0000 0.0000 0.0000
# 2 35.6934 80.4938 44.9199 0.0000 0.0000 0.0000
# 3 31.9670 44.9199 99.5905 0.0000 0.0000 0.0000
# 4 0.0000 0.0000 0.0000 22.8124 0.0000 0.0000
# 5 0.0000 0.0000 0.0000 0.0000 11.4742 0.0000
# 6 0.0000 0.0000 0.0000 0.0000 0.0000 16.1894
#
#
#
# Elastic Compliance Matrix: (Units=1/GPa)
#
#
# Indices 1 2 3 4 5 6 
#
# 1 0.014095 -0.004978 -0.002279 0.000000 0.000000 0.000000
# 2 -0.004978 0.018361 -0.006683 0.000000 0.000000 0.000000
# 3 -0.002279 -0.006683 0.013787 0.000000 0.000000 0.000000
# 4 0.000000 0.000000 0.000000 0.043836 0.000000 0.000000
# 5 0.000000 0.000000 0.000000 0.000000 0.087152 0.000000
# 6 0.000000 0.000000 0.000000 0.000000 0.000000 0.061769
#
#
# Mechanical properties :
#
#
# Convention : Reuss Voigt Hill
#
# Bulk Modulus (GPa) = 54.46224 54.88527 54.67376
# Shear Modulus (GPa) = 18.31495 20.51033 19.41264
#
# Velocity S-wave (km/s) = 3.49277 3.69619 3.59592
# Velocity P-wave (km/s) = 7.24865 7.40097 7.32521
#
# Compressibility (1/GPa) = 0.01836134
#
# Stress axis : x y z
#
# Youngs Moduli (GPa) = 70.94734 54.46425 72.53149
#
# Poissons Ratio (x) = 0.27115 0.16528
# Poissons Ratio (y) = 0.35321 0.48476
# Poissons Ratio (z) = 0.16167 0.36401
#
# Static dielectric constant tensor:
#      x y z
#    x 1.492120 0.000000 0.000000 
#    y 0.000000 1.511870 0.000000 
#    z 0.000000 0.000000 1.509700 
# 
# From -- ./inp_files/10735.got.cif
#   From: 2010.05.17/outbox.cif.g08.bks.cpg/sg59_6_cif.got.tgz:10735.got - 2010.06.03 14:40:33.
