data_PCOD9446009
_publ_section_title
;
Structure prediction by ZEFSAII (Michael W. Deem and Ramdas Pophale) SiO2 
 PCOD9446009
Probable space group: P N N M
;
_chemical_formula_sum "Si O2"
_cell_formula_units_Z 40
_cell_length_a 9.000000
_cell_length_b 27.000000
_cell_length_c 9.000000
_cell_angle_alpha 90.000000
_cell_angle_beta 90.000000
_cell_angle_gamma 90.000000
_cell_volume 2187.000000
_symmetry_space_group_name_H-M "P N N M"
_symmetry_group_IT_number 58
_symmetry_cell_setting 'orthorhombic'
loop_
_space_group_symop_operation_xyz
x,y,z
-x,-y,z
1/2+x,1/2-y,1/2-z
1/2-x,1/2+y,1/2-z
-x,-y,-z
x,y,-z
1/2-x,1/2+y,1/2+z
1/2+x,1/2-y,1/2+z
loop_
_atom_site_type_symbol
_atom_site_label
_atom_site_fract_x
_atom_site_fract_y
_atom_site_fract_z
Si Si1 0.657197 0.904819 0.178967
Si Si2 0.150115 0.297766 0.321881
Si Si3 0.675310 0.507659 0.675375
Si Si4 0.674719 0.803996 0.678078
Si Si5 0.670502 0.100957 0.678258
O O1 0.731279 0.855115 0.247072
O O2 0.494222 0.907091 0.252989
O O3 0.742438 0.955940 0.211776
O O4 0.645142 0.899891 0.000000
O O5 0.141099 0.304984 0.500000
O O6 0.230913 0.245574 0.293518
O O7 0.223879 0.346505 0.247636
O O8 0.987013 0.295592 0.249762
O O9 0.500000 0.500000 0.695089
O O10 0.704120 0.517920 0.500000
O O11 0.733630 0.554051 0.769323
O O12 0.663270 0.810858 0.500000
O O13 0.663900 0.104325 0.500000
#
# Coordination Sequence:
#
# PCOD9446009 Si02
#       5
#     8   8   8   8   8
#     4  10  20  36  59  81 106 144 183 220 266 323
#     4  10  21  37  57  81 111 146 182 221 268 323
#     4  10  22  39  57  80 110 143 180 222 272 327
#     4  10  21  36  56  82 110 141 180 225 268 315
#     4  11  22  36  57  82 109 143 183 226 268 317
#
# _framework density 18.289895000000001
#
# number of rings (size 3 to 8) (size 9 to 14) (size 15 to 20)
#    0.000    1.800    0.000    6.600    0.000    9.200 
#    0.000    6.000    0.000    0.000    0.000    0.000 
#    0.000    0.000    0.000    0.000    0.000    0.000 
#
# Total GULP energy -223361.305905 kJ/mol
# GULP energy per Si atom -5584.032648 kJ/mol
# Density = 1.824827 g / cm^3
# Si number density = 18.289895 Si / 1000 Ang^3
#
#
#
# Elastic Constant Matrix: (Units=GPa)
#
#
# Indices 1 2 3 4 5 6 
#
# 1 19.3504 5.9588 10.4420 0.0000 0.0000 0.0000
# 2 5.9588 82.2140 30.8581 0.0000 0.0000 0.0000
# 3 10.4420 30.8581 97.0034 0.0000 0.0000 0.0000
# 4 0.0000 0.0000 0.0000 39.6653 0.0000 0.0000
# 5 0.0000 0.0000 0.0000 0.0000 12.4328 0.0000
# 6 0.0000 0.0000 0.0000 0.0000 0.0000 35.5313
#
#
#
# Elastic Compliance Matrix: (Units=1/GPa)
#
#
# Indices 1 2 3 4 5 6 
#
# 1 0.055156 -0.002009 -0.005298 0.000000 0.000000 0.000000
# 2 -0.002009 0.013886 -0.004201 0.000000 0.000000 0.000000
# 3 -0.005298 -0.004201 0.012216 0.000000 0.000000 0.000000
# 4 0.000000 0.000000 0.000000 0.025211 0.000000 0.000000
# 5 0.000000 0.000000 0.000000 0.000000 0.080432 0.000000
# 6 0.000000 0.000000 0.000000 0.000000 0.000000 0.028144
#
#
# Mechanical properties :
#
#
# Convention : Reuss Voigt Hill
#
# Bulk Modulus (GPa) = 17.17001 32.56506 24.86754
# Shear Modulus (GPa) = 19.41933 27.61314 23.51624
#
# Velocity S-wave (km/s) = 3.26199 3.88976 3.58963
# Velocity P-wave (km/s) = 4.85752 6.16582 5.55035
#
# Compressibility (1/GPa) = 0.05824110
#
# Stress axis : x y z
#
# Youngs Moduli (GPa) = 18.13031 72.01606 81.86229
#
# Poissons Ratio (x) = 0.14469 0.43372
# Poissons Ratio (y) = 0.03643 0.34390
# Poissons Ratio (z) = 0.09606 0.30254
#
# Static dielectric constant tensor:
#      x y z
#    x 1.621240 0.000000 0.000000 
#    y 0.000000 1.643610 0.000000 
#    z 0.000000 0.000000 1.611710 
# 
# From -- ./inp_files/2615.got.cif
#   From: 2010.05.17/outbox.ucp.g08.bks.cvg/sg58_2_cif.got.tgz:2615.got - 2010.06.11 16:41:41.
