data_PCOD9446349
_publ_section_title
;
Structure prediction by ZEFSAII (Michael W. Deem and Ramdas Pophale) SiO2 
 PCOD9446349
Probable space group: P M M N
;
_chemical_formula_sum "Si O2"
_cell_formula_units_Z 64
_cell_length_a 27.517049
_cell_length_b 8.375543
_cell_length_c 17.896110
_cell_angle_alpha 90.000000
_cell_angle_beta 90.000000
_cell_angle_gamma 90.000000
_cell_volume 4124.520536
_symmetry_space_group_name_H-M "P M M N"
_symmetry_group_IT_number 59
_space_group.IT_coordinate_system_code '2'
_symmetry_cell_setting 'orthorhombic'
loop_
_space_group_symop_operation_xyz
x,y,z
1/2-x,1/2-y,z
1/2+x,-y,-z
-x,1/2+y,-z
-x,-y,-z
1/2+x,1/2+y,-z
1/2-x,y,z
x,1/2-y,z
loop_
_atom_site_type_symbol
_atom_site_label
_atom_site_fract_x
_atom_site_fract_y
_atom_site_fract_z
Si Si1 0.945426 0.442641 0.982678
Si Si2 0.574989 0.442858 0.142164
Si Si3 0.892843 0.439311 0.519908
Si Si4 0.537263 0.936603 0.396657
Si Si5 0.304842 0.944178 0.584764
Si Si6 0.436853 0.064367 0.338672
Si Si7 0.877724 0.443516 0.289942
Si Si8 0.965597 0.441568 0.821892
O O1 0.944089 0.250000 0.981981
O O2 0.916405 0.497145 0.056550
O O3 0.936960 0.494617 0.897246
O O4 0.000000 0.500000 0.000000
O O5 0.573267 0.250000 0.141637
O O6 0.614704 0.490425 0.203877
O O7 0.521489 0.499865 0.168930
O O8 0.897016 0.250000 0.508233
O O9 0.937090 0.519173 0.474376
O O10 0.842912 0.493317 0.479855
O O11 0.898739 0.478265 0.606740
O O12 0.524910 0.750000 0.394648
O O13 0.489506 0.033994 0.376050
O O14 0.577840 0.979489 0.335229
O O15 0.250000 0.003678 0.576206
O O16 0.303118 0.750000 0.582552
O O17 0.329450 0.987998 0.664195
O O18 0.425825 0.250000 0.337982
O O19 0.442120 0.002422 0.254348
O O20 0.882242 0.250000 0.295110
O O21 0.966983 0.250000 0.819651
#
# Coordination Sequence:
#
# PCOD9446349 Si02
#       8
#     8   8   8   8   8   8   8   8
#     4   8  15  25  37  54  78 109 145 178 209 241
#     4   9  15  25  40  58  83 113 144 178 210 245
#     4  10  20  33  47  63  82 107 141 175 211 256
#     4  11  20  30  43  60  85 113 143 176 211 249
#     4   8  15  29  48  67  86 108 135 170 210 255
#     4  12  22  31  42  58  84 114 145 179 216 254
#     4   9  16  26  43  65  87 113 145 175 208 250
#     4  10  18  27  39  57  81 113 149 182 213 247
#
# _framework density 15.516954999999999
#
# number of rings (size 3 to 8) (size 9 to 14) (size 15 to 20)
#    0.000    2.375    1.250    4.125    0.000    0.500 
#    0.000    0.000    0.000    9.375    0.000    0.000 
#    0.000    1.000    0.000   10.500    0.000    1.000 
#
# Total GULP energy -356454.281821 kJ/mol
# GULP energy per Si atom -5569.598153 kJ/mol
# Density = 1.548164 g / cm^3
# Si number density = 15.516955 Si / 1000 Ang^3
#
#
#
# Elastic Constant Matrix: (Units=GPa)
#
#
# Indices 1 2 3 4 5 6 
#
# 1 51.8595 -1.7174 44.1280 0.0000 0.0000 0.0000
# 2 -1.7174 11.6358 2.5150 0.0000 0.0000 0.0000
# 3 44.1280 2.5150 141.4116 0.0000 0.0000 0.0000
# 4 0.0000 0.0000 0.0000 16.8908 0.0000 0.0000
# 5 0.0000 0.0000 0.0000 0.0000 10.7673 0.0000
# 6 0.0000 0.0000 0.0000 0.0000 0.0000 7.6332
#
#
#
# Elastic Compliance Matrix: (Units=1/GPa)
#
#
# Indices 1 2 3 4 5 6 
#
# 1 0.026632 0.005749 -0.008413 0.000000 0.000000 0.000000
# 2 0.005749 0.087515 -0.003350 0.000000 0.000000 0.000000
# 3 -0.008413 -0.003350 0.009756 0.000000 0.000000 0.000000
# 4 0.000000 0.000000 0.000000 0.059204 0.000000 0.000000
# 5 0.000000 0.000000 0.000000 0.000000 0.092874 0.000000
# 6 0.000000 0.000000 0.000000 0.000000 0.000000 0.131006
#
#
# Mechanical properties :
#
#
# Convention : Reuss Voigt Hill
#
# Bulk Modulus (GPa) = 8.93858 32.75090 20.84474
# Shear Modulus (GPa) = 10.95755 17.72367 14.34061
#
# Velocity S-wave (km/s) = 2.66026 3.38333 3.04335
# Velocity P-wave (km/s) = 3.89987 6.03448 5.08055
#
# Compressibility (1/GPa) = 0.11187454
#
# Stress axis : x y z
#
# Youngs Moduli (GPa) = 37.54902 11.42666 102.49681
#
# Poissons Ratio (x) = -0.06569 0.86229
# Poissons Ratio (y) = -0.21587 0.34341
# Poissons Ratio (z) = 0.31589 0.03828
#
# Static dielectric constant tensor:
#      x y z
#    x 1.485850 0.000000 0.000000 
#    y 0.000000 1.534590 0.000000 
#    z 0.000000 0.000000 1.586220 
# 
# From -- ./inp_files/28537.got.cif
#   From: 2010.05.17/outbox.cif.g08.bks.cpg/sg59_15_cif.got.tgz:28537.got - 2010.06.03 14:40:33.
