data_PCOD9446389
_publ_section_title
;
Structure prediction by ZEFSAII (Michael W. Deem and Ramdas Pophale) SiO2 
 PCOD9446389
Probable space group: P M M N
;
_chemical_formula_sum "Si O2"
_cell_formula_units_Z 64
_cell_length_a 8.609050
_cell_length_b 19.770926
_cell_length_c 22.196224
_cell_angle_alpha 90.000000
_cell_angle_beta 90.000000
_cell_angle_gamma 90.000000
_cell_volume 3777.994660
_symmetry_space_group_name_H-M "P M M N"
_symmetry_group_IT_number 59
_space_group.IT_coordinate_system_code '2'
_symmetry_cell_setting 'orthorhombic'
loop_
_space_group_symop_operation_xyz
x,y,z
1/2-x,1/2-y,z
1/2+x,-y,-z
-x,1/2+y,-z
-x,-y,-z
1/2+x,1/2+y,-z
1/2-x,y,z
x,1/2-y,z
loop_
_atom_site_type_symbol
_atom_site_label
_atom_site_fract_x
_atom_site_fract_y
_atom_site_fract_z
Si Si1 0.927547 0.481920 0.318250
Si Si2 0.939099 0.172218 0.964416
Si Si3 0.939317 0.327386 0.100863
Si Si4 0.434960 0.531208 0.439042
Si Si5 0.436644 0.677164 0.395719
Si Si6 0.438846 0.944574 0.809155
Si Si7 0.063606 0.589824 0.151087
Si Si8 0.927373 0.637124 0.271373
O O1 0.750000 0.461562 0.331236
O O2 0.989672 0.440144 0.260950
O O3 0.924703 0.558360 0.291930
O O4 0.018845 0.487168 0.380483
O O5 0.750000 0.171353 0.964050
O O6 0.985771 0.250000 0.952421
O O7 0.987983 0.154541 0.032540
O O8 0.990767 0.122061 0.911886
O O9 0.750000 0.327700 0.101221
O O10 0.987661 0.250000 0.113136
O O11 0.990038 0.381905 0.149920
O O12 0.500000 0.500000 0.500000
O O13 0.250000 0.534000 0.442825
O O14 0.494545 0.608231 0.427173
O O15 0.250000 0.675823 0.399432
O O16 0.491432 0.750000 0.420070
O O17 0.484100 0.672938 0.325669
O O18 0.250000 0.947163 0.808021
O O19 0.497830 0.014896 0.837342
O O20 0.250000 0.586641 0.151701
O O21 0.008215 0.636636 0.206650
O O22 0.750000 0.660770 0.267236
#
# Coordination Sequence:
#
# PCOD9446389 Si02
#       8
#     8   8   8   8   8   8   8   8
#     4   8  15  28  44  64  91 117 142 177 221 268
#     4   8  15  27  41  59  85 117 154 195 234 276
#     4   8  14  27  47  67  86 113 153 197 240 285
#     4  10  19  31  50  73  96 125 157 187 221 264
#     4   9  18  32  49  70  96 126 160 194 227 269
#     4   9  17  29  47  70  93 116 146 192 240 276
#     4  10  18  27  42  65  92 123 156 188 229 281
#     4   9  17  29  44  64  91 121 152 188 229 269
#
# _framework density 16.940203
#
# number of rings (size 3 to 8) (size 9 to 14) (size 15 to 20)
#    0.000    3.125    0.000    2.625    0.000    4.750 
#    0.000    1.250    0.000    3.000    0.000    7.000 
#    0.000    0.000    0.000    0.000    0.000    0.000 
#
# Total GULP energy -356297.147765 kJ/mol
# GULP energy per Si atom -5567.142934 kJ/mol
# Density = 1.690165 g / cm^3
# Si number density = 16.940203 Si / 1000 Ang^3
#
#
#
# Elastic Constant Matrix: (Units=GPa)
#
#
# Indices 1 2 3 4 5 6 
#
# 1 15.3028 13.8832 26.2676 0.0000 0.0000 0.0000
# 2 13.8832 84.8995 81.5169 0.0000 0.0000 0.0000
# 3 26.2676 81.5169 152.1161 0.0000 0.0000 0.0000
# 4 0.0000 0.0000 0.0000 11.7404 0.0000 0.0000
# 5 0.0000 0.0000 0.0000 0.0000 19.3962 0.0000
# 6 0.0000 0.0000 0.0000 0.0000 0.0000 13.5143
#
#
#
# Elastic Compliance Matrix: (Units=1/GPa)
#
#
# Indices 1 2 3 4 5 6 
#
# 1 0.092886 0.000435 -0.016273 0.000000 0.000000 0.000000
# 2 0.000435 0.024265 -0.013078 0.000000 0.000000 0.000000
# 3 -0.016273 -0.013078 0.016392 0.000000 0.000000 0.000000
# 4 0.000000 0.000000 0.000000 0.085176 0.000000 0.000000
# 5 0.000000 0.000000 0.000000 0.000000 0.051557 0.000000
# 6 0.000000 0.000000 0.000000 0.000000 0.000000 0.073996
#
#
# Mechanical properties :
#
#
# Convention : Reuss Voigt Hill
#
# Bulk Modulus (GPa) = 13.20810 55.07264 34.14037
# Shear Modulus (GPa) = 11.70032 17.64024 14.67028
#
# Velocity S-wave (km/s) = 2.63094 3.23046 2.94599
# Velocity P-wave (km/s) = 4.12831 6.81873 5.63640
#
# Compressibility (1/GPa) = 0.07571109
#
# Stress axis : x y z
#
# Youngs Moduli (GPa) = 10.76593 41.21235 61.00395
#
# Poissons Ratio (x) = -0.01794 0.99271
# Poissons Ratio (y) = -0.00469 0.79782
# Poissons Ratio (z) = 0.17519 0.53898
#
# Static dielectric constant tensor:
#      x y z
#    x 1.583760 0.000000 0.000000 
#    y 0.000000 1.589410 0.000000 
#    z 0.000000 0.000000 1.572980 
# 
# From -- ./inp_files/29798.got.cif
#   From: 2010.05.17/outbox.cif.g08.bks.cpg/sg59_15_cif.got.tgz:29798.got - 2010.06.03 14:40:33.
