data_PCOD9446104
_publ_section_title
;
Structure prediction by ZEFSAII (Michael W. Deem and Ramdas Pophale) SiO2 
 PCOD9446104
Probable space group: P N N M
;
_chemical_formula_sum "Si O2"
_cell_formula_units_Z 58
_cell_length_a 18.000000
_cell_length_b 18.000000
_cell_length_c 9.000000
_cell_angle_alpha 90.000000
_cell_angle_beta 90.000000
_cell_angle_gamma 90.000000
_cell_volume 2916.000000
_symmetry_space_group_name_H-M "P N N M"
_symmetry_group_IT_number 58
_symmetry_cell_setting 'orthorhombic'
loop_
_space_group_symop_operation_xyz
x,y,z
-x,-y,z
1/2+x,1/2-y,1/2-z
1/2-x,1/2+y,1/2-z
-x,-y,-z
x,y,-z
1/2-x,1/2+y,1/2+z
1/2+x,1/2-y,1/2+z
loop_
_atom_site_type_symbol
_atom_site_label
_atom_site_fract_x
_atom_site_fract_y
_atom_site_fract_z
Si Si1 0.641392 0.427619 0.674035
Si Si2 0.500000 0.000000 0.000000
Si Si3 0.075352 0.322690 0.827358
Si Si4 0.121612 0.898725 0.174532
Si Si5 0.295471 0.151647 0.177375
Si Si6 0.732378 0.197448 0.823077
Si Si7 0.480345 0.674633 0.175867
Si Si8 0.435324 0.071262 0.313226
O O1 0.623548 0.412592 0.500000
O O2 0.626329 0.513780 0.704096
O O3 0.727706 0.406948 0.694178
O O4 0.587561 0.377943 0.773852
O O5 0.557238 0.971966 0.855044
O O6 0.153400 0.330313 0.741101
O O7 0.033668 0.252457 0.756743
O O8 0.016151 0.389481 0.817887
O O9 0.092325 0.308910 0.000000
O O10 0.202072 0.862224 0.198510
O O11 0.057633 0.860652 0.270537
O O12 0.102618 0.888266 0.000000
O O13 0.260621 0.228479 0.239496
O O14 0.366279 0.125541 0.274778
O O15 0.312517 0.158985 0.000000
O O16 0.724233 0.211697 0.000000
O O17 0.480124 0.685054 0.000000
O O18 0.425370 0.047882 0.500000
#
# Coordination Sequence:
#
# PCOD9446104 Si02
#       8
#     8   2   8   8   8   8   8   8
#     4  10  22  41  65  93 131 179 223 265 334 409
#     4  12  26  48  72  98 140 184 226 300 348 418
#     4  11  24  43  67  97 132 175 226 282 338 404
#     4  10  23  42  62  91 130 172 213 266 333 400
#     4  11  22  41  68  99 133 182 230 279 344 412
#     4  11  23  39  65 100 133 171 226 287 344 409
#     4  12  24  38  64  97 130 170 219 274 333 399
#     4  11  26  46  72 104 138 184 238 289 350 416
#
# _framework density 19.890260999999999
#
# number of rings (size 3 to 8) (size 9 to 14) (size 15 to 20)
#    0.000    1.103    2.069    3.931    1.931    8.276 
#    2.483    0.000    0.000    0.000    0.000    0.000 
#    0.000    0.000    0.000    0.000    0.000    0.000 
#
# Total GULP energy -322947.635713 kJ/mol
# GULP energy per Si atom -5568.062685 kJ/mol
# Density = 1.984499 g / cm^3
# Si number density = 19.890261 Si / 1000 Ang^3
#
#
#
# Elastic Constant Matrix: (Units=GPa)
#
#
# Indices 1 2 3 4 5 6 
#
# 1 85.7662 -1.2202 36.7551 0.0000 0.0000 0.0000
# 2 -1.2202 26.3447 35.5109 0.0000 0.0000 0.0000
# 3 36.7551 35.5109 142.0418 0.0000 0.0000 0.0000
# 4 0.0000 0.0000 0.0000 24.6876 0.0000 0.0000
# 5 0.0000 0.0000 0.0000 0.0000 39.1145 0.0000
# 6 0.0000 0.0000 0.0000 0.0000 0.0000 229.5814
#
#
#
# Elastic Compliance Matrix: (Units=1/GPa)
#
#
# Indices 1 2 3 4 5 6 
#
# 1 0.014275 0.008507 -0.005821 0.000000 0.000000 0.000000
# 2 0.008507 0.062321 -0.017782 0.000000 0.000000 0.000000
# 3 -0.005821 -0.017782 0.012992 0.000000 0.000000 0.000000
# 4 0.000000 0.000000 0.000000 0.040506 0.000000 0.000000
# 5 0.000000 0.000000 0.000000 0.000000 0.025566 0.000000
# 6 0.000000 0.000000 0.000000 0.000000 0.000000 0.004356
#
#
# Mechanical properties :
#
#
# Convention : Reuss Voigt Hill
#
# Bulk Modulus (GPa) = 16.83584 44.02713 30.43148
# Shear Modulus (GPa) = 23.80893 70.88383 47.34638
#
# Velocity S-wave (km/s) = 3.46354 5.97619 4.88421
# Velocity P-wave (km/s) = 4.94748 8.35481 6.86587
#
# Compressibility (1/GPa) = 0.05939710
#
# Stress axis : x y z
#
# Youngs Moduli (GPa) = 70.05225 16.04600 76.97159
#
# Poissons Ratio (x) = -0.13650 0.44802
# Poissons Ratio (y) = -0.59593 1.36868
# Poissons Ratio (z) = 0.40775 0.28532
#
# Static dielectric constant tensor:
#      x y z
#    x 1.697840 0.000000 0.000000 
#    y 0.000000 1.742420 0.000000 
#    z 0.000000 0.000000 1.743690 
# 
# From -- ./inp_files/8012.got.cif
#   From: 2010.05.17/outbox.ucp.g08.bks.cvg/sg58_5_cif.got.tgz:8012.got - 2010.06.11 16:41:41.
