data_PCOD9446751
_publ_section_title
;
Structure prediction by ZEFSAII (Michael W. Deem and Ramdas Pophale) SiO2 
 PCOD9446751
Probable space group: P M M N
;
_chemical_formula_sum "Si O2"
_cell_formula_units_Z 64
_cell_length_a 7.436997
_cell_length_b 20.117600
_cell_length_c 21.020578
_cell_angle_alpha 90.000000
_cell_angle_beta 90.000000
_cell_angle_gamma 90.000000
_cell_volume 3144.983916
_symmetry_space_group_name_H-M "P M M N"
_symmetry_group_IT_number 59
_space_group.IT_coordinate_system_code '2'
_symmetry_cell_setting 'orthorhombic'
loop_
_space_group_symop_operation_xyz
x,y,z
1/2-x,1/2-y,z
1/2+x,-y,-z
-x,1/2+y,-z
-x,-y,-z
1/2+x,1/2+y,-z
1/2-x,y,z
x,1/2-y,z
loop_
_atom_site_type_symbol
_atom_site_label
_atom_site_fract_x
_atom_site_fract_y
_atom_site_fract_z
Si Si1 0.030116 0.172525 0.608104
Si Si2 0.462153 0.825510 0.671253
Si Si3 0.029239 0.937502 0.766384
Si Si4 0.534213 0.826795 0.531740
Si Si5 0.958741 0.102246 0.960333
Si Si6 0.531827 0.324751 0.838692
Si Si7 0.959918 0.580242 0.278641
Si Si8 0.531384 0.454831 0.089042
O O1 0.250000 0.173533 0.609778
O O2 0.975553 0.250000 0.616538
O O3 0.975521 0.147983 0.537468
O O4 0.964473 0.124442 0.663813
O O5 0.250000 0.819768 0.682844
O O6 0.537199 0.750000 0.672454
O O7 0.533082 0.875547 0.724289
O O8 0.481390 0.855237 0.600013
O O9 0.250000 0.938187 0.766174
O O10 0.975303 0.935129 0.840267
O O11 0.966822 0.007127 0.735822
O O12 0.750000 0.826808 0.530768
O O13 0.472065 0.750000 0.533528
O O14 0.750000 0.120401 0.968447
O O15 0.034426 0.152620 0.908269
O O16 0.033101 0.092130 0.031295
O O17 0.970248 0.029367 0.927984
O O18 0.750000 0.326387 0.839474
O O19 0.474876 0.250000 0.823059
O O20 0.472585 0.376484 0.785378
O O21 0.750000 0.570500 0.293830
O O22 0.750000 0.456076 0.087242
#
# Coordination Sequence:
#
# PCOD9446751 Si02
#       8
#     8   8   8   8   8   8   8   8
#     4   8  14  25  43  66  88 112 147 188 225 263
#     4   9  17  30  47  66  89 117 148 184 231 283
#     4   9  17  29  46  69  93 116 147 192 234 267
#     4   8  14  27  46  65  85 111 146 186 224 268
#     4   9  17  29  46  66  88 117 152 186 221 264
#     4  10  20  32  44  64  98 130 153 185 230 274
#     4  10  18  30  48  68  90 120 158 194 226 267
#     4   9  16  29  48  67  87 113 149 189 225 263
#
# _framework density 20.349867
#
# number of rings (size 3 to 8) (size 9 to 14) (size 15 to 20)
#    0.000    3.000    1.250    1.125    0.000    0.750 
#    0.000    3.125    0.000    6.000    0.000    0.000 
#    0.000    3.000    0.000    0.000    0.000    0.000 
#
# Total GULP energy -356735.554139 kJ/mol
# GULP energy per Si atom -5573.993033 kJ/mol
# Density = 2.030355 g / cm^3
# Si number density = 20.349867 Si / 1000 Ang^3
#
#
#
# Elastic Constant Matrix: (Units=GPa)
#
#
# Indices 1 2 3 4 5 6 
#
# 1 61.5822 -1.1394 -1.3226 0.0000 0.0000 0.0000
# 2 -1.1394 88.4937 72.8233 0.0000 0.0000 0.0000
# 3 -1.3226 72.8233 182.1292 0.0000 0.0000 0.0000
# 4 0.0000 0.0000 0.0000 33.4175 0.0000 0.0000
# 5 0.0000 0.0000 0.0000 0.0000 11.4747 0.0000
# 6 0.0000 0.0000 0.0000 0.0000 0.0000 -5.6192
#
#
#
# Elastic Compliance Matrix: (Units=1/GPa)
#
#
# Indices 1 2 3 4 5 6 
#
# 1 0.016243 0.000167 0.000051 0.000000 0.000000 0.000000
# 2 0.000167 0.016844 -0.006734 0.000000 0.000000 0.000000
# 3 0.000051 -0.006734 0.008183 0.000000 0.000000 0.000000
# 4 0.000000 0.000000 0.000000 0.029924 0.000000 0.000000
# 5 0.000000 0.000000 0.000000 0.000000 0.087148 0.000000
# 6 0.000000 0.000000 0.000000 0.000000 0.000000 -0.177961
#
#
# Mechanical properties :
#
#
# Convention : Reuss Voigt Hill
#
# Bulk Modulus (GPa) = 35.41227 52.54753 43.97990
# Shear Modulus (GPa) = 1770.08925 25.31085 897.70005
#
# Velocity S-wave (km/s) = 29.52485 3.53056 21.02596
# Velocity P-wave (km/s) = 34.34718 6.51904 24.72070
#
# Compressibility (1/GPa) = 0.02823880
#
# Stress axis : x y z
#
# Youngs Moduli (GPa) = 61.56627 59.36973 122.19901
#
# Poissons Ratio (x) = -0.00992 -0.00625
# Poissons Ratio (y) = -0.01028 0.82284
# Poissons Ratio (z) = -0.00315 0.39977
#
# Static dielectric constant tensor:
#      x y z
#    x 1.862700 0.000000 0.000000 
#    y 0.000000 1.692660 0.000000 
#    z 0.000000 0.000000 1.739620 
# 
# From -- ./inp_files/29711.got.cif
#   From: 2010.05.17/outbox.cif.g08.bks.cpg/sg59_15_cif.got.tgz:29711.got - 2010.06.03 14:40:33.
