data_PCOD9446929
_publ_section_title
;
Structure prediction by ZEFSAII (Michael W. Deem and Ramdas Pophale) SiO2 
 PCOD9446929
Probable space group: P M M N
;
_chemical_formula_sum "Si O2"
_cell_formula_units_Z 64
_cell_length_a 17.408035
_cell_length_b 14.376031
_cell_length_c 14.837624
_cell_angle_alpha 90.000000
_cell_angle_beta 90.000000
_cell_angle_gamma 90.000000
_cell_volume 3713.240796
_symmetry_space_group_name_H-M "P M M N"
_symmetry_group_IT_number 59
_space_group.IT_coordinate_system_code '2'
_symmetry_cell_setting 'orthorhombic'
loop_
_space_group_symop_operation_xyz
x,y,z
1/2-x,1/2-y,z
1/2+x,-y,-z
-x,1/2+y,-z
-x,-y,-z
1/2+x,1/2+y,-z
1/2-x,y,z
x,1/2-y,z
loop_
_atom_site_type_symbol
_atom_site_label
_atom_site_fract_x
_atom_site_fract_y
_atom_site_fract_z
Si Si1 0.485897 0.639106 0.625477
Si Si2 0.660730 0.359255 0.851917
Si Si3 0.164735 0.985665 0.644524
Si Si4 0.482183 0.140130 0.173034
Si Si5 0.430023 0.360584 0.557519
Si Si6 0.518678 0.358885 0.737383
Si Si7 0.103244 0.011697 0.835840
Si Si8 0.088828 0.017225 0.028885
O O1 0.472378 0.750000 0.620826
O O2 0.404652 0.586141 0.626467
O O3 0.528625 0.620326 0.720386
O O4 0.536273 0.612423 0.539229
O O5 0.750000 0.378834 0.835548
O O6 0.653330 0.250000 0.876466
O O7 0.606463 0.374821 0.765029
O O8 0.627140 0.426199 0.928593
O O9 0.250000 0.952729 0.621843
O O10 0.141561 0.077840 0.589076
O O11 0.159938 0.008427 0.751479
O O12 0.485901 0.250000 0.159158
O O13 0.419562 0.093693 0.107528
O O14 0.563919 0.089998 0.153747
O O15 0.413671 0.250000 0.557320
O O16 0.494351 0.378607 0.634982
O O17 0.501775 0.250000 0.753637
O O18 0.465528 0.421121 0.801791
O O19 0.129711 0.042564 0.934699
O O20 0.000000 0.000000 0.000000
#
# Coordination Sequence:
#
# PCOD9446929 Si02
#       8
#     8   8   8   8   8   8   8   8
#     4   9  18  34  54  76 104 140 178 213 253 306
#     4  10  20  33  50  74 104 132 162 212 271 313
#     4  10  20  33  51  78 110 137 166 215 269 316
#     4   9  17  29  49  74  96 126 173 216 243 283
#     4   9  18  33  56  77  98 135 179 219 254 306
#     4   9  16  30  51  75  98 125 169 214 257 305
#     4   9  18  32  48  72 101 134 173 206 252 306
#     4  10  18  31  50  74 100 136 178 211 247 303
#
# _framework density 17.235617999999999
#
# number of rings (size 3 to 8) (size 9 to 14) (size 15 to 20)
#    0.000    2.625    2.500    0.375    0.000    3.500 
#    0.000    0.625    0.000    2.625    0.000    3.500 
#    0.000    0.000    0.000    0.000    0.000    0.000 
#
# Total GULP energy -356333.309152 kJ/mol
# GULP energy per Si atom -5567.707955 kJ/mol
# Density = 1.719639 g / cm^3
# Si number density = 17.235618 Si / 1000 Ang^3
#
#
#
# Elastic Constant Matrix: (Units=GPa)
#
#
# Indices 1 2 3 4 5 6 
#
# 1 42.5666 18.7834 14.5499 0.0000 0.0000 0.0000
# 2 18.7834 58.8611 37.6467 0.0000 0.0000 0.0000
# 3 14.5499 37.6467 110.6514 0.0000 0.0000 0.0000
# 4 0.0000 0.0000 0.0000 23.9938 0.0000 0.0000
# 5 0.0000 0.0000 0.0000 0.0000 10.6706 0.0000
# 6 0.0000 0.0000 0.0000 0.0000 0.0000 15.7658
#
#
#
# Elastic Compliance Matrix: (Units=1/GPa)
#
#
# Indices 1 2 3 4 5 6 
#
# 1 0.027399 -0.008230 -0.000803 0.000000 0.000000 0.000000
# 2 -0.008230 0.024186 -0.007147 0.000000 0.000000 0.000000
# 3 -0.000803 -0.007147 0.011574 0.000000 0.000000 0.000000
# 4 0.000000 0.000000 0.000000 0.041677 0.000000 0.000000
# 5 0.000000 0.000000 0.000000 0.000000 0.093715 0.000000
# 6 0.000000 0.000000 0.000000 0.000000 0.000000 0.063429
#
#
# Mechanical properties :
#
#
# Convention : Reuss Voigt Hill
#
# Bulk Modulus (GPa) = 32.46666 39.33769 35.90218
# Shear Modulus (GPa) = 16.41463 19.49264 17.95364
#
# Velocity S-wave (km/s) = 3.08939 3.36661 3.23098
# Velocity P-wave (km/s) = 5.62171 6.16321 5.89868
#
# Compressibility (1/GPa) = 0.03080083
#
# Stress axis : x y z
#
# Youngs Moduli (GPa) = 36.49821 41.34562 86.39723
#
# Poissons Ratio (x) = 0.34027 0.06935
# Poissons Ratio (y) = 0.30038 0.61746
# Poissons Ratio (z) = 0.02930 0.29548
#
# Static dielectric constant tensor:
#      x y z
#    x 1.551880 0.000000 0.000000 
#    y 0.000000 1.605080 0.000000 
#    z 0.000000 0.000000 1.629520 
# 
# From -- ./inp_files/24011.got.cif
#   From: 2010.05.17/outbox.cif.g08.bks.cpg/sg59_13_cif.got.tgz:24011.got - 2010.06.03 14:40:33.
