data_PCOD9446492
_publ_section_title
;
Structure prediction by ZEFSAII (Michael W. Deem and Ramdas Pophale) SiO2 
 PCOD9446492
Probable space group: P M M N
;
_chemical_formula_sum "Si O2"
_cell_formula_units_Z 64
_cell_length_a 30.490658
_cell_length_b 8.584149
_cell_length_c 14.552678
_cell_angle_alpha 90.000000
_cell_angle_beta 90.000000
_cell_angle_gamma 90.000000
_cell_volume 3808.964843
_symmetry_space_group_name_H-M "P M M N"
_symmetry_group_IT_number 59
_space_group.IT_coordinate_system_code '2'
_symmetry_cell_setting 'orthorhombic'
loop_
_space_group_symop_operation_xyz
x,y,z
1/2-x,1/2-y,z
1/2+x,-y,-z
-x,1/2+y,-z
-x,-y,-z
1/2+x,1/2+y,-z
1/2-x,y,z
x,1/2-y,z
loop_
_atom_site_type_symbol
_atom_site_label
_atom_site_fract_x
_atom_site_fract_y
_atom_site_fract_z
Si Si1 0.624271 0.563341 0.124061
Si Si2 0.549913 0.438592 0.490566
Si Si3 0.088789 0.563701 0.317083
Si Si4 0.509872 0.939271 0.807028
Si Si5 0.919531 0.437450 0.290331
Si Si6 0.300210 0.564452 0.004282
Si Si7 0.644582 0.571553 0.836671
Si Si8 0.559833 0.569980 0.973521
O O1 0.622068 0.750000 0.119819
O O2 0.619006 0.507150 0.228231
O O3 0.667961 0.509582 0.072096
O O4 0.583127 0.497639 0.062649
O O5 0.500000 0.500000 0.500000
O O6 0.547020 0.250000 0.489440
O O7 0.579179 0.485339 0.578311
O O8 0.572554 0.488287 0.395101
O O9 0.091173 0.750000 0.313813
O O10 0.046505 0.506161 0.260540
O O11 0.130067 0.495860 0.261449
O O12 0.513001 0.750000 0.808060
O O13 0.463758 0.982998 0.763947
O O14 0.520738 0.997282 0.910387
O O15 0.915830 0.250000 0.289707
O O16 0.250000 0.511555 0.995771
O O17 0.301811 0.750000 0.993827
O O18 0.319874 0.520539 0.103930
O O19 0.658373 0.750000 0.827461
O O20 0.600623 0.570440 0.900477
O O21 0.548873 0.750000 0.994374
#
# Coordination Sequence:
#
# PCOD9446492 Si02
#       8
#     8   8   8   8   8   8   8   8
#     4  10  20  33  48  69  99 132 167 204 243 295
#     4  10  20  32  47  68  94 130 177 225 263 296
#     4  10  18  28  45  69  97 128 168 215 258 296
#     4   9  16  28  45  62  87 128 170 207 250 296
#     4  10  20  32  45  64  94 132 174 218 258 293
#     4  10  20  35  57  83 107 129 155 191 238 295
#     4   9  17  30  49  73 101 131 161 195 239 294
#     4   7  13  26  42  61  86 119 159 196 232 277
#
# _framework density 16.802465000000002
#
# number of rings (size 3 to 8) (size 9 to 14) (size 15 to 20)
#    0.000    2.625    1.250    3.000    0.000    3.000 
#    0.000    0.625    0.000    0.000    0.000    0.875 
#    0.000    7.000    0.000    0.000    0.000    0.000 
#
# Total GULP energy -356603.544666 kJ/mol
# GULP energy per Si atom -5571.930385 kJ/mol
# Density = 1.676422 g / cm^3
# Si number density = 16.802465 Si / 1000 Ang^3
#
#
#
# Elastic Constant Matrix: (Units=GPa)
#
#
# Indices 1 2 3 4 5 6 
#
# 1 64.7049 16.1989 51.8595 0.0000 0.0000 0.0000
# 2 16.1989 16.0652 27.0830 0.0000 0.0000 0.0000
# 3 51.8595 27.0830 157.6351 0.0000 0.0000 0.0000
# 4 0.0000 0.0000 0.0000 19.2025 0.0000 0.0000
# 5 0.0000 0.0000 0.0000 0.0000 15.4005 0.0000
# 6 0.0000 0.0000 0.0000 0.0000 0.0000 18.5305
#
#
#
# Elastic Compliance Matrix: (Units=1/GPa)
#
#
# Indices 1 2 3 4 5 6 
#
# 1 0.023262 -0.014858 -0.005100 0.000000 0.000000 0.000000
# 2 -0.014858 0.097116 -0.011797 0.000000 0.000000 0.000000
# 3 -0.005100 -0.011797 0.010049 0.000000 0.000000 0.000000
# 4 0.000000 0.000000 0.000000 0.052076 0.000000 0.000000
# 5 0.000000 0.000000 0.000000 0.000000 0.064933 0.000000
# 6 0.000000 0.000000 0.000000 0.000000 0.000000 0.053965
#
#
# Mechanical properties :
#
#
# Convention : Reuss Voigt Hill
#
# Bulk Modulus (GPa) = 14.94414 47.63198 31.28806
# Shear Modulus (GPa) = 12.91269 20.17765 16.54517
#
# Velocity S-wave (km/s) = 2.77519 3.46912 3.14138
# Velocity P-wave (km/s) = 4.37975 6.66755 5.64085
#
# Compressibility (1/GPa) = 0.06691584
#
# Stress axis : x y z
#
# Youngs Moduli (GPa) = 42.98839 10.29701 99.51713
#
# Poissons Ratio (x) = 0.15299 0.50756
# Poissons Ratio (y) = 0.63871 1.17403
# Poissons Ratio (z) = 0.21925 0.12148
#
# Static dielectric constant tensor:
#      x y z
#    x 1.568810 0.000000 0.000000 
#    y 0.000000 1.575460 0.000000 
#    z 0.000000 0.000000 1.608170 
# 
# From -- ./inp_files/25064.got.cif
#   From: 2010.05.17/outbox.cif.g08.bks.cpg/sg59_13_cif.got.tgz:25064.got - 2010.06.03 14:40:33.
