data_PCOD9446805
_publ_section_title
;
Structure prediction by ZEFSAII (Michael W. Deem and Ramdas Pophale) SiO2 
 PCOD9446805
Probable space group: P M M N
;
_chemical_formula_sum "Si O2"
_cell_formula_units_Z 48
_cell_length_a 20.943561
_cell_length_b 8.734530
_cell_length_c 14.740875
_cell_angle_alpha 90.000000
_cell_angle_beta 90.000000
_cell_angle_gamma 90.000000
_cell_volume 2696.580131
_symmetry_space_group_name_H-M "P M M N"
_symmetry_group_IT_number 59
_space_group.IT_coordinate_system_code '2'
_symmetry_cell_setting 'orthorhombic'
loop_
_space_group_symop_operation_xyz
x,y,z
1/2-x,1/2-y,z
1/2+x,-y,-z
-x,1/2+y,-z
-x,-y,-z
1/2+x,1/2+y,-z
1/2-x,y,z
x,1/2-y,z
loop_
_atom_site_type_symbol
_atom_site_label
_atom_site_fract_x
_atom_site_fract_y
_atom_site_fract_z
Si Si1 0.174993 0.919846 0.693474
Si Si2 0.174577 0.431705 0.506756
Si Si3 0.979950 0.565546 0.773123
Si Si4 0.049061 0.932638 0.424778
Si Si5 0.565860 0.933993 0.959701
Si Si6 0.388437 0.433629 0.855256
O O1 0.250000 0.903866 0.680963
O O2 0.145108 0.750000 0.687777
O O3 0.154489 0.025534 0.609892
O O4 0.163844 0.995345 0.790158
O O5 0.250000 0.473654 0.492525
O O6 0.169754 0.250000 0.493502
O O7 0.121745 0.516438 0.446848
O O8 0.981897 0.750000 0.765984
O O9 0.967436 0.494999 0.675203
O O10 0.929917 0.522033 0.854056
O O11 0.046636 0.501979 0.812201
O O12 0.043953 0.750000 0.427038
O O13 0.000000 0.000000 0.500000
O O14 0.561209 0.750000 0.960695
O O15 0.615963 0.976756 0.038319
O O16 0.500000 0.000000 0.000000
O O17 0.389410 0.250000 0.848316
#
# Coordination Sequence:
#
# PCOD9446805 Si02
#       6
#     8   8   8   8   8   8
#     4  10  20  33  49  71  99 131 166 203 246 297
#     4  10  21  38  58  78 102 135 174 214 259 313
#     4  10  19  33  51  73 102 133 167 206 251 299
#     4  12  24  37  54  78 108 139 174 217 263 307
#     4   8  16  29  47  70  96 127 160 196 240 295
#     4  10  18  30  49  74 102 130 163 202 249 300
#
# _framework density 17.800324
#
# number of rings (size 3 to 8) (size 9 to 14) (size 15 to 20)
#    0.000    2.000    0.000    4.500    0.000    3.333 
#    0.000    0.000    0.000    1.000    0.000    2.333 
#    0.000    0.000    0.000    0.000    0.000    0.000 
#
# Total GULP energy -267389.816583 kJ/mol
# GULP energy per Si atom -5570.621179 kJ/mol
# Density = 1.775981 g / cm^3
# Si number density = 17.800324 Si / 1000 Ang^3
#
#
#
# Elastic Constant Matrix: (Units=GPa)
#
#
# Indices 1 2 3 4 5 6 
#
# 1 31.3862 19.1270 21.6388 0.0000 0.0000 0.0000
# 2 19.1270 81.3488 36.2442 0.0000 0.0000 0.0000
# 3 21.6388 36.2442 134.1213 0.0000 0.0000 0.0000
# 4 0.0000 0.0000 0.0000 25.6974 0.0000 0.0000
# 5 0.0000 0.0000 0.0000 0.0000 23.1749 0.0000
# 6 0.0000 0.0000 0.0000 0.0000 0.0000 25.1790
#
#
#
# Elastic Compliance Matrix: (Units=1/GPa)
#
#
# Indices 1 2 3 4 5 6 
#
# 1 0.039323 -0.007298 -0.004372 0.000000 0.000000 0.000000
# 2 -0.007298 0.015330 -0.002965 0.000000 0.000000 0.000000
# 3 -0.004372 -0.002965 0.008963 0.000000 0.000000 0.000000
# 4 0.000000 0.000000 0.000000 0.038914 0.000000 0.000000
# 5 0.000000 0.000000 0.000000 0.000000 0.043150 0.000000
# 6 0.000000 0.000000 0.000000 0.000000 0.000000 0.039716
#
#
# Mechanical properties :
#
#
# Convention : Reuss Voigt Hill
#
# Bulk Modulus (GPa) = 29.11640 44.54181 36.82911
# Shear Modulus (GPa) = 22.11278 26.13337 24.12307
#
# Velocity S-wave (km/s) = 3.52841 3.83579 3.68530
# Velocity P-wave (km/s) = 5.74389 6.68544 6.23247
#
# Compressibility (1/GPa) = 0.03434490
#
# Stress axis : x y z
#
# Youngs Moduli (GPa) = 25.43062 65.23275 111.57441
#
# Poissons Ratio (x) = 0.47605 0.48782
# Poissons Ratio (y) = 0.18559 0.33084
# Poissons Ratio (z) = 0.11119 0.19343
#
# Static dielectric constant tensor:
#      x y z
#    x 1.636750 0.000000 0.000000 
#    y 0.000000 1.616680 0.000000 
#    z 0.000000 0.000000 1.650660 
# 
# From -- ./inp_files/21240.got.cif
#   From: 2010.05.17/outbox.cif.g08.bks.cpg/sg59_11_cif.got.tgz:21240.got - 2010.06.03 14:40:33.
