data_PCOD9446962
_publ_section_title
;
Structure prediction by ZEFSAII (Michael W. Deem and Ramdas Pophale) SiO2 
 PCOD9446962
Probable space group: P M M N
;
_chemical_formula_sum "Si O2"
_cell_formula_units_Z 48
_cell_length_a 8.696467
_cell_length_b 16.900310
_cell_length_c 18.871521
_cell_angle_alpha 90.000000
_cell_angle_beta 90.000000
_cell_angle_gamma 90.000000
_cell_volume 2773.603833
_symmetry_space_group_name_H-M "P M M N"
_symmetry_group_IT_number 59
_space_group.IT_coordinate_system_code '2'
_symmetry_cell_setting 'orthorhombic'
loop_
_space_group_symop_operation_xyz
x,y,z
1/2-x,1/2-y,z
1/2+x,-y,-z
-x,1/2+y,-z
-x,-y,-z
1/2+x,1/2+y,-z
1/2-x,y,z
x,1/2-y,z
loop_
_atom_site_type_symbol
_atom_site_label
_atom_site_fract_x
_atom_site_fract_y
_atom_site_fract_z
Si Si1 0.566123 0.422192 0.961651
Si Si2 0.564276 0.506728 0.823530
Si Si3 0.065070 0.162541 0.088156
Si Si4 0.933715 0.160454 0.583058
Si Si5 0.932939 0.511394 0.332288
Si Si6 0.433802 0.424293 0.457431
O O1 0.750000 0.421687 0.966930
O O2 0.526565 0.436475 0.879389
O O3 0.500000 0.500000 0.000000
O O4 0.498619 0.352251 0.009040
O O5 0.750000 0.508062 0.814833
O O6 0.517515 0.589919 0.860930
O O7 0.485229 0.495316 0.748533
O O8 0.250000 0.158848 0.084530
O O9 0.019571 0.250000 0.113390
O O10 0.750000 0.148579 0.581129
O O11 0.965980 0.250000 0.606723
O O12 0.005782 0.093527 0.633582
O O13 0.000419 0.147229 0.503955
O O14 0.750000 0.509116 0.339447
O O15 0.005756 0.439873 0.378527
O O16 0.500000 0.500000 0.500000
O O17 0.250000 0.424333 0.458799
#
# Coordination Sequence:
#
# PCOD9446962 Si02
#       6
#     8   8   8   8   8   8
#     4   9  17  30  50  73  97 128 165 204 245 295
#     4   9  18  33  51  72 101 136 171 206 250 304
#     4   9  18  33  53  76 102 132 167 210 257 303
#     4  10  20  35  55  77 102 131 165 209 257 302
#     4  11  21  33  52  76 103 135 172 211 251 299
#     4  10  18  31  52  74  99 130 165 202 241 292
#
# _framework density 17.306006
#
# number of rings (size 3 to 8) (size 9 to 14) (size 15 to 20)
#    0.000    2.333    0.000    7.000    0.000    5.000 
#    0.000    1.667    0.000    4.000    0.000    0.000 
#    0.000    0.000    0.000    0.000    0.000    0.000 
#
# Total GULP energy -267429.310863 kJ/mol
# GULP energy per Si atom -5571.443976 kJ/mol
# Density = 1.726662 g / cm^3
# Si number density = 17.306006 Si / 1000 Ang^3
#
#
#
# Elastic Constant Matrix: (Units=GPa)
#
#
# Indices 1 2 3 4 5 6 
#
# 1 75.6580 31.0731 43.2869 0.0000 0.0000 0.0000
# 2 31.0731 78.8926 40.1354 0.0000 0.0000 0.0000
# 3 43.2869 40.1354 130.0353 0.0000 0.0000 0.0000
# 4 0.0000 0.0000 0.0000 19.0213 0.0000 0.0000
# 5 0.0000 0.0000 0.0000 0.0000 32.0036 0.0000
# 6 0.0000 0.0000 0.0000 0.0000 0.0000 20.3004
#
#
#
# Elastic Compliance Matrix: (Units=1/GPa)
#
#
# Indices 1 2 3 4 5 6 
#
# 1 0.017689 -0.004711 -0.004434 0.000000 0.000000 0.000000
# 2 -0.004711 0.016291 -0.003460 0.000000 0.000000 0.000000
# 3 -0.004434 -0.003460 0.010234 0.000000 0.000000 0.000000
# 4 0.000000 0.000000 0.000000 0.052573 0.000000 0.000000
# 5 0.000000 0.000000 0.000000 0.000000 0.031246 0.000000
# 6 0.000000 0.000000 0.000000 0.000000 0.000000 0.049260
#
#
# Mechanical properties :
#
#
# Convention : Reuss Voigt Hill
#
# Bulk Modulus (GPa) = 52.62162 57.06409 54.84285
# Shear Modulus (GPa) = 23.94176 25.60444 24.77310
#
# Velocity S-wave (km/s) = 3.72349 3.85061 3.78759
# Velocity P-wave (km/s) = 6.99703 7.26738 7.13349
#
# Compressibility (1/GPa) = 0.01900360
#
# Stress axis : x y z
#
# Youngs Moduli (GPa) = 56.53091 61.38247 97.71068
#
# Poissons Ratio (x) = 0.28919 0.43329
# Poissons Ratio (y) = 0.26634 0.33808
# Poissons Ratio (z) = 0.25068 0.21238
#
# Static dielectric constant tensor:
#      x y z
#    x 1.579340 0.000000 0.000000 
#    y 0.000000 1.635770 0.000000 
#    z 0.000000 0.000000 1.607830 
# 
# From -- ./inp_files/25744.got.cif
#   From: 2010.05.17/outbox.cif.g08.bks.cpg/sg59_13_cif.got.tgz:25744.got - 2010.06.03 14:40:33.
