data_PCOD9446233
_publ_section_title
;
Structure prediction by ZEFSAII (Michael W. Deem and Ramdas Pophale) SiO2 
 PCOD9446233
Probable space group: P M M N
;
_chemical_formula_sum "Si O2"
_cell_formula_units_Z 64
_cell_length_a 14.211185
_cell_length_b 15.500200
_cell_length_c 13.654775
_cell_angle_alpha 90.000000
_cell_angle_beta 90.000000
_cell_angle_gamma 90.000000
_cell_volume 3007.822082
_symmetry_space_group_name_H-M "P M M N"
_symmetry_group_IT_number 59
_space_group.IT_coordinate_system_code '2'
_symmetry_cell_setting 'orthorhombic'
loop_
_space_group_symop_operation_xyz
x,y,z
1/2-x,1/2-y,z
1/2+x,-y,-z
-x,1/2+y,-z
-x,-y,-z
1/2+x,1/2+y,-z
1/2-x,y,z
x,1/2-y,z
loop_
_atom_site_type_symbol
_atom_site_label
_atom_site_fract_x
_atom_site_fract_y
_atom_site_fract_z
Si Si1 0.642622 0.895776 0.951814
Si Si2 0.050214 0.097409 0.846749
Si Si3 0.142491 0.088563 0.645083
Si Si4 0.144711 0.896442 0.071276
Si Si5 0.042359 0.349628 0.453021
Si Si6 0.142526 0.352863 0.259286
Si Si7 0.636639 0.092831 0.143162
Si Si8 0.644933 0.119153 0.353889
O O1 0.750000 0.863429 0.953888
O O2 0.646487 0.750000 0.730271
O O3 0.593523 0.867800 0.051683
O O4 0.599780 0.869325 0.847655
O O5 0.098680 0.124923 0.745735
O O6 0.939789 0.118059 0.853729
O O7 0.074581 0.994582 0.853616
O O8 0.250000 0.119340 0.631655
O O9 0.079190 0.107581 0.551085
O O10 0.145867 0.984836 0.652732
O O11 0.250000 0.870023 0.101119
O O12 0.145674 0.000098 0.053133
O O13 0.123013 0.862206 0.961675
O O14 0.070862 0.250000 0.460442
O O15 0.088595 0.388214 0.353774
O O16 0.931882 0.354261 0.432171
O O17 0.250000 0.386928 0.259038
O O18 0.750000 0.069113 0.145980
O O19 0.619419 0.145690 0.242438
O O20 0.750000 0.148320 0.376989
#
# Coordination Sequence:
#
# PCOD9446233 Si02
#       8
#     8   8   8   8   8   8   8   8
#     4   9  16  27  46  73 102 131 167 210 263 318
#     4  10  17  27  49  73 101 141 172 217 262 313
#     4  10  21  38  57  80 108 141 184 231 277 327
#     4   9  17  26  41  74 109 141 172 204 258 324
#     4  11  23  37  57  78 105 146 186 223 272 333
#     4   9  19  33  48  70 101 136 173 217 269 323
#     4   8  14  26  46  74 107 138 170 210 265 321
#     4   9  19  35  57  83 110 140 180 232 277 318
#
# _framework density 21.277854000000001
#
# number of rings (size 3 to 8) (size 9 to 14) (size 15 to 20)
#    0.000    2.625    0.000    4.875    5.250    1.000 
#    0.000    1.250    0.000    1.500    0.000    0.000 
#    0.000    1.000    0.000    0.000    0.000    0.000 
#
# Total GULP energy -357060.795715 kJ/mol
# GULP energy per Si atom -5579.074933 kJ/mol
# Density = 2.122942 g / cm^3
# Si number density = 21.277854 Si / 1000 Ang^3
#
#
#
# Elastic Constant Matrix: (Units=GPa)
#
#
# Indices 1 2 3 4 5 6 
#
# 1 122.7171 5.4574 75.6503 0.0000 0.0000 0.0000
# 2 5.4574 23.6374 14.6061 0.0000 0.0000 0.0000
# 3 75.6503 14.6061 155.0053 0.0000 0.0000 0.0000
# 4 0.0000 0.0000 0.0000 -9.3933 0.0000 0.0000
# 5 0.0000 0.0000 0.0000 0.0000 39.1822 0.0000
# 6 0.0000 0.0000 0.0000 0.0000 0.0000 -1.0545
#
#
#
# Elastic Compliance Matrix: (Units=1/GPa)
#
#
# Indices 1 2 3 4 5 6 
#
# 1 0.011673 0.000876 -0.005779 0.000000 0.000000 0.000000
# 2 0.000876 0.044987 -0.004667 0.000000 0.000000 0.000000
# 3 -0.005779 -0.004667 0.009712 0.000000 0.000000 0.000000
# 4 0.000000 0.000000 0.000000 -0.106459 0.000000 0.000000
# 5 0.000000 0.000000 0.000000 0.000000 0.025522 0.000000
# 6 0.000000 0.000000 0.000000 0.000000 0.000000 -0.948357
#
#
# Mechanical properties :
#
#
# Convention : Reuss Voigt Hill
#
# Bulk Modulus (GPa) = 21.17223 54.75417 37.96320
# Shear Modulus (GPa) = -5.38771 19.45661 7.03445
#
# Velocity S-wave (km/s) = -1.59297 3.02720 1.82021
# Velocity P-wave (km/s) = 2.56681 6.16501 4.72207
#
# Compressibility (1/GPa) = 0.04723169
#
# Stress axis : x y z
#
# Youngs Moduli (GPa) = 85.67050 22.22856 102.96774
#
# Poissons Ratio (x) = -0.01948 0.59509
# Poissons Ratio (y) = -0.07507 0.48053
# Poissons Ratio (z) = 0.49512 0.10374
#
# Static dielectric constant tensor:
#      x y z
#    x 1.820370 0.000000 0.000000 
#    y 0.000000 1.783880 0.000000 
#    z 0.000000 0.000000 1.785330 
# 
# From -- ./inp_files/17192.got.cif
#   From: 2010.05.17/outbox.cif.g08.bks.cpg/sg59_9_cif.got.tgz:17192.got - 2010.06.03 14:40:33.
