data_PCOD9446584
_publ_section_title
;
Structure prediction by ZEFSAII (Michael W. Deem and Ramdas Pophale) SiO2 
 PCOD9446584
Probable space group: P M M N
;
_chemical_formula_sum "Si O2"
_cell_formula_units_Z 64
_cell_length_a 7.704999
_cell_length_b 29.586310
_cell_length_c 16.204392
_cell_angle_alpha 90.000000
_cell_angle_beta 90.000000
_cell_angle_gamma 90.000000
_cell_volume 3693.993532
_symmetry_space_group_name_H-M "P M M N"
_symmetry_group_IT_number 59
_space_group.IT_coordinate_system_code '2'
_symmetry_cell_setting 'orthorhombic'
loop_
_space_group_symop_operation_xyz
x,y,z
1/2-x,1/2-y,z
1/2+x,-y,-z
-x,1/2+y,-z
-x,-y,-z
1/2+x,1/2+y,-z
1/2-x,y,z
x,1/2-y,z
loop_
_atom_site_type_symbol
_atom_site_label
_atom_site_fract_x
_atom_site_fract_y
_atom_site_fract_z
Si Si1 0.543070 0.301765 0.326175
Si Si2 0.540139 0.356426 0.843801
Si Si3 0.463383 0.857343 0.831477
Si Si4 0.542727 0.198192 0.685627
Si Si5 0.038139 0.697966 0.993917
Si Si6 0.543525 0.801481 0.494096
Si Si7 0.048073 0.549048 0.894883
Si Si8 0.956068 0.949462 0.081893
O O1 0.750000 0.298570 0.315551
O O2 0.473528 0.250000 0.322275
O O3 0.477799 0.332891 0.251988
O O4 0.511032 0.321017 0.417811
O O5 0.750000 0.355105 0.843484
O O6 0.476698 0.332573 0.760278
O O7 0.487952 0.408208 0.856993
O O8 0.480819 0.328242 0.924023
O O9 0.250000 0.858258 0.831439
O O10 0.515424 0.828026 0.911204
O O11 0.525732 0.908687 0.844692
O O12 0.750000 0.201241 0.695445
O O13 0.473859 0.250000 0.689644
O O14 0.509405 0.178871 0.594160
O O15 0.250000 0.698010 0.994637
O O16 0.981916 0.750000 0.993977
O O17 0.750000 0.799299 0.494523
O O18 0.470774 0.750000 0.493840
O O19 0.250000 0.545831 0.871476
O O20 0.974932 0.498299 0.888336
O O21 0.036859 0.561002 0.992307
O O22 0.750000 0.954047 0.067838
#
# Coordination Sequence:
#
# PCOD9446584 Si02
#       8
#     8   8   8   8   8   8   8   8
#     4   9  16  26  43  67  90 112 143 182 217 254
#     4  10  18  29  45  65  90 118 147 181 222 262
#     4   9  15  25  43  66  88 112 145 184 221 254
#     4   9  17  29  46  68  90 114 149 189 221 254
#     4   9  15  23  39  63  88 115 148 180 208 247
#     4   9  17  29  44  62  87 120 149 176 217 263
#     4   9  17  31  47  63  84 114 151 190 227 260
#     4  10  19  29  44  64  87 115 150 188 224 263
#
# _framework density 17.325423000000001
#
# number of rings (size 3 to 8) (size 9 to 14) (size 15 to 20)
#    0.000    2.750    1.250    1.500    0.000    5.500 
#    0.000    0.625    0.000    1.125    0.000    0.875 
#    0.000    0.000    0.000    0.000    0.000    0.000 
#
# Total GULP energy -356686.593004 kJ/mol
# GULP energy per Si atom -5573.228016 kJ/mol
# Density = 1.728599 g / cm^3
# Si number density = 17.325423 Si / 1000 Ang^3
#
#
#
# Elastic Constant Matrix: (Units=GPa)
#
#
# Indices 1 2 3 4 5 6 
#
# 1 28.3915 1.0708 -1.4203 0.0000 0.0000 0.0000
# 2 1.0708 114.5418 76.7688 0.0000 0.0000 0.0000
# 3 -1.4203 76.7688 154.2501 0.0000 0.0000 0.0000
# 4 0.0000 0.0000 0.0000 11.1073 0.0000 0.0000
# 5 0.0000 0.0000 0.0000 0.0000 -1.2090 0.0000
# 6 0.0000 0.0000 0.0000 0.0000 0.0000 9.4388
#
#
#
# Elastic Compliance Matrix: (Units=1/GPa)
#
#
# Indices 1 2 3 4 5 6 
#
# 1 0.035290 -0.000822 0.000734 0.000000 0.000000 0.000000
# 2 -0.000822 0.013119 -0.006537 0.000000 0.000000 0.000000
# 3 0.000734 -0.006537 0.009743 0.000000 0.000000 0.000000
# 4 0.000000 0.000000 0.000000 0.090031 0.000000 0.000000
# 5 0.000000 0.000000 0.000000 0.000000 -0.827104 0.000000
# 6 0.000000 0.000000 0.000000 0.000000 0.000000 0.105945
#
#
# Mechanical properties :
#
#
# Convention : Reuss Voigt Hill
#
# Bulk Modulus (GPa) = 22.27054 50.00246 36.13650
# Shear Modulus (GPa) = -9.17837 18.58502 4.70333
#
# Velocity S-wave (km/s) = -2.30416 3.27877 1.64942
# Velocity P-wave (km/s) = 2.40901 6.57702 4.95280
#
# Compressibility (1/GPa) = 0.04490238
#
# Stress axis : x y z
#
# Youngs Moduli (GPa) = 28.33699 76.22336 102.63669
#
# Poissons Ratio (x) = 0.06264 -0.07533
# Poissons Ratio (y) = 0.02329 0.67093
# Poissons Ratio (z) = -0.02080 0.49827
#
# Static dielectric constant tensor:
#      x y z
#    x 1.649180 0.000000 0.000000 
#    y 0.000000 1.597220 0.000000 
#    z 0.000000 0.000000 1.588020 
# 
# From -- ./inp_files/21958.got.cif
#   From: 2010.05.17/outbox.cif.g08.bks.cpg/sg59_11_cif.got.tgz:21958.got - 2010.06.03 14:40:33.
