data_PCOD9446943
_publ_section_title
;
Structure prediction by ZEFSAII (Michael W. Deem and Ramdas Pophale) SiO2 
 PCOD9446943
Probable space group: P M M N
;
_chemical_formula_sum "Si O2"
_cell_formula_units_Z 64
_cell_length_a 13.162492
_cell_length_b 16.657719
_cell_length_c 17.154972
_cell_angle_alpha 90.000000
_cell_angle_beta 90.000000
_cell_angle_gamma 90.000000
_cell_volume 3761.349293
_symmetry_space_group_name_H-M "P M M N"
_symmetry_group_IT_number 59
_space_group.IT_coordinate_system_code '2'
_symmetry_cell_setting 'orthorhombic'
loop_
_space_group_symop_operation_xyz
x,y,z
1/2-x,1/2-y,z
1/2+x,-y,-z
-x,1/2+y,-z
-x,-y,-z
1/2+x,1/2+y,-z
1/2-x,y,z
x,1/2-y,z
loop_
_atom_site_type_symbol
_atom_site_label
_atom_site_fract_x
_atom_site_fract_y
_atom_site_fract_z
Si Si1 0.634747 0.020851 0.420044
Si Si2 0.452070 0.960705 0.155583
Si Si3 0.576169 0.157574 0.297990
Si Si4 0.420692 0.947814 0.402086
Si Si5 0.866378 0.421318 0.136387
Si Si6 0.633850 0.343286 0.727257
Si Si7 0.128057 0.841308 0.025832
Si Si8 0.863613 0.918640 0.725589
O O1 0.750000 0.992155 0.407065
O O2 0.614598 0.098301 0.365758
O O3 0.619359 0.042480 0.510784
O O4 0.542658 0.959736 0.401435
O O5 0.446198 0.893883 0.223148
O O6 0.413518 0.912013 0.080842
O O7 0.559435 0.002586 0.141159
O O8 0.384476 0.032210 0.194017
O O9 0.599399 0.250000 0.313257
O O10 0.623360 0.127501 0.216656
O O11 0.455048 0.143208 0.287429
O O12 0.385479 0.865881 0.362135
O O13 0.376016 0.016874 0.344956
O O14 0.750000 0.446231 0.125449
O O15 0.895228 0.365291 0.063237
O O16 0.750000 0.367780 0.748584
O O17 0.624963 0.250000 0.742662
O O18 0.250000 0.840402 0.035107
O O19 0.092381 0.750000 0.043708
O O20 0.750000 0.885932 0.725133
#
# Coordination Sequence:
#
# PCOD9446943 Si02
#       8
#     8   8   8   8   8   8   8   8
#     4  10  19  31  50  71  92 125 164 199 235 277
#     4  10  18  31  51  75  98 121 157 198 231 277
#     4  10  21  33  46  69  97 125 161 201 237 274
#     4   9  18  32  49  71  97 123 157 196 235 286
#     4  10  21  35  50  68  94 131 166 195 230 272
#     4  10  19  31  50  75 101 124 148 191 249 294
#     4  10  19  31  51  77 100 122 151 191 240 286
#     4   9  17  31  51  71  95 126 156 191 237 286
#
# _framework density 17.015170999999999
#
# number of rings (size 3 to 8) (size 9 to 14) (size 15 to 20)
#    0.000    2.250    0.000    5.250    0.000    3.250 
#    0.000    0.000    0.000    2.625    0.000    0.000 
#    0.000    0.000    0.000    0.000    0.000    0.000 
#
# Total GULP energy -356687.403671 kJ/mol
# GULP energy per Si atom -5573.240682 kJ/mol
# Density = 1.697644 g / cm^3
# Si number density = 17.015171 Si / 1000 Ang^3
#
#
#
# Elastic Constant Matrix: (Units=GPa)
#
#
# Indices 1 2 3 4 5 6 
#
# 1 85.7310 12.5835 8.4016 0.0000 0.0000 0.0000
# 2 12.5835 48.8379 16.9027 0.0000 0.0000 0.0000
# 3 8.4016 16.9027 88.5828 0.0000 0.0000 0.0000
# 4 0.0000 0.0000 0.0000 12.7103 0.0000 0.0000
# 5 0.0000 0.0000 0.0000 0.0000 -50.2988 0.0000
# 6 0.0000 0.0000 0.0000 0.0000 0.0000 15.4206
#
#
#
# Elastic Compliance Matrix: (Units=1/GPa)
#
#
# Indices 1 2 3 4 5 6 
#
# 1 0.012152 -0.002925 -0.000594 0.000000 0.000000 0.000000
# 2 -0.002925 0.022628 -0.004040 0.000000 0.000000 0.000000
# 3 -0.000594 -0.004040 0.012116 0.000000 0.000000 0.000000
# 4 0.000000 0.000000 0.000000 0.078676 0.000000 0.000000
# 5 0.000000 0.000000 0.000000 0.000000 -0.019881 0.000000
# 6 0.000000 0.000000 0.000000 0.000000 0.000000 0.064848
#
#
# Mechanical properties :
#
#
# Convention : Reuss Voigt Hill
#
# Bulk Modulus (GPa) = 31.47009 33.21416 32.34212
# Shear Modulus (GPa) = 25.47749 7.91735 16.69742
#
# Velocity S-wave (km/s) = 3.87374 2.15945 3.13601
# Velocity P-wave (km/s) = 6.20833 5.07743 5.67114
#
# Compressibility (1/GPa) = 0.03177621
#
# Stress axis : x y z
#
# Youngs Moduli (GPa) = 82.29083 44.19311 82.53431
#
# Poissons Ratio (x) = 0.12928 0.04905
# Poissons Ratio (y) = 0.24073 0.33346
# Poissons Ratio (z) = 0.04891 0.17855
#
# Static dielectric constant tensor:
#      x y z
#    x 1.583770 0.000000 0.000000 
#    y 0.000000 1.557020 0.000000 
#    z 0.000000 0.000000 1.601060 
# 
# From -- ./inp_files/27184.got.cif
#   From: 2010.05.17/outbox.cif.g08.bks.cpg/sg59_14_cif.got.tgz:27184.got - 2010.06.03 14:40:33.
