data_PCOD9446506
_publ_section_title
;
Structure prediction by ZEFSAII (Michael W. Deem and Ramdas Pophale) SiO2 
 PCOD9446506
Probable space group: P M M N
;
_chemical_formula_sum "Si O2"
_cell_formula_units_Z 56
_cell_length_a 15.080892
_cell_length_b 7.328816
_cell_length_c 22.526219
_cell_angle_alpha 90.000000
_cell_angle_beta 90.000000
_cell_angle_gamma 90.000000
_cell_volume 2489.712215
_symmetry_space_group_name_H-M "P M M N"
_symmetry_group_IT_number 59
_space_group.IT_coordinate_system_code '2'
_symmetry_cell_setting 'orthorhombic'
loop_
_space_group_symop_operation_xyz
x,y,z
1/2-x,1/2-y,z
1/2+x,-y,-z
-x,1/2+y,-z
-x,-y,-z
1/2+x,1/2+y,-z
1/2-x,y,z
x,1/2-y,z
loop_
_atom_site_type_symbol
_atom_site_label
_atom_site_fract_x
_atom_site_fract_y
_atom_site_fract_z
Si Si1 0.847521 0.540208 0.119468
Si Si2 0.350937 0.527053 0.244640
Si Si3 0.977741 0.458947 0.652172
Si Si4 0.351402 0.029789 0.455904
Si Si5 0.460157 0.526974 0.129939
Si Si6 0.850389 0.972830 0.408126
Si Si7 0.849825 0.030126 0.981078
O O1 0.750000 0.459135 0.131892
O O2 0.843993 0.750000 0.139661
O O3 0.858787 0.539829 0.047898
O O4 0.940011 0.461726 0.142500
O O5 0.250000 0.465972 0.252339
O O6 0.348948 0.750000 0.246695
O O7 0.416001 0.461569 0.296644
O O8 0.392439 0.475634 0.181554
O O9 0.994737 0.250000 0.670421
O O10 0.920486 0.459477 0.591829
O O11 0.073067 0.538984 0.635546
O O12 0.250000 0.975781 0.441299
O O13 0.354798 0.250000 0.454277
O O14 0.369735 0.972787 0.523683
O O15 0.462984 0.750000 0.128405
O O16 0.422274 0.467481 0.066206
O O17 0.750000 0.027620 0.393549
O O18 0.852081 0.750000 0.408074
O O19 0.750000 0.983652 0.960138
O O20 0.854580 0.250000 0.984643
#
# Coordination Sequence:
#
# PCOD9446506 Si02
#       7
#     8   8   8   8   8   8   8
#     4   9  17  28  42  62  87 110 133 168 212 251
#     4   9  17  28  42  63  89 112 138 177 218 249
#     4  10  18  28  46  69  89 112 146 187 222 250
#     4   9  17  29  45  64  89 121 148 172 214 270
#     4   9  16  27  42  59  83 115 143 166 202 252
#     4   8  15  28  44  64  91 119 145 175 216 265
#     4   9  16  26  43  65  84 106 139 172 201 243
#
# _framework density 22.492559
#
# number of rings (size 3 to 8) (size 9 to 14) (size 15 to 20)
#    0.000    3.000    0.000    2.571    0.000    2.571 
#    0.000    0.714    0.000    7.286    0.000    2.000 
#    0.000    0.000    0.000    0.000    0.000    0.000 
#
# Total GULP energy -312684.692930 kJ/mol
# GULP energy per Si atom -5583.655231 kJ/mol
# Density = 2.244137 g / cm^3
# Si number density = 22.492559 Si / 1000 Ang^3
#
#
#
# Elastic Constant Matrix: (Units=GPa)
#
#
# Indices 1 2 3 4 5 6 
#
# 1 90.3092 -6.6807 29.7235 0.0000 0.0000 0.0000
# 2 -6.6807 86.8138 -7.2263 0.0000 0.0000 0.0000
# 3 29.7235 -7.2263 37.3007 0.0000 0.0000 0.0000
# 4 0.0000 0.0000 0.0000 4.5678 0.0000 0.0000
# 5 0.0000 0.0000 0.0000 0.0000 37.7998 0.0000
# 6 0.0000 0.0000 0.0000 0.0000 0.0000 -5.2823
#
#
#
# Elastic Compliance Matrix: (Units=1/GPa)
#
#
# Indices 1 2 3 4 5 6 
#
# 1 0.015012 0.000162 -0.011931 0.000000 0.000000 0.000000
# 2 0.000162 0.011709 0.002139 0.000000 0.000000 0.000000
# 3 -0.011931 0.002139 0.036731 0.000000 0.000000 0.000000
# 4 0.000000 0.000000 0.000000 0.218925 0.000000 0.000000
# 5 0.000000 0.000000 0.000000 0.000000 0.026455 0.000000
# 6 0.000000 0.000000 0.000000 0.000000 0.000000 -0.189313
#
#
# Mechanical properties :
#
#
# Convention : Reuss Voigt Hill
#
# Bulk Modulus (GPa) = 22.62795 27.33963 24.98379
# Shear Modulus (GPa) = 32.57129 20.65757 26.61443
#
# Velocity S-wave (km/s) = 3.80951 3.03383 3.44358
# Velocity P-wave (km/s) = 5.42511 4.94505 5.19063
#
# Compressibility (1/GPa) = 0.04419313
#
# Stress axis : x y z
#
# Youngs Moduli (GPa) = 66.61383 85.40111 27.22503
#
# Poissons Ratio (x) = -0.01384 0.32482
# Poissons Ratio (y) = -0.01080 -0.05824
# Poissons Ratio (z) = 0.79477 -0.18270
#
# Static dielectric constant tensor:
#      x y z
#    x 1.839530 0.000000 0.000000 
#    y 0.000000 1.889440 0.000000 
#    z 0.000000 0.000000 1.771300 
# 
# From -- ./inp_files/30375.got.cif
#   From: 2010.05.17/outbox.cif.g08.bks.cpg/sg59_16_cif.got.tgz:30375.got - 2010.06.03 14:40:33.
