data_PCOD9446810
_publ_section_title
;
Structure prediction by ZEFSAII (Michael W. Deem and Ramdas Pophale) SiO2 
 PCOD9446810
Probable space group: P M M N
;
_chemical_formula_sum "Si O2"
_cell_formula_units_Z 64
_cell_length_a 7.371898
_cell_length_b 15.200366
_cell_length_c 24.532124
_cell_angle_alpha 90.000000
_cell_angle_beta 90.000000
_cell_angle_gamma 90.000000
_cell_volume 2748.960591
_symmetry_space_group_name_H-M "P M M N"
_symmetry_group_IT_number 59
_space_group.IT_coordinate_system_code '2'
_symmetry_cell_setting 'orthorhombic'
loop_
_space_group_symop_operation_xyz
x,y,z
1/2-x,1/2-y,z
1/2+x,-y,-z
-x,1/2+y,-z
-x,-y,-z
1/2+x,1/2+y,-z
1/2-x,y,z
x,1/2-y,z
loop_
_atom_site_type_symbol
_atom_site_label
_atom_site_fract_x
_atom_site_fract_y
_atom_site_fract_z
Si Si1 0.969121 0.151432 0.015153
Si Si2 0.530189 0.155098 0.395744
Si Si3 0.541075 0.846987 0.112272
Si Si4 0.534459 0.398112 0.512668
Si Si5 0.472217 0.650990 0.366323
Si Si6 0.968155 0.461973 0.114337
Si Si7 0.965436 0.848962 0.780767
Si Si8 0.043287 0.015964 0.306618
O O1 0.750000 0.147280 0.012322
O O2 0.016605 0.250000 0.035511
O O3 0.033174 0.076244 0.056395
O O4 0.038415 0.144700 0.953622
O O5 0.750000 0.148462 0.394824
O O6 0.479368 0.250000 0.371771
O O7 0.469092 0.150503 0.458411
O O8 0.455565 0.074708 0.361346
O O9 0.750000 0.844204 0.130717
O O10 0.461367 0.750000 0.125167
O O11 0.461612 0.940937 0.130413
O O12 0.500000 0.500000 0.500000
O O13 0.750000 0.382394 0.514791
O O14 0.465374 0.370810 0.571976
O O15 0.250000 0.646162 0.366975
O O16 0.523024 0.750000 0.352142
O O17 0.537375 0.577038 0.324316
O O18 0.750000 0.469793 0.110340
O O19 0.009141 0.389507 0.159662
O O20 0.750000 0.843341 0.769875
O O21 0.038576 0.750000 0.775985
O O22 0.042141 0.920567 0.738442
O O23 0.250000 0.998251 0.288956
#
# Coordination Sequence:
#
# PCOD9446810 Si02
#       8
#     8   8   8   8   8   8   8   8
#     4   9  17  29  47  74 106 137 172 214 255 297
#     4  10  20  32  49  75 105 134 165 204 250 301
#     4   9  18  32  50  75 107 141 175 209 249 300
#     4  10  18  30  49  74 104 136 168 202 244 297
#     4   9  17  31  53  77 101 133 170 205 246 299
#     4  10  20  34  53  76 103 138 177 214 253 302
#     4  10  22  38  54  75 103 131 163 211 265 310
#     4  10  20  36  56  76  99 130 169 212 256 302
#
# _framework density 23.281528000000002
#
# number of rings (size 3 to 8) (size 9 to 14) (size 15 to 20)
#    0.000    2.375    1.250    1.500    0.000    4.500 
#    0.000    1.875    0.000    3.000    0.000    0.000 
#    0.000    0.000    0.000    0.000    0.000    0.000 
#
# Total GULP energy -357435.746443 kJ/mol
# GULP energy per Si atom -5584.933538 kJ/mol
# Density = 2.322854 g / cm^3
# Si number density = 23.281528 Si / 1000 Ang^3
#
#
#
# Elastic Constant Matrix: (Units=GPa)
#
#
# Indices 1 2 3 4 5 6 
#
# 1 86.1322 -3.3905 -9.4120 0.0000 0.0000 0.0000
# 2 -3.3905 172.7200 24.8529 0.0000 0.0000 0.0000
# 3 -9.4120 24.8529 45.5390 0.0000 0.0000 0.0000
# 4 0.0000 0.0000 0.0000 28.3277 0.0000 0.0000
# 5 0.0000 0.0000 0.0000 0.0000 7.8948 0.0000
# 6 0.0000 0.0000 0.0000 0.0000 0.0000 1.7658
#
#
#
# Elastic Compliance Matrix: (Units=1/GPa)
#
#
# Indices 1 2 3 4 5 6 
#
# 1 0.011881 -0.000130 0.002527 0.000000 0.000000 0.000000
# 2 -0.000130 0.006285 -0.003457 0.000000 0.000000 0.000000
# 3 0.002527 -0.003457 0.024368 0.000000 0.000000 0.000000
# 4 0.000000 0.000000 0.000000 0.035301 0.000000 0.000000
# 5 0.000000 0.000000 0.000000 0.000000 0.126666 0.000000
# 6 0.000000 0.000000 0.000000 0.000000 0.000000 0.566331
#
#
# Mechanical properties :
#
#
# Convention : Reuss Voigt Hill
#
# Bulk Modulus (GPa) = 24.74466 36.49912 30.62189
# Shear Modulus (GPa) = 6.35790 27.08704 16.72247
#
# Velocity S-wave (km/s) = 1.65433 3.41465 2.68297
# Velocity P-wave (km/s) = 3.78161 5.59086 4.77275
#
# Compressibility (1/GPa) = 0.04041275
#
# Stress axis : x y z
#
# Youngs Moduli (GPa) = 84.16775 159.12030 41.03753
#
# Poissons Ratio (x) = 0.02074 -0.10369
# Poissons Ratio (y) = 0.01097 0.14186
# Poissons Ratio (z) = -0.21267 0.55004
#
# Static dielectric constant tensor:
#      x y z
#    x 1.929550 0.000000 0.000000 
#    y 0.000000 1.901070 0.000000 
#    z 0.000000 0.000000 1.840830 
# 
# From -- ./inp_files/31448.got.cif
#   From: 2010.05.17/outbox.cif.g08.bks.cpg/sg59_16_cif.got.tgz:31448.got - 2010.06.03 14:40:33.
