data_PCOD9446774
_publ_section_title
;
Structure prediction by ZEFSAII (Michael W. Deem and Ramdas Pophale) SiO2 
 PCOD9446774
Probable space group: P M M N
;
_chemical_formula_sum "Si O2"
_cell_formula_units_Z 64
_cell_length_a 8.864172
_cell_length_b 21.219919
_cell_length_c 20.991410
_cell_angle_alpha 90.000000
_cell_angle_beta 90.000000
_cell_angle_gamma 90.000000
_cell_volume 3948.421495
_symmetry_space_group_name_H-M "P M M N"
_symmetry_group_IT_number 59
_space_group.IT_coordinate_system_code '2'
_symmetry_cell_setting 'orthorhombic'
loop_
_space_group_symop_operation_xyz
x,y,z
1/2-x,1/2-y,z
1/2+x,-y,-z
-x,1/2+y,-z
-x,-y,-z
1/2+x,1/2+y,-z
1/2-x,y,z
x,1/2-y,z
loop_
_atom_site_type_symbol
_atom_site_label
_atom_site_fract_x
_atom_site_fract_y
_atom_site_fract_z
Si Si1 0.577572 0.989519 0.808574
Si Si2 0.933648 0.319421 0.483218
Si Si3 0.431545 0.551500 0.451576
Si Si4 0.568089 0.039191 0.058101
Si Si5 0.072880 0.003983 0.677221
Si Si6 0.072881 0.852605 0.659318
Si Si7 0.930288 0.317992 0.080265
Si Si8 0.920473 0.660640 0.787768
O O1 0.750000 0.012085 0.815500
O O2 0.496262 0.018392 0.746738
O O3 0.489627 0.991057 0.875448
O O4 0.582546 0.915134 0.792639
O O5 0.750000 0.320000 0.482997
O O6 0.982960 0.250000 0.504690
O O7 0.980450 0.379149 0.524893
O O8 0.979840 0.330509 0.409885
O O9 0.500000 0.500000 0.500000
O O10 0.250000 0.547472 0.454642
O O11 0.487909 0.537638 0.380541
O O12 0.750000 0.038074 0.056904
O O13 0.517058 0.113280 0.055293
O O14 0.500000 0.000000 0.000000
O O15 0.250000 0.019069 0.676427
O O16 0.059917 0.928656 0.663656
O O17 0.250000 0.837047 0.666083
O O18 0.983067 0.824178 0.718356
O O19 0.750000 0.318454 0.073708
O O20 0.985698 0.250000 0.053595
O O21 0.974233 0.318258 0.154662
O O22 0.750000 0.682288 0.797394
#
# Coordination Sequence:
#
# PCOD9446774 Si02
#       8
#     8   8   8   8   8   8   8   8
#     4   9  17  30  47  71 100 129 160 198 240 285
#     4   9  18  32  47  64  88 120 160 202 243 293
#     4  11  20  32  50  72  93 121 161 205 251 295
#     4  10  19  32  51  75 103 135 167 203 242 287
#     4  10  18  30  48  72  97 124 159 202 246 288
#     4   9  16  28  44  63  88 122 161 194 230 278
#     4   9  18  32  48  66  91 128 170 202 230 274
#     4   9  17  27  41  64  93 123 156 196 237 273
#
# _framework density 16.209008999999998
#
# number of rings (size 3 to 8) (size 9 to 14) (size 15 to 20)
#    0.000    2.500    1.250    1.875    0.000    4.750 
#    0.000    1.250    0.000    3.000    0.000    0.875 
#    0.000    7.000    0.000    0.000    0.000    0.000 
#
# Total GULP energy -356603.965162 kJ/mol
# GULP energy per Si atom -5571.936956 kJ/mol
# Density = 1.617212 g / cm^3
# Si number density = 16.209009 Si / 1000 Ang^3
#
#
#
# Elastic Constant Matrix: (Units=GPa)
#
#
# Indices 1 2 3 4 5 6 
#
# 1 47.4583 27.0238 36.9230 0.0000 0.0000 0.0000
# 2 27.0238 90.0648 58.4746 0.0000 0.0000 0.0000
# 3 36.9230 58.4746 116.8108 0.0000 0.0000 0.0000
# 4 0.0000 0.0000 0.0000 5.4103 0.0000 0.0000
# 5 0.0000 0.0000 0.0000 0.0000 28.3227 0.0000
# 6 0.0000 0.0000 0.0000 0.0000 0.0000 7.2743
#
#
#
# Elastic Compliance Matrix: (Units=1/GPa)
#
#
# Indices 1 2 3 4 5 6 
#
# 1 0.028912 -0.004062 -0.007106 0.000000 0.000000 0.000000
# 2 -0.004062 0.017020 -0.007236 0.000000 0.000000 0.000000
# 3 -0.007106 -0.007236 0.014429 0.000000 0.000000 0.000000
# 4 0.000000 0.000000 0.000000 0.184834 0.000000 0.000000
# 5 0.000000 0.000000 0.000000 0.000000 0.035307 0.000000
# 6 0.000000 0.000000 0.000000 0.000000 0.000000 0.137471
#
#
# Mechanical properties :
#
#
# Convention : Reuss Voigt Hill
#
# Bulk Modulus (GPa) = 42.45504 55.46408 48.95956
# Shear Modulus (GPa) = 10.80773 16.99561 13.90167
#
# Velocity S-wave (km/s) = 2.58500 3.24161 2.93174
# Velocity P-wave (km/s) = 5.92948 6.95004 6.45995
#
# Compressibility (1/GPa) = 0.02355433
#
# Stress axis : x y z
#
# Youngs Moduli (GPa) = 34.58737 58.75471 69.30350
#
# Poissons Ratio (x) = 0.23864 0.49245
# Poissons Ratio (y) = 0.14048 0.50149
# Poissons Ratio (z) = 0.24577 0.42516
#
# Static dielectric constant tensor:
#      x y z
#    x 1.553070 0.000000 0.000000 
#    y 0.000000 1.563780 0.000000 
#    z 0.000000 0.000000 1.519170 
# 
# From -- ./inp_files/29776.got.cif
#   From: 2010.05.17/outbox.cif.g08.bks.cpg/sg59_15_cif.got.tgz:29776.got - 2010.06.03 14:40:33.
