data_PCOD9446018
_publ_section_title
;
Structure prediction by ZEFSAII (Michael W. Deem and Ramdas Pophale) SiO2 
 PCOD9446018
Probable space group: P N N M
;
_chemical_formula_sum "Si O2"
_cell_formula_units_Z 48
_cell_length_a 18.000000
_cell_length_b 15.000000
_cell_length_c 9.000000
_cell_angle_alpha 90.000000
_cell_angle_beta 90.000000
_cell_angle_gamma 90.000000
_cell_volume 2430.000000
_symmetry_space_group_name_H-M "P N N M"
_symmetry_group_IT_number 58
_symmetry_cell_setting 'orthorhombic'
loop_
_space_group_symop_operation_xyz
x,y,z
-x,-y,z
1/2+x,1/2-y,1/2-z
1/2-x,1/2+y,1/2-z
-x,-y,-z
x,y,-z
1/2-x,1/2+y,1/2+z
1/2+x,1/2-y,1/2+z
loop_
_atom_site_type_symbol
_atom_site_label
_atom_site_fract_x
_atom_site_fract_y
_atom_site_fract_z
Si Si1 0.908715 0.240926 0.677127
Si Si2 0.791905 0.561476 0.319369
Si Si3 0.429888 0.055468 0.819318
Si Si4 0.255488 0.255034 0.676399
Si Si5 0.812924 0.914393 0.175022
Si Si6 0.535633 0.402453 0.831351
O O1 0.890345 0.240506 0.500000
O O2 0.931427 0.341234 0.720247
O O3 0.837351 0.217569 0.773123
O O4 0.974367 0.171590 0.700226
O O5 0.794108 0.564563 0.500000
O O6 0.857266 0.497114 0.268448
O O7 0.796538 0.663402 0.271111
O O8 0.716470 0.511137 0.275063
O O9 0.500000 0.000000 0.766480
O O10 0.429611 0.053290 0.000000
O O11 0.250577 0.246132 0.500000
O O12 0.235287 0.162741 0.751336
O O13 0.896767 0.899096 0.219994
O O14 0.802192 0.908847 0.000000
O O15 0.500000 0.500000 0.826519
O O16 0.563895 0.387004 0.000000
#
# Coordination Sequence:
#
# PCOD9446018 Si02
#       6
#     8   8   8   8   8   8
#     4  10  20  37  60  83 114 152 190 233 286 347
#     4   9  19  35  56  82 111 147 195 236 277 343
#     4   9  17  31  55  81 105 143 192 233 270 329
#     4  11  22  36  59  87 115 148 191 243 291 338
#     4  11  22  39  60  85 118 155 196 239 288 354
#     4  10  22  38  58  88 121 152 192 244 297 347
#
# _framework density 19.753086
#
# number of rings (size 3 to 8) (size 9 to 14) (size 15 to 20)
#    0.000    2.000    1.667    2.000    2.333    1.000 
#    0.000    2.500    0.000    0.500    0.000    0.000 
#    0.000    0.000    0.000    0.000    0.000    0.000 
#
# Total GULP energy -267717.213035 kJ/mol
# GULP energy per Si atom -5577.441938 kJ/mol
# Density = 1.970813 g / cm^3
# Si number density = 19.753086 Si / 1000 Ang^3
#
#
#
# Elastic Constant Matrix: (Units=GPa)
#
#
# Indices 1 2 3 4 5 6 
#
# 1 43.5033 28.9067 22.1788 0.0000 0.0000 0.0000
# 2 28.9067 87.8936 11.3422 0.0000 0.0000 0.0000
# 3 22.1788 11.3422 21.3138 0.0000 0.0000 0.0000
# 4 0.0000 0.0000 0.0000 17.1873 0.0000 0.0000
# 5 0.0000 0.0000 0.0000 0.0000 27.1115 0.0000
# 6 0.0000 0.0000 0.0000 0.0000 0.0000 25.9342
#
#
#
# Elastic Compliance Matrix: (Units=1/GPa)
#
#
# Indices 1 2 3 4 5 6 
#
# 1 0.059345 -0.012400 -0.055155 0.000000 0.000000 0.000000
# 2 -0.012400 0.014807 0.005024 0.000000 0.000000 0.000000
# 3 -0.055155 0.005024 0.101638 0.000000 0.000000 0.000000
# 4 0.000000 0.000000 0.000000 0.058183 0.000000 0.000000
# 5 0.000000 0.000000 0.000000 0.000000 0.036885 0.000000
# 6 0.000000 0.000000 0.000000 0.000000 0.000000 0.038559
#
#
# Mechanical properties :
#
#
# Convention : Reuss Voigt Hill
#
# Bulk Modulus (GPa) = 19.71308 30.84066 25.27687
# Shear Modulus (GPa) = 11.07691 20.06547 15.57119
#
# Velocity S-wave (km/s) = 2.37062 3.19064 2.81070
# Velocity P-wave (km/s) = 4.18265 5.40561 4.83297
#
# Compressibility (1/GPa) = 0.05072774
#
# Stress axis : x y z
#
# Youngs Moduli (GPa) = 16.85050 67.53411 9.83883
#
# Poissons Ratio (x) = 0.83744 0.54266
# Poissons Ratio (y) = 0.20895 -0.04943
# Poissons Ratio (z) = 0.92939 -0.33928
#
# Static dielectric constant tensor:
#      x y z
#    x 1.749140 0.000000 0.000000 
#    y 0.000000 1.668470 0.000000 
#    z 0.000000 0.000000 1.668680 
# 
# From -- ./inp_files/5891.got.cif
#   From: 2010.05.17/outbox.ucp.g08.bks.cvg/sg58_3_cif.got.tgz:5891.got - 2010.06.11 16:41:41.
