data_PCOD9446761
_publ_section_title
;
Structure prediction by ZEFSAII (Michael W. Deem and Ramdas Pophale) SiO2 
 PCOD9446761
Probable space group: P M M N
;
_chemical_formula_sum "Si O2"
_cell_formula_units_Z 48
_cell_length_a 7.945822
_cell_length_b 29.416683
_cell_length_c 10.525085
_cell_angle_alpha 90.000000
_cell_angle_beta 90.000000
_cell_angle_gamma 90.000000
_cell_volume 2460.130494
_symmetry_space_group_name_H-M "P M M N"
_symmetry_group_IT_number 59
_space_group.IT_coordinate_system_code '2'
_symmetry_cell_setting 'orthorhombic'
loop_
_space_group_symop_operation_xyz
x,y,z
1/2-x,1/2-y,z
1/2+x,-y,-z
-x,1/2+y,-z
-x,-y,-z
1/2+x,1/2+y,-z
1/2-x,y,z
x,1/2-y,z
loop_
_atom_site_type_symbol
_atom_site_label
_atom_site_fract_x
_atom_site_fract_y
_atom_site_fract_z
Si Si1 0.750000 0.639034 0.329219
Si Si2 0.435629 0.883858 0.476133
Si Si3 0.250000 0.074787 0.063050
Si Si4 0.250000 0.035821 0.793696
Si Si5 0.937671 0.017910 0.636031
Si Si6 0.945853 0.102667 0.231393
Si Si7 0.942363 0.299858 0.107815
Si Si8 0.250000 0.324646 0.940667
O O1 0.585948 0.644437 0.416395
O O2 0.750000 0.587010 0.270189
O O3 0.750000 0.672290 0.210003
O O4 0.250000 0.862152 0.481890
O O5 0.423235 0.928132 0.387277
O O6 0.476208 0.901133 0.618251
O O7 0.417684 0.075756 0.148734
O O8 0.250000 0.039887 0.945720
O O9 0.250000 0.123818 0.993375
O O10 0.416180 0.011535 0.738743
O O11 0.750000 0.000585 0.666010
O O12 0.000000 0.000000 0.500000
O O13 0.750000 0.091026 0.204597
O O14 0.967421 0.156335 0.196964
O O15 0.750000 0.303239 0.059150
O O16 0.959227 0.250000 0.170166
O O17 0.082017 0.302997 0.998707
#
# Coordination Sequence:
#
# PCOD9446761 Si02
#       8
#     4   8   4   4   8   8   8   4
#     4   9  17  29  45  66  94 118 149 188 234 268
#     4   9  18  30  47  71  93 120 156 197 234 282
#     4   9  17  29  46  68  94 122 152 190 232 276
#     4   9  18  30  45  69  94 117 153 194 231 280
#     4  10  18  30  48  70  90 119 157 198 243 282
#     4   9  17  30  48  71  94 121 155 192 234 275
#     4   9  17  29  47  69  92 119 153 188 226 272
#     4   9  17  28  44  67  93 121 148 188 228 268
#
# _framework density 19.511158999999999
#
# number of rings (size 3 to 8) (size 9 to 14) (size 15 to 20)
#    0.000    2.833    0.833    0.750    0.000    1.333 
#    0.000    6.667    0.000    3.000    0.000    2.333 
#    0.000    0.000    0.000    0.000    0.000    0.000 
#
# Total GULP energy -267576.954795 kJ/mol
# GULP energy per Si atom -5574.519892 kJ/mol
# Density = 1.946675 g / cm^3
# Si number density = 19.511159 Si / 1000 Ang^3
#
#
#
# Elastic Constant Matrix: (Units=GPa)
#
#
# Indices 1 2 3 4 5 6 
#
# 1 151.3521 30.6050 84.1809 0.0000 0.0000 0.0000
# 2 30.6050 44.3448 16.6209 0.0000 0.0000 0.0000
# 3 84.1809 16.6209 106.0121 0.0000 0.0000 0.0000
# 4 0.0000 0.0000 0.0000 19.9719 0.0000 0.0000
# 5 0.0000 0.0000 0.0000 0.0000 22.2107 0.0000
# 6 0.0000 0.0000 0.0000 0.0000 0.0000 14.9509
#
#
#
# Elastic Compliance Matrix: (Units=1/GPa)
#
#
# Indices 1 2 3 4 5 6 
#
# 1 0.012945 -0.005399 -0.009433 0.000000 0.000000 0.000000
# 2 -0.005399 0.026210 0.000178 0.000000 0.000000 0.000000
# 3 -0.009433 0.000178 0.016896 0.000000 0.000000 0.000000
# 4 0.000000 0.000000 0.000000 0.050070 0.000000 0.000000
# 5 0.000000 0.000000 0.000000 0.000000 0.045023 0.000000
# 6 0.000000 0.000000 0.000000 0.000000 0.000000 0.066886
#
#
# Mechanical properties :
#
#
# Convention : Reuss Voigt Hill
#
# Bulk Modulus (GPa) = 37.39348 62.72474 50.05911
# Shear Modulus (GPa) = 19.51197 22.78018 21.14608
#
# Velocity S-wave (km/s) = 3.16577 3.42064 3.29567
# Velocity P-wave (km/s) = 5.70698 6.91513 6.33990
#
# Compressibility (1/GPa) = 0.02674263
#
# Stress axis : x y z
#
# Youngs Moduli (GPa) = 77.24720 38.15337 59.18707
#
# Poissons Ratio (x) = 0.20598 0.55832
# Poissons Ratio (y) = 0.41704 -0.01052
# Poissons Ratio (z) = 0.72868 -0.00678
#
# Static dielectric constant tensor:
#      x y z
#    x 1.710570 0.000000 0.000000 
#    y 0.000000 1.739720 0.000000 
#    z 0.000000 0.000000 1.646630 
# 
# From -- ./inp_files/6470.got.cif
#   From: 2010.05.17/outbox.cif.g08.bks.cpg/sg59_4_cif.got.tgz:6470.got - 2010.06.03 14:40:33.
