data_PCOD9446283
_publ_section_title
;
Structure prediction by ZEFSAII (Michael W. Deem and Ramdas Pophale) SiO2 
 PCOD9446283
Probable space group: P M M N
;
_chemical_formula_sum "Si O2"
_cell_formula_units_Z 64
_cell_length_a 31.191830
_cell_length_b 13.577681
_cell_length_c 7.955336
_cell_angle_alpha 90.000000
_cell_angle_beta 90.000000
_cell_angle_gamma 90.000000
_cell_volume 3369.185968
_symmetry_space_group_name_H-M "P M M N"
_symmetry_group_IT_number 59
_space_group.IT_coordinate_system_code '2'
_symmetry_cell_setting 'orthorhombic'
loop_
_space_group_symop_operation_xyz
x,y,z
1/2-x,1/2-y,z
1/2+x,-y,-z
-x,1/2+y,-z
-x,-y,-z
1/2+x,1/2+y,-z
1/2-x,y,z
x,1/2-y,z
loop_
_atom_site_type_symbol
_atom_site_label
_atom_site_fract_x
_atom_site_fract_y
_atom_site_fract_z
Si Si1 0.060601 0.368932 0.462275
Si Si2 0.533611 0.369724 0.351108
Si Si3 0.649221 0.540675 0.658582
Si Si4 0.801120 0.634522 0.353065
Si Si5 0.534058 0.130056 0.978872
Si Si6 0.348666 0.131500 0.993915
Si Si7 0.559518 0.869691 0.143803
Si Si8 0.406895 0.867951 0.333930
O O1 0.061743 0.250000 0.451855
O O2 0.102732 0.408312 0.371738
O O3 0.061035 0.395958 0.659466
O O4 0.015224 0.401690 0.385168
O O5 0.532515 0.250000 0.352490
O O6 0.565177 0.396284 0.502133
O O7 0.547642 0.401152 0.165366
O O8 0.678453 0.572074 0.503001
O O9 0.666358 0.579485 0.836210
O O10 0.637535 0.425844 0.663189
O O11 0.750000 0.625555 0.349119
O O12 0.812302 0.750000 0.383522
O O13 0.821177 0.608626 0.172237
O O14 0.533879 0.250000 0.977596
O O15 0.485221 0.100283 0.939496
O O16 0.565784 0.101495 0.829757
O O17 0.347482 0.250000 0.018248
O O18 0.397554 0.100684 0.952594
O O19 0.559724 0.750000 0.140901
O O20 0.402044 0.750000 0.332724
#
# Coordination Sequence:
#
# PCOD9446283 Si02
#       8
#     8   8   8   8   8   8   8   8
#     4  10  17  30  51  77 111 149 187 230 280 332
#     4   9  17  31  52  72 102 150 198 241 284 323
#     4  12  23  35  58  85 112 148 190 229 271 330
#     4  10  22  41  64  91 122 145 162 201 266 343
#     4   9  16  30  49  68  98 147 197 240 283 317
#     4  10  20  35  56  85 116 146 179 216 269 336
#     4   9  15  28  50  72 107 150 182 225 278 323
#     4  10  22  38  52  74 109 151 199 247 283 308
#
# _framework density 18.995687
#
# number of rings (size 3 to 8) (size 9 to 14) (size 15 to 20)
#    0.000    2.125    2.500    1.875    0.000    4.000 
#    0.000    2.500    0.000    0.375    0.000    0.000 
#    0.000    0.000    0.000    0.000    0.000    0.000 
#
# Total GULP energy -357886.556067 kJ/mol
# GULP energy per Si atom -5591.977439 kJ/mol
# Density = 1.895245 g / cm^3
# Si number density = 18.995687 Si / 1000 Ang^3
#
#
#
# Elastic Constant Matrix: (Units=GPa)
#
#
# Indices 1 2 3 4 5 6 
#
# 1 57.5049 27.9767 40.3420 0.0000 0.0000 0.0000
# 2 27.9767 66.5404 38.2099 0.0000 0.0000 0.0000
# 3 40.3420 38.2099 151.2939 0.0000 0.0000 0.0000
# 4 0.0000 0.0000 0.0000 19.0947 0.0000 0.0000
# 5 0.0000 0.0000 0.0000 0.0000 9.1641 0.0000
# 6 0.0000 0.0000 0.0000 0.0000 0.0000 20.6615
#
#
#
# Elastic Compliance Matrix: (Units=1/GPa)
#
#
# Indices 1 2 3 4 5 6 
#
# 1 0.024280 -0.007592 -0.004557 0.000000 0.000000 0.000000
# 2 -0.007592 0.019951 -0.003014 0.000000 0.000000 0.000000
# 3 -0.004557 -0.003014 0.008586 0.000000 0.000000 0.000000
# 4 0.000000 0.000000 0.000000 0.052371 0.000000 0.000000
# 5 0.000000 0.000000 0.000000 0.000000 0.109121 0.000000
# 6 0.000000 0.000000 0.000000 0.000000 0.000000 0.048399
#
#
# Mechanical properties :
#
#
# Convention : Reuss Voigt Hill
#
# Bulk Modulus (GPa) = 44.46160 54.26626 49.36393
# Shear Modulus (GPa) = 16.63719 21.03812 18.83765
#
# Velocity S-wave (km/s) = 2.96267 3.33155 3.15251
# Velocity P-wave (km/s) = 5.92960 6.59005 6.26853
#
# Compressibility (1/GPa) = 0.02249132
#
# Stress axis : x y z
#
# Youngs Moduli (GPa) = 41.18593 50.12168 116.46795
#
# Poissons Ratio (x) = 0.38051 0.53073
# Poissons Ratio (y) = 0.31267 0.35109
# Poissons Ratio (z) = 0.18768 0.15109
#
# Static dielectric constant tensor:
#      x y z
#    x 1.609110 0.000000 0.000000 
#    y 0.000000 1.729460 0.000000 
#    z 0.000000 0.000000 1.664770 
# 
# From -- ./inp_files/13276.got.cif
#   From: 2010.05.17/outbox.cif.g08.bks.cpg/sg59_7_cif.got.tgz:13276.got - 2010.06.03 14:40:33.
