data_PCOD9446668
_publ_section_title
;
Structure prediction by ZEFSAII (Michael W. Deem and Ramdas Pophale) SiO2 
 PCOD9446668
Probable space group: P M M N
;
_chemical_formula_sum "Si O2"
_cell_formula_units_Z 64
_cell_length_a 9.365765
_cell_length_b 18.809569
_cell_length_c 20.027888
_cell_angle_alpha 90.000000
_cell_angle_beta 90.000000
_cell_angle_gamma 90.000000
_cell_volume 3528.232978
_symmetry_space_group_name_H-M "P M M N"
_symmetry_group_IT_number 59
_space_group.IT_coordinate_system_code '2'
_symmetry_cell_setting 'orthorhombic'
loop_
_space_group_symop_operation_xyz
x,y,z
1/2-x,1/2-y,z
1/2+x,-y,-z
-x,1/2+y,-z
-x,-y,-z
1/2+x,1/2+y,-z
1/2-x,y,z
x,1/2-y,z
loop_
_atom_site_type_symbol
_atom_site_label
_atom_site_fract_x
_atom_site_fract_y
_atom_site_fract_z
Si Si1 0.919850 0.429511 0.648452
Si Si2 0.913637 0.597839 0.953029
Si Si3 0.913000 0.169493 0.317422
Si Si4 0.581049 0.921970 0.582216
Si Si5 0.579265 0.332086 0.529277
Si Si6 0.584949 0.071669 0.918141
Si Si7 0.918387 0.954357 0.213470
Si Si8 0.413659 0.620124 0.826952
O O1 0.750000 0.433631 0.663833
O O2 0.953205 0.496390 0.599807
O O3 0.947344 0.359609 0.604413
O O4 0.008766 0.435586 0.716284
O O5 0.250000 0.381931 0.036226
O O6 0.982306 0.633858 0.888217
O O7 0.916805 0.513071 0.935592
O O8 0.006344 0.607968 0.019480
O O9 0.750000 0.143203 0.330002
O O10 0.921471 0.250000 0.342608
O O11 0.933872 0.167696 0.238115
O O12 0.028260 0.121456 0.353256
O O13 0.750000 0.916227 0.571857
O O14 0.498666 0.884952 0.521575
O O15 0.750000 0.336986 0.517754
O O16 0.536160 0.250000 0.519945
O O17 0.750000 0.092881 0.911965
O O18 0.499453 0.080838 0.849229
O O19 0.750000 0.937642 0.213668
O O20 0.931717 0.039292 0.200122
O O21 0.250000 0.626372 0.850537
#
# Coordination Sequence:
#
# PCOD9446668 Si02
#       8
#     8   8   8   8   8   8   8   8
#     4  10  21  36  54  78 105 135 170 210 258 310
#     4   9  16  25  40  63  92 129 168 207 251 300
#     4  10  20  34  51  71  99 138 180 217 256 309
#     4  11  22  35  54  79 106 133 166 212 261 309
#     4  10  22  40  59  77 101 135 173 211 253 307
#     4   9  16  26  41  64  97 132 165 205 251 300
#     4  10  18  29  48  73 101 132 167 209 254 303
#     4   9  17  29  44  65  94 130 170 211 253 299
#
# _framework density 18.139392000000001
#
# number of rings (size 3 to 8) (size 9 to 14) (size 15 to 20)
#    0.000    2.250    1.250    2.250    0.000    7.000 
#    0.000    0.000    0.000    0.000    0.000    0.875 
#    0.000    7.000    0.000    0.000    0.000    0.000 
#
# Total GULP energy -357025.394187 kJ/mol
# GULP energy per Si atom -5578.521784 kJ/mol
# Density = 1.809811 g / cm^3
# Si number density = 18.139392 Si / 1000 Ang^3
#
#
#
# Elastic Constant Matrix: (Units=GPa)
#
#
# Indices 1 2 3 4 5 6 
#
# 1 89.7360 20.2226 73.8689 0.0000 0.0000 0.0000
# 2 20.2226 23.2395 26.6986 0.0000 0.0000 0.0000
# 3 73.8689 26.6986 122.4177 0.0000 0.0000 0.0000
# 4 0.0000 0.0000 0.0000 -1.6103 0.0000 0.0000
# 5 0.0000 0.0000 0.0000 0.0000 38.7286 0.0000
# 6 0.0000 0.0000 0.0000 0.0000 0.0000 11.5762
#
#
#
# Elastic Compliance Matrix: (Units=1/GPa)
#
#
# Indices 1 2 3 4 5 6 
#
# 1 0.022629 -0.005343 -0.012489 0.000000 0.000000 0.000000
# 2 -0.005343 0.058678 -0.009573 0.000000 0.000000 0.000000
# 3 -0.012489 -0.009573 0.017793 0.000000 0.000000 0.000000
# 4 0.000000 0.000000 0.000000 -0.621020 0.000000 0.000000
# 5 0.000000 0.000000 0.000000 0.000000 0.025821 0.000000
# 6 0.000000 0.000000 0.000000 0.000000 0.000000 0.086384
#
#
# Mechanical properties :
#
#
# Convention : Reuss Voigt Hill
#
# Bulk Modulus (GPa) = 22.57923 52.99704 37.78813
# Shear Modulus (GPa) = -14.69975 17.37913 1.33969
#
# Velocity S-wave (km/s) = -2.84980 3.09866 0.86032
# Velocity P-wave (km/s) = 1.28303 6.48708 4.67592
#
# Compressibility (1/GPa) = 0.04428849
#
# Stress axis : x y z
#
# Youngs Moduli (GPa) = 44.19138 17.04223 56.20203
#
# Poissons Ratio (x) = 0.09105 0.70193
# Poissons Ratio (y) = 0.23611 0.53804
# Poissons Ratio (z) = 0.55192 0.16315
#
# Static dielectric constant tensor:
#      x y z
#    x 1.611530 0.000000 0.000000 
#    y 0.000000 1.612700 0.000000 
#    z 0.000000 0.000000 1.617970 
# 
# From -- ./inp_files/29352.got.cif
#   From: 2010.05.17/outbox.cif.g08.bks.cpg/sg59_15_cif.got.tgz:29352.got - 2010.06.03 14:40:33.
