data_PCOD9446198
_publ_section_title
;
Structure prediction by ZEFSAII (Michael W. Deem and Ramdas Pophale) SiO2 
 PCOD9446198
Probable space group: P M M N
;
_chemical_formula_sum "Si O2"
_cell_formula_units_Z 56
_cell_length_a 9.234811
_cell_length_b 22.008569
_cell_length_c 17.966791
_cell_angle_alpha 90.000000
_cell_angle_beta 90.000000
_cell_angle_gamma 90.000000
_cell_volume 3651.659989
_symmetry_space_group_name_H-M "P M M N"
_symmetry_group_IT_number 59
_space_group.IT_coordinate_system_code '2'
_symmetry_cell_setting 'orthorhombic'
loop_
_space_group_symop_operation_xyz
x,y,z
1/2-x,1/2-y,z
1/2+x,-y,-z
-x,1/2+y,-z
-x,-y,-z
1/2+x,1/2+y,-z
1/2-x,y,z
x,1/2-y,z
loop_
_atom_site_type_symbol
_atom_site_label
_atom_site_fract_x
_atom_site_fract_y
_atom_site_fract_z
Si Si1 0.579386 0.892699 0.700875
Si Si2 0.416512 0.584761 0.553953
Si Si3 0.421261 0.455639 0.894259
Si Si4 0.921317 0.464692 0.739670
Si Si5 0.420938 0.909612 0.962440
Si Si6 0.077513 0.321847 0.150779
Si Si7 0.082857 0.060078 0.591359
O O1 0.750000 0.884523 0.684778
O O2 0.489246 0.884629 0.625629
O O3 0.537267 0.848900 0.768460
O O4 0.560645 0.962371 0.728361
O O5 0.250000 0.602832 0.544337
O O6 0.418245 0.512194 0.571862
O O7 0.506780 0.592446 0.478368
O O8 0.250000 0.443322 0.889759
O O9 0.498943 0.446834 0.815486
O O10 0.439401 0.526238 0.918883
O O11 0.496396 0.417156 0.959514
O O12 0.750000 0.452484 0.743161
O O13 0.993899 0.434067 0.667586
O O14 0.250000 0.900511 0.974151
O O15 0.490022 0.857434 0.912089
O O16 0.250000 0.333708 0.141177
O O17 0.053632 0.250000 0.147904
O O18 0.250000 0.078190 0.599947
#
# Coordination Sequence:
#
# PCOD9446198 Si02
#       7
#     8   8   8   8   8   8   8
#     4   9  17  28  42  60  84 116 151 186 225 268
#     4   9  16  25  38  56  80 112 148 182 215 256
#     4  10  19  30  46  66  90 119 152 189 231 282
#     4  10  17  26  42  63  89 118 150 186 224 270
#     4  10  20  32  47  66  89 117 152 192 235 279
#     4  10  20  34  50  67  90 121 157 195 234 277
#     4   9  16  25  37  56  84 115 146 178 215 259
#
# _framework density 15.335492
#
# number of rings (size 3 to 8) (size 9 to 14) (size 15 to 20)
#    0.000    2.429    1.429    2.143    0.000    6.000 
#    0.000    0.000    0.000    0.000    0.000    0.000 
#    0.000    1.143    0.000    6.857    0.000    5.286 
#
# Total GULP energy -312220.214865 kJ/mol
# GULP energy per Si atom -5575.360980 kJ/mol
# Density = 1.530059 g / cm^3
# Si number density = 15.335492 Si / 1000 Ang^3
#
#
#
# Elastic Constant Matrix: (Units=GPa)
#
#
# Indices 1 2 3 4 5 6 
#
# 1 122.3794 37.5590 105.5482 0.0000 0.0000 0.0000
# 2 37.5590 36.0083 37.9508 0.0000 0.0000 0.0000
# 3 105.5482 37.9508 167.3549 0.0000 0.0000 0.0000
# 4 0.0000 0.0000 0.0000 9.5716 0.0000 0.0000
# 5 0.0000 0.0000 0.0000 0.0000 34.8638 0.0000
# 6 0.0000 0.0000 0.0000 0.0000 0.0000 12.7400
#
#
#
# Elastic Compliance Matrix: (Units=1/GPa)
#
#
# Indices 1 2 3 4 5 6 
#
# 1 0.020392 -0.010139 -0.010562 0.000000 0.000000 0.000000
# 2 -0.010139 0.041534 -0.003024 0.000000 0.000000 0.000000
# 3 -0.010562 -0.003024 0.013322 0.000000 0.000000 0.000000
# 4 0.000000 0.000000 0.000000 0.104475 0.000000 0.000000
# 5 0.000000 0.000000 0.000000 0.000000 0.028683 0.000000
# 6 0.000000 0.000000 0.000000 0.000000 0.000000 0.078493
#
#
# Mechanical properties :
#
#
# Convention : Reuss Voigt Hill
#
# Bulk Modulus (GPa) = 35.97271 76.42871 56.20071
# Shear Modulus (GPa) = 14.55109 21.08071 17.81590
#
# Velocity S-wave (km/s) = 3.08368 3.71163 3.41213
# Velocity P-wave (km/s) = 6.01555 8.26524 7.22846
#
# Compressibility (1/GPa) = 0.02779885
#
# Stress axis : x y z
#
# Youngs Moduli (GPa) = 49.03808 24.07661 75.06148
#
# Poissons Ratio (x) = 0.24411 0.79280
# Poissons Ratio (y) = 0.49718 0.22700
# Poissons Ratio (z) = 0.51794 0.07281
#
# Static dielectric constant tensor:
#      x y z
#    x 1.511530 0.000000 0.000000 
#    y 0.000000 1.473540 0.000000 
#    z 0.000000 0.000000 1.498750 
# 
# From -- ./inp_files/26069.got.cif
#   From: 2010.05.17/outbox.cif.g08.bks.cpg/sg59_14_cif.got.tgz:26069.got - 2010.06.03 14:40:33.
