data_PCOD9446851
_publ_section_title
;
Structure prediction by ZEFSAII (Michael W. Deem and Ramdas Pophale) SiO2 
 PCOD9446851
Probable space group: P M M N
;
_chemical_formula_sum "Si O2"
_cell_formula_units_Z 56
_cell_length_a 8.728671
_cell_length_b 22.430676
_cell_length_c 15.282416
_cell_angle_alpha 90.000000
_cell_angle_beta 90.000000
_cell_angle_gamma 90.000000
_cell_volume 2992.144093
_symmetry_space_group_name_H-M "P M M N"
_symmetry_group_IT_number 59
_space_group.IT_coordinate_system_code '2'
_symmetry_cell_setting 'orthorhombic'
loop_
_space_group_symop_operation_xyz
x,y,z
1/2-x,1/2-y,z
1/2+x,-y,-z
-x,1/2+y,-z
-x,-y,-z
1/2+x,1/2+y,-z
1/2-x,y,z
x,1/2-y,z
loop_
_atom_site_type_symbol
_atom_site_label
_atom_site_fract_x
_atom_site_fract_y
_atom_site_fract_z
Si Si1 0.563450 0.082655 0.766486
Si Si2 0.933487 0.953646 0.700248
Si Si3 0.562465 0.319516 0.631637
Si Si4 0.926625 0.124461 0.453051
Si Si5 0.434287 0.561561 0.035472
Si Si6 0.424939 0.250000 0.182057
Si Si7 0.919224 0.250000 0.352880
Si Si8 0.067652 0.875351 0.859323
O O1 0.750000 0.082804 0.767490
O O2 0.517131 0.143275 0.717585
O O3 0.510757 0.077234 0.867066
O O4 0.517745 0.022487 0.714454
O O5 0.750000 0.951737 0.700328
O O6 0.992108 0.921761 0.611924
O O7 0.992566 0.916795 0.784736
O O8 0.750000 0.318109 0.626932
O O9 0.513232 0.250000 0.628569
O O10 0.510257 0.359690 0.549029
O O11 0.750000 0.104532 0.462378
O O12 0.925124 0.189652 0.407776
O O13 0.250000 0.557082 0.040002
O O14 0.500000 0.500000 0.000000
O O15 0.473852 0.606715 0.957991
O O16 0.250000 0.250000 0.153942
O O17 0.441395 0.250000 0.286709
O O18 0.511313 0.191138 0.153573
O O19 0.750000 0.250000 0.308010
O O20 0.250000 0.880342 0.848564
#
# Coordination Sequence:
#
# PCOD9446851 Si02
#       8
#     8   8   8   8   8   4   4   8
#     4   9  19  35  54  81 114 142 181 237 284 330
#     4  11  21  33  53  82 117 149 181 228 287 337
#     4   9  17  33  57  82 107 145 189 229 277 333
#     4  10  19  32  54  82 111 143 185 226 272 332
#     4  10  20  36  59  84 110 146 186 231 285 338
#     4  12  24  36  54  81 114 152 188 231 292 343
#     4  10  18  30  50  77 110 144 182 229 268 321
#     4  11  22  36  55  81 115 151 190 234 282 340
#
# _framework density 18.715675999999998
#
# number of rings (size 3 to 8) (size 9 to 14) (size 15 to 20)
#    0.000    1.857    3.571    1.500    0.000    1.143 
#    1.286    0.000    0.000    1.714    0.000    0.000 
#    0.000    0.000    0.000    0.000    0.000    0.000 
#
# Total GULP energy -312290.721334 kJ/mol
# GULP energy per Si atom -5576.620024 kJ/mol
# Density = 1.867308 g / cm^3
# Si number density = 18.715676 Si / 1000 Ang^3
#
#
#
# Elastic Constant Matrix: (Units=GPa)
#
#
# Indices 1 2 3 4 5 6 
#
# 1 15.0138 13.5896 20.4572 0.0000 0.0000 0.0000
# 2 13.5896 85.1914 58.2588 0.0000 0.0000 0.0000
# 3 20.4572 58.2588 143.9747 0.0000 0.0000 0.0000
# 4 0.0000 0.0000 0.0000 -23.8589 0.0000 0.0000
# 5 0.0000 0.0000 0.0000 0.0000 12.6990 0.0000
# 6 0.0000 0.0000 0.0000 0.0000 0.0000 -477.8849
#
#
#
# Elastic Compliance Matrix: (Units=1/GPa)
#
#
# Indices 1 2 3 4 5 6 
#
# 1 0.085843 -0.007400 -0.009203 0.000000 0.000000 0.000000
# 2 -0.007400 0.016867 -0.005774 0.000000 0.000000 0.000000
# 3 -0.009203 -0.005774 0.010590 0.000000 0.000000 0.000000
# 4 0.000000 0.000000 0.000000 -0.041913 0.000000 0.000000
# 5 0.000000 0.000000 0.000000 0.000000 0.078746 0.000000
# 6 0.000000 0.000000 0.000000 0.000000 0.000000 -0.002093
#
#
# Mechanical properties :
#
#
# Convention : Reuss Voigt Hill
#
# Bulk Modulus (GPa) = 14.58867 47.64346 31.11607
# Shear Modulus (GPa) = 23.18649 -87.68401 -32.24876
#
# Velocity S-wave (km/s) = 3.52359 -6.85217 -4.15551
# Velocity P-wave (km/s) = 4.93620 6.09027 2.52242
#
# Compressibility (1/GPa) = 0.06854633
#
# Stress axis : x y z
#
# Youngs Moduli (GPa) = 11.64917 59.28684 94.43200
#
# Poissons Ratio (x) = 0.43873 0.86905
# Poissons Ratio (y) = 0.08620 0.54523
# Poissons Ratio (z) = 0.10721 0.34231
#
# Static dielectric constant tensor:
#      x y z
#    x 1.663300 0.000000 0.000000 
#    y 0.000000 1.623800 0.000000 
#    z 0.000000 0.000000 1.702340 
# 
# From -- ./inp_files/21113.got.cif
#   From: 2010.05.17/outbox.cif.g08.bks.cpg/sg59_11_cif.got.tgz:21113.got - 2010.06.03 14:40:33.
