data_PCOD9446044
_publ_section_title
;
Structure prediction by ZEFSAII (Michael W. Deem and Ramdas Pophale) SiO2 
 PCOD9446044
Probable space group: P N N M
;
_chemical_formula_sum "Si O2"
_cell_formula_units_Z 56
_cell_length_a 21.000000
_cell_length_b 9.000000
_cell_length_c 15.000000
_cell_angle_alpha 90.000000
_cell_angle_beta 90.000000
_cell_angle_gamma 90.000000
_cell_volume 2835.000000
_symmetry_space_group_name_H-M "P N N M"
_symmetry_group_IT_number 58
_symmetry_cell_setting 'orthorhombic'
loop_
_space_group_symop_operation_xyz
x,y,z
-x,-y,z
1/2+x,1/2-y,1/2-z
1/2-x,1/2+y,1/2-z
-x,-y,-z
x,y,-z
1/2-x,1/2+y,1/2+z
1/2+x,1/2-y,1/2+z
loop_
_atom_site_type_symbol
_atom_site_label
_atom_site_fract_x
_atom_site_fract_y
_atom_site_fract_z
Si Si1 0.433132 0.700537 0.399017
Si Si2 0.617002 0.794614 0.782434
Si Si3 0.285092 0.390557 0.104393
Si Si4 0.500414 0.323818 0.104839
Si Si5 0.081913 0.845045 0.898726
Si Si6 0.349251 0.712821 0.898877
Si Si7 0.660645 0.116593 0.726491
O O1 0.417205 0.750198 0.500000
O O2 0.420377 0.523845 0.394090
O O3 0.509363 0.714778 0.388046
O O4 0.391217 0.786145 0.327320
O O5 0.671834 0.733555 0.847743
O O6 0.549876 0.758086 0.831500
O O7 0.619714 0.712902 0.686447
O O8 0.628260 0.965493 0.759673
O O9 0.326553 0.542169 0.106837
O O10 0.220286 0.409311 0.160658
O O11 0.272535 0.356864 0.000000
O O12 0.500000 0.500000 0.125833
O O13 0.574077 0.275554 0.113043
O O14 0.481876 0.306981 0.000000
O O15 0.103272 0.804703 0.000000
O O16 0.318331 0.799034 0.816651
O O17 0.334122 0.764801 0.000000
#
# Coordination Sequence:
#
# PCOD9446044 Si02
#       7
#     8   8   8   8   8   8   8
#     4   9  19  38  61  87 122 167 213 254 305 371
#     4  12  24  37  64  98 126 162 213 267 324 386
#     4  11  24  45  67  86 118 173 227 262 305 385
#     4  10  20  38  66  95 122 163 211 261 313 373
#     4   9  20  37  61  90 122 165 214 258 303 373
#     4  10  22  41  65  91 125 166 211 259 315 380
#     4  12  25  40  59  94 134 166 201 263 332 375
#
# _framework density 19.753086
#
# number of rings (size 3 to 8) (size 9 to 14) (size 15 to 20)
#    0.000    1.571    1.429    4.286    2.000    4.571 
#    0.000    3.571    0.000    0.000    0.000    0.000 
#    0.000    0.000    0.000    0.000    0.000    0.000 
#
# Total GULP energy -312987.633701 kJ/mol
# GULP energy per Si atom -5589.064888 kJ/mol
# Density = 1.970813 g / cm^3
# Si number density = 19.753086 Si / 1000 Ang^3
#
#
#
# Elastic Constant Matrix: (Units=GPa)
#
#
# Indices 1 2 3 4 5 6 
#
# 1 77.5914 29.8092 52.8261 0.0000 0.0000 0.0000
# 2 29.8092 62.6662 59.1735 0.0000 0.0000 0.0000
# 3 52.8261 59.1735 169.3288 0.0000 0.0000 0.0000
# 4 0.0000 0.0000 0.0000 11.2855 0.0000 0.0000
# 5 0.0000 0.0000 0.0000 0.0000 39.3853 0.0000
# 6 0.0000 0.0000 0.0000 0.0000 0.0000 13.1561
#
#
#
# Elastic Compliance Matrix: (Units=1/GPa)
#
#
# Indices 1 2 3 4 5 6 
#
# 1 0.017228 -0.004657 -0.003748 0.000000 0.000000 0.000000
# 2 -0.004657 0.025075 -0.007310 0.000000 0.000000 0.000000
# 3 -0.003748 -0.007310 0.009629 0.000000 0.000000 0.000000
# 4 0.000000 0.000000 0.000000 0.088609 0.000000 0.000000
# 5 0.000000 0.000000 0.000000 0.000000 0.025390 0.000000
# 6 0.000000 0.000000 0.000000 0.000000 0.000000 0.076010
#
#
# Mechanical properties :
#
#
# Convention : Reuss Voigt Hill
#
# Bulk Modulus (GPa) = 48.76935 65.91158 57.34046
# Shear Modulus (GPa) = 17.84401 23.95055 20.89728
#
# Velocity S-wave (km/s) = 3.00884 3.48587 3.25610
# Velocity P-wave (km/s) = 6.06745 7.04570 6.57479
#
# Compressibility (1/GPa) = 0.02050468
#
# Stress axis : x y z
#
# Youngs Moduli (GPa) = 58.04368 39.88000 103.84915
#
# Poissons Ratio (x) = 0.18571 0.38918
# Poissons Ratio (y) = 0.27029 0.75914
# Poissons Ratio (z) = 0.21752 0.29152
#
# Static dielectric constant tensor:
#      x y z
#    x 1.686410 0.000000 0.000000 
#    y 0.000000 1.677770 0.000000 
#    z 0.000000 0.000000 1.703310 
# 
# From -- ./inp_files/23232.got.cif
#   From: 2010.05.17/outbox.ucp.g08.bks.cvg/sg58_12_cif.got.tgz:23232.got - 2010.06.11 16:41:41.
