data_PCOD9446321
_publ_section_title
;
Structure prediction by ZEFSAII (Michael W. Deem and Ramdas Pophale) SiO2 
 PCOD9446321
Probable space group: P M M N
;
_chemical_formula_sum "Si O2"
_cell_formula_units_Z 48
_cell_length_a 7.346178
_cell_length_b 26.595067
_cell_length_c 12.580583
_cell_angle_alpha 90.000000
_cell_angle_beta 90.000000
_cell_angle_gamma 90.000000
_cell_volume 2457.894871
_symmetry_space_group_name_H-M "P M M N"
_symmetry_group_IT_number 59
_space_group.IT_coordinate_system_code '2'
_symmetry_cell_setting 'orthorhombic'
loop_
_space_group_symop_operation_xyz
x,y,z
1/2-x,1/2-y,z
1/2+x,-y,-z
-x,1/2+y,-z
-x,-y,-z
1/2+x,1/2+y,-z
1/2-x,y,z
x,1/2-y,z
loop_
_atom_site_type_symbol
_atom_site_label
_atom_site_fract_x
_atom_site_fract_y
_atom_site_fract_z
Si Si1 0.531768 0.942873 0.039450
Si Si2 0.029305 0.388898 0.167255
Si Si3 0.956607 0.921221 0.273785
Si Si4 0.527425 0.886232 0.488920
Si Si5 0.969360 0.530689 0.652654
Si Si6 0.027881 0.192546 0.332285
O O1 0.750000 0.938692 0.044837
O O2 0.460503 0.930241 0.157328
O O3 0.465172 0.904249 0.949358
O O4 0.500000 0.000000 0.000000
O O5 0.250000 0.386945 0.163429
O O6 0.983026 0.434570 0.246438
O O7 0.969933 0.338362 0.227276
O O8 0.750000 0.903262 0.256816
O O9 0.037169 0.886780 0.367392
O O10 0.951960 0.976157 0.328105
O O11 0.750000 0.886571 0.487496
O O12 0.471675 0.937312 0.550416
O O13 0.473066 0.840118 0.564669
O O14 0.750000 0.526109 0.649453
O O15 0.250000 0.192508 0.332134
O O16 0.967623 0.250000 0.334525
#
# Coordination Sequence:
#
# PCOD9446321 Si02
#       6
#     8   8   8   8   8   8
#     4  10  18  27  39  55  81 114 139 162 193 234
#     4   8  14  24  37  55  77 102 134 169 198 222
#     4  10  18  25  36  56  83 110 132 157 195 237
#     4   8  15  25  36  55  80 103 130 163 200 237
#     4   9  15  25  40  54  77 110 135 160 189 226
#     4   8  13  23  41  59  74  99 135 170 202 240
#
# _framework density 19.528905999999999
#
# number of rings (size 3 to 8) (size 9 to 14) (size 15 to 20)
#    0.000    3.167    1.667    2.500    0.000    0.000 
#    0.000    0.000    0.000    1.000    0.000    7.000 
#    0.000   24.000    0.000    3.000    0.000    3.333 
#
# Total GULP energy -267594.889636 kJ/mol
# GULP energy per Si atom -5574.893534 kJ/mol
# Density = 1.948446 g / cm^3
# Si number density = 19.528906 Si / 1000 Ang^3
#
#
#
# Elastic Constant Matrix: (Units=GPa)
#
#
# Indices 1 2 3 4 5 6 
#
# 1 74.4283 -1.3892 7.7403 0.0000 0.0000 0.0000
# 2 -1.3892 105.4728 76.9512 0.0000 0.0000 0.0000
# 3 7.7403 76.9512 210.7323 0.0000 0.0000 0.0000
# 4 0.0000 0.0000 0.0000 10.5538 0.0000 0.0000
# 5 0.0000 0.0000 0.0000 0.0000 -4.1571 0.0000
# 6 0.0000 0.0000 0.0000 0.0000 0.0000 7.0367
#
#
#
# Elastic Compliance Matrix: (Units=1/GPa)
#
#
# Indices 1 2 3 4 5 6 
#
# 1 0.013529 0.000737 -0.000766 0.000000 0.000000 0.000000
# 2 0.000737 0.012965 -0.004761 0.000000 0.000000 0.000000
# 3 -0.000766 -0.004761 0.006512 0.000000 0.000000 0.000000
# 4 0.000000 0.000000 0.000000 0.094753 0.000000 0.000000
# 5 0.000000 0.000000 0.000000 0.000000 -0.240555 0.000000
# 6 0.000000 0.000000 0.000000 0.000000 0.000000 0.142111
#
#
# Mechanical properties :
#
#
# Convention : Reuss Voigt Hill
#
# Bulk Modulus (GPa) = 42.68864 61.91532 52.30198
# Shear Modulus (GPa) = 107.05741 23.17543 65.11642
#
# Velocity S-wave (km/s) = 7.41208 3.44862 5.78066
# Velocity P-wave (km/s) = 9.75493 6.90149 8.44953
#
# Compressibility (1/GPa) = 0.02342544
#
# Stress axis : x y z
#
# Youngs Moduli (GPa) = 73.91428 77.13360 153.56021
#
# Poissons Ratio (x) = -0.05686 0.11764
# Poissons Ratio (y) = -0.05448 0.73113
# Poissons Ratio (z) = 0.05663 0.36725
#
# Static dielectric constant tensor:
#      x y z
#    x 1.897560 0.000000 0.000000 
#    y 0.000000 1.640370 0.000000 
#    z 0.000000 0.000000 1.731760 
# 
# From -- ./inp_files/14493.got.cif
#   From: 2010.05.17/outbox.cif.g08.bks.cpg/sg59_8_cif.got.tgz:14493.got - 2010.06.03 14:40:33.
