data_PCOD9446674
_publ_section_title
;
Structure prediction by ZEFSAII (Michael W. Deem and Ramdas Pophale) SiO2 
 PCOD9446674
Probable space group: P M M N
;
_chemical_formula_sum "Si O2"
_cell_formula_units_Z 64
_cell_length_a 19.517281
_cell_length_b 8.365132
_cell_length_c 22.423625
_cell_angle_alpha 90.000000
_cell_angle_beta 90.000000
_cell_angle_gamma 90.000000
_cell_volume 3660.984880
_symmetry_space_group_name_H-M "P M M N"
_symmetry_group_IT_number 59
_space_group.IT_coordinate_system_code '2'
_symmetry_cell_setting 'orthorhombic'
loop_
_space_group_symop_operation_xyz
x,y,z
1/2-x,1/2-y,z
1/2+x,-y,-z
-x,1/2+y,-z
-x,-y,-z
1/2+x,1/2+y,-z
1/2-x,y,z
x,1/2-y,z
loop_
_atom_site_type_symbol
_atom_site_label
_atom_site_fract_x
_atom_site_fract_y
_atom_site_fract_z
Si Si1 0.067958 0.945114 0.691840
Si Si2 0.576734 0.562212 0.512679
Si Si3 0.672664 0.442220 0.408161
Si Si4 0.114551 0.941307 0.230275
Si Si5 0.175403 0.941568 0.106606
Si Si6 0.420886 0.560163 0.357110
Si Si7 0.528388 0.941593 0.937190
Si Si8 0.527953 0.063591 0.184106
O O1 0.063730 0.750000 0.691750
O O2 0.130152 0.996144 0.649843
O O3 0.072978 0.000543 0.760864
O O4 0.997581 0.010153 0.663184
O O5 0.500000 0.500000 0.500000
O O6 0.576521 0.750000 0.502977
O O7 0.629372 0.485597 0.466424
O O8 0.595471 0.523757 0.580942
O O9 0.750000 0.504879 0.410231
O O10 0.675669 0.250000 0.404871
O O11 0.097725 0.750000 0.227636
O O12 0.168511 0.971112 0.177953
O O13 0.126947 0.977249 0.299720
O O14 0.048504 0.042360 0.210561
O O15 0.250000 0.001044 0.085850
O O16 0.173724 0.750000 0.098512
O O17 0.107003 0.008271 0.075734
O O18 0.419460 0.750000 0.367072
O O19 0.525959 0.750000 0.935383
O O20 0.480919 0.005486 0.882275
O O21 0.500000 0.000000 0.000000
O O22 0.545539 0.250000 0.177518
#
# Coordination Sequence:
#
# PCOD9446674 Si02
#       8
#     8   8   8   8   8   8   8   8
#     4   9  16  29  50  72  95 124 159 203 253 303
#     4  12  23  35  52  73  99 132 174 219 260 309
#     4  10  21  36  53  74 100 129 163 207 262 321
#     4   8  15  27  44  69  98 125 157 197 243 297
#     4   9  17  31  51  74 102 136 173 212 256 308
#     4  10  18  29  48  74 100 126 163 209 252 298
#     4  10  19  31  49  74 106 140 177 217 254 299
#     4   8  15  27  45  70  96 123 158 201 245 288
#
# _framework density 17.481635000000001
#
# number of rings (size 3 to 8) (size 9 to 14) (size 15 to 20)
#    0.000    2.500    1.250    1.875    0.000    1.500 
#    0.000    0.625    0.000    3.000    0.000    3.500 
#    0.000    0.000    0.000    0.000    0.000    0.000 
#
# Total GULP energy -356350.161371 kJ/mol
# GULP energy per Si atom -5567.971271 kJ/mol
# Density = 1.744185 g / cm^3
# Si number density = 17.481635 Si / 1000 Ang^3
#
#
#
# Elastic Constant Matrix: (Units=GPa)
#
#
# Indices 1 2 3 4 5 6 
#
# 1 90.9413 10.4427 60.8235 0.0000 0.0000 0.0000
# 2 10.4427 13.2755 6.4307 0.0000 0.0000 0.0000
# 3 60.8235 6.4307 151.5141 0.0000 0.0000 0.0000
# 4 0.0000 0.0000 0.0000 20.8141 0.0000 0.0000
# 5 0.0000 0.0000 0.0000 0.0000 14.6371 0.0000
# 6 0.0000 0.0000 0.0000 0.0000 0.0000 15.9196
#
#
#
# Elastic Compliance Matrix: (Units=1/GPa)
#
#
# Indices 1 2 3 4 5 6 
#
# 1 0.016189 -0.009787 -0.006083 0.000000 0.000000 0.000000
# 2 -0.009787 0.082825 0.000414 0.000000 0.000000 0.000000
# 3 -0.006083 0.000414 0.009025 0.000000 0.000000 0.000000
# 4 0.000000 0.000000 0.000000 0.048044 0.000000 0.000000
# 5 0.000000 0.000000 0.000000 0.000000 0.068320 0.000000
# 6 0.000000 0.000000 0.000000 0.000000 0.000000 0.062816
#
#
# Mechanical properties :
#
#
# Convention : Reuss Voigt Hill
#
# Bulk Modulus (GPa) = 12.96612 45.68054 29.32333
# Shear Modulus (GPa) = 14.54166 22.14310 18.34238
#
# Velocity S-wave (km/s) = 2.88727 3.56286 3.24271
# Velocity P-wave (km/s) = 4.30676 6.56602 5.55251
#
# Compressibility (1/GPa) = 0.07712407
#
# Stress axis : x y z
#
# Youngs Moduli (GPa) = 61.77170 12.07366 110.80872
#
# Poissons Ratio (x) = 0.11817 0.67409
# Poissons Ratio (y) = 0.60458 -0.04584
# Poissons Ratio (z) = 0.37578 -0.00499
#
# Static dielectric constant tensor:
#      x y z
#    x 1.583330 0.000000 0.000000 
#    y 0.000000 1.610210 0.000000 
#    z 0.000000 0.000000 1.624480 
# 
# From -- ./inp_files/32341.got.cif
#   From: 2010.05.17/outbox.cif.g08.bks.cpg/sg59_17_cif.got.tgz:32341.got - 2010.06.03 14:40:33.
