data_PCOD9446737
_publ_section_title
;
Structure prediction by ZEFSAII (Michael W. Deem and Ramdas Pophale) SiO2 
 PCOD9446737
Probable space group: P M M N
;
_chemical_formula_sum "Si O2"
_cell_formula_units_Z 64
_cell_length_a 8.696106
_cell_length_b 29.364267
_cell_length_c 16.058636
_cell_angle_alpha 90.000000
_cell_angle_beta 90.000000
_cell_angle_gamma 90.000000
_cell_volume 4100.649438
_symmetry_space_group_name_H-M "P M M N"
_symmetry_group_IT_number 59
_space_group.IT_coordinate_system_code '2'
_symmetry_cell_setting 'orthorhombic'
loop_
_space_group_symop_operation_xyz
x,y,z
1/2-x,1/2-y,z
1/2+x,-y,-z
-x,1/2+y,-z
-x,-y,-z
1/2+x,1/2+y,-z
1/2-x,y,z
x,1/2-y,z
loop_
_atom_site_type_symbol
_atom_site_label
_atom_site_fract_x
_atom_site_fract_y
_atom_site_fract_z
Si Si1 0.565991 0.548117 0.401723
Si Si2 0.562799 0.197719 0.501977
Si Si3 0.065956 0.449817 0.403385
Si Si4 0.072562 0.194743 0.997974
Si Si5 0.436390 0.859976 0.335982
Si Si6 0.063614 0.196885 0.182054
Si Si7 0.934595 0.142333 0.337601
Si Si8 0.565267 0.302429 0.823205
O O1 0.750000 0.546248 0.397370
O O2 0.521928 0.556534 0.498925
O O3 0.496687 0.499250 0.377956
O O4 0.502266 0.589756 0.348170
O O5 0.750000 0.198372 0.502169
O O6 0.510246 0.250000 0.503356
O O7 0.515415 0.170198 0.584128
O O8 0.514400 0.171836 0.418233
O O9 0.250000 0.449182 0.398019
O O10 0.995907 0.408518 0.351388
O O11 0.250000 0.180467 0.990452
O O12 0.070265 0.250000 0.000062
O O13 0.984537 0.181196 0.914639
O O14 0.013158 0.181246 0.089381
O O15 0.250000 0.862207 0.336189
O O16 0.487149 0.834628 0.251826
O O17 0.250000 0.195590 0.182655
O O18 0.018463 0.250000 0.194184
O O19 0.997786 0.166120 0.255018
O O20 0.750000 0.142043 0.335955
O O21 0.750000 0.301131 0.820144
O O22 0.510529 0.250000 0.811648
#
# Coordination Sequence:
#
# PCOD9446737 Si02
#       8
#     8   8   8   8   8   8   8   8
#     4  10  20  33  50  70  92 118 157 203 243 279
#     4   9  17  28  42  62  92 129 163 190 220 266
#     4  10  20  34  51  68  91 122 158 198 244 287
#     4   8  15  29  47  65  89 124 161 198 241 282
#     4  10  18  30  47  67  95 129 161 192 234 282
#     4   9  18  32  48  67  95 130 164 198 239 285
#     4  11  20  30  47  71  97 125 161 199 237 279
#     4   9  17  28  45  70  97 126 161 199 235 274
#
# _framework density 15.607284999999999
#
# number of rings (size 3 to 8) (size 9 to 14) (size 15 to 20)
#    0.000    2.500    1.250    2.625    0.000    4.250 
#    0.000    1.250    0.000    1.875    0.000    0.875 
#    0.000    0.000    0.000    0.000    0.000    0.000 
#
# Total GULP energy -356810.240058 kJ/mol
# GULP energy per Si atom -5575.160001 kJ/mol
# Density = 1.557176 g / cm^3
# Si number density = 15.607285 Si / 1000 Ang^3
#
#
#
# Elastic Constant Matrix: (Units=GPa)
#
#
# Indices 1 2 3 4 5 6 
#
# 1 21.2422 28.4182 30.9930 0.0000 0.0000 0.0000
# 2 28.4182 121.9995 78.6993 0.0000 0.0000 0.0000
# 3 30.9930 78.6993 142.4654 0.0000 0.0000 0.0000
# 4 0.0000 0.0000 0.0000 8.9664 0.0000 0.0000
# 5 0.0000 0.0000 0.0000 0.0000 22.7983 0.0000
# 6 0.0000 0.0000 0.0000 0.0000 0.0000 20.6659
#
#
#
# Elastic Compliance Matrix: (Units=1/GPa)
#
#
# Indices 1 2 3 4 5 6 
#
# 1 0.077673 -0.011175 -0.010725 0.000000 0.000000 0.000000
# 2 -0.011175 0.014342 -0.005492 0.000000 0.000000 0.000000
# 3 -0.010725 -0.005492 0.012386 0.000000 0.000000 0.000000
# 4 0.000000 0.000000 0.000000 0.111527 0.000000 0.000000
# 5 0.000000 0.000000 0.000000 0.000000 0.043863 0.000000
# 6 0.000000 0.000000 0.000000 0.000000 0.000000 0.048389
#
#
# Mechanical properties :
#
#
# Convention : Reuss Voigt Hill
#
# Bulk Modulus (GPa) = 20.15342 62.43644 41.29493
# Shear Modulus (GPa) = 13.17514 20.32592 16.75053
#
# Velocity S-wave (km/s) = 2.90861 3.61270 3.27960
# Velocity P-wave (km/s) = 4.92147 7.58246 6.39197
#
# Compressibility (1/GPa) = 0.04961938
#
# Stress axis : x y z
#
# Youngs Moduli (GPa) = 12.87446 69.72301 80.73565
#
# Poissons Ratio (x) = 0.77914 0.86585
# Poissons Ratio (y) = 0.14387 0.44339
# Poissons Ratio (z) = 0.13807 0.38291
#
# Static dielectric constant tensor:
#      x y z
#    x 1.527630 0.000000 0.000000 
#    y 0.000000 1.498550 0.000000 
#    z 0.000000 0.000000 1.519180 
# 
# From -- ./inp_files/21949.got.cif
#   From: 2010.05.17/outbox.cif.g08.bks.cpg/sg59_11_cif.got.tgz:21949.got - 2010.06.03 14:40:33.
