data_PCOD9446815
_publ_section_title
;
Structure prediction by ZEFSAII (Michael W. Deem and Ramdas Pophale) SiO2 
 PCOD9446815
Probable space group: P M M N
;
_chemical_formula_sum "Si O2"
_cell_formula_units_Z 64
_cell_length_a 15.047089
_cell_length_b 31.623794
_cell_length_c 7.114182
_cell_angle_alpha 90.000000
_cell_angle_beta 90.000000
_cell_angle_gamma 90.000000
_cell_volume 3385.255353
_symmetry_space_group_name_H-M "P M M N"
_symmetry_group_IT_number 59
_space_group.IT_coordinate_system_code '2'
_symmetry_cell_setting 'orthorhombic'
loop_
_space_group_symop_operation_xyz
x,y,z
1/2-x,1/2-y,z
1/2+x,-y,-z
-x,1/2+y,-z
-x,-y,-z
1/2+x,1/2+y,-z
1/2-x,y,z
x,1/2-y,z
loop_
_atom_site_type_symbol
_atom_site_label
_atom_site_fract_x
_atom_site_fract_y
_atom_site_fract_z
Si Si1 0.849031 0.340987 0.527488
Si Si2 0.895431 0.866961 0.704330
Si Si3 0.354458 0.144708 0.865491
Si Si4 0.853950 0.419767 0.814461
Si Si5 0.650407 0.570397 0.388656
Si Si6 0.461185 0.299873 0.584830
Si Si7 0.358191 0.979276 0.504123
Si Si8 0.089671 0.902799 0.770125
O O1 0.750000 0.322300 0.549293
O O2 0.858551 0.379660 0.675142
O O3 0.855679 0.364204 0.324754
O O4 0.934218 0.311533 0.563034
O O5 0.844401 0.899749 0.571395
O O6 0.911500 0.824454 0.584606
O O7 0.989729 0.889811 0.727332
O O8 0.859000 0.857775 0.910398
O O9 0.250000 0.150307 0.810433
O O10 0.388956 0.100653 0.772025
O O11 0.416803 0.180312 0.772680
O O12 0.750000 0.427449 0.856496
O O13 0.888964 0.459614 0.694662
O O14 0.898595 0.409126 0.009913
O O15 0.750000 0.560104 0.321420
O O16 0.607938 0.525901 0.445003
O O17 0.448954 0.250000 0.578093
O O18 0.250000 0.980511 0.492216
O O19 0.383339 0.945485 0.662830
#
# Coordination Sequence:
#
# PCOD9446815 Si02
#       8
#     8   8   8   8   8   8   8   8
#     4   9  18  33  54  80 110 145 180 211 253 316
#     4  10  21  36  55  77 103 138 175 217 271 327
#     4  10  21  39  61  80 103 140 182 223 274 331
#     4   9  16  28  48  73 103 141 182 218 252 296
#     4   9  19  36  54  73 101 136 177 224 268 314
#     4  10  22  39  58  83 111 134 167 220 274 326
#     4   9  18  31  48  73 104 140 183 225 262 304
#     4  10  18  30  49  74 108 145 181 219 259 306
#
# _framework density 18.905515999999999
#
# number of rings (size 3 to 8) (size 9 to 14) (size 15 to 20)
#    0.000    2.500    0.000    3.000    0.000    4.000 
#    0.000    5.000    0.000    0.000    0.000    3.500 
#    0.000    0.000    0.000    0.000    0.000    0.000 
#
# Total GULP energy -356822.825265 kJ/mol
# GULP energy per Si atom -5575.356645 kJ/mol
# Density = 1.886249 g / cm^3
# Si number density = 18.905516 Si / 1000 Ang^3
#
#
#
# Elastic Constant Matrix: (Units=GPa)
#
#
# Indices 1 2 3 4 5 6 
#
# 1 44.1072 -1.7642 -1.4876 0.0000 0.0000 0.0000
# 2 -1.7642 76.6609 4.8472 0.0000 0.0000 0.0000
# 3 -1.4876 4.8472 89.5359 0.0000 0.0000 0.0000
# 4 0.0000 0.0000 0.0000 7.8491 0.0000 0.0000
# 5 0.0000 0.0000 0.0000 0.0000 23.3615 0.0000
# 6 0.0000 0.0000 0.0000 0.0000 0.0000 10.3446
#
#
#
# Elastic Compliance Matrix: (Units=1/GPa)
#
#
# Indices 1 2 3 4 5 6 
#
# 1 0.022704 0.000500 0.000350 0.000000 0.000000 0.000000
# 2 0.000500 0.013100 -0.000701 0.000000 0.000000 0.000000
# 3 0.000350 -0.000701 0.011212 0.000000 0.000000 0.000000
# 4 0.000000 0.000000 0.000000 0.127404 0.000000 0.000000
# 5 0.000000 0.000000 0.000000 0.000000 0.042805 0.000000
# 6 0.000000 0.000000 0.000000 0.000000 0.000000 0.096669
#
#
# Mechanical properties :
#
#
# Convention : Reuss Voigt Hill
#
# Bulk Modulus (GPa) = 21.13461 23.72164 22.42812
# Shear Modulus (GPa) = 15.18061 22.22493 18.70277
#
# Velocity S-wave (km/s) = 2.83675 3.43239 3.14869
# Velocity P-wave (km/s) = 4.68326 5.31819 5.01079
#
# Compressibility (1/GPa) = 0.04731576
#
# Stress axis : x y z
#
# Youngs Moduli (GPa) = 44.04541 76.33415 89.18641
#
# Poissons Ratio (x) = -0.03819 -0.03123
# Poissons Ratio (y) = -0.02204 0.06251
# Poissons Ratio (z) = -0.01542 0.05350
#
# Static dielectric constant tensor:
#      x y z
#    x 1.706110 0.000000 0.000000 
#    y 0.000000 1.634030 0.000000 
#    z 0.000000 0.000000 1.645080 
# 
# From -- ./inp_files/3035.got.cif
#   From: 2010.05.17/outbox.cif.g08.bks.cpg/sg59_2_cif.got.tgz:3035.got - 2010.06.03 14:40:33.
