data_PCOD9446558
_publ_section_title
;
Structure prediction by ZEFSAII (Michael W. Deem and Ramdas Pophale) SiO2 
 PCOD9446558
Probable space group: P M M N
;
_chemical_formula_sum "Si O2"
_cell_formula_units_Z 64
_cell_length_a 8.332074
_cell_length_b 27.260738
_cell_length_c 17.948180
_cell_angle_alpha 90.000000
_cell_angle_beta 90.000000
_cell_angle_gamma 90.000000
_cell_volume 4076.722437
_symmetry_space_group_name_H-M "P M M N"
_symmetry_group_IT_number 59
_space_group.IT_coordinate_system_code '2'
_symmetry_cell_setting 'orthorhombic'
loop_
_space_group_symop_operation_xyz
x,y,z
1/2-x,1/2-y,z
1/2+x,-y,-z
-x,1/2+y,-z
-x,-y,-z
1/2+x,1/2+y,-z
1/2-x,y,z
x,1/2-y,z
loop_
_atom_site_type_symbol
_atom_site_label
_atom_site_fract_x
_atom_site_fract_y
_atom_site_fract_z
Si Si1 0.440343 0.606593 0.481505
Si Si2 0.062589 0.435182 0.662910
Si Si3 0.056541 0.444548 0.984764
Si Si4 0.944696 0.925088 0.855197
Si Si5 0.563637 0.535600 0.603436
Si Si6 0.060588 0.128671 0.287469
Si Si7 0.944705 0.963504 0.175651
Si Si8 0.057924 0.694911 0.584400
O O1 0.250000 0.603843 0.492647
O O2 0.479438 0.601472 0.394816
O O3 0.516147 0.560753 0.525890
O O4 0.501309 0.655975 0.522317
O O5 0.250000 0.423077 0.665629
O O6 0.998531 0.439536 0.747273
O O7 0.039257 0.489420 0.628314
O O8 0.250000 0.443072 0.984571
O O9 0.003933 0.435075 0.899821
O O10 0.003028 0.416053 0.059186
O O11 0.000000 0.500000 0.000000
O O12 0.750000 0.925123 0.852698
O O13 0.001172 0.885635 0.794405
O O14 0.998573 0.979976 0.831650
O O15 0.750000 0.520453 0.601676
O O16 0.543732 0.578913 0.663942
O O17 0.250000 0.139827 0.283068
O O18 0.979372 0.171213 0.335288
O O19 0.750000 0.964684 0.177832
O O20 0.250000 0.697222 0.576367
O O21 0.993174 0.750000 0.577069
#
# Coordination Sequence:
#
# PCOD9446558 Si02
#       8
#     8   8   8   8   8   8   8   8
#     4  10  20  32  45  60  78 102 134 169 209 252
#     4  11  20  28  39  57  84 113 143 174 203 237
#     4   8  14  24  37  53  76 108 142 172 199 227
#     4   9  15  25  40  58  82 109 140 173 201 234
#     4  10  18  29  42  57  82 111 141 171 203 240
#     4   9  17  27  42  65  86 108 137 169 205 245
#     4   9  17  26  37  55  80 113 147 174 201 231
#     4   9  19  35  51  64  79 101 130 167 211 257
#
# _framework density 15.698885000000001
#
# number of rings (size 3 to 8) (size 9 to 14) (size 15 to 20)
#    0.000    2.625    1.250    1.500    0.000    2.250 
#    0.000    0.000    0.000    0.000    0.000    0.000 
#    0.000    1.000    0.000   10.250    0.000    0.750 
#
# Total GULP energy -356385.029090 kJ/mol
# GULP energy per Si atom -5568.516080 kJ/mol
# Density = 1.566315 g / cm^3
# Si number density = 15.698885 Si / 1000 Ang^3
#
#
#
# Elastic Constant Matrix: (Units=GPa)
#
#
# Indices 1 2 3 4 5 6 
#
# 1 3.2610 2.4769 3.1078 0.0000 0.0000 0.0000
# 2 2.4769 49.1399 37.9223 0.0000 0.0000 0.0000
# 3 3.1078 37.9223 149.1389 0.0000 0.0000 0.0000
# 4 0.0000 0.0000 0.0000 10.3363 0.0000 0.0000
# 5 0.0000 0.0000 0.0000 0.0000 15.1575 0.0000
# 6 0.0000 0.0000 0.0000 0.0000 0.0000 11.2973
#
#
#
# Elastic Compliance Matrix: (Units=1/GPa)
#
#
# Indices 1 2 3 4 5 6 
#
# 1 0.320084 -0.013669 -0.003194 0.000000 0.000000 0.000000
# 2 -0.013669 0.025902 -0.006301 0.000000 0.000000 0.000000
# 3 -0.003194 -0.006301 0.008374 0.000000 0.000000 0.000000
# 4 0.000000 0.000000 0.000000 0.096746 0.000000 0.000000
# 5 0.000000 0.000000 0.000000 0.000000 0.065974 0.000000
# 6 0.000000 0.000000 0.000000 0.000000 0.000000 0.088516
#
#
# Mechanical properties :
#
#
# Convention : Reuss Voigt Hill
#
# Bulk Modulus (GPa) = 3.24643 32.06152 17.65397
# Shear Modulus (GPa) = 6.62601 17.89375 12.25988
#
# Velocity S-wave (km/s) = 2.05666 3.37977 2.79756
# Velocity P-wave (km/s) = 2.77709 5.97475 4.65885
#
# Compressibility (1/GPa) = 0.30803111
#
# Stress axis : x y z
#
# Youngs Moduli (GPa) = 3.12418 38.60716 119.41709
#
# Poissons Ratio (x) = 0.52770 0.38148
# Poissons Ratio (y) = 0.04270 0.75249
# Poissons Ratio (z) = 0.00998 0.24328
#
# Static dielectric constant tensor:
#      x y z
#    x 1.538750 0.000000 0.000000 
#    y 0.000000 1.493180 0.000000 
#    z 0.000000 0.000000 1.594840 
# 
# From -- ./inp_files/26613.got.cif
#   From: 2010.05.17/outbox.cif.g08.bks.cpg/sg59_14_cif.got.tgz:26613.got - 2010.06.03 14:40:33.
