data_PCOD9446195
_publ_section_title
;
Structure prediction by ZEFSAII (Michael W. Deem and Ramdas Pophale) SiO2 
 PCOD9446195
Probable space group: P M M N
;
_chemical_formula_sum "Si O2"
_cell_formula_units_Z 64
_cell_length_a 8.788510
_cell_length_b 27.111908
_cell_length_c 17.705591
_cell_angle_alpha 90.000000
_cell_angle_beta 90.000000
_cell_angle_gamma 90.000000
_cell_volume 4218.769146
_symmetry_space_group_name_H-M "P M M N"
_symmetry_group_IT_number 59
_space_group.IT_coordinate_system_code '2'
_symmetry_cell_setting 'orthorhombic'
loop_
_space_group_symop_operation_xyz
x,y,z
1/2-x,1/2-y,z
1/2+x,-y,-z
-x,1/2+y,-z
-x,-y,-z
1/2+x,1/2+y,-z
1/2-x,y,z
x,1/2-y,z
loop_
_atom_site_type_symbol
_atom_site_label
_atom_site_fract_x
_atom_site_fract_y
_atom_site_fract_z
Si Si1 0.925964 0.373623 0.718767
Si Si2 0.572911 0.037999 0.597240
Si Si3 0.068949 0.561732 0.661684
Si Si4 0.431501 0.428763 0.851982
Si Si5 0.066349 0.807573 0.417470
Si Si6 0.432980 0.037593 0.179411
Si Si7 0.932635 0.946027 0.984769
Si Si8 0.068672 0.110012 0.476077
O O1 0.750000 0.365015 0.739423
O O2 0.930829 0.421487 0.664054
O O3 0.979694 0.329425 0.664455
O O4 0.018987 0.387378 0.792811
O O5 0.750000 0.026453 0.581222
O O6 0.496076 0.064541 0.526097
O O7 0.486042 0.990120 0.625806
O O8 0.250000 0.564618 0.660867
O O9 0.006387 0.561234 0.746728
O O10 0.997572 0.603179 0.607548
O O11 0.250000 0.436161 0.847918
O O12 0.510305 0.480839 0.829519
O O13 0.474307 0.416575 0.939176
O O14 0.250000 0.814540 0.422455
O O15 0.032010 0.750000 0.424548
O O16 0.989824 0.841146 0.481369
O O17 0.250000 0.036842 0.187363
O O18 0.476971 0.065630 0.101396
O O19 0.750000 0.949154 0.983885
O O20 0.000000 0.000000 0.000000
O O21 0.250000 0.108399 0.475356
#
# Coordination Sequence:
#
# PCOD9446195 Si02
#       8
#     8   8   8   8   8   8   8   8
#     4   9  17  28  45  67  90 117 150 185 226 271
#     4  10  19  32  46  62  89 121 154 188 226 266
#     4  12  22  31  44  63  89 120 156 192 228 269
#     4  10  17  26  41  62  88 118 154 189 221 263
#     4   9  19  37  56  70  89 117 149 187 231 275
#     4  10  18  29  42  58  85 121 157 192 229 264
#     4   8  16  27  39  56  81 116 154 188 221 258
#     4  11  22  34  48  67  90 116 149 186 227 275
#
# _framework density 15.170302
#
# number of rings (size 3 to 8) (size 9 to 14) (size 15 to 20)
#    0.000    2.125    1.250    4.500    0.000    3.250 
#    0.000    0.000    0.000    0.000    0.000    0.000 
#    0.000    1.000    0.000    8.000    0.000    2.625 
#
# Total GULP energy -356783.727360 kJ/mol
# GULP energy per Si atom -5574.745740 kJ/mol
# Density = 1.513577 g / cm^3
# Si number density = 15.170302 Si / 1000 Ang^3
#
#
#
# Elastic Constant Matrix: (Units=GPa)
#
#
# Indices 1 2 3 4 5 6 
#
# 1 76.1981 24.6161 57.0323 0.0000 0.0000 0.0000
# 2 24.6161 46.5136 45.7020 0.0000 0.0000 0.0000
# 3 57.0323 45.7020 155.7530 0.0000 0.0000 0.0000
# 4 0.0000 0.0000 0.0000 10.9186 0.0000 0.0000
# 5 0.0000 0.0000 0.0000 0.0000 23.1683 0.0000
# 6 0.0000 0.0000 0.0000 0.0000 0.0000 14.0544
#
#
#
# Elastic Compliance Matrix: (Units=1/GPa)
#
#
# Indices 1 2 3 4 5 6 
#
# 1 0.018713 -0.004455 -0.005545 0.000000 0.000000 0.000000
# 2 -0.004455 0.031269 -0.007544 0.000000 0.000000 0.000000
# 3 -0.005545 -0.007544 0.010664 0.000000 0.000000 0.000000
# 4 0.000000 0.000000 0.000000 0.091587 0.000000 0.000000
# 5 0.000000 0.000000 0.000000 0.000000 0.043162 0.000000
# 6 0.000000 0.000000 0.000000 0.000000 0.000000 0.071152
#
#
# Mechanical properties :
#
#
# Convention : Reuss Voigt Hill
#
# Bulk Modulus (GPa) = 39.12570 59.24061 49.18315
# Shear Modulus (GPa) = 16.12093 19.70254 17.91173
#
# Velocity S-wave (km/s) = 3.26339 3.60774 3.43987
# Velocity P-wave (km/s) = 6.32824 7.51595 6.94752
#
# Compressibility (1/GPa) = 0.02555865
#
# Stress axis : x y z
#
# Youngs Moduli (GPa) = 53.43804 31.98054 93.77033
#
# Poissons Ratio (x) = 0.14248 0.51995
# Poissons Ratio (y) = 0.23808 0.70738
# Poissons Ratio (z) = 0.29631 0.24125
#
# Static dielectric constant tensor:
#      x y z
#    x 1.510090 0.000000 0.000000 
#    y 0.000000 1.472940 0.000000 
#    z 0.000000 0.000000 1.552170 
# 
# From -- ./inp_files/26598.got.cif
#   From: 2010.05.17/outbox.cif.g08.bks.cpg/sg59_14_cif.got.tgz:26598.got - 2010.06.03 14:40:33.
