data_PCOD9446004
_publ_section_title
;
Structure prediction by ZEFSAII (Michael W. Deem and Ramdas Pophale) SiO2 
 PCOD9446004
Probable space group: P N N M
;
_chemical_formula_sum "Si O2"
_cell_formula_units_Z 64
_cell_length_a 12.000000
_cell_length_b 30.000000
_cell_length_c 9.000000
_cell_angle_alpha 90.000000
_cell_angle_beta 90.000000
_cell_angle_gamma 90.000000
_cell_volume 3240.000000
_symmetry_space_group_name_H-M "P N N M"
_symmetry_group_IT_number 58
_symmetry_cell_setting 'orthorhombic'
loop_
_space_group_symop_operation_xyz
x,y,z
-x,-y,z
1/2+x,1/2-y,1/2-z
1/2-x,1/2+y,1/2-z
-x,-y,-z
x,y,-z
1/2-x,1/2+y,1/2+z
1/2+x,1/2-y,1/2+z
loop_
_atom_site_type_symbol
_atom_site_label
_atom_site_fract_x
_atom_site_fract_y
_atom_site_fract_z
Si Si1 0.739644 0.907365 0.827390
Si Si2 0.010429 0.102256 0.176172
Si Si3 0.750614 0.214016 0.172006
Si Si4 0.968813 0.194214 0.674156
Si Si5 0.879756 0.026509 0.678888
Si Si6 0.129540 0.513044 0.822102
Si Si7 0.294789 0.182080 0.333083
Si Si8 0.041623 0.284460 0.831144
O O1 0.655848 0.936676 0.730443
O O2 0.734475 0.855557 0.783479
O O3 0.868760 0.920855 0.802292
O O4 0.714085 0.913732 0.000000
O O5 0.015802 0.147775 0.268776
O O6 0.909993 0.072312 0.237026
O O7 0.998438 0.111105 0.000000
O O8 0.838576 0.193884 0.285384
O O9 0.749984 0.267896 0.193249
O O10 0.630344 0.196539 0.216523
O O11 0.780711 0.206030 0.000000
O O12 0.989085 0.201801 0.500000
O O13 0.012240 0.235118 0.773168
O O14 0.875939 0.031622 0.500000
O O15 0.751513 0.010618 0.722391
O O16 0.000000 0.000000 0.706205
O O17 0.000000 0.500000 0.773180
O O18 0.127441 0.509668 0.000000
O O19 0.259181 0.168535 0.500000
O O20 0.427613 0.188427 0.331991
O O21 0.084904 0.282344 0.000000
#
# Coordination Sequence:
#
# PCOD9446004 Si02
#       8
#     8   8   8   8   8   8   8   8
#     4  11  23  37  59  89 119 152 196 247 293 350
#     4  11  23  38  59  89 122 154 195 250 303 354
#     4  10  20  36  57  82 114 153 196 245 300 357
#     4  11  22  36  56  83 115 154 198 247 299 353
#     4  10  20  38  65  93 118 152 197 241 294 366
#     4  10  22  42  66  90 119 156 193 240 301 365
#     4   9  20  36  55  80 112 151 193 237 287 347
#     4  10  20  36  56  80 113 154 198 244 296 357
#
# _framework density 19.753086
#
# number of rings (size 3 to 8) (size 9 to 14) (size 15 to 20)
#    0.000    1.750    1.250    4.125    0.000    7.500 
#    2.250    0.000    0.000    0.000    0.000    0.000 
#    0.000    0.000    0.000    0.000    0.000    0.000 
#
# Total GULP energy -356538.755445 kJ/mol
# GULP energy per Si atom -5570.918054 kJ/mol
# Density = 1.970813 g / cm^3
# Si number density = 19.753086 Si / 1000 Ang^3
#
#
#
# Elastic Constant Matrix: (Units=GPa)
#
#
# Indices 1 2 3 4 5 6 
#
# 1 108.0440 13.6749 21.7325 0.0000 0.0000 0.0000
# 2 13.6749 36.0180 24.2612 0.0000 0.0000 0.0000
# 3 21.7325 24.2612 24.9710 0.0000 0.0000 0.0000
# 4 0.0000 0.0000 0.0000 24.3867 0.0000 0.0000
# 5 0.0000 0.0000 0.0000 0.0000 26.9242 0.0000
# 6 0.0000 0.0000 0.0000 0.0000 0.0000 -3.6359
#
#
#
# Elastic Compliance Matrix: (Units=1/GPa)
#
#
# Indices 1 2 3 4 5 6 
#
# 1 0.011809 0.007059 -0.017135 0.000000 0.000000 0.000000
# 2 0.007059 0.084564 -0.088303 0.000000 0.000000 0.000000
# 3 -0.017135 -0.088303 0.140752 0.000000 0.000000 0.000000
# 4 0.000000 0.000000 0.000000 0.041006 0.000000 0.000000
# 5 0.000000 0.000000 0.000000 0.000000 0.037141 0.000000
# 6 0.000000 0.000000 0.000000 0.000000 0.000000 -0.275035
#
#
# Mechanical properties :
#
#
# Convention : Reuss Voigt Hill
#
# Bulk Modulus (GPa) = 24.77369 32.04114 28.40742
# Shear Modulus (GPa) = 19.96393 16.82595 18.39494
#
# Velocity S-wave (km/s) = 3.18256 2.92175 3.05494
# Velocity P-wave (km/s) = 5.10625 5.25721 5.18228
#
# Compressibility (1/GPa) = 0.04036541
#
# Stress axis : x y z
#
# Youngs Moduli (GPa) = 84.68299 11.82542 7.10468
#
# Poissons Ratio (x) = -0.08347 0.12174
# Poissons Ratio (y) = -0.59774 0.62736
# Poissons Ratio (z) = 1.45106 1.04422
#
# Static dielectric constant tensor:
#      x y z
#    x 1.779740 0.000000 0.000000 
#    y 0.000000 1.704770 0.000000 
#    z 0.000000 0.000000 1.651210 
# 
# From -- ./inp_files/4656.got.cif
#   From: 2010.05.17/outbox.ucp.g08.bks.cvg/sg58_3_cif.got.tgz:4656.got - 2010.06.11 16:41:41.
