data_PCOD9446989
_publ_section_title
;
Structure prediction by ZEFSAII (Michael W. Deem and Ramdas Pophale) SiO2 
 PCOD9446989
Probable space group: P M M N
;
_chemical_formula_sum "Si O2"
_cell_formula_units_Z 56
_cell_length_a 8.198619
_cell_length_b 21.430471
_cell_length_c 14.256349
_cell_angle_alpha 90.000000
_cell_angle_beta 90.000000
_cell_angle_gamma 90.000000
_cell_volume 2504.844322
_symmetry_space_group_name_H-M "P M M N"
_symmetry_group_IT_number 59
_space_group.IT_coordinate_system_code '2'
_symmetry_cell_setting 'orthorhombic'
loop_
_space_group_symop_operation_xyz
x,y,z
1/2-x,1/2-y,z
1/2+x,-y,-z
-x,1/2+y,-z
-x,-y,-z
1/2+x,1/2+y,-z
1/2-x,y,z
x,1/2-y,z
loop_
_atom_site_type_symbol
_atom_site_label
_atom_site_fract_x
_atom_site_fract_y
_atom_site_fract_z
Si Si1 0.439376 0.356141 0.637365
Si Si2 0.550035 0.680061 0.156875
Si Si3 0.064830 0.176679 0.435629
Si Si4 0.441337 0.680730 0.773448
Si Si5 0.063402 0.451537 0.922200
Si Si6 0.058800 0.513798 0.396114
Si Si7 0.561829 0.950186 0.786311
O O1 0.250000 0.336461 0.629373
O O2 0.503774 0.326713 0.733675
O O3 0.512904 0.345598 0.533513
O O4 0.455885 0.429938 0.646531
O O5 0.750000 0.677376 0.158214
O O6 0.504573 0.750000 0.122947
O O7 0.492358 0.617805 0.100608
O O8 0.250000 0.149840 0.424139
O O9 0.083378 0.250000 0.451184
O O10 0.968586 0.172973 0.338400
O O11 0.250000 0.679428 0.793797
O O12 0.506583 0.750000 0.798572
O O13 0.521903 0.619753 0.818565
O O14 0.250000 0.439740 0.946052
O O15 0.044560 0.495661 0.831750
O O16 0.000000 0.500000 0.000000
O O17 0.250000 0.530552 0.396652
O O18 0.039714 0.456269 0.325563
O O19 0.000000 0.500000 0.500000
O O20 0.750000 0.964531 0.807614
#
# Coordination Sequence:
#
# PCOD9446989 Si02
#       7
#     8   8   8   8   8   8   8
#     4  10  18  31  52  80 114 153 201 250 302 359
#     4   9  18  35  62  94 123 154 197 248 304 369
#     4   9  17  29  47  74 111 155 200 246 296 353
#     4  10  21  36  55  81 115 156 203 255 308 361
#     4  11  23  42  69  96 124 160 200 252 313 377
#     4  11  23  35  51  79 119 162 207 254 299 355
#     4  11  23  40  61  86 118 157 204 253 302 364
#
# _framework density 22.356679
#
# number of rings (size 3 to 8) (size 9 to 14) (size 15 to 20)
#    0.000    1.857    1.429    3.000    0.000    8.286 
#    0.000    0.714    0.000    7.286    0.000    0.000 
#    0.000    0.000    0.000    0.000    0.000    0.000 
#
# Total GULP energy -312178.216367 kJ/mol
# GULP energy per Si atom -5574.611007 kJ/mol
# Density = 2.230579 g / cm^3
# Si number density = 22.356679 Si / 1000 Ang^3
#
#
#
# Elastic Constant Matrix: (Units=GPa)
#
#
# Indices 1 2 3 4 5 6 
#
# 1 17.3443 -2.7716 -4.1663 0.0000 0.0000 0.0000
# 2 -2.7716 155.0018 21.7726 0.0000 0.0000 0.0000
# 3 -4.1663 21.7726 45.5503 0.0000 0.0000 0.0000
# 4 0.0000 0.0000 0.0000 20.8147 0.0000 0.0000
# 5 0.0000 0.0000 0.0000 0.0000 16.0177 0.0000
# 6 0.0000 0.0000 0.0000 0.0000 0.0000 20.8310
#
#
#
# Elastic Compliance Matrix: (Units=1/GPa)
#
#
# Indices 1 2 3 4 5 6 
#
# 1 0.058966 0.000318 0.005241 0.000000 0.000000 0.000000
# 2 0.000318 0.006918 -0.003277 0.000000 0.000000 0.000000
# 3 0.005241 -0.003277 0.024000 0.000000 0.000000 0.000000
# 4 0.000000 0.000000 0.000000 0.048043 0.000000 0.000000
# 5 0.000000 0.000000 0.000000 0.000000 0.062431 0.000000
# 6 0.000000 0.000000 0.000000 0.000000 0.000000 0.048005
#
#
# Mechanical properties :
#
#
# Convention : Reuss Voigt Hill
#
# Bulk Modulus (GPa) = 10.58797 27.50734 19.04766
# Shear Modulus (GPa) = 18.16329 25.07013 21.61671
#
# Velocity S-wave (km/s) = 2.85341 3.35232 3.11288
# Velocity P-wave (km/s) = 3.94996 5.22634 4.63232
#
# Compressibility (1/GPa) = 0.09444678
#
# Stress axis : x y z
#
# Youngs Moduli (GPa) = 16.95904 144.55883 41.66715
#
# Poissons Ratio (x) = -0.04599 -0.21839
# Poissons Ratio (y) = -0.00540 0.13656
# Poissons Ratio (z) = -0.08889 0.47378
#
# Static dielectric constant tensor:
#      x y z
#    x 1.803240 0.000000 0.000000 
#    y 0.000000 1.869990 0.000000 
#    z 0.000000 0.000000 1.923720 
# 
# From -- ./inp_files/21061.got.cif
#   From: 2010.05.17/outbox.cif.g08.bks.cpg/sg59_11_cif.got.tgz:21061.got - 2010.06.03 14:40:33.
