data_PCOD9446235
_publ_section_title
;
Structure prediction by ZEFSAII (Michael W. Deem and Ramdas Pophale) SiO2 
 PCOD9446235
Probable space group: P M M N
;
_chemical_formula_sum "Si O2"
_cell_formula_units_Z 56
_cell_length_a 7.642006
_cell_length_b 26.859656
_cell_length_c 15.250311
_cell_angle_alpha 90.000000
_cell_angle_beta 90.000000
_cell_angle_gamma 90.000000
_cell_volume 3130.304034
_symmetry_space_group_name_H-M "P M M N"
_symmetry_group_IT_number 59
_space_group.IT_coordinate_system_code '2'
_symmetry_cell_setting 'orthorhombic'
loop_
_space_group_symop_operation_xyz
x,y,z
1/2-x,1/2-y,z
1/2+x,-y,-z
-x,1/2+y,-z
-x,-y,-z
1/2+x,1/2+y,-z
1/2-x,y,z
x,1/2-y,z
loop_
_atom_site_type_symbol
_atom_site_label
_atom_site_fract_x
_atom_site_fract_y
_atom_site_fract_z
Si Si1 0.458477 0.884830 0.258105
Si Si2 0.043140 0.043345 0.378667
Si Si3 0.038641 0.933069 0.431452
Si Si4 0.048113 0.470114 0.877460
Si Si5 0.034846 0.390829 0.015509
Si Si6 0.539778 0.693823 0.118601
Si Si7 0.949452 0.925576 0.805294
O O1 0.250000 0.892404 0.254797
O O2 0.514991 0.893167 0.358313
O O3 0.539950 0.928284 0.198442
O O4 0.499220 0.833140 0.210547
O O5 0.250000 0.036881 0.361767
O O6 0.968328 0.068416 0.290972
O O7 0.021200 0.073232 0.468843
O O8 0.974410 0.987563 0.398171
O O9 0.250000 0.934633 0.434376
O O10 0.250000 0.484254 0.890891
O O11 0.948198 0.518565 0.845206
O O12 0.980914 0.440754 0.962919
O O13 0.250000 0.391526 0.015125
O O14 0.973170 0.393025 0.115624
O O15 0.977517 0.343557 0.958123
O O16 0.750000 0.695550 0.110857
O O17 0.472399 0.750000 0.112928
O O18 0.750000 0.907773 0.793494
#
# Coordination Sequence:
#
# PCOD9446235 Si02
#       7
#     8   8   8   8   8   8   8
#     4  10  18  30  47  66  89 117 151 185 221 265
#     4   9  17  27  40  59  84 118 154 184 215 250
#     4   9  17  29  41  59  85 115 150 185 219 253
#     4  10  18  27  40  62  89 119 152 179 215 259
#     4   8  16  28  43  62  85 116 147 177 216 262
#     4   9  18  33  50  70  93 113 140 180 225 271
#     4  10  17  28  42  59  87 119 153 186 215 254
#
# _framework density 17.889637
#
# number of rings (size 3 to 8) (size 9 to 14) (size 15 to 20)
#    0.000    2.714    1.429    2.143    0.000    2.000 
#    0.000    2.857    0.000    0.000    0.000    1.000 
#    0.000    3.429    0.000    0.000    0.000    0.000 
#
# Total GULP energy -312131.578994 kJ/mol
# GULP energy per Si atom -5573.778196 kJ/mol
# Density = 1.784892 g / cm^3
# Si number density = 17.889637 Si / 1000 Ang^3
#
#
#
# Elastic Constant Matrix: (Units=GPa)
#
#
# Indices 1 2 3 4 5 6 
#
# 1 40.7255 0.0083 -0.1413 0.0000 0.0000 0.0000
# 2 0.0083 69.7821 50.0362 0.0000 0.0000 0.0000
# 3 -0.1413 50.0362 180.5077 0.0000 0.0000 0.0000
# 4 0.0000 0.0000 0.0000 12.6992 0.0000 0.0000
# 5 0.0000 0.0000 0.0000 0.0000 11.6998 0.0000
# 6 0.0000 0.0000 0.0000 0.0000 0.0000 11.2189
#
#
#
# Elastic Compliance Matrix: (Units=1/GPa)
#
#
# Indices 1 2 3 4 5 6 
#
# 1 0.024555 -0.000021 0.000025 0.000000 0.000000 0.000000
# 2 -0.000021 0.017885 -0.004958 0.000000 0.000000 0.000000
# 3 0.000025 -0.004958 0.006914 0.000000 0.000000 0.000000
# 4 0.000000 0.000000 0.000000 0.078745 0.000000 0.000000
# 5 0.000000 0.000000 0.000000 0.000000 0.085471 0.000000
# 6 0.000000 0.000000 0.000000 0.000000 0.000000 0.089135
#
#
# Mechanical properties :
#
#
# Convention : Reuss Voigt Hill
#
# Bulk Modulus (GPa) = 25.35051 43.42466 34.38759
# Shear Modulus (GPa) = 15.34862 23.19772 19.27317
#
# Velocity S-wave (km/s) = 2.93228 3.60490 3.28584
# Velocity P-wave (km/s) = 5.06612 6.45394 5.80168
#
# Compressibility (1/GPa) = 0.03944693
#
# Stress axis : x y z
#
# Youngs Moduli (GPa) = 40.72540 55.91217 144.62940
#
# Poissons Ratio (x) = 0.00117 -0.00361
# Poissons Ratio (y) = 0.00085 0.71704
# Poissons Ratio (z) = -0.00102 0.27720
#
# Static dielectric constant tensor:
#      x y z
#    x 1.666330 0.000000 0.000000 
#    y 0.000000 1.582900 0.000000 
#    z 0.000000 0.000000 1.667270 
# 
# From -- ./inp_files/21770.got.cif
#   From: 2010.05.17/outbox.cif.g08.bks.cpg/sg59_11_cif.got.tgz:21770.got - 2010.06.03 14:40:33.
