data_PCOD9446930
_publ_section_title
;
Structure prediction by ZEFSAII (Michael W. Deem and Ramdas Pophale) SiO2 
 PCOD9446930
Probable space group: P M M N
;
_chemical_formula_sum "Si O2"
_cell_formula_units_Z 40
_cell_length_a 28.793790
_cell_length_b 7.808737
_cell_length_c 10.414480
_cell_angle_alpha 90.000000
_cell_angle_beta 90.000000
_cell_angle_gamma 90.000000
_cell_volume 2341.624315
_symmetry_space_group_name_H-M "P M M N"
_symmetry_group_IT_number 59
_space_group.IT_coordinate_system_code '2'
_symmetry_cell_setting 'orthorhombic'
loop_
_space_group_symop_operation_xyz
x,y,z
1/2-x,1/2-y,z
1/2+x,-y,-z
-x,1/2+y,-z
-x,-y,-z
1/2+x,1/2+y,-z
1/2-x,y,z
x,1/2-y,z
loop_
_atom_site_type_symbol
_atom_site_label
_atom_site_fract_x
_atom_site_fract_y
_atom_site_fract_z
Si Si1 0.976272 0.955413 0.133761
Si Si2 0.967061 0.455555 0.619219
Si Si3 0.868864 0.558229 0.517638
Si Si4 0.873923 0.952174 0.209799
Si Si5 0.697325 0.250000 0.518729
Si Si6 0.196738 0.750000 0.793230
O O1 0.974430 0.750000 0.146284
O O2 0.922781 0.011024 0.148742
O O3 0.007678 0.018586 0.251959
O O4 0.000000 0.000000 0.000000
O O5 0.961821 0.250000 0.625302
O O6 0.916785 0.533812 0.592905
O O7 0.000000 0.500000 0.500000
O O8 0.850874 0.750000 0.534776
O O9 0.879324 0.535557 0.365041
O O10 0.831653 0.416857 0.556960
O O11 0.865432 0.750000 0.180961
O O12 0.832565 0.080192 0.171104
O O13 0.750000 0.250000 0.565612
O O14 0.698694 0.250000 0.362746
O O15 0.250000 0.750000 0.839540
#
# Coordination Sequence:
#
# PCOD9446930 Si02
#       6
#     8   8   8   8   4   4
#     4  10  22  35  49  75 109 145 181 217 269 321
#     4  11  20  32  51  77 106 140 182 221 260 319
#     4  10  18  31  50  75 103 137 179 218 264 319
#     4   9  18  32  48  72 106 136 172 220 262 314
#     4   9  18  32  48  73 109 139 173 225 272 313
#     4   9  18  30  50  75  99 139 181 213 270 321
#
# _framework density 17.082158
#
# number of rings (size 3 to 8) (size 9 to 14) (size 15 to 20)
#    0.000    2.200    3.000    0.600    1.400    2.400 
#    0.000    4.000    0.000    0.000    0.000    2.800 
#    0.000    3.200    0.000    0.000    0.000    0.000 
#
# Total GULP energy -223092.990779 kJ/mol
# GULP energy per Si atom -5577.324769 kJ/mol
# Density = 1.704328 g / cm^3
# Si number density = 17.082158 Si / 1000 Ang^3
#
#
#
# Elastic Constant Matrix: (Units=GPa)
#
#
# Indices 1 2 3 4 5 6 
#
# 1 173.5153 73.3329 43.3611 0.0000 0.0000 0.0000
# 2 73.3329 96.5189 19.9890 0.0000 0.0000 0.0000
# 3 43.3611 19.9890 66.2780 0.0000 0.0000 0.0000
# 4 0.0000 0.0000 0.0000 16.0853 0.0000 0.0000
# 5 0.0000 0.0000 0.0000 0.0000 13.2759 0.0000
# 6 0.0000 0.0000 0.0000 0.0000 0.0000 21.5594
#
#
#
# Elastic Compliance Matrix: (Units=1/GPa)
#
#
# Indices 1 2 3 4 5 6 
#
# 1 0.009522 -0.006340 -0.004317 0.000000 0.000000 0.000000
# 2 -0.006340 0.015273 -0.000458 0.000000 0.000000 0.000000
# 3 -0.004317 -0.000458 0.018051 0.000000 0.000000 0.000000
# 4 0.000000 0.000000 0.000000 0.062169 0.000000 0.000000
# 5 0.000000 0.000000 0.000000 0.000000 0.075324 0.000000
# 6 0.000000 0.000000 0.000000 0.000000 0.000000 0.046383
#
#
# Mechanical properties :
#
#
# Convention : Reuss Voigt Hill
#
# Bulk Modulus (GPa) = 48.51128 67.74203 58.12665
# Shear Modulus (GPa) = 19.54473 23.49275 21.51874
#
# Velocity S-wave (km/s) = 3.38621 3.71250 3.55310
# Velocity P-wave (km/s) = 6.61431 7.62362 7.13683
#
# Compressibility (1/GPa) = 0.02061376
#
# Stress axis : x y z
#
# Youngs Moduli (GPa) = 105.02437 65.47623 55.39996
#
# Poissons Ratio (x) = 0.41513 0.23917
# Poissons Ratio (y) = 0.66588 0.02538
# Poissons Ratio (z) = 0.45341 0.03000
#
# Static dielectric constant tensor:
#      x y z
#    x 1.565150 0.000000 0.000000 
#    y 0.000000 1.603080 0.000000 
#    z 0.000000 0.000000 1.532610 
# 
# From -- ./inp_files/5937.got.cif
#   From: 2010.05.17/outbox.cif.g08.bks.cpg/sg59_3_cif.got.tgz:5937.got - 2010.06.03 14:40:33.
