data_PCOD9446910
_publ_section_title
;
Structure prediction by ZEFSAII (Michael W. Deem and Ramdas Pophale) SiO2 
 PCOD9446910
Probable space group: P M M N
;
_chemical_formula_sum "Si O2"
_cell_formula_units_Z 64
_cell_length_a 31.405849
_cell_length_b 8.413656
_cell_length_c 15.048693
_cell_angle_alpha 90.000000
_cell_angle_beta 90.000000
_cell_angle_gamma 90.000000
_cell_volume 3976.436690
_symmetry_space_group_name_H-M "P M M N"
_symmetry_group_IT_number 59
_space_group.IT_coordinate_system_code '2'
_symmetry_cell_setting 'orthorhombic'
loop_
_space_group_symop_operation_xyz
x,y,z
1/2-x,1/2-y,z
1/2+x,-y,-z
-x,1/2+y,-z
-x,-y,-z
1/2+x,1/2+y,-z
1/2-x,y,z
x,1/2-y,z
loop_
_atom_site_type_symbol
_atom_site_label
_atom_site_fract_x
_atom_site_fract_y
_atom_site_fract_z
Si Si1 0.042664 0.940109 0.948829
Si Si2 0.383980 0.557513 0.434783
Si Si3 0.573948 0.057080 0.749873
Si Si4 0.524147 0.942214 0.244230
Si Si5 0.201794 0.558084 0.351748
Si Si6 0.958671 0.559903 0.444089
Si Si7 0.298655 0.060220 0.152140
Si Si8 0.880035 0.057941 0.928293
O O1 0.041229 0.750000 0.954772
O O2 0.043663 0.991851 0.846321
O O3 0.086129 0.994559 0.997549
O O4 0.000000 0.000000 0.000000
O O5 0.384950 0.750000 0.440353
O O6 0.406308 0.506483 0.342779
O O7 0.334825 0.507169 0.420923
O O8 0.414430 0.491666 0.510997
O O9 0.575155 0.250000 0.750284
O O10 0.525277 0.009379 0.757782
O O11 0.599628 0.002532 0.835089
O O12 0.526506 0.750000 0.240639
O O13 0.540495 0.994196 0.341127
O O14 0.250000 0.501993 0.370808
O O15 0.201912 0.750000 0.352314
O O16 0.190940 0.507642 0.250640
O O17 0.961938 0.750000 0.444018
O O18 0.000000 0.500000 0.500000
O O19 0.250000 0.010664 0.132892
O O20 0.300142 0.250000 0.157988
O O21 0.331976 0.002976 0.078235
O O22 0.878815 0.250000 0.929782
#
# Coordination Sequence:
#
# PCOD9446910 Si02
#       8
#     8   8   8   8   8   8   8   8
#     4  11  22  34  51  75 100 129 167 206 244 290
#     4  10  18  31  49  70  98 132 167 205 245 287
#     4   9  15  28  47  67  96 130 161 197 240 281
#     4  10  20  36  50  65  98 135 166 206 247 286
#     4   9  17  30  49  71  97 133 169 198 241 299
#     4  11  22  34  50  72  98 131 169 206 247 294
#     4  10  20  31  45  71 103 129 160 205 248 288
#     4  10  19  33  50  69  96 132 168 199 238 293
#
# _framework density 16.094812999999998
#
# number of rings (size 3 to 8) (size 9 to 14) (size 15 to 20)
#    0.000    2.000    3.750    1.125    0.000    3.250 
#    0.000    0.000    0.000    0.000    0.000    0.875 
#    0.000    3.000    0.000    0.000    0.000    0.000 
#
# Total GULP energy -356706.063057 kJ/mol
# GULP energy per Si atom -5573.532235 kJ/mol
# Density = 1.605818 g / cm^3
# Si number density = 16.094813 Si / 1000 Ang^3
#
#
#
# Elastic Constant Matrix: (Units=GPa)
#
#
# Indices 1 2 3 4 5 6 
#
# 1 131.8476 20.3735 66.0043 0.0000 0.0000 0.0000
# 2 20.3735 17.5597 18.6302 0.0000 0.0000 0.0000
# 3 66.0043 18.6302 110.6972 0.0000 0.0000 0.0000
# 4 0.0000 0.0000 0.0000 22.8185 0.0000 0.0000
# 5 0.0000 0.0000 0.0000 0.0000 23.8506 0.0000
# 6 0.0000 0.0000 0.0000 0.0000 0.0000 21.3872
#
#
#
# Elastic Compliance Matrix: (Units=1/GPa)
#
#
# Indices 1 2 3 4 5 6 
#
# 1 0.011555 -0.007422 -0.005641 0.000000 0.000000 0.000000
# 2 -0.007422 0.074095 -0.008045 0.000000 0.000000 0.000000
# 3 -0.005641 -0.008045 0.013751 0.000000 0.000000 0.000000
# 4 0.000000 0.000000 0.000000 0.043824 0.000000 0.000000
# 5 0.000000 0.000000 0.000000 0.000000 0.041928 0.000000
# 6 0.000000 0.000000 0.000000 0.000000 0.000000 0.046757
#
#
# Mechanical properties :
#
#
# Convention : Reuss Voigt Hill
#
# Bulk Modulus (GPa) = 17.48675 52.23562 34.86119
# Shear Modulus (GPa) = 17.05396 23.95103 20.50249
#
# Velocity S-wave (km/s) = 3.25867 3.86180 3.57299
# Velocity P-wave (km/s) = 5.00470 7.23948 6.22323
#
# Compressibility (1/GPa) = 0.05718614
#
# Stress axis : x y z
#
# Youngs Moduli (GPa) = 86.54064 13.49617 72.72237
#
# Poissons Ratio (x) = 0.10017 0.41021
# Poissons Ratio (y) = 0.64232 0.58502
# Poissons Ratio (z) = 0.48816 0.10857
#
# Static dielectric constant tensor:
#      x y z
#    x 1.569490 0.000000 0.000000 
#    y 0.000000 1.561190 0.000000 
#    z 0.000000 0.000000 1.532740 
# 
# From -- ./inp_files/25076.got.cif
#   From: 2010.05.17/outbox.cif.g08.bks.cpg/sg59_13_cif.got.tgz:25076.got - 2010.06.03 14:40:33.
