data_PCOD9446968
_publ_section_title
;
Structure prediction by ZEFSAII (Michael W. Deem and Ramdas Pophale) SiO2 
 PCOD9446968
Probable space group: P M M N
;
_chemical_formula_sum "Si O2"
_cell_formula_units_Z 64
_cell_length_a 20.812861
_cell_length_b 7.426355
_cell_length_c 18.301699
_cell_angle_alpha 90.000000
_cell_angle_beta 90.000000
_cell_angle_gamma 90.000000
_cell_volume 2828.778210
_symmetry_space_group_name_H-M "P M M N"
_symmetry_group_IT_number 59
_space_group.IT_coordinate_system_code '2'
_symmetry_cell_setting 'orthorhombic'
loop_
_space_group_symop_operation_xyz
x,y,z
1/2-x,1/2-y,z
1/2+x,-y,-z
-x,1/2+y,-z
-x,-y,-z
1/2+x,1/2+y,-z
1/2-x,y,z
x,1/2-y,z
loop_
_atom_site_type_symbol
_atom_site_label
_atom_site_fract_x
_atom_site_fract_y
_atom_site_fract_z
Si Si1 0.964818 0.035083 0.576569
Si Si2 0.177360 0.466597 0.790294
Si Si3 0.588646 0.035844 0.068329
Si Si4 0.181913 0.970121 0.051507
Si Si5 0.523203 0.954901 0.843607
Si Si6 0.440148 0.469030 0.704934
Si Si7 0.677173 0.029863 0.625734
Si Si8 0.841747 0.453332 0.790651
O O1 0.960498 0.250000 0.585976
O O2 0.890181 0.971243 0.586610
O O3 0.015596 0.969047 0.637824
O O4 0.000000 0.000000 0.500000
O O5 0.250000 0.536446 0.790184
O O6 0.180240 0.250000 0.788275
O O7 0.139404 0.510951 0.865208
O O8 0.134007 0.521325 0.719913
O O9 0.579764 0.250000 0.061001
O O10 0.518898 0.962856 0.091065
O O11 0.622077 0.965707 0.995445
O O12 0.250000 0.015195 0.015344
O O13 0.177868 0.750000 0.054556
O O14 0.183387 0.036664 0.134461
O O15 0.542432 0.750000 0.859556
O O16 0.473942 0.956774 0.776800
O O17 0.583459 0.054760 0.810455
O O18 0.442379 0.250000 0.705433
O O19 0.750000 0.976953 0.600504
O O20 0.676551 0.250000 0.624152
O O21 0.670282 0.969153 0.710698
O O22 0.817224 0.250000 0.786029
#
# Coordination Sequence:
#
# PCOD9446968 Si02
#       8
#     8   8   8   8   8   8   8   8
#     4  10  20  35  56  82 108 136 167 202 252 306
#     4   9  17  29  48  73  98 129 171 215 256 299
#     4   9  18  31  46  67  98 135 173 215 260 304
#     4   9  17  29  47  70  94 126 172 221 261 302
#     4  10  19  30  47  72 101 133 168 208 258 307
#     4   9  17  33  53  73  99 131 171 209 244 295
#     4   9  17  32  56  82 105 132 172 217 254 295
#     4  10  18  31  52  75  98 128 171 216 259 305
#
# _framework density 22.624610000000001
#
# number of rings (size 3 to 8) (size 9 to 14) (size 15 to 20)
#    0.000    2.625    1.250    1.125    0.000    3.750 
#    0.000    1.250    0.000    4.125    0.000    0.000 
#    0.000    0.000    0.000    0.000    0.000    0.000 
#
# Total GULP energy -356694.055248 kJ/mol
# GULP energy per Si atom -5573.344613 kJ/mol
# Density = 2.257312 g / cm^3
# Si number density = 22.624610 Si / 1000 Ang^3
#
#
#
# Elastic Constant Matrix: (Units=GPa)
#
#
# Indices 1 2 3 4 5 6 
#
# 1 182.3648 7.5418 54.0067 0.0000 0.0000 0.0000
# 2 7.5418 74.5421 -1.4735 0.0000 0.0000 0.0000
# 3 54.0067 -1.4735 92.9894 0.0000 0.0000 0.0000
# 4 0.0000 0.0000 0.0000 0.9257 0.0000 0.0000
# 5 0.0000 0.0000 0.0000 0.0000 -16.0579 0.0000
# 6 0.0000 0.0000 0.0000 0.0000 0.0000 -0.0675
#
#
#
# Elastic Compliance Matrix: (Units=1/GPa)
#
#
# Indices 1 2 3 4 5 6 
#
# 1 0.006664 -0.000751 -0.003882 0.000000 0.000000 0.000000
# 2 -0.000751 0.013504 0.000650 0.000000 0.000000 0.000000
# 3 -0.003882 0.000650 0.013019 0.000000 0.000000 0.000000
# 4 0.000000 0.000000 0.000000 1.080307 0.000000 0.000000
# 5 0.000000 0.000000 0.000000 0.000000 -0.062275 0.000000
# 6 0.000000 0.000000 0.000000 0.000000 0.000000-14.813760
#
#
# Mechanical properties :
#
#
# Convention : Reuss Voigt Hill
#
# Bulk Modulus (GPa) = 39.64964 52.22736 45.93850
# Shear Modulus (GPa) = -0.36374 16.28147 7.95887
#
# Velocity S-wave (km/s) = -0.40140 2.68551 1.87761
# Velocity P-wave (km/s) = 4.16512 5.72280 5.00493
#
# Compressibility (1/GPa) = 0.02522091
#
# Stress axis : x y z
#
# Youngs Moduli (GPa) = 150.05223 74.05176 76.81036
#
# Poissons Ratio (x) = 0.05561 0.29821
# Poissons Ratio (y) = 0.11269 -0.04994
# Poissons Ratio (z) = 0.58257 -0.04815
#
# Static dielectric constant tensor:
#      x y z
#    x 1.975850 0.000000 0.000000 
#    y 0.000000 1.892000 0.000000 
#    z 0.000000 0.000000 1.832710 
# 
# From -- ./inp_files/26344.got.cif
#   From: 2010.05.17/outbox.cif.g08.bks.cpg/sg59_14_cif.got.tgz:26344.got - 2010.06.03 14:40:33.
