data_PCOD9446386
_publ_section_title
;
Structure prediction by ZEFSAII (Michael W. Deem and Ramdas Pophale) SiO2 
 PCOD9446386
Probable space group: P M M N
;
_chemical_formula_sum "Si O2"
_cell_formula_units_Z 56
_cell_length_a 8.871680
_cell_length_b 24.915067
_cell_length_c 16.783934
_cell_angle_alpha 90.000000
_cell_angle_beta 90.000000
_cell_angle_gamma 90.000000
_cell_volume 3709.895622
_symmetry_space_group_name_H-M "P M M N"
_symmetry_group_IT_number 59
_space_group.IT_coordinate_system_code '2'
_symmetry_cell_setting 'orthorhombic'
loop_
_space_group_symop_operation_xyz
x,y,z
1/2-x,1/2-y,z
1/2+x,-y,-z
-x,1/2+y,-z
-x,-y,-z
1/2+x,1/2+y,-z
1/2-x,y,z
x,1/2-y,z
loop_
_atom_site_type_symbol
_atom_site_label
_atom_site_fract_x
_atom_site_fract_y
_atom_site_fract_z
Si Si1 0.425065 0.686307 0.737764
Si Si2 0.932212 0.996146 0.305197
Si Si3 0.430970 0.053908 0.537316
Si Si4 0.430029 0.913483 0.988089
Si Si5 0.068655 0.014055 0.877927
Si Si6 0.430825 0.395629 0.380261
Si Si7 0.569625 0.812000 0.909318
O O1 0.250000 0.670996 0.747021
O O2 0.434021 0.750000 0.723921
O O3 0.497667 0.653860 0.665848
O O4 0.509861 0.675086 0.820617
O O5 0.750000 0.003542 0.306518
O O6 0.971180 0.949425 0.369353
O O7 0.976122 0.984699 0.214468
O O8 0.008655 0.050601 0.336778
O O9 0.250000 0.050465 0.533471
O O10 0.474784 0.099677 0.473993
O O11 0.500000 0.000000 0.500000
O O12 0.250000 0.909119 0.991014
O O13 0.501176 0.856218 0.967824
O O14 0.469407 0.956659 0.918401
O O15 0.492038 0.940348 0.068594
O O16 0.250000 0.020063 0.882953
O O17 0.250000 0.393804 0.374457
O O18 0.750000 0.814967 0.910378
O O19 0.525296 0.750000 0.926836
#
# Coordination Sequence:
#
# PCOD9446386 Si02
#       7
#     8   8   8   8   8   8   8
#     4  10  20  32  45  62  85 114 148 180 211 253
#     4   9  16  28  45  63  87 118 150 181 214 255
#     4   8  15  26  40  61  86 112 142 175 210 249
#     4  10  19  30  45  66  92 120 149 181 220 266
#     4   9  18  30  44  63  88 120 153 185 221 261
#     4  10  18  27  42  64  90 117 144 177 217 258
#     4  10  20  33  49  68  90 116 146 182 222 262
#
# _framework density 15.094764
#
# number of rings (size 3 to 8) (size 9 to 14) (size 15 to 20)
#    0.000    2.571    0.000    2.571    0.000    4.571 
#    0.000    0.000    0.000    0.000    0.000    1.000 
#    0.000    3.429    0.000    0.000    0.000    0.000 
#
# Total GULP energy -311962.413597 kJ/mol
# GULP energy per Si atom -5570.757386 kJ/mol
# Density = 1.506041 g / cm^3
# Si number density = 15.094764 Si / 1000 Ang^3
#
#
#
# Elastic Constant Matrix: (Units=GPa)
#
#
# Indices 1 2 3 4 5 6 
#
# 1 33.9088 27.4331 32.0348 0.0000 0.0000 0.0000
# 2 27.4331 54.7357 41.3138 0.0000 0.0000 0.0000
# 3 32.0348 41.3138 121.6898 0.0000 0.0000 0.0000
# 4 0.0000 0.0000 0.0000 27.5561 0.0000 0.0000
# 5 0.0000 0.0000 0.0000 0.0000 17.7671 0.0000
# 6 0.0000 0.0000 0.0000 0.0000 0.0000 23.6359
#
#
#
# Elastic Compliance Matrix: (Units=1/GPa)
#
#
# Indices 1 2 3 4 5 6 
#
# 1 0.053357 -0.021701 -0.006679 0.000000 0.000000 0.000000
# 2 -0.021701 0.033391 -0.005623 0.000000 0.000000 0.000000
# 3 -0.006679 -0.005623 0.011885 0.000000 0.000000 0.000000
# 4 0.000000 0.000000 0.000000 0.036290 0.000000 0.000000
# 5 0.000000 0.000000 0.000000 0.000000 0.056284 0.000000
# 6 0.000000 0.000000 0.000000 0.000000 0.000000 0.042309
#
#
# Mechanical properties :
#
#
# Convention : Reuss Voigt Hill
#
# Bulk Modulus (GPa) = 32.65169 45.76640 39.20904
# Shear Modulus (GPa) = 16.03951 21.09531 18.56741
#
# Velocity S-wave (km/s) = 3.26327 3.74240 3.51102
# Velocity P-wave (km/s) = 5.98971 7.00424 6.51675
#
# Compressibility (1/GPa) = 0.03062629
#
# Stress axis : x y z
#
# Youngs Moduli (GPa) = 18.74152 29.94862 84.14047
#
# Poissons Ratio (x) = 0.64992 0.56195
# Poissons Ratio (y) = 0.40672 0.47314
# Poissons Ratio (z) = 0.12517 0.16841
#
# Static dielectric constant tensor:
#      x y z
#    x 1.501860 0.000000 0.000000 
#    y 0.000000 1.484010 0.000000 
#    z 0.000000 0.000000 1.514990 
# 
# From -- ./inp_files/26043.got.cif
#   From: 2010.05.17/outbox.cif.g08.bks.cpg/sg59_14_cif.got.tgz:26043.got - 2010.06.03 14:40:33.
