data_PCOD9446448
_publ_section_title
;
Structure prediction by ZEFSAII (Michael W. Deem and Ramdas Pophale) SiO2 
 PCOD9446448
Probable space group: P M M N
;
_chemical_formula_sum "Si O2"
_cell_formula_units_Z 64
_cell_length_a 23.731700
_cell_length_b 7.595473
_cell_length_c 20.073195
_cell_angle_alpha 90.000000
_cell_angle_beta 90.000000
_cell_angle_gamma 90.000000
_cell_volume 3618.263386
_symmetry_space_group_name_H-M "P M M N"
_symmetry_group_IT_number 59
_space_group.IT_coordinate_system_code '2'
_symmetry_cell_setting 'orthorhombic'
loop_
_space_group_symop_operation_xyz
x,y,z
1/2-x,1/2-y,z
1/2+x,-y,-z
-x,1/2+y,-z
-x,-y,-z
1/2+x,1/2+y,-z
1/2-x,y,z
x,1/2-y,z
loop_
_atom_site_type_symbol
_atom_site_label
_atom_site_fract_x
_atom_site_fract_y
_atom_site_fract_z
Si Si1 0.089279 0.040128 0.023413
Si Si2 0.024248 0.463372 0.896823
Si Si3 0.585923 0.040603 0.520760
Si Si4 0.019893 0.041458 0.606040
Si Si5 0.009342 0.455438 0.750863
Si Si6 0.877838 0.536044 0.746309
Si Si7 0.186228 0.039600 0.386516
Si Si8 0.685601 0.534562 0.881619
O O1 0.095893 0.250000 0.016387
O O2 0.145633 0.972469 0.058337
O O3 0.069284 0.971654 0.951468
O O4 0.037087 0.009621 0.073612
O O5 0.026823 0.250000 0.895469
O O6 0.029534 0.531151 0.821528
O O7 0.580885 0.250000 0.520534
O O8 0.536636 0.968892 0.570092
O O9 0.569990 0.980660 0.446695
O O10 0.646343 0.994519 0.550445
O O11 0.010232 0.250000 0.614530
O O12 0.028857 0.967617 0.679960
O O13 0.025908 0.250000 0.752087
O O14 0.941435 0.468003 0.749722
O O15 0.880820 0.750000 0.745252
O O16 0.846262 0.474488 0.679466
O O17 0.842979 0.483618 0.811706
O O18 0.250000 0.971120 0.391898
O O19 0.190025 0.250000 0.378830
O O20 0.750000 0.476465 0.886087
O O21 0.685674 0.750000 0.882347
#
# Coordination Sequence:
#
# PCOD9446448 Si02
#       8
#     8   8   8   8   8   8   8   8
#     4   9  16  27  42  62  84 112 148 183 219 257
#     4   9  17  27  42  62  87 114 143 179 221 265
#     4  10  19  31  47  67  88 113 149 189 224 264
#     4   9  18  31  46  63  87 117 147 181 227 275
#     4  10  18  29  44  64  90 119 146 177 224 272
#     4  10  18  28  43  63  88 118 154 184 207 249
#     4  10  20  32  46  65  91 123 154 182 217 261
#     4   9  16  26  41  61  86 116 150 184 214 247
#
# _framework density 17.688044000000001
#
# number of rings (size 3 to 8) (size 9 to 14) (size 15 to 20)
#    0.000    2.500    2.500    0.750    0.000    2.750 
#    0.000    0.000    0.000    2.250    0.000    0.875 
#    0.000    5.000    0.000    0.000    0.000    0.125 
#
# Total GULP energy -356904.869300 kJ/mol
# GULP energy per Si atom -5576.638583 kJ/mol
# Density = 1.764779 g / cm^3
# Si number density = 17.688044 Si / 1000 Ang^3
#
#
#
# Elastic Constant Matrix: (Units=GPa)
#
#
# Indices 1 2 3 4 5 6 
#
# 1 66.7177 -10.8583 58.5674 0.0000 0.0000 0.0000
# 2 -10.8583 33.9785 -1.6267 0.0000 0.0000 0.0000
# 3 58.5674 -1.6267 171.1066 0.0000 0.0000 0.0000
# 4 0.0000 0.0000 0.0000 5.2831 0.0000 0.0000
# 5 0.0000 0.0000 0.0000 0.0000-3513.1120 0.0000
# 6 0.0000 0.0000 0.0000 0.0000 0.0000 14.3929
#
#
#
# Elastic Compliance Matrix: (Units=1/GPa)
#
#
# Indices 1 2 3 4 5 6 
#
# 1 0.022964 0.006965 -0.007794 0.000000 0.000000 0.000000
# 2 0.006965 0.031556 -0.002084 0.000000 0.000000 0.000000
# 3 -0.007794 -0.002084 0.008492 0.000000 0.000000 0.000000
# 4 0.000000 0.000000 0.000000 0.189282 0.000000 0.000000
# 5 0.000000 0.000000 0.000000 0.000000 -0.000285 0.000000
# 6 0.000000 0.000000 0.000000 0.000000 0.000000 0.069479
#
#
# Mechanical properties :
#
#
# Convention : Reuss Voigt Hill
#
# Bulk Modulus (GPa) = 17.48644 40.44084 28.96364
# Shear Modulus (GPa) = 14.43515 -683.63915 -334.60200
#
# Velocity S-wave (km/s) = 2.85984 -19.68088 -13.76877
# Velocity P-wave (km/s) = 4.56206 22.21568 15.37407
#
# Compressibility (1/GPa) = 0.05718718
#
# Stress axis : x y z
#
# Youngs Moduli (GPa) = 43.54630 31.68922 117.75387
#
# Poissons Ratio (x) = -0.22073 0.91778
# Poissons Ratio (y) = -0.30332 0.24542
# Poissons Ratio (z) = 0.33940 0.06604
#
# Static dielectric constant tensor:
#      x y z
#    x 1.577890 0.000000 0.000000 
#    y 0.000000 1.660330 0.000000 
#    z 0.000000 0.000000 1.641490 
# 
# From -- ./inp_files/29826.got.cif
#   From: 2010.05.17/outbox.cif.g08.bks.cpg/sg59_15_cif.got.tgz:29826.got - 2010.06.03 14:40:33.
