data_PCOD9446858
_publ_section_title
;
Structure prediction by ZEFSAII (Michael W. Deem and Ramdas Pophale) SiO2 
 PCOD9446858
Probable space group: P M M N
;
_chemical_formula_sum "Si O2"
_cell_formula_units_Z 64
_cell_length_a 8.191541
_cell_length_b 20.839642
_cell_length_c 20.680686
_cell_angle_alpha 90.000000
_cell_angle_beta 90.000000
_cell_angle_gamma 90.000000
_cell_volume 3530.374715
_symmetry_space_group_name_H-M "P M M N"
_symmetry_group_IT_number 59
_space_group.IT_coordinate_system_code '2'
_symmetry_cell_setting 'orthorhombic'
loop_
_space_group_symop_operation_xyz
x,y,z
1/2-x,1/2-y,z
1/2+x,-y,-z
-x,1/2+y,-z
-x,-y,-z
1/2+x,1/2+y,-z
1/2-x,y,z
x,1/2-y,z
loop_
_atom_site_type_symbol
_atom_site_label
_atom_site_fract_x
_atom_site_fract_y
_atom_site_fract_z
Si Si1 0.552493 0.431446 0.471569
Si Si2 0.949818 0.177851 0.570489
Si Si3 0.446753 0.322568 0.946109
Si Si4 0.447092 0.897695 0.306200
Si Si5 0.947023 0.458273 0.330400
Si Si6 0.055162 0.563979 0.813094
Si Si7 0.053157 0.177521 0.093804
Si Si8 0.944921 0.079357 0.837067
O O1 0.500000 0.500000 0.500000
O O2 0.750000 0.430110 0.471664
O O3 0.495137 0.374162 0.517813
O O4 0.496113 0.426343 0.397093
O O5 0.750000 0.177384 0.569946
O O6 0.003348 0.250000 0.556717
O O7 0.001875 0.154599 0.641826
O O8 0.250000 0.321852 0.946738
O O9 0.501666 0.250000 0.928635
O O10 0.500667 0.376126 0.895766
O O11 0.501496 0.335608 0.019889
O O12 0.250000 0.896173 0.304969
O O13 0.505791 0.892985 0.232201
O O14 0.500719 0.967431 0.331342
O O15 0.750000 0.455500 0.329894
O O16 0.006245 0.431261 0.261337
O O17 0.250000 0.563473 0.811074
O O18 0.000804 0.622692 0.857335
O O19 0.000421 0.494657 0.840118
O O20 0.250000 0.178155 0.093101
O O21 0.998437 0.250000 0.111106
O O22 0.750000 0.079211 0.835468
#
# Coordination Sequence:
#
# PCOD9446858 Si02
#       8
#     8   8   8   8   8   8   8   8
#     4  10  18  30  51  74  95 128 169 206 247 294
#     4   9  17  29  46  70  99 129 164 204 245 291
#     4   9  19  36  55  74 100 135 172 210 256 310
#     4   9  17  30  48  70  95 128 168 203 243 292
#     4   9  18  31  48  73 101 126 162 207 250 294
#     4  10  20  34  52  76 106 136 168 213 261 307
#     4   9  19  37  58  77  99 131 172 215 258 308
#     4  10  20  32  50  77 106 135 170 212 256 301
#
# _framework density 18.128388000000001
#
# number of rings (size 3 to 8) (size 9 to 14) (size 15 to 20)
#    0.000    2.625    1.250    1.500    0.000    3.000 
#    0.000    3.125    0.000    3.750    0.000    0.000 
#    0.000    0.000    0.000    0.000    0.000    0.000 
#
# Total GULP energy -356789.359657 kJ/mol
# GULP energy per Si atom -5574.833745 kJ/mol
# Density = 1.808713 g / cm^3
# Si number density = 18.128388 Si / 1000 Ang^3
#
#
#
# Elastic Constant Matrix: (Units=GPa)
#
#
# Indices 1 2 3 4 5 6 
#
# 1 11.6086 14.0583 17.3917 0.0000 0.0000 0.0000
# 2 14.0583 155.7984 120.8837 0.0000 0.0000 0.0000
# 3 17.3917 120.8837 150.6463 0.0000 0.0000 0.0000
# 4 0.0000 0.0000 0.0000 29.3594 0.0000 0.0000
# 5 0.0000 0.0000 0.0000 0.0000 13.8852 0.0000
# 6 0.0000 0.0000 0.0000 0.0000 0.0000 23.3301
#
#
#
# Elastic Compliance Matrix: (Units=1/GPa)
#
#
# Indices 1 2 3 4 5 6 
#
# 1 0.104160 -0.000182 -0.011879 0.000000 0.000000 0.000000
# 2 -0.000182 0.017008 -0.013627 0.000000 0.000000 0.000000
# 3 -0.011879 -0.013627 0.018944 0.000000 0.000000 0.000000
# 4 0.000000 0.000000 0.000000 0.034061 0.000000 0.000000
# 5 0.000000 0.000000 0.000000 0.000000 0.072019 0.000000
# 6 0.000000 0.000000 0.000000 0.000000 0.000000 0.042863
#
#
# Mechanical properties :
#
#
# Convention : Reuss Voigt Hill
#
# Bulk Modulus (GPa) = 11.26926 69.19119 40.23023
# Shear Modulus (GPa) = 13.51316 24.36290 18.93803
#
# Velocity S-wave (km/s) = 2.73319 3.66991 3.23563
# Velocity P-wave (km/s) = 4.02372 7.49719 6.01657
#
# Compressibility (1/GPa) = 0.08873695
#
# Stress axis : x y z
#
# Youngs Moduli (GPa) = 9.60058 58.79618 52.78705
#
# Poissons Ratio (x) = 0.01069 0.62707
# Poissons Ratio (y) = 0.00175 0.71932
# Poissons Ratio (z) = 0.11405 0.80120
#
# Static dielectric constant tensor:
#      x y z
#    x 1.635850 0.000000 0.000000 
#    y 0.000000 1.599820 0.000000 
#    z 0.000000 0.000000 1.651290 
# 
# From -- ./inp_files/29420.got.cif
#   From: 2010.05.17/outbox.cif.g08.bks.cpg/sg59_15_cif.got.tgz:29420.got - 2010.06.03 14:40:33.
