data_PCOD9446681
_publ_section_title
;
Structure prediction by ZEFSAII (Michael W. Deem and Ramdas Pophale) SiO2 
 PCOD9446681
Probable space group: P M M N
;
_chemical_formula_sum "Si O2"
_cell_formula_units_Z 48
_cell_length_a 16.056961
_cell_length_b 7.462653
_cell_length_c 17.945744
_cell_angle_alpha 90.000000
_cell_angle_beta 90.000000
_cell_angle_gamma 90.000000
_cell_volume 2150.394145
_symmetry_space_group_name_H-M "P M M N"
_symmetry_group_IT_number 59
_space_group.IT_coordinate_system_code '2'
_symmetry_cell_setting 'orthorhombic'
loop_
_space_group_symop_operation_xyz
x,y,z
1/2-x,1/2-y,z
1/2+x,-y,-z
-x,1/2+y,-z
-x,-y,-z
1/2+x,1/2+y,-z
1/2-x,y,z
x,1/2-y,z
loop_
_atom_site_type_symbol
_atom_site_label
_atom_site_fract_x
_atom_site_fract_y
_atom_site_fract_z
Si Si1 0.841227 0.969420 0.320773
Si Si2 0.890575 0.541058 0.159382
Si Si3 0.500349 0.035374 0.587407
Si Si4 0.841471 0.462066 0.677318
Si Si5 0.599474 0.535612 0.998715
Si Si6 0.913204 0.965310 0.837936
O O1 0.750000 0.021460 0.348389
O O2 0.843977 0.750000 0.319308
O O3 0.853555 0.032786 0.235633
O O4 0.917354 0.031691 0.371529
O O5 0.866523 0.750000 0.157411
O O6 0.867928 0.464026 0.077936
O O7 0.991196 0.531163 0.166954
O O8 0.500344 0.250000 0.597787
O O9 0.582928 0.963865 0.628125
O O10 0.500000 0.000000 0.500000
O O11 0.750000 0.538140 0.662336
O O12 0.837723 0.250000 0.661929
O O13 0.864408 0.482270 0.764167
O O14 0.612587 0.750000 0.000188
O O15 0.500000 0.500000 0.000000
O O16 0.625831 0.471417 0.916750
O O17 0.917167 0.750000 0.840623
#
# Coordination Sequence:
#
# PCOD9446681 Si02
#       6
#     8   8   8   8   8   8
#     4   9  17  31  54  81 105 132 170 212 252 303
#     4   9  15  29  51  73 103 143 183 217 257 311
#     4  10  21  38  58  81 105 132 167 211 261 317
#     4  10  21  38  58  78 103 141 184 217 253 311
#     4   8  15  25  42  71 103 138 177 217 258 303
#     4  10  18  29  48  77 110 140 176 222 269 307
#
# _framework density 22.321487999999999
#
# number of rings (size 3 to 8) (size 9 to 14) (size 15 to 20)
#    0.000    2.667    1.667    0.500    0.000    2.333 
#    0.000    0.833    0.000    4.500    0.000    0.000 
#    0.000    0.000    0.000    0.000    0.000    0.000 
#
# Total GULP energy -267850.919933 kJ/mol
# GULP energy per Si atom -5580.227499 kJ/mol
# Density = 2.227068 g / cm^3
# Si number density = 22.321488 Si / 1000 Ang^3
#
#
#
# Elastic Constant Matrix: (Units=GPa)
#
#
# Indices 1 2 3 4 5 6 
#
# 1 151.0154 3.7751 108.6535 0.0000 0.0000 0.0000
# 2 3.7751 70.0653 -2.0598 0.0000 0.0000 0.0000
# 3 108.6535 -2.0598 186.1888 0.0000 0.0000 0.0000
# 4 0.0000 0.0000 0.0000 16.7770 0.0000 0.0000
# 5 0.0000 0.0000 0.0000 0.0000 -8.0707 0.0000
# 6 0.0000 0.0000 0.0000 0.0000 0.0000 -5.3463
#
#
#
# Elastic Compliance Matrix: (Units=1/GPa)
#
#
# Indices 1 2 3 4 5 6 
#
# 1 0.011461 -0.000814 -0.006697 0.000000 0.000000 0.000000
# 2 -0.000814 0.014335 0.000634 0.000000 0.000000 0.000000
# 3 -0.006697 0.000634 0.009286 0.000000 0.000000 0.000000
# 4 0.000000 0.000000 0.000000 0.059605 0.000000 0.000000
# 5 0.000000 0.000000 0.000000 0.000000 -0.123905 0.000000
# 6 0.000000 0.000000 0.000000 0.000000 0.000000 -0.187045
#
#
# Mechanical properties :
#
#
# Convention : Reuss Voigt Hill
#
# Bulk Modulus (GPa) = 46.89017 69.77856 58.33437
# Shear Modulus (GPa) = -25.58860 20.46539 -2.56160
#
# Velocity S-wave (km/s) = -3.38948 3.03123 -1.07242
# Velocity P-wave (km/s) = 2.39464 6.60150 4.96558
#
# Compressibility (1/GPa) = 0.02132643
#
# Stress axis : x y z
#
# Youngs Moduli (GPa) = 87.25518 69.75974 107.68812
#
# Poissons Ratio (x) = 0.05681 0.72119
# Poissons Ratio (y) = 0.07106 -0.06826
# Poissons Ratio (z) = 0.58435 -0.04422
#
# Static dielectric constant tensor:
#      x y z
#    x 1.813410 0.000000 0.000000 
#    y 0.000000 1.744240 0.000000 
#    z 0.000000 0.000000 1.818040 
# 
# From -- ./inp_files/25750.got.cif
#   From: 2010.05.17/outbox.cif.g08.bks.cpg/sg59_13_cif.got.tgz:25750.got - 2010.06.03 14:40:33.
