data_PCOD9446216
_publ_section_title
;
Structure prediction by ZEFSAII (Michael W. Deem and Ramdas Pophale) SiO2 
 PCOD9446216
Probable space group: P M M N
;
_chemical_formula_sum "Si O2"
_cell_formula_units_Z 64
_cell_length_a 27.121897
_cell_length_b 8.810930
_cell_length_c 17.716016
_cell_angle_alpha 90.000000
_cell_angle_beta 90.000000
_cell_angle_gamma 90.000000
_cell_volume 4233.581036
_symmetry_space_group_name_H-M "P M M N"
_symmetry_group_IT_number 59
_space_group.IT_coordinate_system_code '2'
_symmetry_cell_setting 'orthorhombic'
loop_
_space_group_symop_operation_xyz
x,y,z
1/2-x,1/2-y,z
1/2+x,-y,-z
-x,1/2+y,-z
-x,-y,-z
1/2+x,1/2+y,-z
1/2-x,y,z
x,1/2-y,z
loop_
_atom_site_type_symbol
_atom_site_label
_atom_site_fract_x
_atom_site_fract_y
_atom_site_fract_z
Si Si1 0.037815 0.073092 0.902880
Si Si2 0.306441 0.932871 0.909546
Si Si3 0.372570 0.074382 0.783549
Si Si4 0.891725 0.068122 0.974889
Si Si5 0.053917 0.932050 0.485601
Si Si6 0.462487 0.932695 0.321436
Si Si7 0.061531 0.069254 0.163333
Si Si8 0.571764 0.431983 0.350980
O O1 0.026789 0.250000 0.918960
O O2 0.079062 0.067586 0.837281
O O3 0.989942 0.988529 0.872614
O O4 0.062876 0.993582 0.974554
O O5 0.250000 0.980298 0.920701
O O6 0.308075 0.750000 0.904444
O O7 0.329548 0.000180 0.833173
O O8 0.342600 0.976107 0.978660
O O9 0.361752 0.250000 0.768420
O O10 0.387532 0.989578 0.707290
O O11 0.894233 0.250000 0.970426
O O12 0.896971 0.996330 0.892513
O O13 0.050494 0.750000 0.485608
O O14 0.065809 0.974932 0.399390
O O15 0.083328 0.973823 0.561544
O O16 0.000000 0.000000 0.500000
O O17 0.464738 0.750000 0.314247
O O18 0.437946 0.002975 0.247573
O O19 0.518696 0.994462 0.329506
O O20 0.062772 0.250000 0.164621
O O21 0.566780 0.250000 0.345264
#
# Coordination Sequence:
#
# PCOD9446216 Si02
#       8
#     8   8   8   8   8   8   8   8
#     4  10  19  31  44  60  87 118 151 186 222 260
#     4   9  19  36  55  71  88 112 144 184 229 275
#     4  10  19  29  45  68  92 120 152 185 222 267
#     4  10  20  33  48  65  86 112 145 182 225 272
#     4   8  16  27  40  58  82 115 152 187 220 255
#     4  10  18  29  42  59  86 120 156 191 226 259
#     4  12  22  30  42  61  88 120 155 188 223 263
#     4  10  17  27  43  63  88 118 153 188 221 261
#
# _framework density 15.117226
#
# number of rings (size 3 to 8) (size 9 to 14) (size 15 to 20)
#    0.000    2.125    1.250    3.375    0.000    2.750 
#    0.000    0.000    0.000    0.000    0.000    0.000 
#    0.000    1.000    0.000    8.000    0.000    3.625 
#
# Total GULP energy -356794.570466 kJ/mol
# GULP energy per Si atom -5574.915164 kJ/mol
# Density = 1.508282 g / cm^3
# Si number density = 15.117226 Si / 1000 Ang^3
#
#
#
# Elastic Constant Matrix: (Units=GPa)
#
#
# Indices 1 2 3 4 5 6 
#
# 1 53.1779 23.5244 46.2665 0.0000 0.0000 0.0000
# 2 23.5244 68.4852 53.9039 0.0000 0.0000 0.0000
# 3 46.2665 53.9039 159.0143 0.0000 0.0000 0.0000
# 4 0.0000 0.0000 0.0000 22.5046 0.0000 0.0000
# 5 0.0000 0.0000 0.0000 0.0000 11.6278 0.0000
# 6 0.0000 0.0000 0.0000 0.0000 0.0000 13.5962
#
#
#
# Elastic Compliance Matrix: (Units=1/GPa)
#
#
# Indices 1 2 3 4 5 6 
#
# 1 0.025979 -0.004057 -0.006184 0.000000 0.000000 0.000000
# 2 -0.004057 0.020549 -0.005785 0.000000 0.000000 0.000000
# 3 -0.006184 -0.005785 0.010049 0.000000 0.000000 0.000000
# 4 0.000000 0.000000 0.000000 0.044435 0.000000 0.000000
# 5 0.000000 0.000000 0.000000 0.000000 0.086001 0.000000
# 6 0.000000 0.000000 0.000000 0.000000 0.000000 0.073550
#
#
# Mechanical properties :
#
#
# Convention : Reuss Voigt Hill
#
# Bulk Modulus (GPa) = 40.77376 58.67411 49.72394
# Shear Modulus (GPa) = 16.62286 20.01123 18.31704
#
# Velocity S-wave (km/s) = 3.31961 3.64227 3.48468
# Velocity P-wave (km/s) = 6.45937 7.52231 7.01101
#
# Compressibility (1/GPa) = 0.02452558
#
# Stress axis : x y z
#
# Youngs Moduli (GPa) = 38.49201 48.66458 99.51084
#
# Poissons Ratio (x) = 0.19742 0.61535
# Poissons Ratio (y) = 0.15615 0.57572
# Poissons Ratio (z) = 0.23803 0.28155
#
# Static dielectric constant tensor:
#      x y z
#    x 1.470810 0.000000 0.000000 
#    y 0.000000 1.504930 0.000000 
#    z 0.000000 0.000000 1.546080 
# 
# From -- ./inp_files/25029.got.cif
#   From: 2010.05.17/outbox.cif.g08.bks.cpg/sg59_13_cif.got.tgz:25029.got - 2010.06.03 14:40:33.
