data_PCOD9446739
_publ_section_title
;
Structure prediction by ZEFSAII (Michael W. Deem and Ramdas Pophale) SiO2 
 PCOD9446739
Probable space group: P M M N
;
_chemical_formula_sum "Si O2"
_cell_formula_units_Z 48
_cell_length_a 31.776532
_cell_length_b 8.508997
_cell_length_c 6.959560
_cell_angle_alpha 90.000000
_cell_angle_beta 90.000000
_cell_angle_gamma 90.000000
_cell_volume 1881.770482
_symmetry_space_group_name_H-M "P M M N"
_symmetry_group_IT_number 59
_space_group.IT_coordinate_system_code '2'
_symmetry_cell_setting 'orthorhombic'
loop_
_space_group_symop_operation_xyz
x,y,z
1/2-x,1/2-y,z
1/2+x,-y,-z
-x,1/2+y,-z
-x,-y,-z
1/2+x,1/2+y,-z
1/2-x,y,z
x,1/2-y,z
loop_
_atom_site_type_symbol
_atom_site_label
_atom_site_fract_x
_atom_site_fract_y
_atom_site_fract_z
Si Si1 0.945691 0.750000 0.481173
Si Si2 0.177226 0.250000 0.052259
Si Si3 0.797004 0.419993 0.023529
Si Si4 0.416311 0.250000 0.089601
Si Si5 0.653987 0.750000 0.402987
Si Si6 0.653303 0.416811 0.412498
Si Si7 0.953864 0.432582 0.952723
Si Si8 0.946242 0.083049 0.493543
O O1 0.943111 0.750000 0.713606
O O2 0.896932 0.750000 0.413041
O O3 0.964498 0.582463 0.419286
O O4 0.198568 0.417313 0.088883
O O5 0.168486 0.250000 0.819961
O O6 0.131845 0.250000 0.148480
O O7 0.750000 0.423511 0.111793
O O8 0.800882 0.250000 0.922501
O O9 0.831713 0.417381 0.191456
O O10 0.425056 0.417189 0.986415
O O11 0.668651 0.584518 0.489587
O O12 0.668233 0.250000 0.495276
O O13 0.602808 0.416432 0.432782
O O14 0.947878 0.250000 0.021640
O O15 0.946389 0.420279 0.724169
O O16 0.000000 0.500000 0.000000
O O17 0.964973 0.250000 0.430103
#
# Coordination Sequence:
#
# PCOD9446739 Si02
#       8
#     4   4   8   4   4   8   8   8
#     4   8  14  26  42  62  87 114 156 194 234 279
#     4  10  19  30  46  72 104 128 158 202 252 291
#     4   9  17  29  47  71  99 129 162 199 241 291
#     4  10  20  31  46  73  99 126 162 212 253 290
#     4   8  14  25  42  63  87 120 150 188 230 280
#     4   8  13  23  39  63  92 115 153 195 236 279
#     4  10  18  30  47  68  97 126 167 213 261 302
#     4   8  14  23  39  63  89 115 149 195 245 290
#
# _framework density 25.507891000000001
#
# number of rings (size 3 to 8) (size 9 to 14) (size 15 to 20)
#    0.000    3.167    0.833    0.250    0.000    0.667 
#    0.000    0.000    0.000    0.000    0.000   56.000 
#    0.000   45.333    0.000    0.000    0.000    0.000 
#
# Total GULP energy -267703.984737 kJ/mol
# GULP energy per Si atom -5577.166349 kJ/mol
# Density = 2.544983 g / cm^3
# Si number density = 25.507891 Si / 1000 Ang^3
#
#
#
# Elastic Constant Matrix: (Units=GPa)
#
#
# Indices 1 2 3 4 5 6 
#
# 1 53.2859 25.6570 21.3107 0.0000 0.0000 0.0000
# 2 25.6570 362.6401 22.9939 0.0000 0.0000 0.0000
# 3 21.3107 22.9939 98.0645 0.0000 0.0000 0.0000
# 4 0.0000 0.0000 0.0000 -8.5920 0.0000 0.0000
# 5 0.0000 0.0000 0.0000 0.0000 -0.4559 0.0000
# 6 0.0000 0.0000 0.0000 0.0000 0.0000 34.9770
#
#
#
# Elastic Compliance Matrix: (Units=1/GPa)
#
#
# Indices 1 2 3 4 5 6 
#
# 1 0.021070 -0.001219 -0.004293 0.000000 0.000000 0.000000
# 2 -0.001219 0.002870 -0.000408 0.000000 0.000000 0.000000
# 3 -0.004293 -0.000408 0.011226 0.000000 0.000000 0.000000
# 4 0.000000 0.000000 0.000000 -0.116388 0.000000 0.000000
# 5 0.000000 0.000000 0.000000 0.000000 -2.193531 0.000000
# 6 0.000000 0.000000 0.000000 0.000000 0.000000 0.028590
#
#
# Mechanical properties :
#
#
# Convention : Reuss Voigt Hill
#
# Bulk Modulus (GPa) = 42.86959 72.65705 57.76332
# Shear Modulus (GPa) = -2.24563 34.78776 16.27106
#
# Velocity S-wave (km/s) = -0.93930 3.69698 2.52838
# Velocity P-wave (km/s) = 3.95810 6.83882 5.58731
#
# Compressibility (1/GPa) = 0.02332656
#
# Stress axis : x y z
#
# Youngs Moduli (GPa) = 47.45998 348.47571 89.07886
#
# Poissons Ratio (x) = 0.42463 0.38243
# Poissons Ratio (y) = 0.05783 0.03635
# Poissons Ratio (z) = 0.20375 0.14220
#
# Static dielectric constant tensor:
#      x y z
#    x 1.936490 0.000000 0.000000 
#    y 0.000000 2.141880 0.000000 
#    z 0.000000 0.000000 1.993170 
# 
# From -- ./inp_files/13085.got.cif
#   From: 2010.05.17/outbox.cif.g08.bks.cpg/sg59_7_cif.got.tgz:13085.got - 2010.06.03 14:40:33.
