data_PCOD9446650
_publ_section_title
;
Structure prediction by ZEFSAII (Michael W. Deem and Ramdas Pophale) SiO2 
 PCOD9446650
Probable space group: P M M N
;
_chemical_formula_sum "Si O2"
_cell_formula_units_Z 48
_cell_length_a 22.329147
_cell_length_b 8.531402
_cell_length_c 11.299342
_cell_angle_alpha 90.000000
_cell_angle_beta 90.000000
_cell_angle_gamma 90.000000
_cell_volume 2152.512554
_symmetry_space_group_name_H-M "P M M N"
_symmetry_group_IT_number 59
_space_group.IT_coordinate_system_code '2'
_symmetry_cell_setting 'orthorhombic'
loop_
_space_group_symop_operation_xyz
x,y,z
1/2-x,1/2-y,z
1/2+x,-y,-z
-x,1/2+y,-z
-x,-y,-z
1/2+x,1/2+y,-z
1/2-x,y,z
x,1/2-y,z
loop_
_atom_site_type_symbol
_atom_site_label
_atom_site_fract_x
_atom_site_fract_y
_atom_site_fract_z
Si Si1 0.620353 0.564574 0.612159
Si Si2 0.642637 0.437532 0.369667
Si Si3 0.679905 0.434092 0.849479
Si Si4 0.517762 0.427583 0.122159
Si Si5 0.339240 0.928643 0.884936
Si Si6 0.008126 0.430376 0.643532
O O1 0.622472 0.750000 0.608150
O O2 0.658751 0.498808 0.500646
O O3 0.643516 0.508538 0.740591
O O4 0.551025 0.511140 0.591555
O O5 0.647751 0.250000 0.368663
O O6 0.572366 0.484794 0.361306
O O7 0.674441 0.496131 0.247401
O O8 0.750000 0.444311 0.819015
O O9 0.662499 0.250000 0.856148
O O10 0.674381 0.499431 0.985113
O O11 0.495003 0.250000 0.144836
O O12 0.495081 0.550581 0.217641
O O13 0.500000 0.500000 0.000000
O O14 0.589234 0.419225 0.120001
O O15 0.315393 0.750000 0.887631
O O16 0.012236 0.250000 0.607297
#
# Coordination Sequence:
#
# PCOD9446650 Si02
#       6
#     8   8   8   8   8   8
#     4  12  24  38  57  84 120 160 200 240 289 349
#     4  10  20  37  59  86 121 157 195 237 288 352
#     4  10  21  40  65  89 112 144 191 245 299 351
#     4  10  18  29  47  75 112 153 194 234 281 340
#     4   8  17  34  56  81 110 143 182 232 284 338
#     4  11  21  34  53  81 118 157 197 239 288 346
#
# _framework density 22.299523000000001
#
# number of rings (size 3 to 8) (size 9 to 14) (size 15 to 20)
#    0.000    1.833    0.000    6.500    0.000    1.667 
#    0.000    5.000    0.000    3.000    0.000    0.000 
#    0.000    0.000    0.000    0.000    0.000    0.000 
#
# Total GULP energy -267498.393794 kJ/mol
# GULP energy per Si atom -5572.883204 kJ/mol
# Density = 2.224877 g / cm^3
# Si number density = 22.299523 Si / 1000 Ang^3
#
#
#
# Elastic Constant Matrix: (Units=GPa)
#
#
# Indices 1 2 3 4 5 6 
#
# 1 55.0480 20.3163 29.8026 0.0000 0.0000 0.0000
# 2 20.3163 79.8075 15.9661 0.0000 0.0000 0.0000
# 3 29.8026 15.9661 167.4837 0.0000 0.0000 0.0000
# 4 0.0000 0.0000 0.0000 27.1572 0.0000 0.0000
# 5 0.0000 0.0000 0.0000 0.0000 -10.4280 0.0000
# 6 0.0000 0.0000 0.0000 0.0000 0.0000 2.2178
#
#
#
# Elastic Compliance Matrix: (Units=1/GPa)
#
#
# Indices 1 2 3 4 5 6 
#
# 1 0.021813 -0.004869 -0.003417 0.000000 0.000000 0.000000
# 2 -0.004869 0.013861 -0.000455 0.000000 0.000000 0.000000
# 3 -0.003417 -0.000455 0.006622 0.000000 0.000000 0.000000
# 4 0.000000 0.000000 0.000000 0.036823 0.000000 0.000000
# 5 0.000000 0.000000 0.000000 0.000000 -0.095895 0.000000
# 6 0.000000 0.000000 0.000000 0.000000 0.000000 0.450889
#
#
# Mechanical properties :
#
#
# Convention : Reuss Voigt Hill
#
# Bulk Modulus (GPa) = 40.30123 48.27881 44.29002
# Shear Modulus (GPa) = 10.87272 19.53969 15.20621
#
# Velocity S-wave (km/s) = 2.21051 2.96334 2.61417
# Velocity P-wave (km/s) = 4.96257 5.77977 5.38668
#
# Compressibility (1/GPa) = 0.02481314
#
# Stress axis : x y z
#
# Youngs Moduli (GPa) = 45.84392 72.14641 151.00758
#
# Poissons Ratio (x) = 0.35130 0.51604
# Poissons Ratio (y) = 0.22323 0.06869
# Poissons Ratio (z) = 0.15666 0.03282
#
# Static dielectric constant tensor:
#      x y z
#    x 1.884520 0.000000 0.000000 
#    y 0.000000 1.794940 0.000000 
#    z 0.000000 0.000000 1.877840 
# 
# From -- ./inp_files/12936.got.cif
#   From: 2010.05.17/outbox.cif.g08.bks.cpg/sg59_7_cif.got.tgz:12936.got - 2010.06.03 14:40:33.
