data_PCOD9446188
_publ_section_title
;
Structure prediction by ZEFSAII (Michael W. Deem and Ramdas Pophale) SiO2 
 PCOD9446188
Probable space group: P M M N
;
_chemical_formula_sum "Si O2"
_cell_formula_units_Z 64
_cell_length_a 27.778705
_cell_length_b 8.524810
_cell_length_c 17.671473
_cell_angle_alpha 90.000000
_cell_angle_beta 90.000000
_cell_angle_gamma 90.000000
_cell_volume 4184.749397
_symmetry_space_group_name_H-M "P M M N"
_symmetry_group_IT_number 59
_space_group.IT_coordinate_system_code '2'
_symmetry_cell_setting 'orthorhombic'
loop_
_space_group_symop_operation_xyz
x,y,z
1/2-x,1/2-y,z
1/2+x,-y,-z
-x,1/2+y,-z
-x,-y,-z
1/2+x,1/2+y,-z
1/2-x,y,z
x,1/2-y,z
loop_
_atom_site_type_symbol
_atom_site_label
_atom_site_fract_x
_atom_site_fract_y
_atom_site_fract_z
Si Si1 0.553200 0.563532 0.979135
Si Si2 0.620701 0.439305 0.285403
Si Si3 0.075860 0.937752 0.866190
Si Si4 0.542404 0.561312 0.399305
Si Si5 0.969317 0.061925 0.824834
Si Si6 0.939776 0.060656 0.656802
Si Si7 0.805138 0.060411 0.412283
Si Si8 0.616306 0.937741 0.525560
O O1 0.551977 0.750000 0.974417
O O2 0.562352 0.492447 0.896485
O O3 0.500000 0.500000 0.000000
O O4 0.584271 0.510302 0.051097
O O5 0.617773 0.250000 0.289152
O O6 0.614696 0.483405 0.197744
O O7 0.575061 0.510252 0.328959
O O8 0.666892 0.487718 0.335129
O O9 0.074763 0.750000 0.873401
O O10 0.022956 0.991455 0.836465
O O11 0.540649 0.750000 0.402251
O O12 0.488541 0.503737 0.385438
O O13 0.571654 0.504744 0.472596
O O14 0.974328 0.250000 0.826064
O O15 0.946530 0.014994 0.744446
O O16 0.938502 0.250000 0.654100
O O17 0.894869 0.996288 0.609695
O O18 0.750000 0.006812 0.413626
O O19 0.805507 0.250000 0.414540
O O20 0.836376 0.999627 0.483006
O O21 0.617062 0.750000 0.524271
#
# Coordination Sequence:
#
# PCOD9446188 Si02
#       8
#     8   8   8   8   8   8   8   8
#     4  10  18  27  39  55  79 112 148 180 210 247
#     4   9  17  27  43  66  86 110 145 182 217 257
#     4  10  17  26  40  59  84 111 144 181 214 253
#     4   9  17  29  41  58  84 115 146 178 215 253
#     4  10  18  28  41  57  81 115 150 182 214 247
#     4  10  19  29  42  59  85 117 149 180 214 257
#     4   9  18  34  52  66  85 113 143 178 222 267
#     4  10  20  30  44  64  86 111 143 181 219 260
#
# _framework density 15.293628999999999
#
# number of rings (size 3 to 8) (size 9 to 14) (size 15 to 20)
#    0.000    2.375    1.250    4.125    0.000    2.750 
#    0.000    0.000    0.000    0.000    0.000    0.000 
#    0.000    1.000    0.000    7.750    0.000    1.875 
#
# Total GULP energy -356546.557199 kJ/mol
# GULP energy per Si atom -5571.039956 kJ/mol
# Density = 1.525882 g / cm^3
# Si number density = 15.293629 Si / 1000 Ang^3
#
#
#
# Elastic Constant Matrix: (Units=GPa)
#
#
# Indices 1 2 3 4 5 6 
#
# 1 68.8043 11.4342 50.8798 0.0000 0.0000 0.0000
# 2 11.4342 26.7379 18.8438 0.0000 0.0000 0.0000
# 3 50.8798 18.8438 107.8078 0.0000 0.0000 0.0000
# 4 0.0000 0.0000 0.0000 19.8684 0.0000 0.0000
# 5 0.0000 0.0000 0.0000 0.0000 9.8670 0.0000
# 6 0.0000 0.0000 0.0000 0.0000 0.0000 13.1021
#
#
#
# Elastic Compliance Matrix: (Units=1/GPa)
#
#
# Indices 1 2 3 4 5 6 
#
# 1 0.022464 -0.002435 -0.010176 0.000000 0.000000 0.000000
# 2 -0.002435 0.042918 -0.006353 0.000000 0.000000 0.000000
# 3 -0.010176 -0.006353 0.015189 0.000000 0.000000 0.000000
# 4 0.000000 0.000000 0.000000 0.050331 0.000000 0.000000
# 5 0.000000 0.000000 0.000000 0.000000 0.101348 0.000000
# 6 0.000000 0.000000 0.000000 0.000000 0.000000 0.076323
#
#
# Mechanical properties :
#
#
# Convention : Reuss Voigt Hill
#
# Bulk Modulus (GPa) = 23.45000 40.62950 32.03975
# Shear Modulus (GPa) = 13.86136 16.71366 15.28751
#
# Velocity S-wave (km/s) = 3.01383 3.30942 3.16507
# Velocity P-wave (km/s) = 5.24188 6.42082 5.86107
#
# Compressibility (1/GPa) = 0.04264392
#
# Stress axis : x y z
#
# Youngs Moduli (GPa) = 44.51625 23.30002 65.83798
#
# Poissons Ratio (x) = 0.05673 0.66998
# Poissons Ratio (y) = 0.10838 0.41825
# Poissons Ratio (z) = 0.45301 0.14802
#
# Static dielectric constant tensor:
#      x y z
#    x 1.481090 0.000000 0.000000 
#    y 0.000000 1.525740 0.000000 
#    z 0.000000 0.000000 1.558460 
# 
# From -- ./inp_files/28541.got.cif
#   From: 2010.05.17/outbox.cif.g08.bks.cpg/sg59_15_cif.got.tgz:28541.got - 2010.06.03 14:40:33.
