data_PCOD9446661
_publ_section_title
;
Structure prediction by ZEFSAII (Michael W. Deem and Ramdas Pophale) SiO2 
 PCOD9446661
Probable space group: P M M N
;
_chemical_formula_sum "Si O2"
_cell_formula_units_Z 64
_cell_length_a 14.969615
_cell_length_b 7.435615
_cell_length_c 29.211024
_cell_angle_alpha 90.000000
_cell_angle_beta 90.000000
_cell_angle_gamma 90.000000
_cell_volume 3251.429243
_symmetry_space_group_name_H-M "P M M N"
_symmetry_group_IT_number 59
_space_group.IT_coordinate_system_code '2'
_symmetry_cell_setting 'orthorhombic'
loop_
_space_group_symop_operation_xyz
x,y,z
1/2-x,1/2-y,z
1/2+x,-y,-z
-x,1/2+y,-z
-x,-y,-z
1/2+x,1/2+y,-z
1/2-x,y,z
x,1/2-y,z
loop_
_atom_site_type_symbol
_atom_site_label
_atom_site_fract_x
_atom_site_fract_y
_atom_site_fract_z
Si Si1 0.349237 0.466114 0.615758
Si Si2 0.148036 0.469214 0.152195
Si Si3 0.845565 0.531310 0.582496
Si Si4 0.972215 0.963473 0.660751
Si Si5 0.851797 0.530592 0.743325
Si Si6 0.647325 0.536023 0.018214
Si Si7 0.469820 0.466425 0.068277
Si Si8 0.601230 0.535719 0.485493
O O1 0.250000 0.529932 0.626721
O O2 0.347281 0.250000 0.612869
O O3 0.423411 0.510290 0.653182
O O4 0.376185 0.534993 0.564882
O O5 0.250000 0.522086 0.139728
O O6 0.147515 0.250000 0.152058
O O7 0.130609 0.526474 0.204434
O O8 0.074820 0.529257 0.115497
O O9 0.750000 0.488271 0.603839
O O10 0.852323 0.750000 0.580036
O O11 0.924047 0.464327 0.614902
O O12 0.848127 0.466549 0.530339
O O13 0.956184 0.750000 0.660871
O O14 0.923443 0.032803 0.706076
O O15 0.750000 0.478871 0.731167
O O16 0.853211 0.750000 0.743690
O O17 0.750000 0.468392 0.023708
O O18 0.655399 0.750000 0.012388
O O19 0.573612 0.509267 0.058248
O O20 0.594061 0.466626 0.973248
O O21 0.464634 0.250000 0.067784
O O22 0.500000 0.500000 0.500000
O O23 0.617063 0.750000 0.483118
#
# Coordination Sequence:
#
# PCOD9446661 Si02
#       8
#     8   8   8   8   8   8   8   8
#     4  10  21  35  49  64  86 119 153 181 213 256
#     4   8  13  23  42  68  95 119 144 179 223 269
#     4   9  16  26  43  66  89 112 136 163 201 252
#     4  10  18  29  48  72  92 111 140 180 219 256
#     4   8  14  25  44  72  99 117 138 175 224 273
#     4   9  17  28  41  60  90 125 156 187 225 269
#     4   9  16  26  43  66  89 117 155 192 225 264
#     4  10  18  30  47  65  87 114 144 175 209 250
#
# _framework density 19.683651000000001
#
# number of rings (size 3 to 8) (size 9 to 14) (size 15 to 20)
#    0.000    2.875    1.250    1.875    0.000    5.000 
#    0.000    0.000    0.000    6.000    0.000    7.000 
#    0.000    0.000    0.000    0.000    0.000    0.000 
#
# Total GULP energy -356776.537408 kJ/mol
# GULP energy per Si atom -5574.633397 kJ/mol
# Density = 1.963885 g / cm^3
# Si number density = 19.683651 Si / 1000 Ang^3
#
#
#
# Elastic Constant Matrix: (Units=GPa)
#
#
# Indices 1 2 3 4 5 6 
#
# 1 178.9462 -3.0181 93.5451 0.0000 0.0000 0.0000
# 2 -3.0181 60.9062 3.8747 0.0000 0.0000 0.0000
# 3 93.5451 3.8747 121.1828 0.0000 0.0000 0.0000
# 4 0.0000 0.0000 0.0000 3.4678 0.0000 0.0000
# 5 0.0000 0.0000 0.0000 0.0000 31.6896 0.0000
# 6 0.0000 0.0000 0.0000 0.0000 0.0000 7.4435
#
#
#
# Elastic Compliance Matrix: (Units=1/GPa)
#
#
# Indices 1 2 3 4 5 6 
#
# 1 0.009421 0.000931 -0.007302 0.000000 0.000000 0.000000
# 2 0.000931 0.016544 -0.001248 0.000000 0.000000 0.000000
# 3 -0.007302 -0.001248 0.013929 0.000000 0.000000 0.000000
# 4 0.000000 0.000000 0.000000 0.288365 0.000000 0.000000
# 5 0.000000 0.000000 0.000000 0.000000 0.031556 0.000000
# 6 0.000000 0.000000 0.000000 0.000000 0.000000 0.134346
#
#
# Mechanical properties :
#
#
# Convention : Reuss Voigt Hill
#
# Bulk Modulus (GPa) = 40.55728 61.09319 50.82523
# Shear Modulus (GPa) = 9.65963 26.29576 17.97770
#
# Velocity S-wave (km/s) = 2.21768 3.65899 3.02542
# Velocity P-wave (km/s) = 5.21601 6.99684 6.17100
#
# Compressibility (1/GPa) = 0.02465648
#
# Stress axis : x y z
#
# Youngs Moduli (GPa) = 106.14145 60.44403 71.79303
#
# Poissons Ratio (x) = -0.05630 0.52427
# Poissons Ratio (y) = -0.09886 0.08960
# Poissons Ratio (z) = 0.77510 0.07543
#
# Static dielectric constant tensor:
#      x y z
#    x 1.739340 0.000000 0.000000 
#    y 0.000000 1.767940 0.000000 
#    z 0.000000 0.000000 1.686630 
# 
# From -- ./inp_files/33347.got.cif
#   From: 2010.05.17/outbox.cif.g08.bks.cpg/sg59_17_cif.got.tgz:33347.got - 2010.06.03 14:40:33.
