data_PCOD9446890
_publ_section_title
;
Structure prediction by ZEFSAII (Michael W. Deem and Ramdas Pophale) SiO2 
 PCOD9446890
Probable space group: P M M N
;
_chemical_formula_sum "Si O2"
_cell_formula_units_Z 48
_cell_length_a 8.869543
_cell_length_b 15.779398
_cell_length_c 19.338721
_cell_angle_alpha 90.000000
_cell_angle_beta 90.000000
_cell_angle_gamma 90.000000
_cell_volume 2706.570985
_symmetry_space_group_name_H-M "P M M N"
_symmetry_group_IT_number 59
_space_group.IT_coordinate_system_code '2'
_symmetry_cell_setting 'orthorhombic'
loop_
_space_group_symop_operation_xyz
x,y,z
1/2-x,1/2-y,z
1/2+x,-y,-z
-x,1/2+y,-z
-x,-y,-z
1/2+x,1/2+y,-z
1/2-x,y,z
x,1/2-y,z
loop_
_atom_site_type_symbol
_atom_site_label
_atom_site_fract_x
_atom_site_fract_y
_atom_site_fract_z
Si Si1 0.925239 0.750000 0.805514
Si Si2 0.071636 0.847946 0.429512
Si Si3 0.570042 0.926811 0.953818
Si Si4 0.073330 0.750000 0.951794
Si Si5 0.071755 0.494223 0.661041
Si Si6 0.073319 0.438451 0.209485
Si Si7 0.430489 0.152522 0.418907
O O1 0.750000 0.750000 0.832544
O O2 0.943209 0.839350 0.768122
O O3 0.038565 0.750000 0.869582
O O4 0.250000 0.862132 0.441489
O O5 0.051966 0.750000 0.407162
O O6 0.982965 0.858232 0.501645
O O7 0.009377 0.914888 0.374837
O O8 0.750000 0.925215 0.959790
O O9 0.503120 0.836442 0.976653
O O10 0.535521 0.940781 0.872042
O O11 0.500000 0.000000 0.000000
O O12 0.250000 0.750000 0.965505
O O13 0.250000 0.487131 0.652644
O O14 0.025860 0.504125 0.741128
O O15 0.011798 0.579641 0.624237
O O16 0.250000 0.460046 0.217454
O O17 0.250000 0.142737 0.413086
O O18 0.468498 0.250000 0.398976
#
# Coordination Sequence:
#
# PCOD9446890 Si02
#       7
#     4   8   8   4   8   8   8
#     4   8  16  32  52  74 106 144 177 216 267 324
#     4  10  21  39  61  80 102 138 185 233 277 325
#     4  10  20  36  59  84 113 148 185 230 277 329
#     4  10  18  30  52  82 112 144 181 218 263 324
#     4  12  24  35  53  81 114 146 181 226 273 325
#     4   9  19  35  54  79 111 147 184 220 271 329
#     4  10  21  37  57  81 111 146 182 223 272 325
#
# _framework density 17.734618000000001
#
# number of rings (size 3 to 8) (size 9 to 14) (size 15 to 20)
#    0.000    2.000    0.000    5.250    1.167    5.333 
#    0.000    0.000    1.833    0.000    0.000    0.000 
#    0.000    0.000    0.000    0.000    0.000    0.000 
#
# Total GULP energy -267955.802285 kJ/mol
# GULP energy per Si atom -5582.412548 kJ/mol
# Density = 1.769425 g / cm^3
# Si number density = 17.734618 Si / 1000 Ang^3
#
#
#
# Elastic Constant Matrix: (Units=GPa)
#
#
# Indices 1 2 3 4 5 6 
#
# 1 68.6064 44.8980 30.0911 0.0000 0.0000 0.0000
# 2 44.8980 101.2583 52.2666 0.0000 0.0000 0.0000
# 3 30.0911 52.2666 60.1573 0.0000 0.0000 0.0000
# 4 0.0000 0.0000 0.0000 26.0053 0.0000 0.0000
# 5 0.0000 0.0000 0.0000 0.0000 27.9935 0.0000
# 6 0.0000 0.0000 0.0000 0.0000 0.0000 28.7957
#
#
#
# Elastic Compliance Matrix: (Units=1/GPa)
#
#
# Indices 1 2 3 4 5 6 
#
# 1 0.021161 -0.007106 -0.004411 0.000000 0.000000 0.000000
# 2 -0.007106 0.020292 -0.014076 0.000000 0.000000 0.000000
# 3 -0.004411 -0.014076 0.031059 0.000000 0.000000 0.000000
# 4 0.000000 0.000000 0.000000 0.038454 0.000000 0.000000
# 5 0.000000 0.000000 0.000000 0.000000 0.035723 0.000000
# 6 0.000000 0.000000 0.000000 0.000000 0.000000 0.034727
#
#
# Mechanical properties :
#
#
# Convention : Reuss Voigt Hill
#
# Bulk Modulus (GPa) = 46.89026 53.83704 50.36365
# Shear Modulus (GPa) = 20.85849 23.41000 22.13424
#
# Velocity S-wave (km/s) = 3.43322 3.63715 3.53665
# Velocity P-wave (km/s) = 6.49718 6.93263 6.71843
#
# Compressibility (1/GPa) = 0.02132639
#
# Stress axis : x y z
#
# Youngs Moduli (GPa) = 47.25696 49.28012 32.19660
#
# Poissons Ratio (x) = 0.35018 0.14202
# Poissons Ratio (y) = 0.33581 0.45320
# Poissons Ratio (z) = 0.20845 0.69367
#
# Static dielectric constant tensor:
#      x y z
#    x 1.586930 0.000000 0.000000 
#    y 0.000000 1.605820 0.000000 
#    z 0.000000 0.000000 1.603480 
# 
# From -- ./inp_files/25535.got.cif
#   From: 2010.05.17/outbox.cif.g08.bks.cpg/sg59_13_cif.got.tgz:25535.got - 2010.06.03 14:40:33.
