data_PCOD9446052
_publ_section_title
;
Structure prediction by ZEFSAII (Michael W. Deem and Ramdas Pophale) SiO2 
 PCOD9446052
Probable space group: P N N M
;
_chemical_formula_sum "Si O2"
_cell_formula_units_Z 40
_cell_length_a 9.000000
_cell_length_b 9.000000
_cell_length_c 24.000000
_cell_angle_alpha 90.000000
_cell_angle_beta 90.000000
_cell_angle_gamma 90.000000
_cell_volume 1944.000000
_symmetry_space_group_name_H-M "P N N M"
_symmetry_group_IT_number 58
_symmetry_cell_setting 'orthorhombic'
loop_
_space_group_symop_operation_xyz
x,y,z
-x,-y,z
1/2+x,1/2-y,1/2-z
1/2-x,1/2+y,1/2-z
-x,-y,-z
x,y,-z
1/2-x,1/2+y,1/2+z
1/2+x,1/2-y,1/2+z
loop_
_atom_site_type_symbol
_atom_site_label
_atom_site_fract_x
_atom_site_fract_y
_atom_site_fract_z
Si Si1 0.613880 0.134235 0.938102
Si Si2 0.650972 0.090421 0.641604
Si Si3 0.395924 0.630126 0.848787
Si Si4 0.345652 0.914148 0.774690
Si Si5 0.336321 0.560700 0.366544
O O1 0.547585 0.260774 0.897658
O O2 0.500000 0.000000 0.942454
O O3 0.749096 0.049362 0.908225
O O4 0.649206 0.190210 0.000000
O O5 0.671107 0.098582 0.708805
O O6 0.665596 0.261577 0.621980
O O7 0.500000 0.000000 0.630686
O O8 0.772236 0.971815 0.622190
O O9 0.500000 0.500000 0.824927
O O10 0.344826 0.750109 0.802610
O O11 0.500000 0.000000 0.785968
O O12 0.228823 0.018911 0.805890
O O13 0.500000 0.500000 0.367457
#
# Coordination Sequence:
#
# PCOD9446052 Si02
#       5
#     8   8   8   8   8
#     4  10  22  42  64  83 108 146 188 232 290 352
#     4  11  22  35  54  83 117 152 189 231 275 325
#     4  11  21  35  58  86 115 144 188 243 281 323
#     4  10  21  36  54  80 117 158 192 221 270 338
#     4  11  22  38  58  81 114 151 188 229 281 342
#
# _framework density 20.576132000000001
#
# number of rings (size 3 to 8) (size 9 to 14) (size 15 to 20)
#    0.000    1.400    0.000    8.400    0.000    7.200 
#    0.000    1.000    0.000    2.400    0.000    0.000 
#    0.000    0.000    0.000    0.000    0.000    0.000 
#
# Total GULP energy -222934.724164 kJ/mol
# GULP energy per Si atom -5573.368104 kJ/mol
# Density = 2.052930 g / cm^3
# Si number density = 20.576132 Si / 1000 Ang^3
#
#
#
# Elastic Constant Matrix: (Units=GPa)
#
#
# Indices 1 2 3 4 5 6 
#
# 1 82.9185 4.2304 -10.9204 0.0000 0.0000 0.0000
# 2 4.2304 150.5410 -0.4626 0.0000 0.0000 0.0000
# 3 -10.9204 -0.4626 34.5075 0.0000 0.0000 0.0000
# 4 0.0000 0.0000 0.0000 19.8101 0.0000 0.0000
# 5 0.0000 0.0000 0.0000 0.0000 7.3622 0.0000
# 6 0.0000 0.0000 0.0000 0.0000 0.0000 34.8827
#
#
#
# Elastic Compliance Matrix: (Units=1/GPa)
#
#
# Indices 1 2 3 4 5 6 
#
# 1 0.012602 -0.000342 0.003984 0.000000 0.000000 0.000000
# 2 -0.000342 0.006652 -0.000019 0.000000 0.000000 0.000000
# 3 0.003984 -0.000019 0.030240 0.000000 0.000000 0.000000
# 4 0.000000 0.000000 0.000000 0.050479 0.000000 0.000000
# 5 0.000000 0.000000 0.000000 0.000000 0.135829 0.000000
# 6 0.000000 0.000000 0.000000 0.000000 0.000000 0.028667
#
#
# Mechanical properties :
#
#
# Convention : Reuss Voigt Hill
#
# Bulk Modulus (GPa) = 17.62449 28.18465 22.90457
# Shear Modulus (GPa) = 18.10694 30.75231 24.42962
#
# Velocity S-wave (km/s) = 2.96969 3.87015 3.44943
# Velocity P-wave (km/s) = 4.51031 5.80502 5.19813
#
# Compressibility (1/GPa) = 0.05673924
#
# Stress axis : x y z
#
# Youngs Moduli (GPa) = 79.35174 150.32490 33.06919
#
# Poissons Ratio (x) = 0.05140 -0.13173
# Poissons Ratio (y) = 0.02713 0.00063
# Poissons Ratio (z) = -0.31610 0.00286
#
# Static dielectric constant tensor:
#      x y z
#    x 1.844170 0.000000 0.000000 
#    y 0.000000 1.699490 0.000000 
#    z 0.000000 0.000000 1.771630 
# 
# From -- ./inp_files/31279.got.cif
#   From: 2010.05.17/outbox.ucp.g08.bks.cvg/sg58_16_cif.got.tgz:31279.got - 2010.06.11 16:41:41.
