data_PCOD9446062
_publ_section_title
;
Structure prediction by ZEFSAII (Michael W. Deem and Ramdas Pophale) SiO2 
 PCOD9446062
Probable space group: P N N M
;
_chemical_formula_sum "Si O2"
_cell_formula_units_Z 40
_cell_length_a 9.000000
_cell_length_b 12.000000
_cell_length_c 18.000000
_cell_angle_alpha 90.000000
_cell_angle_beta 90.000000
_cell_angle_gamma 90.000000
_cell_volume 1944.000000
_symmetry_space_group_name_H-M "P N N M"
_symmetry_group_IT_number 58
_symmetry_cell_setting 'orthorhombic'
loop_
_space_group_symop_operation_xyz
x,y,z
-x,-y,z
1/2+x,1/2-y,1/2-z
1/2-x,1/2+y,1/2-z
-x,-y,-z
x,y,-z
1/2-x,1/2+y,1/2+z
1/2+x,1/2-y,1/2+z
loop_
_atom_site_type_symbol
_atom_site_label
_atom_site_fract_x
_atom_site_fract_y
_atom_site_fract_z
Si Si1 0.119977 0.263783 0.910286
Si Si2 0.823638 0.519369 0.184128
Si Si3 0.330310 0.528333 0.658761
Si Si4 0.896652 0.597591 0.584530
Si Si5 0.766522 0.307597 0.088757
O O1 0.186777 0.368767 0.865287
O O2 0.182057 0.155522 0.867944
O O3 0.939081 0.268087 0.902138
O O4 0.150419 0.265201 0.000000
O O5 0.752669 0.510605 0.265995
O O6 0.755813 0.420144 0.134887
O O7 0.000000 0.500000 0.192452
O O8 0.500000 0.500000 0.670200
O O9 0.264516 0.458352 0.590236
O O10 0.948356 0.613448 0.500000
O O11 0.858735 0.719297 0.615963
O O12 0.000000 0.500000 0.618189
O O13 0.746426 0.323310 0.000000
#
# Coordination Sequence:
#
# PCOD9446062 Si02
#       5
#     8   8   8   8   8
#     4  10  21  39  66  93 123 168 222 271 325 389
#     4  10  23  40  62  92 126 168 217 270 329 388
#     4  12  24  38  61  92 131 167 209 265 327 395
#     4  10  21  38  61  91 123 160 207 262 325 385
#     4   9  18  38  66  90 121 162 216 271 319 386
#
# _framework density 20.576132000000001
#
# number of rings (size 3 to 8) (size 9 to 14) (size 15 to 20)
#    0.000    1.800    2.000    1.800    2.800    3.200 
#    3.600    0.000    0.000    1.200    0.000    0.000 
#    0.000    0.000    0.000    0.000    0.000    0.000 
#
# Total GULP energy -222909.596558 kJ/mol
# GULP energy per Si atom -5572.739914 kJ/mol
# Density = 2.052930 g / cm^3
# Si number density = 20.576132 Si / 1000 Ang^3
#
#
#
# Elastic Constant Matrix: (Units=GPa)
#
#
# Indices 1 2 3 4 5 6 
#
# 1 44.0885 29.2143 15.8378 0.0000 0.0000 0.0000
# 2 29.2143 155.0890 41.9744 0.0000 0.0000 0.0000
# 3 15.8378 41.9744 87.3037 0.0000 0.0000 0.0000
# 4 0.0000 0.0000 0.0000 14.6063 0.0000 0.0000
# 5 0.0000 0.0000 0.0000 0.0000 16.1751 0.0000
# 6 0.0000 0.0000 0.0000 0.0000 0.0000 39.4157
#
#
#
# Elastic Compliance Matrix: (Units=1/GPa)
#
#
# Indices 1 2 3 4 5 6 
#
# 1 0.026485 -0.004240 -0.002766 0.000000 0.000000 0.000000
# 2 -0.004240 0.008091 -0.003121 0.000000 0.000000 0.000000
# 3 -0.002766 -0.003121 0.013457 0.000000 0.000000 0.000000
# 4 0.000000 0.000000 0.000000 0.068464 0.000000 0.000000
# 5 0.000000 0.000000 0.000000 0.000000 0.061823 0.000000
# 6 0.000000 0.000000 0.000000 0.000000 0.000000 0.025371
#
#
# Mechanical properties :
#
#
# Convention : Reuss Voigt Hill
#
# Bulk Modulus (GPa) = 35.99923 51.17048 43.58485
# Shear Modulus (GPa) = 21.44038 27.33639 24.38838
#
# Velocity S-wave (km/s) = 3.23151 3.64888 3.44652
# Velocity P-wave (km/s) = 5.60867 6.53263 6.08820
#
# Compressibility (1/GPa) = 0.02777837
#
# Stress axis : x y z
#
# Youngs Moduli (GPa) = 37.75708 123.58851 74.31324
#
# Poissons Ratio (x) = 0.52407 0.20554
# Poissons Ratio (y) = 0.16011 0.23193
# Poissons Ratio (z) = 0.10443 0.38572
#
# Static dielectric constant tensor:
#      x y z
#    x 1.766900 0.000000 0.000000 
#    y 0.000000 1.790970 0.000000 
#    z 0.000000 0.000000 1.720070 
# 
# From -- ./inp_files/24978.got.cif
#   From: 2010.05.17/outbox.ucp.g08.bks.cvg/sg58_13_cif.got.tgz:24978.got - 2010.06.11 16:41:41.
