data_PCOD9446854
_publ_section_title
;
Structure prediction by ZEFSAII (Michael W. Deem and Ramdas Pophale) SiO2 
 PCOD9446854
Probable space group: P M M N
;
_chemical_formula_sum "Si O2"
_cell_formula_units_Z 56
_cell_length_a 14.076136
_cell_length_b 17.709072
_cell_length_c 14.263675
_cell_angle_alpha 90.000000
_cell_angle_beta 90.000000
_cell_angle_gamma 90.000000
_cell_volume 3555.581949
_symmetry_space_group_name_H-M "P M M N"
_symmetry_group_IT_number 59
_space_group.IT_coordinate_system_code '2'
_symmetry_cell_setting 'orthorhombic'
loop_
_space_group_symop_operation_xyz
x,y,z
1/2-x,1/2-y,z
1/2+x,-y,-z
-x,1/2+y,-z
-x,-y,-z
1/2+x,1/2+y,-z
1/2-x,y,z
x,1/2-y,z
loop_
_atom_site_type_symbol
_atom_site_label
_atom_site_fract_x
_atom_site_fract_y
_atom_site_fract_z
Si Si1 0.637780 0.160043 0.653046
Si Si2 0.637743 0.053811 0.272037
Si Si3 0.455177 0.164334 0.971963
Si Si4 0.493382 0.932414 0.205798
Si Si5 0.358946 0.473241 0.070100
Si Si6 0.142718 0.885877 0.933812
Si Si7 0.634793 0.335555 0.436580
O O1 0.750000 0.142748 0.665180
O O2 0.626657 0.250000 0.669534
O O3 0.573628 0.112324 0.722753
O O4 0.611247 0.145850 0.544252
O O5 0.750000 0.036221 0.282423
O O6 0.629172 0.103148 0.176789
O O7 0.604254 0.103464 0.360209
O O8 0.575427 0.979511 0.256833
O O9 0.420990 0.250000 0.967892
O O10 0.464420 0.126013 0.870067
O O11 0.392319 0.108169 0.034958
O O12 0.560453 0.161550 0.017766
O O13 0.428991 0.991836 0.147143
O O14 0.250000 0.472700 0.102253
O O15 0.364723 0.531178 0.981996
O O16 0.250000 0.858022 0.951782
O O17 0.750000 0.333578 0.432341
O O18 0.601715 0.250000 0.415657
#
# Coordination Sequence:
#
# PCOD9446854 Si02
#       7
#     8   8   8   8   8   8   8
#     4   9  18  33  52  74 100 126 154 196 247 291
#     4  10  18  30  51  73  98 131 162 196 239 288
#     4  11  21  32  46  69  96 126 162 199 240 288
#     4  11  19  33  50  74  97 126 163 202 241 282
#     4  10  19  34  50  66  92 130 166 198 236 282
#     4   9  17  32  50  68  94 124 157 199 242 281
#     4   8  16  31  49  72 100 126 155 194 242 292
#
# _framework density 15.749883000000001
#
# number of rings (size 3 to 8) (size 9 to 14) (size 15 to 20)
#    0.000    2.286    2.857    2.571    0.000    2.286 
#    0.000    1.429    0.000    1.286    0.000    0.000 
#    0.000    2.286    0.000    0.000    0.000    0.000 
#
# Total GULP energy -312206.358985 kJ/mol
# GULP energy per Si atom -5575.113553 kJ/mol
# Density = 1.571404 g / cm^3
# Si number density = 15.749883 Si / 1000 Ang^3
#
#
#
# Elastic Constant Matrix: (Units=GPa)
#
#
# Indices 1 2 3 4 5 6 
#
# 1 43.9452 30.2886 30.0636 0.0000 0.0000 0.0000
# 2 30.2886 98.2645 52.6799 0.0000 0.0000 0.0000
# 3 30.0636 52.6799 85.6797 0.0000 0.0000 0.0000
# 4 0.0000 0.0000 0.0000 15.5054 0.0000 0.0000
# 5 0.0000 0.0000 0.0000 0.0000 21.2303 0.0000
# 6 0.0000 0.0000 0.0000 0.0000 0.0000 17.9586
#
#
#
# Elastic Compliance Matrix: (Units=1/GPa)
#
#
# Indices 1 2 3 4 5 6 
#
# 1 0.031968 -0.005728 -0.007695 0.000000 0.000000 0.000000
# 2 -0.005728 0.016207 -0.007955 0.000000 0.000000 0.000000
# 3 -0.007695 -0.007955 0.019262 0.000000 0.000000 0.000000
# 4 0.000000 0.000000 0.000000 0.064494 0.000000 0.000000
# 5 0.000000 0.000000 0.000000 0.000000 0.047103 0.000000
# 6 0.000000 0.000000 0.000000 0.000000 0.000000 0.055684
#
#
# Mechanical properties :
#
#
# Convention : Reuss Voigt Hill
#
# Bulk Modulus (GPa) = 40.51688 50.43928 45.47808
# Shear Modulus (GPa) = 17.50085 18.59601 18.04843
#
# Velocity S-wave (km/s) = 3.33704 3.43987 3.38885
# Velocity P-wave (km/s) = 6.37408 6.91893 6.65209
#
# Compressibility (1/GPa) = 0.02468107
#
# Stress axis : x y z
#
# Youngs Moduli (GPa) = 31.28122 61.70223 51.91462
#
# Poissons Ratio (x) = 0.35345 0.39948
# Poissons Ratio (y) = 0.17919 0.41297
# Poissons Ratio (z) = 0.24071 0.49083
#
# Static dielectric constant tensor:
#      x y z
#    x 1.528900 0.000000 0.000000 
#    y 0.000000 1.520790 0.000000 
#    z 0.000000 0.000000 1.521840 
# 
# From -- ./inp_files/23344.got.cif
#   From: 2010.05.17/outbox.cif.g08.bks.cpg/sg59_12_cif.got.tgz:23344.got - 2010.06.03 14:40:33.
