data_PCOD9446855
_publ_section_title
;
Structure prediction by ZEFSAII (Michael W. Deem and Ramdas Pophale) SiO2 
 PCOD9446855
Probable space group: P M M N
;
_chemical_formula_sum "Si O2"
_cell_formula_units_Z 64
_cell_length_a 8.641628
_cell_length_b 21.359798
_cell_length_c 21.285296
_cell_angle_alpha 90.000000
_cell_angle_beta 90.000000
_cell_angle_gamma 90.000000
_cell_volume 3928.912912
_symmetry_space_group_name_H-M "P M M N"
_symmetry_group_IT_number 59
_space_group.IT_coordinate_system_code '2'
_symmetry_cell_setting 'orthorhombic'
loop_
_space_group_symop_operation_xyz
x,y,z
1/2-x,1/2-y,z
1/2+x,-y,-z
-x,1/2+y,-z
-x,-y,-z
1/2+x,1/2+y,-z
1/2-x,y,z
x,1/2-y,z
loop_
_atom_site_type_symbol
_atom_site_label
_atom_site_fract_x
_atom_site_fract_y
_atom_site_fract_z
Si Si1 0.065439 0.817278 0.579186
Si Si2 0.567320 0.055440 0.956090
Si Si3 0.936749 0.637726 0.846069
Si Si4 0.565051 0.026418 0.302701
Si Si5 0.567444 0.997889 0.167549
Si Si6 0.436432 0.319163 0.015384
Si Si7 0.070282 0.339456 0.288376
Si Si8 0.564899 0.458621 0.443959
O O1 0.250000 0.818191 0.570244
O O2 0.006741 0.750000 0.553042
O O3 0.006792 0.885796 0.556525
O O4 0.028763 0.816032 0.653450
O O5 0.750000 0.053654 0.963035
O O6 0.520964 0.041986 0.884249
O O7 0.504546 0.122256 0.978497
O O8 0.500000 0.000000 0.000000
O O9 0.750000 0.627790 0.844126
O O10 0.976127 0.675869 0.782872
O O11 0.018725 0.570238 0.843726
O O12 0.974536 0.671246 0.911001
O O13 0.750000 0.043828 0.299770
O O14 0.456931 0.086074 0.291039
O O15 0.534112 0.010174 0.375350
O O16 0.538167 0.983482 0.241559
O O17 0.750000 0.991614 0.156259
O O18 0.250000 0.321710 0.010353
O O19 0.488042 0.250000 0.994788
O O20 0.250000 0.323701 0.298177
O O21 0.500000 0.500000 0.500000
O O22 0.750000 0.455641 0.450223
#
# Coordination Sequence:
#
# PCOD9446855 Si02
#       8
#     8   8   8   8   8   8   8   8
#     4   9  18  32  46  61  88 128 167 197 229 276
#     4  12  23  35  52  74  98 126 165 210 253 297
#     4   9  17  29  45  66  95 128 159 194 237 284
#     4   8  16  30  46  67  97 128 159 192 234 286
#     4  10  18  30  51  74  95 123 160 206 249 289
#     4  10  21  36  51  68  95 130 165 203 251 304
#     4   9  16  25  41  66  93 121 157 197 232 268
#     4   9  17  30  48  71  98 128 159 195 235 280
#
# _framework density 16.289491999999999
#
# number of rings (size 3 to 8) (size 9 to 14) (size 15 to 20)
#    0.000    2.500    1.250    2.625    0.000    4.000 
#    0.000    1.250    0.000    0.000    0.000    0.875 
#    0.000    5.000    0.000    0.000    0.000    0.000 
#
# Total GULP energy -356284.025776 kJ/mol
# GULP energy per Si atom -5566.937903 kJ/mol
# Density = 1.625242 g / cm^3
# Si number density = 16.289492 Si / 1000 Ang^3
#
#
#
# Elastic Constant Matrix: (Units=GPa)
#
#
# Indices 1 2 3 4 5 6 
#
# 1 22.3095 26.4089 27.0171 0.0000 0.0000 0.0000
# 2 26.4089 105.9348 66.1451 0.0000 0.0000 0.0000
# 3 27.0171 66.1451 107.7735 0.0000 0.0000 0.0000
# 4 0.0000 0.0000 0.0000 5.0469 0.0000 0.0000
# 5 0.0000 0.0000 0.0000 0.0000 24.7858 0.0000
# 6 0.0000 0.0000 0.0000 0.0000 0.0000 6.4019
#
#
#
# Elastic Compliance Matrix: (Units=1/GPa)
#
#
# Indices 1 2 3 4 5 6 
#
# 1 0.071131 -0.010699 -0.011265 0.000000 0.000000 0.000000
# 2 -0.010699 0.016914 -0.007699 0.000000 0.000000 0.000000
# 3 -0.011265 -0.007699 0.016828 0.000000 0.000000 0.000000
# 4 0.000000 0.000000 0.000000 0.198141 0.000000 0.000000
# 5 0.000000 0.000000 0.000000 0.000000 0.040346 0.000000
# 6 0.000000 0.000000 0.000000 0.000000 0.000000 0.156205
#
#
# Mechanical properties :
#
#
# Convention : Reuss Voigt Hill
#
# Bulk Modulus (GPa) = 21.95519 52.79558 37.37538
# Shear Modulus (GPa) = 8.70971 15.01003 11.85987
#
# Velocity S-wave (km/s) = 2.31483 3.03884 2.70120
# Velocity P-wave (km/s) = 4.54444 6.69283 5.72040
#
# Compressibility (1/GPa) = 0.04554732
#
# Stress axis : x y z
#
# Youngs Moduli (GPa) = 14.05862 59.12272 59.42539
#
# Poissons Ratio (x) = 0.63253 0.66944
# Poissons Ratio (y) = 0.15041 0.45751
# Poissons Ratio (z) = 0.15837 0.45518
#
# Static dielectric constant tensor:
#      x y z
#    x 1.551620 0.000000 0.000000 
#    y 0.000000 1.568560 0.000000 
#    z 0.000000 0.000000 1.569380 
# 
# From -- ./inp_files/29720.got.cif
#   From: 2010.05.17/outbox.cif.g08.bks.cpg/sg59_15_cif.got.tgz:29720.got - 2010.06.03 14:40:33.
