data_PCOD9446669
_publ_section_title
;
Structure prediction by ZEFSAII (Michael W. Deem and Ramdas Pophale) SiO2 
 PCOD9446669
Probable space group: P M M N
;
_chemical_formula_sum "Si O2"
_cell_formula_units_Z 64
_cell_length_a 20.533763
_cell_length_b 8.071139
_cell_length_c 20.872947
_cell_angle_alpha 90.000000
_cell_angle_beta 90.000000
_cell_angle_gamma 90.000000
_cell_volume 3459.291360
_symmetry_space_group_name_H-M "P M M N"
_symmetry_group_IT_number 59
_space_group.IT_coordinate_system_code '2'
_symmetry_cell_setting 'orthorhombic'
loop_
_space_group_symop_operation_xyz
x,y,z
1/2-x,1/2-y,z
1/2+x,-y,-z
-x,1/2+y,-z
-x,-y,-z
1/2+x,1/2+y,-z
1/2-x,y,z
x,1/2-y,z
loop_
_atom_site_type_symbol
_atom_site_label
_atom_site_fract_x
_atom_site_fract_y
_atom_site_fract_z
Si Si1 0.941426 0.447925 0.839693
Si Si2 0.589712 0.450234 0.700185
Si Si3 0.427249 0.443053 0.018782
Si Si4 0.677235 0.447661 0.083363
Si Si5 0.943716 0.050612 0.335284
Si Si6 0.428005 0.549610 0.522996
Si Si7 0.824262 0.047154 0.582943
Si Si8 0.912471 0.451284 0.196391
O O1 0.935472 0.250000 0.843987
O O2 0.906730 0.506407 0.774072
O O3 0.917364 0.522470 0.906114
O O4 0.017455 0.492521 0.830300
O O5 0.589888 0.250000 0.701186
O O6 0.519596 0.504652 0.672988
O O7 0.645167 0.505281 0.651032
O O8 0.424103 0.250000 0.005982
O O9 0.500000 0.500000 0.000000
O O10 0.372265 0.524098 0.974858
O O11 0.750000 0.514423 0.072935
O O12 0.682368 0.250000 0.091050
O O13 0.643093 0.511706 0.148298
O O14 0.939176 0.250000 0.335964
O O15 0.918981 0.989519 0.403972
O O16 0.908586 0.992063 0.270250
O O17 0.500000 0.500000 0.500000
O O18 0.425625 0.750000 0.523326
O O19 0.373062 0.491807 0.473311
O O20 0.750000 0.992864 0.574556
O O21 0.824359 0.250000 0.582401
O O22 0.912562 0.250000 0.196157
#
# Coordination Sequence:
#
# PCOD9446669 Si02
#       8
#     8   8   8   8   8   8   8   8
#     4  10  19  31  51  79 105 130 170 219 263 308
#     4   9  17  30  49  73  99 130 170 211 253 305
#     4  12  23  36  56  81 109 141 177 221 267 317
#     4  10  21  37  56  78 107 143 180 218 264 321
#     4   9  17  28  46  74 102 128 165 212 260 303
#     4  10  18  29  48  73 101 133 172 217 260 306
#     4   9  17  30  48  71 101 137 175 214 258 308
#     4   9  17  31  50  73 103 136 169 209 261 315
#
# _framework density 18.500899
#
# number of rings (size 3 to 8) (size 9 to 14) (size 15 to 20)
#    0.000    2.250    2.500    1.500    0.000    0.750 
#    0.000    1.250    0.000    7.500    0.000    0.000 
#    0.000    3.000    0.000    0.000    0.000    0.000 
#
# Total GULP energy -356941.333757 kJ/mol
# GULP energy per Si atom -5577.208340 kJ/mol
# Density = 1.845879 g / cm^3
# Si number density = 18.500899 Si / 1000 Ang^3
#
#
#
# Elastic Constant Matrix: (Units=GPa)
#
#
# Indices 1 2 3 4 5 6 
#
# 1 128.0970 -0.4563 85.6670 0.0000 0.0000 0.0000
# 2 -0.4563 10.0916 -1.6619 0.0000 0.0000 0.0000
# 3 85.6670 -1.6619 162.8337 0.0000 0.0000 0.0000
# 4 0.0000 0.0000 0.0000 14.8173 0.0000 0.0000
# 5 0.0000 0.0000 0.0000 0.0000 23.4083 0.0000
# 6 0.0000 0.0000 0.0000 0.0000 0.0000 17.2316
#
#
#
# Elastic Compliance Matrix: (Units=1/GPa)
#
#
# Indices 1 2 3 4 5 6 
#
# 1 0.012047 -0.000500 -0.006343 0.000000 0.000000 0.000000
# 2 -0.000500 0.099280 0.001276 0.000000 0.000000 0.000000
# 3 -0.006343 0.001276 0.009491 0.000000 0.000000 0.000000
# 4 0.000000 0.000000 0.000000 0.067489 0.000000 0.000000
# 5 0.000000 0.000000 0.000000 0.000000 0.042720 0.000000
# 6 0.000000 0.000000 0.000000 0.000000 0.000000 0.058033
#
#
# Mechanical properties :
#
#
# Convention : Reuss Voigt Hill
#
# Bulk Modulus (GPa) = 9.11705 52.01332 30.56518
# Shear Modulus (GPa) = 14.84765 25.58968 20.21866
#
# Velocity S-wave (km/s) = 2.83598 3.72312 3.30941
# Velocity P-wave (km/s) = 3.95756 6.83060 5.58209
#
# Compressibility (1/GPa) = 0.10968464
#
# Stress axis : x y z
#
# Youngs Moduli (GPa) = 83.01020 10.07256 105.36008
#
# Poissons Ratio (x) = 0.00503 0.66829
# Poissons Ratio (y) = 0.04149 -0.13446
# Poissons Ratio (z) = 0.52652 -0.01285
#
# Static dielectric constant tensor:
#      x y z
#    x 1.594290 0.000000 0.000000 
#    y 0.000000 1.653620 0.000000 
#    z 0.000000 0.000000 1.664790 
# 
# From -- ./inp_files/30985.got.cif
#   From: 2010.05.17/outbox.cif.g08.bks.cpg/sg59_16_cif.got.tgz:30985.got - 2010.06.03 14:40:33.
