data_PCOD9446791
_publ_section_title
;
Structure prediction by ZEFSAII (Michael W. Deem and Ramdas Pophale) SiO2 
 PCOD9446791
Probable space group: P M M N
;
_chemical_formula_sum "Si O2"
_cell_formula_units_Z 40
_cell_length_a 9.586647
_cell_length_b 21.542506
_cell_length_c 11.812859
_cell_angle_alpha 90.000000
_cell_angle_beta 90.000000
_cell_angle_gamma 90.000000
_cell_volume 2439.596372
_symmetry_space_group_name_H-M "P M M N"
_symmetry_group_IT_number 59
_space_group.IT_coordinate_system_code '2'
_symmetry_cell_setting 'orthorhombic'
loop_
_space_group_symop_operation_xyz
x,y,z
1/2-x,1/2-y,z
1/2+x,-y,-z
-x,1/2+y,-z
-x,-y,-z
1/2+x,1/2+y,-z
1/2-x,y,z
x,1/2-y,z
loop_
_atom_site_type_symbol
_atom_site_label
_atom_site_fract_x
_atom_site_fract_y
_atom_site_fract_z
Si Si1 0.908033 0.176734 0.886134
Si Si2 0.913960 0.952911 0.422936
Si Si3 0.416588 0.321563 0.656052
Si Si4 0.590878 0.591978 0.967217
Si Si5 0.407058 0.992721 0.827071
O O1 0.750000 0.151589 0.875691
O O2 0.899931 0.250000 0.904471
O O3 0.995129 0.168554 0.770354
O O4 0.991126 0.145736 0.988156
O O5 0.750000 0.958117 0.450757
O O6 0.951426 0.879412 0.425928
O O7 0.931830 0.974504 0.292557
O O8 0.000000 0.000000 0.500000
O O9 0.250000 0.326815 0.681220
O O10 0.441191 0.250000 0.617374
O O11 0.750000 0.611220 0.947169
O O12 0.522244 0.557457 0.860851
O O13 0.591219 0.543344 0.072342
O O14 0.250000 0.965766 0.825369
#
# Coordination Sequence:
#
# PCOD9446791 Si02
#       5
#     8   8   8   8   8
#     4  10  19  29  45  72 103 132 162 200 249 302
#     4  10  20  34  51  75 103 133 170 212 256 301
#     4   9  17  32  52  72  98 130 166 210 256 300
#     4  10  18  30  49  71  97 129 163 199 241 296
#     4   9  18  32  47  69  99 127 160 202 249 295
#
# _framework density 16.396153999999999
#
# number of rings (size 3 to 8) (size 9 to 14) (size 15 to 20)
#    0.000    2.400    2.000    1.200    0.000    3.600 
#    0.000    0.000    0.000    1.200    0.000    5.600 
#    0.000    0.000    0.000    0.000    0.000    0.000 
#
# Total GULP energy -222780.395244 kJ/mol
# GULP energy per Si atom -5569.509881 kJ/mol
# Density = 1.635884 g / cm^3
# Si number density = 16.396154 Si / 1000 Ang^3
#
#
#
# Elastic Constant Matrix: (Units=GPa)
#
#
# Indices 1 2 3 4 5 6 
#
# 1 84.4540 54.5145 25.5798 0.0000 0.0000 0.0000
# 2 54.5145 96.2272 29.6415 0.0000 0.0000 0.0000
# 3 25.5798 29.6415 33.2120 0.0000 0.0000 0.0000
# 4 0.0000 0.0000 0.0000 27.4786 0.0000 0.0000
# 5 0.0000 0.0000 0.0000 0.0000 25.0210 0.0000
# 6 0.0000 0.0000 0.0000 0.0000 0.0000 27.0536
#
#
#
# Elastic Compliance Matrix: (Units=1/GPa)
#
#
# Indices 1 2 3 4 5 6 
#
# 1 0.019855 -0.009017 -0.007245 0.000000 0.000000 0.000000
# 2 -0.009017 0.018427 -0.009501 0.000000 0.000000 0.000000
# 3 -0.007245 -0.009501 0.044170 0.000000 0.000000 0.000000
# 4 0.000000 0.000000 0.000000 0.036392 0.000000 0.000000
# 5 0.000000 0.000000 0.000000 0.000000 0.039967 0.000000
# 6 0.000000 0.000000 0.000000 0.000000 0.000000 0.036964
#
#
# Mechanical properties :
#
#
# Convention : Reuss Voigt Hill
#
# Bulk Modulus (GPa) = 32.33567 48.15163 40.24365
# Shear Modulus (GPa) = 19.40924 22.85445 21.13184
#
# Velocity S-wave (km/s) = 3.44433 3.73754 3.59392
# Velocity P-wave (km/s) = 5.96508 6.93231 6.46680
#
# Compressibility (1/GPa) = 0.03092560
#
# Stress axis : x y z
#
# Youngs Moduli (GPa) = 50.36406 54.26848 22.63993
#
# Poissons Ratio (x) = 0.48932 0.16403
# Poissons Ratio (y) = 0.45411 0.21511
# Poissons Ratio (z) = 0.36490 0.51562
#
# Static dielectric constant tensor:
#      x y z
#    x 1.574860 0.000000 0.000000 
#    y 0.000000 1.582650 0.000000 
#    z 0.000000 0.000000 1.514940 
# 
# From -- ./inp_files/14024.got.cif
#   From: 2010.05.17/outbox.cif.g08.bks.cpg/sg59_8_cif.got.tgz:14024.got - 2010.06.03 14:40:33.
