data_PCOD9446446
_publ_section_title
;
Structure prediction by ZEFSAII (Michael W. Deem and Ramdas Pophale) SiO2 
 PCOD9446446
Probable space group: P M M N
;
_chemical_formula_sum "Si O2"
_cell_formula_units_Z 64
_cell_length_a 13.854143
_cell_length_b 18.033432
_cell_length_c 17.482421
_cell_angle_alpha 90.000000
_cell_angle_beta 90.000000
_cell_angle_gamma 90.000000
_cell_volume 4367.768652
_symmetry_space_group_name_H-M "P M M N"
_symmetry_group_IT_number 59
_space_group.IT_coordinate_system_code '2'
_symmetry_cell_setting 'orthorhombic'
loop_
_space_group_symop_operation_xyz
x,y,z
1/2-x,1/2-y,z
1/2+x,-y,-z
-x,1/2+y,-z
-x,-y,-z
1/2+x,1/2+y,-z
1/2-x,y,z
x,1/2-y,z
loop_
_atom_site_type_symbol
_atom_site_label
_atom_site_fract_x
_atom_site_fract_y
_atom_site_fract_z
Si Si1 0.510939 0.444558 0.257914
Si Si2 0.862962 0.942056 0.349732
Si Si3 0.364221 0.560333 0.981440
Si Si4 0.365515 0.335882 0.339675
Si Si5 0.640046 0.662880 0.201678
Si Si6 0.491640 0.052301 0.883172
Si Si7 0.633146 0.833017 0.480787
Si Si8 0.135287 0.834534 0.843431
O O1 0.569769 0.491064 0.321553
O O2 0.424125 0.396679 0.292517
O O3 0.482048 0.502249 0.190693
O O4 0.582646 0.386892 0.216786
O O5 0.750000 0.964902 0.358706
O O6 0.864638 0.881199 0.281660
O O7 0.898357 0.899072 0.425322
O O8 0.250000 0.548658 0.989118
O O9 0.414165 0.493986 0.933643
O O10 0.380968 0.632091 0.927957
O O11 0.418059 0.566568 0.062007
O O12 0.250000 0.344815 0.331274
O O13 0.388625 0.250000 0.318418
O O14 0.389363 0.344064 0.429968
O O15 0.750000 0.652150 0.172243
O O16 0.624511 0.750000 0.212632
O O17 0.562134 0.625314 0.146749
O O18 0.750000 0.831738 0.474636
O O19 0.599496 0.750000 0.457961
O O20 0.250000 0.837614 0.829855
O O21 0.102435 0.750000 0.837916
#
# Coordination Sequence:
#
# PCOD9446446 Si02
#       8
#     8   8   8   8   8   8   8   8
#     4  10  18  28  43  63  88 112 135 168 212 254
#     4   9  16  26  42  65  90 113 138 169 208 253
#     4   9  17  30  45  59  79 108 139 170 208 251
#     4   9  18  31  45  61  83 113 147 179 208 241
#     4   9  16  26  42  63  86 111 136 167 210 254
#     4   9  18  29  42  63  85 107 136 173 211 251
#     4   8  14  26  43  62  86 115 145 176 206 238
#     4   9  17  29  45  63  81 104 135 169 206 249
#
# _framework density 14.652791000000001
#
# number of rings (size 3 to 8) (size 9 to 14) (size 15 to 20)
#    0.000    3.000    0.000    2.250    0.000    6.000 
#    0.000    0.000    0.000    0.000    0.000   12.250 
#    0.000    2.500    0.000    0.500    0.000    0.000 
#
# Total GULP energy -356288.459117 kJ/mol
# GULP energy per Si atom -5567.007174 kJ/mol
# Density = 1.461944 g / cm^3
# Si number density = 14.652791 Si / 1000 Ang^3
#
#
#
# Elastic Constant Matrix: (Units=GPa)
#
#
# Indices 1 2 3 4 5 6 
#
# 1 58.6727 45.7691 40.3144 0.0000 0.0000 0.0000
# 2 45.7691 95.2520 41.8962 0.0000 0.0000 0.0000
# 3 40.3144 41.8962 62.7428 0.0000 0.0000 0.0000
# 4 0.0000 0.0000 0.0000 15.5194 0.0000 0.0000
# 5 0.0000 0.0000 0.0000 0.0000 19.5569 0.0000
# 6 0.0000 0.0000 0.0000 0.0000 0.0000 23.8307
#
#
#
# Elastic Compliance Matrix: (Units=1/GPa)
#
#
# Indices 1 2 3 4 5 6 
#
# 1 0.036379 -0.010193 -0.016569 0.000000 0.000000 0.000000
# 2 -0.010193 0.017720 -0.005283 0.000000 0.000000 0.000000
# 3 -0.016569 -0.005283 0.030112 0.000000 0.000000 0.000000
# 4 0.000000 0.000000 0.000000 0.064436 0.000000 0.000000
# 5 0.000000 0.000000 0.000000 0.000000 0.051133 0.000000
# 6 0.000000 0.000000 0.000000 0.000000 0.000000 0.041963
#
#
# Mechanical properties :
#
#
# Convention : Reuss Voigt Hill
#
# Bulk Modulus (GPa) = 49.69762 52.51410 51.10586
# Shear Modulus (GPa) = 15.99800 17.69392 16.84596
#
# Velocity S-wave (km/s) = 3.30783 3.47875 3.39437
# Velocity P-wave (km/s) = 6.96990 7.21473 7.09337
#
# Compressibility (1/GPa) = 0.02012169
#
# Stress axis : x y z
#
# Youngs Moduli (GPa) = 27.48817 56.43354 33.20939
#
# Poissons Ratio (x) = 0.57521 0.55024
# Poissons Ratio (y) = 0.28018 0.17545
# Poissons Ratio (z) = 0.45545 0.29815
#
# Static dielectric constant tensor:
#      x y z
#    x 1.461460 0.000000 0.000000 
#    y 0.000000 1.480820 0.000000 
#    z 0.000000 0.000000 1.483660 
# 
# From -- ./inp_files/23464.got.cif
#   From: 2010.05.17/outbox.cif.g08.bks.cpg/sg59_12_cif.got.tgz:23464.got - 2010.06.03 14:40:33.
