data_PCOD9446076
_publ_section_title
;
Structure prediction by ZEFSAII (Michael W. Deem and Ramdas Pophale) SiO2 
 PCOD9446076
Probable space group: P N N M
;
_chemical_formula_sum "Si O2"
_cell_formula_units_Z 56
_cell_length_a 15.000000
_cell_length_b 9.000000
_cell_length_c 21.000000
_cell_angle_alpha 90.000000
_cell_angle_beta 90.000000
_cell_angle_gamma 90.000000
_cell_volume 2835.000000
_symmetry_space_group_name_H-M "P N N M"
_symmetry_group_IT_number 58
_symmetry_cell_setting 'orthorhombic'
loop_
_space_group_symop_operation_xyz
x,y,z
-x,-y,z
1/2+x,1/2-y,1/2-z
1/2-x,1/2+y,1/2-z
-x,-y,-z
x,y,-z
1/2-x,1/2+y,1/2+z
1/2+x,1/2-y,1/2+z
loop_
_atom_site_type_symbol
_atom_site_label
_atom_site_fract_x
_atom_site_fract_y
_atom_site_fract_z
Si Si1 0.938770 0.855592 0.072779
Si Si2 0.332965 0.287575 0.799228
Si Si3 0.272299 0.116253 0.072396
Si Si4 0.026249 0.327507 0.681502
Si Si5 0.757059 0.411986 0.182487
Si Si6 0.339545 0.777036 0.075796
Si Si7 0.577516 0.119517 0.683806
O O1 0.834541 0.897785 0.074017
O O2 0.948503 0.738446 0.130198
O O3 0.957951 0.799610 0.000000
O O4 0.000000 0.000000 0.082833
O O5 0.301068 0.218418 0.867696
O O6 0.437813 0.257325 0.798006
O O7 0.314388 0.463629 0.795267
O O8 0.288325 0.195008 0.740695
O O9 0.312193 0.950942 0.079801
O O10 0.296389 0.169941 0.000000
O O11 0.069164 0.266983 0.616616
O O12 0.090520 0.319795 0.743787
O O13 0.000000 0.500000 0.670596
O O14 0.726626 0.320421 0.120147
O O15 0.837571 0.523074 0.164393
O O16 0.343068 0.738278 0.000000
O O17 0.500000 0.000000 0.690410
#
# Coordination Sequence:
#
# PCOD9446076 Si02
#       7
#     8   8   8   8   8   8   8
#     4  10  23  40  61  96 134 172 221 267 322 393
#     4  12  23  42  71  95 132 175 215 274 328 394
#     4  10  21  39  64  94 126 171 217 261 327 393
#     4  11  22  44  67 100 133 166 227 273 335 397
#     4  12  25  42  66  96 133 173 222 270 334 397
#     4  11  26  45  68  98 134 177 226 277 334 400
#     4  11  22  41  65  96 132 172 217 278 330 394
#
# _framework density 19.753086
#
# number of rings (size 3 to 8) (size 9 to 14) (size 15 to 20)
#    0.000    1.000    5.714    1.714    2.000    4.000 
#    0.000    0.714    0.000    0.000    0.000    0.000 
#    0.000    0.000    0.000    0.000    0.000    0.000 
#
# Total GULP energy -312646.904715 kJ/mol
# GULP energy per Si atom -5582.980441 kJ/mol
# Density = 1.970813 g / cm^3
# Si number density = 19.753086 Si / 1000 Ang^3
#
#
#
# Elastic Constant Matrix: (Units=GPa)
#
#
# Indices 1 2 3 4 5 6 
#
# 1 68.7888 8.2469 30.5883 0.0000 0.0000 0.0000
# 2 8.2469 51.0444 56.6811 0.0000 0.0000 0.0000
# 3 30.5883 56.6811 195.2740 0.0000 0.0000 0.0000
# 4 0.0000 0.0000 0.0000 32.2153 0.0000 0.0000
# 5 0.0000 0.0000 0.0000 0.0000 32.1956 0.0000
# 6 0.0000 0.0000 0.0000 0.0000 0.0000 33.1609
#
#
#
# Elastic Compliance Matrix: (Units=1/GPa)
#
#
# Indices 1 2 3 4 5 6 
#
# 1 0.015628 0.000285 -0.002531 0.000000 0.000000 0.000000
# 2 0.000285 0.028914 -0.008437 0.000000 0.000000 0.000000
# 3 -0.002531 -0.008437 0.007967 0.000000 0.000000 0.000000
# 4 0.000000 0.000000 0.000000 0.031041 0.000000 0.000000
# 5 0.000000 0.000000 0.000000 0.000000 0.031060 0.000000
# 6 0.000000 0.000000 0.000000 0.000000 0.000000 0.030156
#
#
# Mechanical properties :
#
#
# Convention : Reuss Voigt Hill
#
# Bulk Modulus (GPa) = 32.10992 56.23774 44.17383
# Shear Modulus (GPa) = 28.32658 34.15374 31.24016
#
# Velocity S-wave (km/s) = 3.79097 4.16268 3.98116
# Velocity P-wave (km/s) = 5.95423 7.18582 6.59882
#
# Compressibility (1/GPa) = 0.03114303
#
# Stress axis : x y z
#
# Youngs Moduli (GPa) = 63.98583 34.58569 125.52529
#
# Poissons Ratio (x) = -0.00987 0.31770
# Poissons Ratio (y) = -0.01826 1.05910
# Poissons Ratio (z) = 0.16194 0.29181
#
# Static dielectric constant tensor:
#      x y z
#    x 1.798780 0.000000 0.000000 
#    y 0.000000 1.691750 0.000000 
#    z 0.000000 0.000000 1.700680 
# 
# From -- ./inp_files/30001.got.cif
#   From: 2010.05.17/outbox.ucp.g08.bks.cvg/sg58_16_cif.got.tgz:30001.got - 2010.06.11 16:41:41.
