data_PCOD9446795
_publ_section_title
;
Structure prediction by ZEFSAII (Michael W. Deem and Ramdas Pophale) SiO2 
 PCOD9446795
Probable space group: P M M N
;
_chemical_formula_sum "Si O2"
_cell_formula_units_Z 64
_cell_length_a 20.535222
_cell_length_b 7.594030
_cell_length_c 20.969934
_cell_angle_alpha 90.000000
_cell_angle_beta 90.000000
_cell_angle_gamma 90.000000
_cell_volume 3270.158285
_symmetry_space_group_name_H-M "P M M N"
_symmetry_group_IT_number 59
_space_group.IT_coordinate_system_code '2'
_symmetry_cell_setting 'orthorhombic'
loop_
_space_group_symop_operation_xyz
x,y,z
1/2-x,1/2-y,z
1/2+x,-y,-z
-x,1/2+y,-z
-x,-y,-z
1/2+x,1/2+y,-z
1/2-x,y,z
x,1/2-y,z
loop_
_atom_site_type_symbol
_atom_site_label
_atom_site_fract_x
_atom_site_fract_y
_atom_site_fract_z
Si Si1 0.941560 0.535163 0.836428
Si Si2 0.591373 0.537902 0.698743
Si Si3 0.426620 0.459143 0.022818
Si Si4 0.677258 0.459293 0.085687
Si Si5 0.945059 0.034991 0.336879
Si Si6 0.426663 0.538344 0.522364
Si Si7 0.822913 0.040575 0.580110
Si Si8 0.910909 0.464798 0.198997
O O1 0.939702 0.750000 0.837093
O O2 0.904669 0.477591 0.772213
O O3 0.917738 0.471391 0.905089
O O4 0.017429 0.486367 0.826996
O O5 0.590150 0.750000 0.699742
O O6 0.520659 0.480845 0.671805
O O7 0.647088 0.483763 0.650227
O O8 0.421544 0.250000 0.025904
O O9 0.500000 0.500000 0.000000
O O10 0.372727 0.518152 0.972496
O O11 0.750000 0.529569 0.074243
O O12 0.682907 0.250000 0.094836
O O13 0.643305 0.529851 0.150021
O O14 0.944759 0.250000 0.337304
O O15 0.918938 0.974079 0.404989
O O16 0.907768 0.979128 0.272742
O O17 0.500000 0.500000 0.500000
O O18 0.420474 0.750000 0.523852
O O19 0.374207 0.468681 0.471759
O O20 0.750000 0.968111 0.574838
O O21 0.819129 0.250000 0.569313
O O22 0.909426 0.250000 0.198976
#
# Coordination Sequence:
#
# PCOD9446795 Si02
#       8
#     8   8   8   8   8   8   8   8
#     4   8  15  28  50  75  97 121 158 210 256 287
#     4   9  16  30  52  74  92 119 163 210 244 281
#     4  11  20  33  54  78 104 135 170 212 258 307
#     4  10  20  34  52  75 105 139 172 207 253 309
#     4   8  14  25  47  74  95 117 156 207 247 277
#     4  10  18  30  49  72  97 127 163 205 245 290
#     4  10  21  34  46  67 104 140 160 190 251 310
#     4   8  13  26  47  71  98 125 156 201 251 292
#
# _framework density 19.570919
#
# number of rings (size 3 to 8) (size 9 to 14) (size 15 to 20)
#    0.000    2.750    2.500    1.875    0.000    0.500 
#    0.000    2.500    0.000    8.250    0.000    0.000 
#    0.000    2.000    0.000    0.000    0.000    0.000 
#
# Total GULP energy -356875.160673 kJ/mol
# GULP energy per Si atom -5576.174386 kJ/mol
# Density = 1.952637 g / cm^3
# Si number density = 19.570919 Si / 1000 Ang^3
#
#
#
# Elastic Constant Matrix: (Units=GPa)
#
#
# Indices 1 2 3 4 5 6 
#
# 1 144.0121 3.8166 105.6374 0.0000 0.0000 0.0000
# 2 3.8166 41.7254 3.2801 0.0000 0.0000 0.0000
# 3 105.6374 3.2801 203.6823 0.0000 0.0000 0.0000
# 4 0.0000 0.0000 0.0000 14.4740 0.0000 0.0000
# 5 0.0000 0.0000 0.0000 0.0000 20.3061 0.0000
# 6 0.0000 0.0000 0.0000 0.0000 0.0000 12.9529
#
#
#
# Elastic Compliance Matrix: (Units=1/GPa)
#
#
# Indices 1 2 3 4 5 6 
#
# 1 0.011221 -0.000570 -0.005811 0.000000 0.000000 0.000000
# 2 -0.000570 0.024026 -0.000091 0.000000 0.000000 0.000000
# 3 -0.005811 -0.000091 0.007925 0.000000 0.000000 0.000000
# 4 0.000000 0.000000 0.000000 0.069089 0.000000 0.000000
# 5 0.000000 0.000000 0.000000 0.000000 0.049246 0.000000
# 6 0.000000 0.000000 0.000000 0.000000 0.000000 0.077203
#
#
# Mechanical properties :
#
#
# Convention : Reuss Voigt Hill
#
# Bulk Modulus (GPa) = 33.08184 68.32086 50.70135
# Shear Modulus (GPa) = 19.10373 27.99232 23.54802
#
# Velocity S-wave (km/s) = 3.12769 3.78604 3.47250
# Velocity P-wave (km/s) = 5.47572 7.35508 6.48386
#
# Compressibility (1/GPa) = 0.03022807
#
# Stress axis : x y z
#
# Youngs Moduli (GPa) = 89.11719 41.62239 126.18848
#
# Poissons Ratio (x) = 0.02371 0.73323
# Poissons Ratio (y) = 0.05076 0.01154
# Poissons Ratio (z) = 0.51782 0.00381
#
# Static dielectric constant tensor:
#      x y z
#    x 1.649600 0.000000 0.000000 
#    y 0.000000 1.757490 0.000000 
#    z 0.000000 0.000000 1.709370 
# 
# From -- ./inp_files/30984.got.cif
#   From: 2010.05.17/outbox.cif.g08.bks.cpg/sg59_16_cif.got.tgz:30984.got - 2010.06.03 14:40:33.
