data_PCOD9446723
_publ_section_title
;
Structure prediction by ZEFSAII (Michael W. Deem and Ramdas Pophale) SiO2 
 PCOD9446723
Probable space group: P M M N
;
_chemical_formula_sum "Si O2"
_cell_formula_units_Z 40
_cell_length_a 24.541199
_cell_length_b 13.773208
_cell_length_c 7.328850
_cell_angle_alpha 90.000000
_cell_angle_beta 90.000000
_cell_angle_gamma 90.000000
_cell_volume 2477.232199
_symmetry_space_group_name_H-M "P M M N"
_symmetry_group_IT_number 59
_space_group.IT_coordinate_system_code '2'
_symmetry_cell_setting 'orthorhombic'
loop_
_space_group_symop_operation_xyz
x,y,z
1/2-x,1/2-y,z
1/2+x,-y,-z
-x,1/2+y,-z
-x,-y,-z
1/2+x,1/2+y,-z
1/2-x,y,z
x,1/2-y,z
loop_
_atom_site_type_symbol
_atom_site_label
_atom_site_fract_x
_atom_site_fract_y
_atom_site_fract_z
Si Si1 0.574521 0.366667 0.947273
Si Si2 0.990005 0.862250 0.371900
Si Si3 0.808460 0.363019 0.902479
Si Si4 0.310496 0.637292 0.654075
Si Si5 0.075537 0.949276 0.648372
O O1 0.579824 0.250000 0.980248
O O2 0.524020 0.380911 0.813644
O O3 0.631523 0.400512 0.853623
O O4 0.568685 0.419588 0.139916
O O5 0.973468 0.750000 0.378145
O O6 0.033083 0.885644 0.531886
O O7 0.941519 0.939536 0.381868
O O8 0.750000 0.406959 0.845864
O O9 0.807046 0.250000 0.846191
O O10 0.809283 0.364840 0.124278
O O11 0.250000 0.607556 0.591701
O O12 0.318918 0.750000 0.602302
O O13 0.362435 0.575695 0.595753
#
# Coordination Sequence:
#
# PCOD9446723 Si02
#       5
#     8   8   8   8   8
#     4   9  16  27  43  62  86 113 141 173 210 254
#     4  10  20  30  42  63  86 112 148 180 207 248
#     4   7  10  18  34  56  81 108 133 159 198 245
#     4   8  13  23  42  65  84 105 135 168 207 256
#     4  10  18  30  46  61  86 117 141 173 216 254
#
# _framework density 16.147053
#
# number of rings (size 3 to 8) (size 9 to 14) (size 15 to 20)
#    0.000    3.200    0.000    4.800    0.000    0.000 
#    0.000    1.000    0.000    4.200    0.000    0.000 
#    0.000    0.000    0.000   12.400    0.000    0.600 
#
# Total GULP energy -222690.336357 kJ/mol
# GULP energy per Si atom -5567.258409 kJ/mol
# Density = 1.611030 g / cm^3
# Si number density = 16.147053 Si / 1000 Ang^3
#
#
#
# Elastic Constant Matrix: (Units=GPa)
#
#
# Indices 1 2 3 4 5 6 
#
# 1 131.3356 63.5793 13.4805 0.0000 0.0000 0.0000
# 2 63.5793 71.0742 15.3442 0.0000 0.0000 0.0000
# 3 13.4805 15.3442 54.6119 0.0000 0.0000 0.0000
# 4 0.0000 0.0000 0.0000 7.8316 0.0000 0.0000
# 5 0.0000 0.0000 0.0000 0.0000 -964.1370 0.0000
# 6 0.0000 0.0000 0.0000 0.0000 0.0000 14.0547
#
#
#
# Elastic Compliance Matrix: (Units=1/GPa)
#
#
# Indices 1 2 3 4 5 6 
#
# 1 0.013430 -0.012028 0.000064 0.000000 0.000000 0.000000
# 2 -0.012028 0.025750 -0.004266 0.000000 0.000000 0.000000
# 3 0.000064 -0.004266 0.019494 0.000000 0.000000 0.000000
# 4 0.000000 0.000000 0.000000 0.127688 0.000000 0.000000
# 5 0.000000 0.000000 0.000000 0.000000 -0.001037 0.000000
# 6 0.000000 0.000000 0.000000 0.000000 0.000000 0.071151
#
#
# Mechanical properties :
#
#
# Convention : Reuss Voigt Hill
#
# Bulk Modulus (GPa) = 38.14595 49.09219 43.61907
# Shear Modulus (GPa) = 16.79694 -177.47565 -80.33936
#
# Velocity S-wave (km/s) = 3.22879 -10.49527 -7.06136
# Velocity P-wave (km/s) = 6.12988 10.78881 6.27786
#
# Compressibility (1/GPa) = 0.02621510
#
# Stress axis : x y z
#
# Youngs Moduli (GPa) = 74.45959 38.83459 51.29840
#
# Poissons Ratio (x) = 0.46709 -0.00330
# Poissons Ratio (y) = 0.89558 0.21884
# Poissons Ratio (z) = -0.00479 0.16567
#
# Static dielectric constant tensor:
#      x y z
#    x 0.910200 0.000000 0.000000 
#    y 0.000000 1.507460 0.000000 
#    z 0.000000 0.000000 1.587860 
# 
# From -- ./inp_files/9148.got.cif
#   From: 2010.05.17/outbox.cif.g08.bks.cpg/sg59_5_cif.got.tgz:9148.got - 2010.06.03 14:40:33.
