data_PCOD9446546
_publ_section_title
;
Structure prediction by ZEFSAII (Michael W. Deem and Ramdas Pophale) SiO2 
 PCOD9446546
Probable space group: P M M N
;
_chemical_formula_sum "Si O2"
_cell_formula_units_Z 58
_cell_length_a 7.772327
_cell_length_b 15.492078
_cell_length_c 25.974439
_cell_angle_alpha 90.000000
_cell_angle_beta 90.000000
_cell_angle_gamma 90.000000
_cell_volume 3127.569112
_symmetry_space_group_name_H-M "P M M N"
_symmetry_group_IT_number 59
_space_group.IT_coordinate_system_code '2'
_symmetry_cell_setting 'orthorhombic'
loop_
_space_group_symop_operation_xyz
x,y,z
1/2-x,1/2-y,z
1/2+x,-y,-z
-x,1/2+y,-z
-x,-y,-z
1/2+x,1/2+y,-z
1/2-x,y,z
x,1/2-y,z
loop_
_atom_site_type_symbol
_atom_site_label
_atom_site_fract_x
_atom_site_fract_y
_atom_site_fract_z
Si Si1 0.946954 0.126884 0.958983
Si Si2 0.543092 0.346523 0.587128
Si Si3 0.949741 0.438404 0.065499
Si Si4 0.456698 0.531184 0.622357
Si Si5 0.956991 0.349125 0.284860
Si Si6 0.459703 0.651797 0.530661
Si Si7 0.455252 0.348452 0.169719
Si Si8 0.250000 0.250000 0.926255
O O1 0.750000 0.157047 0.952660
O O2 0.095840 0.176278 0.929216
O O3 0.996294 0.128448 0.019945
O O4 0.950144 0.026681 0.943022
O O5 0.750000 0.343102 0.585492
O O6 0.483335 0.250000 0.602947
O O7 0.496407 0.429807 0.620407
O O8 0.482351 0.361867 0.528141
O O9 0.750000 0.457962 0.056557
O O10 0.973542 0.401830 0.122222
O O11 0.250000 0.538562 0.622068
O O12 0.520626 0.585074 0.671606
O O13 0.520945 0.580291 0.570899
O O14 0.750000 0.345410 0.289074
O O15 0.020862 0.250000 0.291624
O O16 0.000388 0.378945 0.227184
O O17 0.250000 0.649350 0.530237
O O18 0.506966 0.750000 0.546217
O O19 0.250000 0.347456 0.164881
O O20 0.520615 0.250000 0.166258
#
# Coordination Sequence:
#
# PCOD9446546 Si02
#       8
#     8   8   8   8   8   8   8   2
#     4  10  22  36  55  82 115 151 190 229 274 325
#     4   9  18  31  45  64  92 126 162 200 243 295
#     4  10  20  36  54  79 113 147 180 223 270 319
#     4  10  18  28  48  72  93 124 161 202 249 296
#     4   9  18  33  49  71 101 129 161 201 249 312
#     4   8  14  26  44  67  95 126 159 193 237 299
#     4  10  21  33  52  78 107 139 174 213 257 310
#     4  12  22  36  56  82 114 156 190 236 268 326
#
# _framework density 18.544753
#
# number of rings (size 3 to 8) (size 9 to 14) (size 15 to 20)
#    0.000    2.483    0.690    2.690    2.897    3.310 
#    0.000    0.000    0.000    2.069    1.793    0.000 
#    0.000    0.000    0.000    0.000    0.000    0.000 
#
# Total GULP energy -322921.002809 kJ/mol
# GULP energy per Si atom -5567.603497 kJ/mol
# Density = 1.850254 g / cm^3
# Si number density = 18.544753 Si / 1000 Ang^3
#
#
#
# Elastic Constant Matrix: (Units=GPa)
#
#
# Indices 1 2 3 4 5 6 
#
# 1 53.7085 7.6189 0.5834 0.0000 0.0000 0.0000
# 2 7.6189 88.9216 51.7092 0.0000 0.0000 0.0000
# 3 0.5834 51.7092 87.3274 0.0000 0.0000 0.0000
# 4 0.0000 0.0000 0.0000 29.0228 0.0000 0.0000
# 5 0.0000 0.0000 0.0000 0.0000 12.3998 0.0000
# 6 0.0000 0.0000 0.0000 0.0000 0.0000 23.9835
#
#
#
# Elastic Compliance Matrix: (Units=1/GPa)
#
#
# Indices 1 2 3 4 5 6 
#
# 1 0.018940 -0.002363 0.001273 0.000000 0.000000 0.000000
# 2 -0.002363 0.017447 -0.010315 0.000000 0.000000 0.000000
# 3 0.001273 -0.010315 0.017550 0.000000 0.000000 0.000000
# 4 0.000000 0.000000 0.000000 0.034456 0.000000 0.000000
# 5 0.000000 0.000000 0.000000 0.000000 0.080647 0.000000
# 6 0.000000 0.000000 0.000000 0.000000 0.000000 0.041695
#
#
# Mechanical properties :
#
#
# Convention : Reuss Voigt Hill
#
# Bulk Modulus (GPa) = 32.12637 38.86451 35.49544
# Shear Modulus (GPa) = 20.49845 24.41761 22.45803
#
# Velocity S-wave (km/s) = 3.32829 3.63255 3.48374
# Velocity P-wave (km/s) = 5.66845 6.21261 5.94676
#
# Compressibility (1/GPa) = 0.03112708
#
# Stress axis : x y z
#
# Youngs Moduli (GPa) = 52.79721 57.31799 56.97881
#
# Poissons Ratio (x) = 0.13543 -0.07251
# Poissons Ratio (y) = 0.12475 0.58773
# Poissons Ratio (z) = -0.06719 0.59123
#
# Static dielectric constant tensor:
#      x y z
#    x 1.674520 0.000000 0.000000 
#    y 0.000000 1.846400 0.000000 
#    z 0.000000 0.000000 1.635380 
# 
# From -- ./inp_files/31334.got.cif
#   From: 2010.05.17/outbox.cif.g08.bks.cpg/sg59_16_cif.got.tgz:31334.got - 2010.06.03 14:40:33.
