data_PCOD9446190
_publ_section_title
;
Structure prediction by ZEFSAII (Michael W. Deem and Ramdas Pophale) SiO2 
 PCOD9446190
Probable space group: P M M N
;
_chemical_formula_sum "Si O2"
_cell_formula_units_Z 64
_cell_length_a 9.025249
_cell_length_b 23.087330
_cell_length_c 20.887011
_cell_angle_alpha 90.000000
_cell_angle_beta 90.000000
_cell_angle_gamma 90.000000
_cell_volume 4352.203548
_symmetry_space_group_name_H-M "P M M N"
_symmetry_group_IT_number 59
_space_group.IT_coordinate_system_code '2'
_symmetry_cell_setting 'orthorhombic'
loop_
_space_group_symop_operation_xyz
x,y,z
1/2-x,1/2-y,z
1/2+x,-y,-z
-x,1/2+y,-z
-x,-y,-z
1/2+x,1/2+y,-z
1/2-x,y,z
x,1/2-y,z
loop_
_atom_site_type_symbol
_atom_site_label
_atom_site_fract_x
_atom_site_fract_y
_atom_site_fract_z
Si Si1 0.427023 0.439937 0.478419
Si Si2 0.574672 0.473907 0.210519
Si Si3 0.928238 0.599717 0.388030
Si Si4 0.425325 0.109345 0.825723
Si Si5 0.579078 0.082229 0.954767
Si Si6 0.071875 0.477470 0.344187
Si Si7 0.425943 0.818604 0.286230
Si Si8 0.420990 0.445146 0.081741
O O1 0.500000 0.500000 0.500000
O O2 0.250000 0.446708 0.480727
O O3 0.464463 0.396140 0.535960
O O4 0.465063 0.434350 0.403517
O O5 0.750000 0.463723 0.214479
O O6 0.552841 0.543076 0.198671
O O7 0.494226 0.458616 0.276530
O O8 0.505491 0.442170 0.149052
O O9 0.750000 0.596896 0.380024
O O10 0.999430 0.539683 0.362132
O O11 0.994995 0.651065 0.346305
O O12 0.250000 0.120526 0.826047
O O13 0.491579 0.112297 0.897013
O O14 0.507732 0.151522 0.776998
O O15 0.750000 0.100608 0.956804
O O16 0.577549 0.013467 0.937574
O O17 0.501497 0.087389 0.023550
O O18 0.250000 0.483780 0.339969
O O19 0.250000 0.829544 0.289193
O O20 0.451246 0.750000 0.285542
O O21 0.250000 0.427660 0.087675
#
# Coordination Sequence:
#
# PCOD9446190 Si02
#       8
#     8   8   8   8   8   8   8   8
#     4   8  16  27  40  59  80 103 133 167 204 247
#     4  10  18  26  38  58  83 110 140 173 206 243
#     4  10  18  30  45  60  79 104 136 174 212 253
#     4  10  19  30  44  59  77 104 138 175 212 251
#     4   9  16  26  40  56  77 103 134 170 205 242
#     4  10  17  26  41  60  83 110 138 169 206 249
#     4  11  23  35  46  61  81 106 140 181 222 260
#     4   9  16  25  37  55  78 106 138 169 201 239
#
# _framework density 14.705195
#
# number of rings (size 3 to 8) (size 9 to 14) (size 15 to 20)
#    0.000    2.375    1.250    2.625    0.000    6.000 
#    0.000    0.000    0.000    0.000    0.000    0.000 
#    0.000    0.000    0.000    1.125    0.000   19.500 
#
# Total GULP energy -356511.385544 kJ/mol
# GULP energy per Si atom -5570.490399 kJ/mol
# Density = 1.467173 g / cm^3
# Si number density = 14.705195 Si / 1000 Ang^3
#
#
#
# Elastic Constant Matrix: (Units=GPa)
#
#
# Indices 1 2 3 4 5 6 
#
# 1 87.1881 30.0274 78.4811 0.0000 0.0000 0.0000
# 2 30.0274 28.6843 36.8122 0.0000 0.0000 0.0000
# 3 78.4811 36.8122 175.3245 0.0000 0.0000 0.0000
# 4 0.0000 0.0000 0.0000 8.3570 0.0000 0.0000
# 5 0.0000 0.0000 0.0000 0.0000 27.9675 0.0000
# 6 0.0000 0.0000 0.0000 0.0000 0.0000 11.9746
#
#
#
# Elastic Compliance Matrix: (Units=1/GPa)
#
#
# Indices 1 2 3 4 5 6 
#
# 1 0.023096 -0.014934 -0.007203 0.000000 0.000000 0.000000
# 2 -0.014934 0.057377 -0.005362 0.000000 0.000000 0.000000
# 3 -0.007203 -0.005362 0.010054 0.000000 0.000000 0.000000
# 4 0.000000 0.000000 0.000000 0.119661 0.000000 0.000000
# 5 0.000000 0.000000 0.000000 0.000000 0.035756 0.000000
# 6 0.000000 0.000000 0.000000 0.000000 0.000000 0.083510
#
#
# Mechanical properties :
#
#
# Convention : Reuss Voigt Hill
#
# Bulk Modulus (GPa) = 28.14596 64.64871 46.39734
# Shear Modulus (GPa) = 12.61684 19.38489 16.00086
#
# Velocity S-wave (km/s) = 2.93232 3.63469 3.30223
# Velocity P-wave (km/s) = 5.53591 7.85323 6.79410
#
# Compressibility (1/GPa) = 0.03552908
#
# Stress axis : x y z
#
# Youngs Moduli (GPa) = 43.29682 17.42850 99.46279
#
# Poissons Ratio (x) = 0.26027 0.71644
# Poissons Ratio (y) = 0.64658 0.53337
# Poissons Ratio (z) = 0.31187 0.09346
#
# Static dielectric constant tensor:
#      x y z
#    x 1.489200 0.000000 0.000000 
#    y 0.000000 1.441860 0.000000 
#    z 0.000000 0.000000 1.517000 
# 
# From -- ./inp_files/29736.got.cif
#   From: 2010.05.17/outbox.cif.g08.bks.cpg/sg59_15_cif.got.tgz:29736.got - 2010.06.03 14:40:33.
