data_PCOD9446834
_publ_section_title
;
Structure prediction by ZEFSAII (Michael W. Deem and Ramdas Pophale) SiO2 
 PCOD9446834
Probable space group: P M M N
;
_chemical_formula_sum "Si O2"
_cell_formula_units_Z 64
_cell_length_a 8.516829
_cell_length_b 17.727045
_cell_length_c 23.927643
_cell_angle_alpha 90.000000
_cell_angle_beta 90.000000
_cell_angle_gamma 90.000000
_cell_volume 3612.552732
_symmetry_space_group_name_H-M "P M M N"
_symmetry_group_IT_number 59
_space_group.IT_coordinate_system_code '2'
_symmetry_cell_setting 'orthorhombic'
loop_
_space_group_symop_operation_xyz
x,y,z
1/2-x,1/2-y,z
1/2+x,-y,-z
-x,1/2+y,-z
-x,-y,-z
1/2+x,1/2+y,-z
1/2-x,y,z
x,1/2-y,z
loop_
_atom_site_type_symbol
_atom_site_label
_atom_site_fract_x
_atom_site_fract_y
_atom_site_fract_z
Si Si1 0.437338 0.427051 0.533594
Si Si2 0.939392 0.982218 0.759616
Si Si3 0.060587 0.167406 0.176706
Si Si4 0.939300 0.408650 0.069743
Si Si5 0.561185 0.517771 0.631208
Si Si6 0.562510 0.558784 0.134042
Si Si7 0.938373 0.336096 0.435648
Si Si8 0.439326 0.836485 0.044167
O O1 0.500000 0.500000 0.500000
O O2 0.250000 0.424575 0.531696
O O3 0.495304 0.447524 0.595438
O O4 0.505866 0.357401 0.498495
O O5 0.750000 0.983690 0.760635
O O6 0.000161 0.043479 0.803842
O O7 0.992558 0.901212 0.784198
O O8 0.989020 0.989232 0.695566
O O9 0.250000 0.164799 0.174236
O O10 0.012882 0.250000 0.197058
O O11 0.994893 0.152381 0.114986
O O12 0.750000 0.409538 0.068654
O O13 0.994104 0.488338 0.095231
O O14 0.995978 0.387325 0.008042
O O15 0.750000 0.517082 0.627733
O O16 0.505019 0.597625 0.604392
O O17 0.750000 0.557465 0.135232
O O18 0.503141 0.632232 0.102325
O O19 0.750000 0.340548 0.433630
O O20 0.986149 0.250000 0.421403
O O21 0.250000 0.840128 0.045233
O O22 0.485091 0.750000 0.034415
#
# Coordination Sequence:
#
# PCOD9446834 Si02
#       8
#     8   8   8   8   8   8   8   8
#     4  10  18  30  50  73 100 132 165 201 239 282
#     4   9  19  34  51  70  95 131 169 202 238 285
#     4   9  17  29  45  67  96 128 161 198 239 283
#     4   9  18  32  49  70  95 125 160 195 240 298
#     4  10  19  32  52  75  99 131 171 209 243 286
#     4  10  20  33  51  73  97 126 161 205 248 288
#     4  10  20  33  50  75 108 139 165 199 243 288
#     4  10  20  33  50  71  96 126 158 196 246 303
#
# _framework density 17.716004999999999
#
# number of rings (size 3 to 8) (size 9 to 14) (size 15 to 20)
#    0.000    2.375    0.000    4.500    0.000    4.500 
#    0.000    1.250    0.000    0.750    0.000    5.250 
#    0.000    0.000    0.000    0.000    0.000    0.000 
#
# Total GULP energy -356813.216965 kJ/mol
# GULP energy per Si atom -5575.206515 kJ/mol
# Density = 1.767568 g / cm^3
# Si number density = 17.716005 Si / 1000 Ang^3
#
#
#
# Elastic Constant Matrix: (Units=GPa)
#
#
# Indices 1 2 3 4 5 6 
#
# 1 28.8057 9.9159 17.5402 0.0000 0.0000 0.0000
# 2 9.9159 30.7727 29.0512 0.0000 0.0000 0.0000
# 3 17.5402 29.0512 135.2257 0.0000 0.0000 0.0000
# 4 0.0000 0.0000 0.0000 13.9804 0.0000 0.0000
# 5 0.0000 0.0000 0.0000 0.0000 25.1215 0.0000
# 6 0.0000 0.0000 0.0000 0.0000 0.0000 20.3269
#
#
#
# Elastic Compliance Matrix: (Units=1/GPa)
#
#
# Indices 1 2 3 4 5 6 
#
# 1 0.040016 -0.010028 -0.003036 0.000000 0.000000 0.000000
# 2 -0.010028 0.043277 -0.007997 0.000000 0.000000 0.000000
# 3 -0.003036 -0.007997 0.009507 0.000000 0.000000 0.000000
# 4 0.000000 0.000000 0.000000 0.071528 0.000000 0.000000
# 5 0.000000 0.000000 0.000000 0.000000 0.039807 0.000000
# 6 0.000000 0.000000 0.000000 0.000000 0.000000 0.049196
#
#
# Mechanical properties :
#
#
# Convention : Reuss Voigt Hill
#
# Bulk Modulus (GPa) = 19.73233 34.20205 26.96719
# Shear Modulus (GPa) = 16.00791 21.10554 18.55673
#
# Velocity S-wave (km/s) = 3.00923 3.45530 3.23995
# Velocity P-wave (km/s) = 4.82040 5.93856 5.40845
#
# Compressibility (1/GPa) = 0.05067825
#
# Stress axis : x y z
#
# Youngs Moduli (GPa) = 24.98992 23.10692 105.18755
#
# Poissons Ratio (x) = 0.23172 0.31936
# Poissons Ratio (y) = 0.25060 0.84115
# Poissons Ratio (z) = 0.07587 0.18478
#
# Static dielectric constant tensor:
#      x y z
#    x 1.403560 0.000000 0.000000 
#    y 0.000000 1.610580 0.000000 
#    z 0.000000 0.000000 1.614030 
# 
# From -- ./inp_files/31703.got.cif
#   From: 2010.05.17/outbox.cif.g08.bks.cpg/sg59_16_cif.got.tgz:31703.got - 2010.06.03 14:40:33.
