data_PCOD9446090
_publ_section_title
;
Structure prediction by ZEFSAII (Michael W. Deem and Ramdas Pophale) SiO2 
 PCOD9446090
Probable space group: P N N M
;
_chemical_formula_sum "Si O2"
_cell_formula_units_Z 48
_cell_length_a 18.000000
_cell_length_b 9.000000
_cell_length_c 15.000000
_cell_angle_alpha 90.000000
_cell_angle_beta 90.000000
_cell_angle_gamma 90.000000
_cell_volume 2430.000000
_symmetry_space_group_name_H-M "P N N M"
_symmetry_group_IT_number 58
_symmetry_cell_setting 'orthorhombic'
loop_
_space_group_symop_operation_xyz
x,y,z
-x,-y,z
1/2+x,1/2-y,1/2-z
1/2-x,1/2+y,1/2-z
-x,-y,-z
x,y,-z
1/2-x,1/2+y,1/2+z
1/2+x,1/2-y,1/2+z
loop_
_atom_site_type_symbol
_atom_site_label
_atom_site_fract_x
_atom_site_fract_y
_atom_site_fract_z
Si Si1 0.456181 0.157313 0.000000
Si Si2 0.372437 0.715162 0.500000
Si Si3 0.157306 0.643063 0.189472
Si Si4 0.488085 0.177378 0.194960
Si Si5 0.075182 0.101175 0.811439
Si Si6 0.088632 0.547293 0.000000
Si Si7 0.761828 0.052912 0.806233
Si Si8 0.784690 0.438223 0.500000
O O1 0.479203 0.231807 0.906787
O O2 0.500000 0.000000 0.000000
O O3 0.367515 0.128666 0.000000
O O4 0.414757 0.656588 0.587275
O O5 0.286636 0.668770 0.500000
O O6 0.372269 0.889957 0.500000
O O7 0.089693 0.692702 0.253276
O O8 0.118409 0.624178 0.091605
O O9 0.217674 0.774178 0.193199
O O10 0.201999 0.502884 0.232407
O O11 0.553656 0.262474 0.246485
O O12 0.500000 0.000000 0.194557
O O13 0.156426 0.026842 0.792809
O O14 0.000000 0.000000 0.805991
O O15 0.000000 0.500000 0.000000
O O16 0.727583 0.020017 0.904755
#
# Coordination Sequence:
#
# PCOD9446090 Si02
#       8
#     4   4   8   8   8   4   8   4
#     4  10  22  39  65  97 120 176 228 280 319 390
#     4  10  23  38  70  98 137 176 213 278 351 415
#     4  12  25  43  67 100 138 178 225 284 347 417
#     4  11  23  41  68  93 132 174 233 281 340 408
#     4  11  22  42  65 100 134 176 222 281 340 413
#     4  12  27  44  71 108 141 176 234 295 356 410
#     4  11  26  41  70  97 137 180 226 281 346 410
#     4  10  21  43  65  96 134 170 227 271 335 406
#
# _framework density 19.753086
#
# number of rings (size 3 to 8) (size 9 to 14) (size 15 to 20)
#    0.000    1.000    3.333    3.250    7.000    0.000 
#    0.000    1.250    0.000    0.000    0.000    0.000 
#    0.000    0.000    0.000    0.000    0.000    0.000 
#
# Total GULP energy -267880.525907 kJ/mol
# GULP energy per Si atom -5580.844290 kJ/mol
# Density = 1.970813 g / cm^3
# Si number density = 19.753086 Si / 1000 Ang^3
#
#
#
# Elastic Constant Matrix: (Units=GPa)
#
#
# Indices 1 2 3 4 5 6 
#
# 1 93.5884 10.0508 52.8385 0.0000 0.0000 0.0000
# 2 10.0508 61.4860 33.0405 0.0000 0.0000 0.0000
# 3 52.8385 33.0405 160.1501 0.0000 0.0000 0.0000
# 4 0.0000 0.0000 0.0000 19.9493 0.0000 0.0000
# 5 0.0000 0.0000 0.0000 0.0000 44.1872 0.0000
# 6 0.0000 0.0000 0.0000 0.0000 0.0000 39.9678
#
#
#
# Elastic Compliance Matrix: (Units=1/GPa)
#
#
# Indices 1 2 3 4 5 6 
#
# 1 0.013133 0.000204 -0.004375 0.000000 0.000000 0.000000
# 2 0.000204 0.018295 -0.003842 0.000000 0.000000 0.000000
# 3 -0.004375 -0.003842 0.008480 0.000000 0.000000 0.000000
# 4 0.000000 0.000000 0.000000 0.050127 0.000000 0.000000
# 5 0.000000 0.000000 0.000000 0.000000 0.022631 0.000000
# 6 0.000000 0.000000 0.000000 0.000000 0.000000 0.025020
#
#
# Mechanical properties :
#
#
# Convention : Reuss Voigt Hill
#
# Bulk Modulus (GPa) = 41.87080 56.34267 49.10674
# Shear Modulus (GPa) = 30.92656 35.44051 33.18354
#
# Velocity S-wave (km/s) = 3.96113 4.24037 4.10313
# Velocity P-wave (km/s) = 6.49337 7.24981 6.88199
#
# Compressibility (1/GPa) = 0.02388299
#
# Stress axis : x y z
#
# Youngs Moduli (GPa) = 76.14214 54.65989 117.92074
#
# Poissons Ratio (x) = -0.01117 0.51593
# Poissons Ratio (y) = -0.01555 0.45303
# Poissons Ratio (z) = 0.33314 0.20999
#
# Static dielectric constant tensor:
#      x y z
#    x 1.684690 0.000000 0.000000 
#    y 0.000000 1.754210 0.000000 
#    z 0.000000 0.000000 1.740710 
# 
# From -- ./inp_files/22807.got.cif
#   From: 2010.05.17/outbox.ucp.g08.bks.cvg/sg58_12_cif.got.tgz:22807.got - 2010.06.11 16:41:41.
