data_PCOD9446325
_publ_section_title
;
Structure prediction by ZEFSAII (Michael W. Deem and Ramdas Pophale) SiO2 
 PCOD9446325
Probable space group: P M M N
;
_chemical_formula_sum "Si O2"
_cell_formula_units_Z 64
_cell_length_a 7.639665
_cell_length_b 28.373577
_cell_length_c 17.582203
_cell_angle_alpha 90.000000
_cell_angle_beta 90.000000
_cell_angle_gamma 90.000000
_cell_volume 3811.199607
_symmetry_space_group_name_H-M "P M M N"
_symmetry_group_IT_number 59
_space_group.IT_coordinate_system_code '2'
_symmetry_cell_setting 'orthorhombic'
loop_
_space_group_symop_operation_xyz
x,y,z
1/2-x,1/2-y,z
1/2+x,-y,-z
-x,1/2+y,-z
-x,-y,-z
1/2+x,1/2+y,-z
1/2-x,y,z
x,1/2-y,z
loop_
_atom_site_type_symbol
_atom_site_label
_atom_site_fract_x
_atom_site_fract_y
_atom_site_fract_z
Si Si1 0.958049 0.946647 0.526551
Si Si2 0.542998 0.552839 0.853669
Si Si3 0.035265 0.195923 0.908845
Si Si4 0.464520 0.422152 0.633620
Si Si5 0.038291 0.377098 0.783211
Si Si6 0.452546 0.974534 0.686913
Si Si7 0.449914 0.122435 0.030590
Si Si8 0.456224 0.952696 0.092388
O O1 0.750000 0.941410 0.532888
O O2 0.021164 0.916421 0.453996
O O3 0.031451 0.942707 0.611334
O O4 0.000000 0.000000 0.500000
O O5 0.750000 0.553041 0.870411
O O6 0.527282 0.547572 0.763359
O O7 0.469727 0.599896 0.893317
O O8 0.472863 0.504959 0.892648
O O9 0.250000 0.194938 0.909815
O O10 0.980213 0.250000 0.910276
O O11 0.980586 0.167788 0.832703
O O12 0.972575 0.165267 0.981374
O O13 0.250000 0.423545 0.631761
O O14 0.518117 0.383868 0.696164
O O15 0.524936 0.473672 0.664303
O O16 0.250000 0.377069 0.783942
O O17 0.978913 0.422949 0.830253
O O18 0.250000 0.982366 0.703781
O O19 0.250000 0.136706 0.047132
O O20 0.451937 0.078280 0.971964
O O21 0.250000 0.954709 0.074077
#
# Coordination Sequence:
#
# PCOD9446325 Si02
#       8
#     8   8   8   8   8   8   8   8
#     4   9  16  26  38  54  77 105 140 171 198 233
#     4  10  19  28  38  55  78 106 136 168 202 236
#     4   8  14  25  43  63  79  99 130 166 199 237
#     4   8  14  24  38  55  74 102 135 161 190 228
#     4   9  15  26  42  58  79 106 134 162 197 238
#     4  10  18  27  39  55  77 108 140 167 201 236
#     4   9  18  30  42  55  76 105 134 163 202 246
#     4  10  18  26  37  56  79 101 133 168 198 232
#
# _framework density 16.792612999999999
#
# number of rings (size 3 to 8) (size 9 to 14) (size 15 to 20)
#    0.000    2.875    1.250    3.000    0.000    1.000 
#    0.000    0.625    0.000    6.000    0.000    0.000 
#    0.000    1.000    0.000   11.000    0.000    1.125 
#
# Total GULP energy -356331.656274 kJ/mol
# GULP energy per Si atom -5567.682129 kJ/mol
# Density = 1.675439 g / cm^3
# Si number density = 16.792613 Si / 1000 Ang^3
#
#
#
# Elastic Constant Matrix: (Units=GPa)
#
#
# Indices 1 2 3 4 5 6 
#
# 1 35.0730 1.4316 -6.3030 0.0000 0.0000 0.0000
# 2 1.4316 90.9954 50.6327 0.0000 0.0000 0.0000
# 3 -6.3030 50.6327 90.6415 0.0000 0.0000 0.0000
# 4 0.0000 0.0000 0.0000 13.3528 0.0000 0.0000
# 5 0.0000 0.0000 0.0000 0.0000 14.1756 0.0000
# 6 0.0000 0.0000 0.0000 0.0000 0.0000 6.8834
#
#
#
# Elastic Compliance Matrix: (Units=1/GPa)
#
#
# Indices 1 2 3 4 5 6 
#
# 1 0.029203 -0.002306 0.003319 0.000000 0.000000 0.000000
# 2 -0.002306 0.016128 -0.009170 0.000000 0.000000 0.000000
# 3 0.003319 -0.009170 0.016385 0.000000 0.000000 0.000000
# 4 0.000000 0.000000 0.000000 0.074891 0.000000 0.000000
# 5 0.000000 0.000000 0.000000 0.000000 0.070544 0.000000
# 6 0.000000 0.000000 0.000000 0.000000 0.000000 0.145277
#
#
# Mechanical properties :
#
#
# Convention : Reuss Voigt Hill
#
# Bulk Modulus (GPa) = 22.02529 34.24806 28.13668
# Shear Modulus (GPa) = 13.02505 18.27892 15.65198
#
# Velocity S-wave (km/s) = 2.78806 3.30284 3.05630
# Velocity P-wave (km/s) = 4.84860 5.91472 5.40800
#
# Compressibility (1/GPa) = 0.04540235
#
# Stress axis : x y z
#
# Youngs Moduli (GPa) = 34.24361 62.00352 61.02976
#
# Poissons Ratio (x) = 0.14299 -0.20255
# Poissons Ratio (y) = 0.07897 0.55962
# Poissons Ratio (z) = -0.11365 0.56855
#
# Static dielectric constant tensor:
#      x y z
#    x 1.630510 0.000000 0.000000 
#    y 0.000000 1.550460 0.000000 
#    z 0.000000 0.000000 1.622830 
# 
# From -- ./inp_files/26670.got.cif
#   From: 2010.05.17/outbox.cif.g08.bks.cpg/sg59_14_cif.got.tgz:26670.got - 2010.06.03 14:40:33.
