data_PCOD9446717
_publ_section_title
;
Structure prediction by ZEFSAII (Michael W. Deem and Ramdas Pophale) SiO2 
 PCOD9446717
Probable space group: P M M N
;
_chemical_formula_sum "Si O2"
_cell_formula_units_Z 64
_cell_length_a 8.719252
_cell_length_b 27.234413
_cell_length_c 17.731885
_cell_angle_alpha 90.000000
_cell_angle_beta 90.000000
_cell_angle_gamma 90.000000
_cell_volume 4210.679198
_symmetry_space_group_name_H-M "P M M N"
_symmetry_group_IT_number 59
_space_group.IT_coordinate_system_code '2'
_symmetry_cell_setting 'orthorhombic'
loop_
_space_group_symop_operation_xyz
x,y,z
1/2-x,1/2-y,z
1/2+x,-y,-z
-x,1/2+y,-z
-x,-y,-z
1/2+x,1/2+y,-z
1/2-x,y,z
x,1/2-y,z
loop_
_atom_site_type_symbol
_atom_site_label
_atom_site_fract_x
_atom_site_fract_y
_atom_site_fract_z
Si Si1 0.065877 0.539599 0.326222
Si Si2 0.434345 0.445966 0.518045
Si Si3 0.436345 0.074097 0.354826
Si Si4 0.932323 0.560597 0.165557
Si Si5 0.071485 0.461705 0.097263
Si Si6 0.433925 0.891983 0.026260
Si Si7 0.428412 0.370226 0.212172
Si Si8 0.934471 0.194393 0.084989
O O1 0.250000 0.540282 0.325452
O O2 0.017041 0.481789 0.332811
O O3 0.004427 0.566695 0.401033
O O4 0.001144 0.561646 0.249321
O O5 0.500000 0.500000 0.500000
O O6 0.250000 0.447829 0.523176
O O7 0.476508 0.416249 0.442130
O O8 0.250000 0.074034 0.350079
O O9 0.491619 0.113288 0.293455
O O10 0.750000 0.562408 0.168295
O O11 0.996825 0.601766 0.108990
O O12 0.987644 0.509197 0.129066
O O13 0.250000 0.473056 0.081585
O O14 0.066846 0.419676 0.161496
O O15 0.992498 0.437478 0.024746
O O16 0.750000 0.106933 0.970352
O O17 0.484542 0.843120 0.981051
O O18 0.250000 0.355902 0.219556
O O19 0.514028 0.329097 0.164177
O O20 0.750000 0.194934 0.083173
O O21 0.990643 0.250000 0.075641
#
# Coordination Sequence:
#
# PCOD9446717 Si02
#       8
#     8   8   8   8   8   8   8   8
#     4  10  18  30  43  58  85 121 155 189 225 257
#     4   9  16  26  40  59  84 118 155 187 219 255
#     4   8  14  26  42  60  86 116 147 183 217 251
#     4  12  22  30  42  62  88 117 152 188 222 263
#     4  10  18  30  45  61  87 118 149 184 220 258
#     4  10  20  33  47  63  84 113 147 181 223 272
#     4   9  16  28  46  67  88 116 150 182 218 263
#     4   9  19  35  51  67  88 112 141 183 230 271
#
# _framework density 15.199448
#
# number of rings (size 3 to 8) (size 9 to 14) (size 15 to 20)
#    0.000    2.375    1.250    3.750    0.000    1.250 
#    0.000    1.250    0.000    0.000    0.000    0.000 
#    0.000    1.000    0.000    7.250    0.000    3.750 
#
# Total GULP energy -356685.654113 kJ/mol
# GULP energy per Si atom -5573.213346 kJ/mol
# Density = 1.516485 g / cm^3
# Si number density = 15.199448 Si / 1000 Ang^3
#
#
#
# Elastic Constant Matrix: (Units=GPa)
#
#
# Indices 1 2 3 4 5 6 
#
# 1 58.7816 16.2735 42.4122 0.0000 0.0000 0.0000
# 2 16.2735 52.5839 45.2024 0.0000 0.0000 0.0000
# 3 42.4122 45.2024 156.9412 0.0000 0.0000 0.0000
# 4 0.0000 0.0000 0.0000 11.0710 0.0000 0.0000
# 5 0.0000 0.0000 0.0000 0.0000 26.1228 0.0000
# 6 0.0000 0.0000 0.0000 0.0000 0.0000 13.2004
#
#
#
# Elastic Compliance Matrix: (Units=1/GPa)
#
#
# Indices 1 2 3 4 5 6 
#
# 1 0.021320 -0.002187 -0.005132 0.000000 0.000000 0.000000
# 2 -0.002187 0.025499 -0.006753 0.000000 0.000000 0.000000
# 3 -0.005132 -0.006753 0.009704 0.000000 0.000000 0.000000
# 4 0.000000 0.000000 0.000000 0.090326 0.000000 0.000000
# 5 0.000000 0.000000 0.000000 0.000000 0.038281 0.000000
# 6 0.000000 0.000000 0.000000 0.000000 0.000000 0.075755
#
#
# Mechanical properties :
#
#
# Convention : Reuss Voigt Hill
#
# Bulk Modulus (GPa) = 35.23670 52.89813 44.06741
# Shear Modulus (GPa) = 16.75104 21.04008 18.89556
#
# Velocity S-wave (km/s) = 3.32336 3.72461 3.52969
# Velocity P-wave (km/s) = 6.16113 7.30583 6.75776
#
# Compressibility (1/GPa) = 0.02837950
#
# Stress axis : x y z
#
# Youngs Moduli (GPa) = 46.90380 39.21668 103.05263
#
# Poissons Ratio (x) = 0.08575 0.52885
# Poissons Ratio (y) = 0.10256 0.69596
# Poissons Ratio (z) = 0.24070 0.26485
#
# Static dielectric constant tensor:
#      x y z
#    x 1.512810 0.000000 0.000000 
#    y 0.000000 1.486180 0.000000 
#    z 0.000000 0.000000 1.557340 
# 
# From -- ./inp_files/26512.got.cif
#   From: 2010.05.17/outbox.cif.g08.bks.cpg/sg59_14_cif.got.tgz:26512.got - 2010.06.03 14:40:33.
