data_PCOD9446518
_publ_section_title
;
Structure prediction by ZEFSAII (Michael W. Deem and Ramdas Pophale) SiO2 
 PCOD9446518
Probable space group: P M M N
;
_chemical_formula_sum "Si O2"
_cell_formula_units_Z 48
_cell_length_a 26.633982
_cell_length_b 7.918461
_cell_length_c 12.422148
_cell_angle_alpha 90.000000
_cell_angle_beta 90.000000
_cell_angle_gamma 90.000000
_cell_volume 2619.832848
_symmetry_space_group_name_H-M "P M M N"
_symmetry_group_IT_number 59
_space_group.IT_coordinate_system_code '2'
_symmetry_cell_setting 'orthorhombic'
loop_
_space_group_symop_operation_xyz
x,y,z
1/2-x,1/2-y,z
1/2+x,-y,-z
-x,1/2+y,-z
-x,-y,-z
1/2+x,1/2+y,-z
1/2-x,y,z
x,1/2-y,z
loop_
_atom_site_type_symbol
_atom_site_label
_atom_site_fract_x
_atom_site_fract_y
_atom_site_fract_z
Si Si1 0.423296 0.554765 0.777526
Si Si2 0.605322 0.548562 0.673383
Si Si3 0.555873 0.452071 0.460004
Si Si4 0.806596 0.547149 0.826455
Si Si5 0.471076 0.946243 0.149410
Si Si6 0.116423 0.545416 0.992078
O O1 0.408618 0.750000 0.762244
O O2 0.430508 0.478697 0.658769
O O3 0.478116 0.546762 0.832644
O O4 0.386686 0.482111 0.869432
O O5 0.600436 0.750000 0.689760
O O6 0.595668 0.509538 0.549387
O O7 0.657457 0.491533 0.727889
O O8 0.561266 0.461013 0.741462
O O9 0.500000 0.500000 0.500000
O O10 0.555957 0.250000 0.453692
O O11 0.750000 0.479749 0.823054
O O12 0.803967 0.750000 0.819984
O O13 0.836029 0.503998 0.936180
O O14 0.483103 0.750000 0.129116
O O15 0.433247 0.011960 0.057777
O O16 0.114280 0.750000 0.990796
#
# Coordination Sequence:
#
# PCOD9446518 Si02
#       6
#     8   8   8   8   8   8
#     4  10  20  32  46  66 100 138 167 198 242 291
#     4  10  19  32  50  72 100 132 167 208 252 295
#     4  11  21  32  48  70 101 139 175 207 240 290
#     4   9  19  36  57  78  98 123 159 208 263 308
#     4  10  18  28  46  70  98 130 167 205 238 288
#     4   9  19  33  48  72 100 128 163 202 248 299
#
# _framework density 18.321778999999999
#
# number of rings (size 3 to 8) (size 9 to 14) (size 15 to 20)
#    0.000    2.167    1.667    2.000    0.000    3.000 
#    0.000    0.000    0.000    1.000    0.000    4.667 
#    0.000    0.000    0.000    0.000    0.000    0.000 
#
# Total GULP energy -267693.467257 kJ/mol
# GULP energy per Si atom -5576.947235 kJ/mol
# Density = 1.828008 g / cm^3
# Si number density = 18.321779 Si / 1000 Ang^3
#
#
#
# Elastic Constant Matrix: (Units=GPa)
#
#
# Indices 1 2 3 4 5 6 
#
# 1 98.5782 -0.5609 64.8982 0.0000 0.0000 0.0000
# 2 -0.5609 29.5918 4.8481 0.0000 0.0000 0.0000
# 3 64.8982 4.8481 141.6017 0.0000 0.0000 0.0000
# 4 0.0000 0.0000 0.0000 17.5086 0.0000 0.0000
# 5 0.0000 0.0000 0.0000 0.0000 8.7230 0.0000
# 6 0.0000 0.0000 0.0000 0.0000 0.0000 16.6960
#
#
#
# Elastic Compliance Matrix: (Units=1/GPa)
#
#
# Indices 1 2 3 4 5 6 
#
# 1 0.014583 0.001379 -0.006731 0.000000 0.000000 0.000000
# 2 0.001379 0.034114 -0.001800 0.000000 0.000000 0.000000
# 3 -0.006731 -0.001800 0.010209 0.000000 0.000000 0.000000
# 4 0.000000 0.000000 0.000000 0.057115 0.000000 0.000000
# 5 0.000000 0.000000 0.000000 0.000000 0.114639 0.000000
# 6 0.000000 0.000000 0.000000 0.000000 0.000000 0.059894
#
#
# Mechanical properties :
#
#
# Convention : Reuss Voigt Hill
#
# Bulk Modulus (GPa) = 22.42034 45.34918 33.88476
# Shear Modulus (GPa) = 15.63840 21.95795 18.79818
#
# Velocity S-wave (km/s) = 2.92471 3.46564 3.20660
# Velocity P-wave (km/s) = 4.86506 6.38901 5.67839
#
# Compressibility (1/GPa) = 0.04460235
#
# Stress axis : x y z
#
# Youngs Moduli (GPa) = 68.57118 29.31332 97.95649
#
# Poissons Ratio (x) = -0.04043 0.65935
# Poissons Ratio (y) = -0.09457 0.17633
# Poissons Ratio (z) = 0.46155 0.05277
#
# Static dielectric constant tensor:
#      x y z
#    x 1.616850 0.000000 0.000000 
#    y 0.000000 1.662960 0.000000 
#    z 0.000000 0.000000 1.686540 
# 
# From -- ./inp_files/14376.got.cif
#   From: 2010.05.17/outbox.cif.g08.bks.cpg/sg59_8_cif.got.tgz:14376.got - 2010.06.03 14:40:33.
