data_PCOD9446566
_publ_section_title
;
Structure prediction by ZEFSAII (Michael W. Deem and Ramdas Pophale) SiO2 
 PCOD9446566
Probable space group: P M M N
;
_chemical_formula_sum "Si O2"
_cell_formula_units_Z 64
_cell_length_a 7.491246
_cell_length_b 31.237724
_cell_length_c 15.090958
_cell_angle_alpha 90.000000
_cell_angle_beta 90.000000
_cell_angle_gamma 90.000000
_cell_volume 3531.427158
_symmetry_space_group_name_H-M "P M M N"
_symmetry_group_IT_number 59
_space_group.IT_coordinate_system_code '2'
_symmetry_cell_setting 'orthorhombic'
loop_
_space_group_symop_operation_xyz
x,y,z
1/2-x,1/2-y,z
1/2+x,-y,-z
-x,1/2+y,-z
-x,-y,-z
1/2+x,1/2+y,-z
1/2-x,y,z
x,1/2-y,z
loop_
_atom_site_type_symbol
_atom_site_label
_atom_site_fract_x
_atom_site_fract_y
_atom_site_fract_z
Si Si1 0.965570 0.797219 0.797571
Si Si2 0.531009 0.882879 0.704960
Si Si3 0.954818 0.568639 0.540765
Si Si4 0.535984 0.978700 0.373200
Si Si5 0.039866 0.889220 0.052597
Si Si6 0.463227 0.966943 0.167108
Si Si7 0.961686 0.297529 0.994021
Si Si8 0.966021 0.560911 0.872601
O O1 0.750000 0.797579 0.795345
O O2 0.027106 0.750000 0.769939
O O3 0.027342 0.836412 0.737878
O O4 0.016958 0.803317 0.900113
O O5 0.750000 0.883634 0.703000
O O6 0.465633 0.897091 0.608443
O O7 0.477521 0.916753 0.780838
O O8 0.750000 0.581440 0.524990
O O9 0.030897 0.556141 0.444975
O O10 0.958093 0.524220 0.596369
O O11 0.750000 0.982225 0.383219
O O12 0.494657 0.968292 0.272114
O O13 0.250000 0.884580 0.072483
O O14 0.964119 0.924322 0.120541
O O15 0.964491 0.840961 0.049787
O O16 0.024120 0.910884 0.955837
O O17 0.250000 0.967050 0.152686
O O18 0.530235 0.011806 0.125945
O O19 0.750000 0.296130 0.975946
O O20 0.034613 0.250000 0.971829
O O21 0.750000 0.560658 0.873239
#
# Coordination Sequence:
#
# PCOD9446566 Si02
#       8
#     8   8   8   8   8   8   8   8
#     4   9  16  26  42  63  84 108 141 174 202 245
#     4   9  15  26  44  63  85 115 142 165 207 256
#     4   9  17  31  47  62  86 115 140 171 215 259
#     4  10  19  29  45  67  85 108 145 183 213 246
#     4  10  20  31  44  63  85 115 150 181 213 253
#     4  10  20  33  45  58  86 122 149 177 216 254
#     4   9  17  29  43  60  84 110 138 177 220 254
#     4  10  18  29  44  61  86 121 148 170 208 251
#
# _framework density 18.122986000000001
#
# number of rings (size 3 to 8) (size 9 to 14) (size 15 to 20)
#    0.000    2.500    2.500    0.750    0.000    1.500 
#    0.000    0.625    0.000    0.000    0.000    0.875 
#    0.000    1.000    0.000    0.000    0.000    0.000 
#
# Total GULP energy -356874.626811 kJ/mol
# GULP energy per Si atom -5576.166044 kJ/mol
# Density = 1.808174 g / cm^3
# Si number density = 18.122986 Si / 1000 Ang^3
#
#
#
# Elastic Constant Matrix: (Units=GPa)
#
#
# Indices 1 2 3 4 5 6 
#
# 1 52.8422 6.4411 -11.5383 0.0000 0.0000 0.0000
# 2 6.4411 157.7400 43.3016 0.0000 0.0000 0.0000
# 3 -11.5383 43.3016 45.9712 0.0000 0.0000 0.0000
# 4 0.0000 0.0000 0.0000 25.8933 0.0000 0.0000
# 5 0.0000 0.0000 0.0000 0.0000 12.8923 0.0000
# 6 0.0000 0.0000 0.0000 0.0000 0.0000 4.1185
#
#
#
# Elastic Compliance Matrix: (Units=1/GPa)
#
#
# Indices 1 2 3 4 5 6 
#
# 1 0.021104 -0.003123 0.008239 0.000000 0.000000 0.000000
# 2 -0.003123 0.009013 -0.009273 0.000000 0.000000 0.000000
# 3 0.008239 -0.009273 0.032555 0.000000 0.000000 0.000000
# 4 0.000000 0.000000 0.000000 0.038620 0.000000 0.000000
# 5 0.000000 0.000000 0.000000 0.000000 0.077566 0.000000
# 6 0.000000 0.000000 0.000000 0.000000 0.000000 0.242805
#
#
# Mechanical properties :
#
#
# Convention : Reuss Voigt Hill
#
# Bulk Modulus (GPa) = 18.39703 36.99579 27.69641
# Shear Modulus (GPa) = 11.15828 23.13742 17.14785
#
# Velocity S-wave (km/s) = 2.48402 3.57695 3.07936
# Velocity P-wave (km/s) = 4.28957 6.12516 5.28762
#
# Compressibility (1/GPa) = 0.05435659
#
# Stress axis : x y z
#
# Youngs Moduli (GPa) = 47.38436 110.95420 30.71685
#
# Poissons Ratio (x) = 0.34656 -0.25308
# Poissons Ratio (y) = 0.14800 0.28485
# Poissons Ratio (z) = -0.39040 1.02891
#
# Static dielectric constant tensor:
#      x y z
#    x 1.754510 0.000000 0.000000 
#    y 0.000000 1.657700 0.000000 
#    z 0.000000 0.000000 1.598650 
# 
# From -- ./inp_files/21941.got.cif
#   From: 2010.05.17/outbox.cif.g08.bks.cpg/sg59_11_cif.got.tgz:21941.got - 2010.06.03 14:40:33.
