data_PCOD9446782
_publ_section_title
;
Structure prediction by ZEFSAII (Michael W. Deem and Ramdas Pophale) SiO2 
 PCOD9446782
Probable space group: P M M N
;
_chemical_formula_sum "Si O2"
_cell_formula_units_Z 64
_cell_length_a 23.810230
_cell_length_b 9.145483
_cell_length_c 19.527284
_cell_angle_alpha 90.000000
_cell_angle_beta 90.000000
_cell_angle_gamma 90.000000
_cell_volume 4252.184303
_symmetry_space_group_name_H-M "P M M N"
_symmetry_group_IT_number 59
_space_group.IT_coordinate_system_code '2'
_symmetry_cell_setting 'orthorhombic'
loop_
_space_group_symop_operation_xyz
x,y,z
1/2-x,1/2-y,z
1/2+x,-y,-z
-x,1/2+y,-z
-x,-y,-z
1/2+x,1/2+y,-z
1/2-x,y,z
x,1/2-y,z
loop_
_atom_site_type_symbol
_atom_site_label
_atom_site_fract_x
_atom_site_fract_y
_atom_site_fract_z
Si Si1 0.973460 0.423786 0.604378
Si Si2 0.685437 0.573905 0.384346
Si Si3 0.585803 0.575277 0.482702
Si Si4 0.587547 0.924066 0.025722
Si Si5 0.633568 0.425316 0.251284
Si Si6 0.815603 0.425763 0.103353
Si Si7 0.500652 0.424701 0.256779
Si Si8 0.984942 0.924675 0.896621
O O1 0.966970 0.250000 0.607453
O O2 0.928390 0.493663 0.552860
O O3 0.034301 0.455757 0.569570
O O4 0.973808 0.492930 0.679390
O O5 0.750000 0.534418 0.397606
O O6 0.681745 0.750000 0.377877
O O7 0.643048 0.530852 0.445118
O O8 0.664253 0.502943 0.314021
O O9 0.586382 0.750000 0.494523
O O10 0.590169 0.750000 0.034867
O O11 0.645677 0.997315 0.047172
O O12 0.539017 0.991255 0.074198
O O13 0.566139 0.954307 0.948483
O O14 0.639465 0.250000 0.258285
O O15 0.660436 0.466979 0.178377
O O16 0.567255 0.459590 0.252919
O O17 0.750000 0.463175 0.098379
O O18 0.821215 0.250000 0.097334
O O19 0.495673 0.250000 0.267062
O O20 0.475401 0.462190 0.182492
O O21 0.997176 0.750000 0.899518
#
# Coordination Sequence:
#
# PCOD9446782 Si02
#       8
#     8   8   8   8   8   8   8   8
#     4  10  19  30  47  69  93 119 152 193 235 274
#     4  10  20  33  48  67  94 126 158 195 234 269
#     4   9  18  32  46  64  91 123 155 188 228 277
#     4  10  19  30  48  71  94 121 158 204 242 273
#     4  10  19  31  47  66  92 128 166 194 220 268
#     4  10  20  34  49  65  93 133 169 197 231 279
#     4  10  18  30  49  69  93 126 157 188 230 280
#     4   9  18  33  49  67  94 127 158 190 237 291
#
# _framework density 15.051088
#
# number of rings (size 3 to 8) (size 9 to 14) (size 15 to 20)
#    0.000    2.250    2.500    1.125    0.000    3.500 
#    0.000    0.000    0.000    0.000    0.000    0.875 
#    0.000    3.000    0.000    0.000    0.000    0.000 
#
# Total GULP energy -356952.401308 kJ/mol
# GULP energy per Si atom -5577.381270 kJ/mol
# Density = 1.501683 g / cm^3
# Si number density = 15.051088 Si / 1000 Ang^3
#
#
#
# Elastic Constant Matrix: (Units=GPa)
#
#
# Indices 1 2 3 4 5 6 
#
# 1 91.8250 36.2106 69.3265 0.0000 0.0000 0.0000
# 2 36.2106 25.7497 51.7691 0.0000 0.0000 0.0000
# 3 69.3265 51.7691 143.3261 0.0000 0.0000 0.0000
# 4 0.0000 0.0000 0.0000 26.7836 0.0000 0.0000
# 5 0.0000 0.0000 0.0000 0.0000 18.9541 0.0000
# 6 0.0000 0.0000 0.0000 0.0000 0.0000 20.1468
#
#
#
# Elastic Compliance Matrix: (Units=1/GPa)
#
#
# Indices 1 2 3 4 5 6 
#
# 1 0.024633 -0.039024 0.002180 0.000000 0.000000 0.000000
# 2 -0.039024 0.203650 -0.054682 0.000000 0.000000 0.000000
# 3 0.002180 -0.054682 0.025674 0.000000 0.000000 0.000000
# 4 0.000000 0.000000 0.000000 0.037336 0.000000 0.000000
# 5 0.000000 0.000000 0.000000 0.000000 0.052759 0.000000
# 6 0.000000 0.000000 0.000000 0.000000 0.000000 0.049636
#
#
# Mechanical properties :
#
#
# Convention : Reuss Voigt Hill
#
# Bulk Modulus (GPa) = 14.10334 63.94591 39.02462
# Shear Modulus (GPa) = 8.32815 20.08321 14.20568
#
# Velocity S-wave (km/s) = 2.35484 3.65682 3.07552
# Velocity P-wave (km/s) = 4.09687 7.77225 6.21258
#
# Compressibility (1/GPa) = 0.07090521
#
# Stress axis : x y z
#
# Youngs Moduli (GPa) = 40.59627 4.91039 38.95059
#
# Poissons Ratio (x) = 0.19162 -0.08493
# Poissons Ratio (y) = 1.58421 2.12991
# Poissons Ratio (z) = -0.08852 0.26851
#
# Static dielectric constant tensor:
#      x y z
#    x 1.484800 0.000000 0.000000 
#    y 0.000000 1.500350 0.000000 
#    z 0.000000 0.000000 1.489010 
# 
# From -- ./inp_files/28421.got.cif
#   From: 2010.05.17/outbox.cif.g08.bks.cpg/sg59_15_cif.got.tgz:28421.got - 2010.06.03 14:40:33.
