data_PCOD9446308
_publ_section_title
;
Structure prediction by ZEFSAII (Michael W. Deem and Ramdas Pophale) SiO2 
 PCOD9446308
Probable space group: P M M N
;
_chemical_formula_sum "Si O2"
_cell_formula_units_Z 64
_cell_length_a 15.090194
_cell_length_b 16.260207
_cell_length_c 12.723465
_cell_angle_alpha 90.000000
_cell_angle_beta 90.000000
_cell_angle_gamma 90.000000
_cell_volume 3121.952511
_symmetry_space_group_name_H-M "P M M N"
_symmetry_group_IT_number 59
_space_group.IT_coordinate_system_code '2'
_symmetry_cell_setting 'orthorhombic'
loop_
_space_group_symop_operation_xyz
x,y,z
1/2-x,1/2-y,z
1/2+x,-y,-z
-x,1/2+y,-z
-x,-y,-z
1/2+x,1/2+y,-z
1/2-x,y,z
x,1/2-y,z
loop_
_atom_site_type_symbol
_atom_site_label
_atom_site_fract_x
_atom_site_fract_y
_atom_site_fract_z
Si Si1 0.152068 0.123929 0.421379
Si Si2 0.652053 0.080785 0.339432
Si Si3 0.034523 0.346147 0.863097
Si Si4 0.607521 0.069048 0.576295
Si Si5 0.593708 0.599986 0.361437
Si Si6 0.346623 0.849492 0.205713
Si Si7 0.648018 0.851002 0.940954
Si Si8 0.982239 0.656977 0.758588
O O1 0.250000 0.147141 0.384262
O O2 0.138216 0.147778 0.542695
O O3 0.075730 0.157366 0.347381
O O4 0.142181 0.024460 0.418495
O O5 0.750000 0.110419 0.310880
O O6 0.631673 0.103547 0.461464
O O7 0.572765 0.110525 0.265693
O O8 0.648479 0.982000 0.338115
O O9 0.024596 0.250000 0.888062
O O10 0.075481 0.354495 0.746984
O O11 0.934304 0.380842 0.854898
O O12 0.100782 0.379109 0.951384
O O13 0.501750 0.070669 0.593083
O O14 0.645458 0.119495 0.674338
O O15 0.250000 0.874468 0.163659
O O16 0.350387 0.750000 0.206599
O O17 0.750000 0.878313 0.931334
O O18 0.650662 0.750000 0.938299
O O19 0.583862 0.878479 0.846427
O O20 0.004495 0.750000 0.789541
#
# Coordination Sequence:
#
# PCOD9446308 Si02
#       8
#     8   8   8   8   8   8   8   8
#     4  11  20  33  55  81 109 145 180 217 275 331
#     4  11  21  36  56  79 111 152 188 218 267 329
#     4   9  19  34  57  84 108 139 180 224 274 331
#     4  10  17  33  54  78 112 154 187 213 255 327
#     4  10  18  34  56  82 116 149 175 220 275 325
#     4   9  17  29  49  81 115 143 176 221 267 311
#     4   9  19  38  60  78 102 142 186 225 273 332
#     4  11  23  39  56  78 108 140 185 236 274 317
#
# _framework density 20.499991000000001
#
# number of rings (size 3 to 8) (size 9 to 14) (size 15 to 20)
#    0.000    2.000    2.500    3.375    0.000    3.000 
#    0.000    1.250    0.000    2.250    0.000    0.000 
#    0.000    0.000    0.000    0.000    0.000    0.000 
#
# Total GULP energy -357155.987573 kJ/mol
# GULP energy per Si atom -5580.562306 kJ/mol
# Density = 2.045333 g / cm^3
# Si number density = 20.499991 Si / 1000 Ang^3
#
#
#
# Elastic Constant Matrix: (Units=GPa)
#
#
# Indices 1 2 3 4 5 6 
#
# 1 181.3844 15.0022 58.8406 0.0000 0.0000 0.0000
# 2 15.0022 17.8606 5.4994 0.0000 0.0000 0.0000
# 3 58.8406 5.4994 88.9443 0.0000 0.0000 0.0000
# 4 0.0000 0.0000 0.0000 24.7659 0.0000 0.0000
# 5 0.0000 0.0000 0.0000 0.0000 22.7738 0.0000
# 6 0.0000 0.0000 0.0000 0.0000 0.0000 3.1822
#
#
#
# Elastic Compliance Matrix: (Units=1/GPa)
#
#
# Indices 1 2 3 4 5 6 
#
# 1 0.007403 -0.004801 -0.004600 0.000000 0.000000 0.000000
# 2 -0.004801 0.060190 -0.000545 0.000000 0.000000 0.000000
# 3 -0.004600 -0.000545 0.014320 0.000000 0.000000 0.000000
# 4 0.000000 0.000000 0.000000 0.040378 0.000000 0.000000
# 5 0.000000 0.000000 0.000000 0.000000 0.043910 0.000000
# 6 0.000000 0.000000 0.000000 0.000000 0.000000 0.314249
#
#
# Mechanical properties :
#
#
# Convention : Reuss Voigt Hill
#
# Bulk Modulus (GPa) = 16.12411 49.65262 32.88837
# Shear Modulus (GPa) = 9.59663 24.06752 16.83207
#
# Velocity S-wave (km/s) = 2.16598 3.43012 2.86855
# Velocity P-wave (km/s) = 3.76002 6.32147 5.20090
#
# Compressibility (1/GPa) = 0.06201891
#
# Stress axis : x y z
#
# Youngs Moduli (GPa) = 135.08780 16.61403 69.83250
#
# Poissons Ratio (x) = 0.07977 0.32125
# Poissons Ratio (y) = 0.64862 0.03807
# Poissons Ratio (z) = 0.62144 0.00906
#
# Static dielectric constant tensor:
#      x y z
#    x 1.761210 0.000000 0.000000 
#    y 0.000000 1.736960 0.000000 
#    z 0.000000 0.000000 1.724530 
# 
# From -- ./inp_files/17265.got.cif
#   From: 2010.05.17/outbox.cif.g08.bks.cpg/sg59_9_cif.got.tgz:17265.got - 2010.06.03 14:40:33.
