data_PCOD9446836
_publ_section_title
;
Structure prediction by ZEFSAII (Michael W. Deem and Ramdas Pophale) SiO2 
 PCOD9446836
Probable space group: P M M N
;
_chemical_formula_sum "Si O2"
_cell_formula_units_Z 64
_cell_length_a 8.190174
_cell_length_b 18.357758
_cell_length_c 23.339595
_cell_angle_alpha 90.000000
_cell_angle_beta 90.000000
_cell_angle_gamma 90.000000
_cell_volume 3509.183548
_symmetry_space_group_name_H-M "P M M N"
_symmetry_group_IT_number 59
_space_group.IT_coordinate_system_code '2'
_symmetry_cell_setting 'orthorhombic'
loop_
_space_group_symop_operation_xyz
x,y,z
1/2-x,1/2-y,z
1/2+x,-y,-z
-x,1/2+y,-z
-x,-y,-z
1/2+x,1/2+y,-z
1/2-x,y,z
x,1/2-y,z
loop_
_atom_site_type_symbol
_atom_site_label
_atom_site_fract_x
_atom_site_fract_y
_atom_site_fract_z
Si Si1 0.944746 0.832375 0.552225
Si Si2 0.056444 0.564509 0.457545
Si Si3 0.553071 0.875182 0.078391
Si Si4 0.050793 0.533751 0.883323
Si Si5 0.945825 0.329141 0.045670
Si Si6 0.550187 0.987652 0.242392
Si Si7 0.943890 0.462150 0.364244
Si Si8 0.551045 0.829404 0.205737
O O1 0.750000 0.830492 0.550882
O O2 0.005853 0.750000 0.563255
O O3 0.002927 0.862779 0.490451
O O4 0.992003 0.892648 0.600017
O O5 0.250000 0.563672 0.452862
O O6 0.000000 0.500000 0.500000
O O7 0.982853 0.537437 0.397786
O O8 0.750000 0.871000 0.075201
O O9 0.505133 0.838755 0.138736
O O10 0.503881 0.959799 0.083979
O O11 0.482811 0.841472 0.021061
O O12 0.250000 0.534775 0.883147
O O13 0.989520 0.604497 0.916258
O O14 0.000237 0.525394 0.817170
O O15 0.750000 0.328950 0.052395
O O16 0.009535 0.250000 0.063267
O O17 0.750000 0.987540 0.243382
O O18 0.498186 0.902744 0.238261
O O19 0.493559 0.028147 0.299578
O O20 0.750000 0.453695 0.362991
O O21 0.750000 0.829956 0.207205
O O22 0.495908 0.750000 0.226739
#
# Coordination Sequence:
#
# PCOD9446836 Si02
#       8
#     8   8   8   8   8   8   8   8
#     4  10  20  34  52  74 100 128 159 197 238 275
#     4  10  18  30  50  73  99 128 156 187 227 276
#     4   9  16  27  46  66  83 109 146 187 230 279
#     4   8  15  29  45  62  86 116 152 191 229 270
#     4  10  19  28  40  61  89 117 144 182 235 287
#     4   8  15  27  44  65  89 121 159 195 225 261
#     4  10  18  30  50  74  99 126 160 197 233 277
#     4   8  13  23  41  65  89 112 144 188 233 272
#
# _framework density 18.237860999999999
#
# number of rings (size 3 to 8) (size 9 to 14) (size 15 to 20)
#    0.000    2.875    0.000    5.625    0.000    1.750 
#    0.000    1.250    0.000   12.000    0.000    0.000 
#    0.000    0.000    0.000    0.000    0.000    0.000 
#
# Total GULP energy -356520.377454 kJ/mol
# GULP energy per Si atom -5570.630898 kJ/mol
# Density = 1.819635 g / cm^3
# Si number density = 18.237861 Si / 1000 Ang^3
#
#
#
# Elastic Constant Matrix: (Units=GPa)
#
#
# Indices 1 2 3 4 5 6 
#
# 1 12.6106 5.6904 -6.1287 0.0000 0.0000 0.0000
# 2 5.6904 118.3646 35.4691 0.0000 0.0000 0.0000
# 3 -6.1287 35.4691 51.9533 0.0000 0.0000 0.0000
# 4 0.0000 0.0000 0.0000 16.8396 0.0000 0.0000
# 5 0.0000 0.0000 0.0000 0.0000 15.6087 0.0000
# 6 0.0000 0.0000 0.0000 0.0000 0.0000 14.1152
#
#
#
# Elastic Compliance Matrix: (Units=1/GPa)
#
#
# Indices 1 2 3 4 5 6 
#
# 1 0.092149 -0.009665 0.017469 0.000000 0.000000 0.000000
# 2 -0.009665 0.011635 -0.009084 0.000000 0.000000 0.000000
# 3 0.017469 -0.009084 0.027510 0.000000 0.000000 0.000000
# 4 0.000000 0.000000 0.000000 0.059384 0.000000 0.000000
# 5 0.000000 0.000000 0.000000 0.000000 0.064067 0.000000
# 6 0.000000 0.000000 0.000000 0.000000 0.000000 0.070845
#
#
# Mechanical properties :
#
#
# Convention : Reuss Voigt Hill
#
# Bulk Modulus (GPa) = 7.76790 28.11002 17.93896
# Shear Modulus (GPa) = 13.47486 19.17254 16.32370
#
# Velocity S-wave (km/s) = 2.72111 3.24582 2.99498
# Velocity P-wave (km/s) = 3.76046 5.43080 4.67090
#
# Compressibility (1/GPa) = 0.12873499
#
# Stress axis : x y z
#
# Youngs Moduli (GPa) = 10.85200 85.94700 36.35015
#
# Poissons Ratio (x) = 0.83066 -0.63499
# Poissons Ratio (y) = 0.10488 0.33019
# Poissons Ratio (z) = -0.18957 0.78070
#
# Static dielectric constant tensor:
#      x y z
#    x 1.639400 0.000000 0.000000 
#    y 0.000000 1.656030 0.000000 
#    z 0.000000 0.000000 1.623740 
# 
# From -- ./inp_files/31717.got.cif
#   From: 2010.05.17/outbox.cif.g08.bks.cpg/sg59_16_cif.got.tgz:31717.got - 2010.06.03 14:40:33.
