data_PCOD9446911
_publ_section_title
;
Structure prediction by ZEFSAII (Michael W. Deem and Ramdas Pophale) SiO2 
 PCOD9446911
Probable space group: P M M N
;
_chemical_formula_sum "Si O2"
_cell_formula_units_Z 64
_cell_length_a 30.412332
_cell_length_b 8.665528
_cell_length_c 15.185694
_cell_angle_alpha 90.000000
_cell_angle_beta 90.000000
_cell_angle_gamma 90.000000
_cell_volume 4002.021313
_symmetry_space_group_name_H-M "P M M N"
_symmetry_group_IT_number 59
_space_group.IT_coordinate_system_code '2'
_symmetry_cell_setting 'orthorhombic'
loop_
_space_group_symop_operation_xyz
x,y,z
1/2-x,1/2-y,z
1/2+x,-y,-z
-x,1/2+y,-z
-x,-y,-z
1/2+x,1/2+y,-z
1/2-x,y,z
x,1/2-y,z
loop_
_atom_site_type_symbol
_atom_site_label
_atom_site_fract_x
_atom_site_fract_y
_atom_site_fract_z
Si Si1 0.386641 0.063908 0.710129
Si Si2 0.470754 0.564784 0.372054
Si Si3 0.700316 0.433770 0.996391
Si Si4 0.063996 0.064664 0.542313
Si Si5 0.535094 0.435905 0.830822
Si Si6 0.799213 0.566496 0.191182
Si Si7 0.891659 0.566155 0.957909
Si Si8 0.058987 0.934047 0.871678
O O1 0.392882 0.250000 0.717038
O O2 0.397852 0.019915 0.610240
O O3 0.337700 0.025893 0.741785
O O4 0.419766 0.986563 0.779270
O O5 0.470103 0.750000 0.372011
O O6 0.436797 0.505028 0.445119
O O7 0.518793 0.516259 0.408096
O O8 0.463921 0.514287 0.271750
O O9 0.750000 0.482643 0.969766
O O10 0.697146 0.250000 0.985904
O O11 0.696005 0.476498 0.099711
O O12 0.658909 0.513025 0.950197
O O13 0.063353 0.250000 0.534222
O O14 0.533215 0.250000 0.834542
O O15 0.577355 0.495891 0.882697
O O16 0.490648 0.502442 0.874041
O O17 0.750000 0.539392 0.225554
O O18 0.803269 0.750000 0.171213
O O19 0.894129 0.750000 0.957348
O O20 0.911609 0.504823 0.050274
O O21 0.058951 0.750000 0.879424
#
# Coordination Sequence:
#
# PCOD9446911 Si02
#       8
#     8   8   8   8   8   8   8   8
#     4  10  18  31  49  71 101 135 167 204 247 295
#     4   9  18  32  49  70  95 125 160 204 251 292
#     4  10  20  34  52  75 101 129 166 209 252 296
#     4   9  17  30  48  70  96 128 163 199 246 294
#     4  11  22  38  54  70  99 134 172 214 256 298
#     4   9  17  29  48  72  98 131 167 203 246 294
#     4  12  24  37  52  73 101 135 173 208 250 302
#     4  12  23  34  49  72 101 136 174 207 245 294
#
# _framework density 15.991918
#
# number of rings (size 3 to 8) (size 9 to 14) (size 15 to 20)
#    0.000    1.750    2.500    3.375    0.000    2.250 
#    0.000    0.000    0.000    0.000    0.000    0.875 
#    0.000    3.000    0.000    0.000    0.000    0.000 
#
# Total GULP energy -357156.288474 kJ/mol
# GULP energy per Si atom -5580.567007 kJ/mol
# Density = 1.595552 g / cm^3
# Si number density = 15.991918 Si / 1000 Ang^3
#
#
#
# Elastic Constant Matrix: (Units=GPa)
#
#
# Indices 1 2 3 4 5 6 
#
# 1 104.4316 32.1334 29.1557 0.0000 0.0000 0.0000
# 2 32.1334 49.6970 17.2979 0.0000 0.0000 0.0000
# 3 29.1557 17.2979 54.6338 0.0000 0.0000 0.0000
# 4 0.0000 0.0000 0.0000 24.0986 0.0000 0.0000
# 5 0.0000 0.0000 0.0000 0.0000 21.9757 0.0000
# 6 0.0000 0.0000 0.0000 0.0000 0.0000 21.2081
#
#
#
# Elastic Compliance Matrix: (Units=1/GPa)
#
#
# Indices 1 2 3 4 5 6 
#
# 1 0.012985 -0.006725 -0.004800 0.000000 0.000000 0.000000
# 2 -0.006725 0.026097 -0.004674 0.000000 0.000000 0.000000
# 3 -0.004800 -0.004674 0.022345 0.000000 0.000000 0.000000
# 4 0.000000 0.000000 0.000000 0.041496 0.000000 0.000000
# 5 0.000000 0.000000 0.000000 0.000000 0.045505 0.000000
# 6 0.000000 0.000000 0.000000 0.000000 0.000000 0.047152
#
#
# Mechanical properties :
#
#
# Convention : Reuss Voigt Hill
#
# Bulk Modulus (GPa) = 34.44843 40.65958 37.55401
# Shear Modulus (GPa) = 21.03887 22.13483 21.58685
#
# Velocity S-wave (km/s) = 3.63105 3.72442 3.67803
# Velocity P-wave (km/s) = 6.25837 6.63139 6.44758
#
# Compressibility (1/GPa) = 0.02902890
#
# Stress axis : x y z
#
# Youngs Moduli (GPa) = 77.01098 38.31831 44.75233
#
# Poissons Ratio (x) = 0.25770 0.21483
# Poissons Ratio (y) = 0.51792 0.20916
# Poissons Ratio (z) = 0.36968 0.17909
#
# Static dielectric constant tensor:
#      x y z
#    x 1.545940 0.000000 0.000000 
#    y 0.000000 1.540450 0.000000 
#    z 0.000000 0.000000 1.521950 
# 
# From -- ./inp_files/25002.got.cif
#   From: 2010.05.17/outbox.cif.g08.bks.cpg/sg59_13_cif.got.tgz:25002.got - 2010.06.03 14:40:33.
