data_PCOD9446570
_publ_section_title
;
Structure prediction by ZEFSAII (Michael W. Deem and Ramdas Pophale) SiO2 
 PCOD9446570
Probable space group: P M M N
;
_chemical_formula_sum "Si O2"
_cell_formula_units_Z 64
_cell_length_a 7.621941
_cell_length_b 30.423451
_cell_length_c 14.741641
_cell_angle_alpha 90.000000
_cell_angle_beta 90.000000
_cell_angle_gamma 90.000000
_cell_volume 3418.376458
_symmetry_space_group_name_H-M "P M M N"
_symmetry_group_IT_number 59
_space_group.IT_coordinate_system_code '2'
_symmetry_cell_setting 'orthorhombic'
loop_
_space_group_symop_operation_xyz
x,y,z
1/2-x,1/2-y,z
1/2+x,-y,-z
-x,1/2+y,-z
-x,-y,-z
1/2+x,1/2+y,-z
1/2-x,y,z
x,1/2-y,z
loop_
_atom_site_type_symbol
_atom_site_label
_atom_site_fract_x
_atom_site_fract_y
_atom_site_fract_z
Si Si1 0.951176 0.415927 0.202454
Si Si2 0.545958 0.701283 0.499007
Si Si3 0.462902 0.996563 0.306069
Si Si4 0.959493 0.058764 0.533295
Si Si5 0.536420 0.087005 0.820318
Si Si6 0.538286 0.448139 0.010626
Si Si7 0.042135 0.643930 0.336366
Si Si8 0.458357 0.618781 0.621423
O O1 0.750000 0.402610 0.184248
O O2 0.030979 0.428150 0.105167
O O3 0.029738 0.382106 0.276100
O O4 0.956154 0.460791 0.260919
O O5 0.750000 0.703750 0.520869
O O6 0.468069 0.750000 0.508175
O O7 0.530977 0.683519 0.395934
O O8 0.474192 0.663801 0.565843
O O9 0.250000 0.000638 0.307599
O O10 0.525361 0.982417 0.407142
O O11 0.505868 0.956272 0.238588
O O12 0.750000 0.052777 0.523547
O O13 0.981685 0.100412 0.601502
O O14 0.034473 0.078877 0.440379
O O15 0.750000 0.089390 0.822037
O O16 0.474755 0.129171 0.762408
O O17 0.475024 0.078273 0.922163
O O18 0.750000 0.445237 0.012454
O O19 0.500000 0.500000 0.000000
O O20 0.250000 0.651606 0.329591
O O21 0.250000 0.610493 0.628423
#
# Coordination Sequence:
#
# PCOD9446570 Si02
#       8
#     8   8   8   8   8   8   8   8
#     4  10  20  29  40  63  91 117 154 202 232 248
#     4  10  20  33  50  74  98 113 132 173 227 278
#     4   9  15  25  41  58  79 118 161 188 221 267
#     4   7  12  24  41  57  78 112 152 185 212 252
#     4   8  14  26  44  63  87 121 157 190 224 263
#     4  10  18  29  44  63  89 123 161 199 235 261
#     4   8  14  27  47  68  89 117 150 179 213 266
#     4   9  18  33  47  61  88 122 153 183 218 267
#
# _framework density 18.722339999999999
#
# number of rings (size 3 to 8) (size 9 to 14) (size 15 to 20)
#    0.000    3.125    1.250    2.625    0.000    2.000 
#    0.000    6.250    0.000    0.000    0.000    0.875 
#    0.000    7.000    0.000    0.000    0.000    0.000 
#
# Total GULP energy -356460.690053 kJ/mol
# GULP energy per Si atom -5569.698282 kJ/mol
# Density = 1.867973 g / cm^3
# Si number density = 18.722340 Si / 1000 Ang^3
#
#
#
# Elastic Constant Matrix: (Units=GPa)
#
#
# Indices 1 2 3 4 5 6 
#
# 1 33.8650 -3.2662 8.4087 0.0000 0.0000 0.0000
# 2 -3.2662 80.0000 46.1961 0.0000 0.0000 0.0000
# 3 8.4087 46.1961 175.5157 0.0000 0.0000 0.0000
# 4 0.0000 0.0000 0.0000 11.1740 0.0000 0.0000
# 5 0.0000 0.0000 0.0000 0.0000 3.3232 0.0000
# 6 0.0000 0.0000 0.0000 0.0000 0.0000 15.1031
#
#
#
# Elastic Compliance Matrix: (Units=1/GPa)
#
#
# Indices 1 2 3 4 5 6 
#
# 1 0.030285 0.002446 -0.002095 0.000000 0.000000 0.000000
# 2 0.002446 0.014938 -0.004049 0.000000 0.000000 0.000000
# 3 -0.002095 -0.004049 0.006864 0.000000 0.000000 0.000000
# 4 0.000000 0.000000 0.000000 0.089494 0.000000 0.000000
# 5 0.000000 0.000000 0.000000 0.000000 0.300913 0.000000
# 6 0.000000 0.000000 0.000000 0.000000 0.000000 0.066211
#
#
# Mechanical properties :
#
#
# Convention : Reuss Voigt Hill
#
# Bulk Modulus (GPa) = 22.37564 43.56198 32.96881
# Shear Modulus (GPa) = 9.41625 21.78954 15.60290
#
# Velocity S-wave (km/s) = 2.24507 3.41519 2.88997
# Velocity P-wave (km/s) = 4.32408 6.23452 5.36502
#
# Compressibility (1/GPa) = 0.04469146
#
# Stress axis : x y z
#
# Youngs Moduli (GPa) = 33.01955 66.94383 145.69783
#
# Poissons Ratio (x) = -0.16375 0.30520
# Poissons Ratio (y) = -0.08077 0.58991
# Poissons Ratio (z) = 0.06917 0.27105
#
# Static dielectric constant tensor:
#      x y z
#    x 1.697600 0.000000 0.000000 
#    y 0.000000 1.664860 0.000000 
#    z 0.000000 0.000000 1.733320 
# 
# From -- ./inp_files/21833.got.cif
#   From: 2010.05.17/outbox.cif.g08.bks.cpg/sg59_11_cif.got.tgz:21833.got - 2010.06.03 14:40:33.
