data_PCOD9446582
_publ_section_title
;
Structure prediction by ZEFSAII (Michael W. Deem and Ramdas Pophale) SiO2 
 PCOD9446582
Probable space group: P M M N
;
_chemical_formula_sum "Si O2"
_cell_formula_units_Z 56
_cell_length_a 18.813872
_cell_length_b 7.434968
_cell_length_c 20.000985
_cell_angle_alpha 90.000000
_cell_angle_beta 90.000000
_cell_angle_gamma 90.000000
_cell_volume 2797.748508
_symmetry_space_group_name_H-M "P M M N"
_symmetry_group_IT_number 59
_space_group.IT_coordinate_system_code '2'
_symmetry_cell_setting 'orthorhombic'
loop_
_space_group_symop_operation_xyz
x,y,z
1/2-x,1/2-y,z
1/2+x,-y,-z
-x,1/2+y,-z
-x,-y,-z
1/2+x,1/2+y,-z
1/2-x,y,z
x,1/2-y,z
loop_
_atom_site_type_symbol
_atom_site_label
_atom_site_fract_x
_atom_site_fract_y
_atom_site_fract_z
Si Si1 0.518950 0.972007 0.706268
Si Si2 0.545126 0.464404 0.433426
Si Si3 0.669867 0.539900 0.671198
Si Si4 0.332244 0.970233 0.945281
Si Si5 0.830120 0.032271 0.517798
Si Si6 0.450641 0.543334 0.839427
Si Si7 0.061469 0.962761 0.054275
O O1 0.520091 0.750000 0.707356
O O2 0.487539 0.033155 0.635140
O O3 0.601377 0.032228 0.710325
O O4 0.469715 0.034289 0.767282
O O5 0.500000 0.500000 0.500000
O O6 0.549203 0.250000 0.424784
O O7 0.621524 0.532023 0.457283
O O8 0.750000 0.462558 0.678816
O O9 0.675315 0.750000 0.688018
O O10 0.649424 0.528192 0.592476
O O11 0.250000 0.024406 0.937053
O O12 0.333991 0.750000 0.945110
O O13 0.387447 0.031394 0.886890
O O14 0.367170 0.026038 0.016575
O O15 0.750000 0.974071 0.508051
O O16 0.833034 0.250000 0.519534
O O17 0.429814 0.750000 0.828594
O O18 0.525683 0.541119 0.879579
O O19 0.068076 0.750000 0.065085
O O20 0.000000 0.000000 0.000000
#
# Coordination Sequence:
#
# PCOD9446582 Si02
#       7
#     8   8   8   8   8   8   8
#     4   9  17  29  44  64  90 119 152 190 230 271
#     4  10  18  29  45  64  87 115 151 194 234 275
#     4   9  16  27  44  62  81 111 150 188 228 278
#     4   8  14  26  46  70  91 115 149 183 215 257
#     4   9  17  28  42  62  87 111 139 186 243 283
#     4   9  17  30  47  66  93 126 154 186 226 269
#     4   9  16  28  48  70  92 117 147 184 220 260
#
# _framework density 20.016096000000001
#
# number of rings (size 3 to 8) (size 9 to 14) (size 15 to 20)
#    0.000    3.000    1.429    1.286    0.000    0.000 
#    0.000    2.857    0.000   15.857    0.000    0.000 
#    0.000    4.571    0.000    0.000    0.000    0.000 
#
# Total GULP energy -311749.164070 kJ/mol
# GULP energy per Si atom -5566.949358 kJ/mol
# Density = 1.997054 g / cm^3
# Si number density = 20.016096 Si / 1000 Ang^3
#
#
#
# Elastic Constant Matrix: (Units=GPa)
#
#
# Indices 1 2 3 4 5 6 
#
# 1 132.0601 -1.3779 50.9072 0.0000 0.0000 0.0000
# 2 -1.3779 61.3826 -9.0434 0.0000 0.0000 0.0000
# 3 50.9072 -9.0434 90.9290 0.0000 0.0000 0.0000
# 4 0.0000 0.0000 0.0000 1.1913 0.0000 0.0000
# 5 0.0000 0.0000 0.0000 0.0000 28.5010 0.0000
# 6 0.0000 0.0000 0.0000 0.0000 0.0000 7.9989
#
#
#
# Elastic Compliance Matrix: (Units=1/GPa)
#
#
# Indices 1 2 3 4 5 6 
#
# 1 0.009677 -0.000590 -0.005477 0.000000 0.000000 0.000000
# 2 -0.000590 0.016569 0.001978 0.000000 0.000000 0.000000
# 3 -0.005477 0.001978 0.014260 0.000000 0.000000 0.000000
# 4 0.000000 0.000000 0.000000 0.839400 0.000000 0.000000
# 5 0.000000 0.000000 0.000000 0.000000 0.035087 0.000000
# 6 0.000000 0.000000 0.000000 0.000000 0.000000 0.125017
#
#
# Mechanical properties :
#
#
# Convention : Reuss Voigt Hill
#
# Bulk Modulus (GPa) = 30.93018 40.59372 35.76195
# Shear Modulus (GPa) = 4.72160 23.79730 14.25945
#
# Velocity S-wave (km/s) = 1.53754 3.45180 2.67198
# Velocity P-wave (km/s) = 4.31720 6.01756 5.23686
#
# Compressibility (1/GPa) = 0.03233088
#
# Stress axis : x y z
#
# Youngs Moduli (GPa) = 103.33484 60.35204 70.12432
#
# Poissons Ratio (x) = 0.03558 0.38404
# Poissons Ratio (y) = 0.06093 -0.13871
# Poissons Ratio (z) = 0.56592 -0.11938
#
# Static dielectric constant tensor:
#      x y z
#    x 1.760490 0.000000 0.000000 
#    y 0.000000 1.868800 0.000000 
#    z 0.000000 0.000000 1.707020 
# 
# From -- ./inp_files/28092.got.cif
#   From: 2010.05.17/outbox.cif.g08.bks.cpg/sg59_15_cif.got.tgz:28092.got - 2010.06.03 14:40:33.
