data_PCOD9446729
_publ_section_title
;
Structure prediction by ZEFSAII (Michael W. Deem and Ramdas Pophale) SiO2 
 PCOD9446729
Probable space group: P M M N
;
_chemical_formula_sum "Si O2"
_cell_formula_units_Z 64
_cell_length_a 18.597337
_cell_length_b 14.287825
_cell_length_c 15.805183
_cell_angle_alpha 90.000000
_cell_angle_beta 90.000000
_cell_angle_gamma 90.000000
_cell_volume 4199.682048
_symmetry_space_group_name_H-M "P M M N"
_symmetry_group_IT_number 59
_space_group.IT_coordinate_system_code '2'
_symmetry_cell_setting 'orthorhombic'
loop_
_space_group_symop_operation_xyz
x,y,z
1/2-x,1/2-y,z
1/2+x,-y,-z
-x,1/2+y,-z
-x,-y,-z
1/2+x,1/2+y,-z
1/2-x,y,z
x,1/2-y,z
loop_
_atom_site_type_symbol
_atom_site_label
_atom_site_fract_x
_atom_site_fract_y
_atom_site_fract_z
Si Si1 0.119684 0.855855 0.444323
Si Si2 0.662844 0.641445 0.991085
Si Si3 0.334735 0.363354 0.822640
Si Si4 0.950290 0.640874 0.491141
Si Si5 0.415945 0.476059 0.339984
Si Si6 0.163811 0.137908 0.195193
Si Si7 0.922768 0.966713 0.321479
Si Si8 0.332037 0.857273 0.631128
O O1 0.130954 0.750000 0.412862
O O2 0.164734 0.869473 0.529528
O O3 0.036308 0.863541 0.475281
O O4 0.129384 0.935876 0.375183
O O5 0.750000 0.641560 0.991180
O O6 0.640043 0.750000 0.991102
O O7 0.642633 0.602444 0.083034
O O8 0.641272 0.603512 0.899209
O O9 0.250000 0.386283 0.809236
O O10 0.339568 0.250000 0.821340
O O11 0.384498 0.407311 0.751177
O O12 0.929612 0.750000 0.493581
O O13 0.931881 0.588821 0.578046
O O14 0.915922 0.587354 0.411331
O O15 0.376529 0.417500 0.268211
O O16 0.492637 0.515546 0.308349
O O17 0.250000 0.126013 0.203021
O O18 0.150150 0.250000 0.200770
O O19 0.883639 0.066339 0.328917
O O20 0.250000 0.869346 0.659773
O O21 0.354895 0.750000 0.647738
#
# Coordination Sequence:
#
# PCOD9446729 Si02
#       8
#     8   8   8   8   8   8   8   8
#     4   9  17  31  45  58  82 120 162 192 213 252
#     4   7  12  27  49  69  91 120 150 181 223 281
#     4   9  17  30  50  74  98 123 150 184 231 282
#     4  10  18  30  46  64  91 123 154 182 222 279
#     4  11  19  30  46  69  92 124 154 186 232 277
#     4   9  18  32  50  72  94 116 149 192 237 285
#     4  11  19  31  44  69  95 124 153 191 229 277
#     4  10  19  30  44  60  83 120 162 199 224 249
#
# _framework density 15.239248999999999
#
# number of rings (size 3 to 8) (size 9 to 14) (size 15 to 20)
#    0.000    2.500    2.500    3.375    0.000    1.500 
#    0.000    0.625    0.000    2.250    0.000    0.875 
#    0.000    3.000    0.000    0.000    0.000    0.000 
#
# Total GULP energy -356413.941376 kJ/mol
# GULP energy per Si atom -5568.967834 kJ/mol
# Density = 1.520456 g / cm^3
# Si number density = 15.239249 Si / 1000 Ang^3
#
#
#
# Elastic Constant Matrix: (Units=GPa)
#
#
# Indices 1 2 3 4 5 6 
#
# 1 22.8367 17.2643 30.2833 0.0000 0.0000 0.0000
# 2 17.2643 57.5005 30.0797 0.0000 0.0000 0.0000
# 3 30.2833 30.0797 117.0623 0.0000 0.0000 0.0000
# 4 0.0000 0.0000 0.0000 15.3035 0.0000 0.0000
# 5 0.0000 0.0000 0.0000 0.0000 15.7474 0.0000
# 6 0.0000 0.0000 0.0000 0.0000 0.0000 22.2623
#
#
#
# Elastic Compliance Matrix: (Units=1/GPa)
#
#
# Indices 1 2 3 4 5 6 
#
# 1 0.075781 -0.014438 -0.015894 0.000000 0.000000 0.000000
# 2 -0.014438 0.022843 -0.002134 0.000000 0.000000 0.000000
# 3 -0.015894 -0.002134 0.013203 0.000000 0.000000 0.000000
# 4 0.000000 0.000000 0.000000 0.065344 0.000000 0.000000
# 5 0.000000 0.000000 0.000000 0.000000 0.063503 0.000000
# 6 0.000000 0.000000 0.000000 0.000000 0.000000 0.044919
#
#
# Mechanical properties :
#
#
# Convention : Reuss Voigt Hill
#
# Bulk Modulus (GPa) = 21.32529 39.18381 30.25455
# Shear Modulus (GPa) = 13.65532 18.64745 16.15139
#
# Velocity S-wave (km/s) = 2.99668 3.50186 3.25907
# Velocity P-wave (km/s) = 5.09877 6.48991 5.83594
#
# Compressibility (1/GPa) = 0.04689268
#
# Stress axis : x y z
#
# Youngs Moduli (GPa) = 13.19587 43.77749 75.74245
#
# Poissons Ratio (x) = 0.63208 1.20386
# Poissons Ratio (y) = 0.19053 0.16167
# Poissons Ratio (z) = 0.20974 0.09344
#
# Static dielectric constant tensor:
#      x y z
#    x 1.501480 0.000000 0.000000 
#    y 0.000000 1.511690 0.000000 
#    z 0.000000 0.000000 1.512570 
# 
# From -- ./inp_files/24036.got.cif
#   From: 2010.05.17/outbox.cif.g08.bks.cpg/sg59_13_cif.got.tgz:24036.got - 2010.06.03 14:40:33.
