data_PCOD9446313
_publ_section_title
;
Structure prediction by ZEFSAII (Michael W. Deem and Ramdas Pophale) SiO2 
 PCOD9446313
Probable space group: P M M N
;
_chemical_formula_sum "Si O2"
_cell_formula_units_Z 52
_cell_length_a 19.429338
_cell_length_b 14.613979
_cell_length_c 9.319846
_cell_angle_alpha 90.000000
_cell_angle_beta 90.000000
_cell_angle_gamma 90.000000
_cell_volume 2646.276491
_symmetry_space_group_name_H-M "P M M N"
_symmetry_group_IT_number 59
_space_group.IT_coordinate_system_code '2'
_symmetry_cell_setting 'orthorhombic'
loop_
_space_group_symop_operation_xyz
x,y,z
1/2-x,1/2-y,z
1/2+x,-y,-z
-x,1/2+y,-z
-x,-y,-z
1/2+x,1/2+y,-z
1/2-x,y,z
x,1/2-y,z
loop_
_atom_site_type_symbol
_atom_site_label
_atom_site_fract_x
_atom_site_fract_y
_atom_site_fract_z
Si Si1 0.376244 0.357981 0.408183
Si Si2 0.750000 0.597035 0.372722
Si Si3 0.641888 0.356411 0.656895
Si Si4 0.170136 0.856406 0.667911
Si Si5 0.670476 0.977671 0.850841
Si Si6 0.124082 0.026071 0.825435
Si Si7 0.522268 0.857113 0.345267
O O1 0.378515 0.250000 0.378626
O O2 0.310496 0.379020 0.508370
O O3 0.368613 0.414542 0.263441
O O4 0.443090 0.383412 0.502919
O O5 0.810804 0.573192 0.253953
O O6 0.660993 0.250000 0.676284
O O7 0.668028 0.385992 0.499102
O O8 0.669112 0.421495 0.780557
O O9 0.559450 0.363839 0.652092
O O10 0.250000 0.864680 0.714391
O O11 0.149901 0.750000 0.673718
O O12 0.124574 0.923324 0.761907
O O13 0.750000 0.947952 0.862567
O O14 0.636071 0.975547 0.005775
O O15 0.056991 0.080684 0.775337
O O16 0.540700 0.750000 0.321078
#
# Coordination Sequence:
#
# PCOD9446313 Si02
#       7
#     8   4   8   8   8   8   8
#     4  10  21  37  60  85 115 151 196 248 294 342
#     4  10  17  34  57  78 108 152 187 232 279 336
#     4  10  22  40  62  87 115 152 204 255 294 340
#     4  10  20  36  60  86 115 155 200 247 296 352
#     4  12  24  36  57  91 127 156 190 241 299 359
#     4  11  22  37  59  86 124 157 193 236 296 363
#     4   9  21  41  62  85 113 154 206 249 291 349
#
# _framework density 19.650251999999998
#
# number of rings (size 3 to 8) (size 9 to 14) (size 15 to 20)
#    0.000    1.692    2.308    2.538    0.000    5.846 
#    0.000    0.000    0.000    3.692    0.000    0.000 
#    0.000    0.000    0.000    0.000    0.000    0.000 
#
# Total GULP energy -289579.592590 kJ/mol
# GULP energy per Si atom -5568.838319 kJ/mol
# Density = 1.960553 g / cm^3
# Si number density = 19.650252 Si / 1000 Ang^3
#
#
#
# Elastic Constant Matrix: (Units=GPa)
#
#
# Indices 1 2 3 4 5 6 
#
# 1 53.5101 15.8527 7.0773 0.0000 0.0000 0.0000
# 2 15.8527 70.1621 60.0652 0.0000 0.0000 0.0000
# 3 7.0773 60.0652 148.3774 0.0000 0.0000 0.0000
# 4 0.0000 0.0000 0.0000 -20.8126 0.0000 0.0000
# 5 0.0000 0.0000 0.0000 0.0000 6.1945 0.0000
# 6 0.0000 0.0000 0.0000 0.0000 0.0000 16.8317
#
#
#
# Elastic Compliance Matrix: (Units=1/GPa)
#
#
# Indices 1 2 3 4 5 6 
#
# 1 0.020205 -0.005724 0.001353 0.000000 0.000000 0.000000
# 2 -0.005724 0.023433 -0.009213 0.000000 0.000000 0.000000
# 3 0.001353 -0.009213 0.010405 0.000000 0.000000 0.000000
# 4 0.000000 0.000000 0.000000 -0.048048 0.000000 0.000000
# 5 0.000000 0.000000 0.000000 0.000000 0.161434 0.000000
# 6 0.000000 0.000000 0.000000 0.000000 0.000000 0.059412
#
#
# Mechanical properties :
#
#
# Convention : Reuss Voigt Hill
#
# Bulk Modulus (GPa) = 37.20843 48.67110 42.93977
# Shear Modulus (GPa) = 19.01388 13.04634 16.03011
#
# Velocity S-wave (km/s) = 3.11403 2.57947 2.85927
# Velocity P-wave (km/s) = 5.64854 5.80466 5.72713
#
# Compressibility (1/GPa) = 0.02687563
#
# Stress axis : x y z
#
# Youngs Moduli (GPa) = 49.49326 42.67456 96.11145
#
# Poissons Ratio (x) = 0.24426 -0.13007
# Poissons Ratio (y) = 0.28328 0.88548
# Poissons Ratio (z) = -0.06698 0.39316
#
# Static dielectric constant tensor:
#      x y z
#    x 1.674850 0.000000 0.000000 
#    y 0.000000 1.740420 0.000000 
#    z 0.000000 0.000000 1.642730 
# 
# From -- ./inp_files/11365.got.cif
#   From: 2010.05.17/outbox.cif.g08.bks.cpg/sg59_6_cif.got.tgz:11365.got - 2010.06.03 14:40:33.
