data_PCOD9446410
_publ_section_title
;
Structure prediction by ZEFSAII (Michael W. Deem and Ramdas Pophale) SiO2 
 PCOD9446410
Probable space group: P M M N
;
_chemical_formula_sum "Si O2"
_cell_formula_units_Z 64
_cell_length_a 7.860722
_cell_length_b 14.403255
_cell_length_c 33.006169
_cell_angle_alpha 90.000000
_cell_angle_beta 90.000000
_cell_angle_gamma 90.000000
_cell_volume 3736.957908
_symmetry_space_group_name_H-M "P M M N"
_symmetry_group_IT_number 59
_space_group.IT_coordinate_system_code '2'
_symmetry_cell_setting 'orthorhombic'
loop_
_space_group_symop_operation_xyz
x,y,z
1/2-x,1/2-y,z
1/2+x,-y,-z
-x,1/2+y,-z
-x,-y,-z
1/2+x,1/2+y,-z
1/2-x,y,z
x,1/2-y,z
loop_
_atom_site_type_symbol
_atom_site_label
_atom_site_fract_x
_atom_site_fract_y
_atom_site_fract_z
Si Si1 0.456436 0.359120 0.474998
Si Si2 0.044864 0.462600 0.062022
Si Si3 0.046164 0.356781 0.141195
Si Si4 0.045731 0.143308 0.316656
Si Si5 0.452418 0.855950 0.770993
Si Si6 0.546570 0.963436 0.604475
Si Si7 0.045275 0.355287 0.981507
Si Si8 0.455278 0.356045 0.564917
O O1 0.250000 0.367483 0.475338
O O2 0.494395 0.250000 0.470230
O O3 0.522726 0.414271 0.436256
O O4 0.516906 0.387175 0.519938
O O5 0.250000 0.457468 0.062083
O O6 0.982125 0.419297 0.104150
O O7 0.998530 0.568879 0.052550
O O8 0.983522 0.399939 0.024044
O O9 0.250000 0.351493 0.137395
O O10 0.980423 0.250000 0.138710
O O11 0.008050 0.396018 0.185897
O O12 0.250000 0.147805 0.319633
O O13 0.980837 0.250000 0.318978
O O14 0.980860 0.083305 0.354436
O O15 0.005147 0.103243 0.272226
O O16 0.250000 0.851662 0.771373
O O17 0.523323 0.750000 0.770729
O O18 0.750000 0.949435 0.604398
O O19 0.512089 0.071728 0.598547
O O20 0.250000 0.351034 0.983877
O O21 0.982613 0.250000 0.975564
O O22 0.250000 0.355528 0.563764
O O23 0.511450 0.250000 0.571258
#
# Coordination Sequence:
#
# PCOD9446410 Si02
#       8
#     8   8   8   8   8   8   8   8
#     4   8  14  26  43  62  85 112 140 169 203 245
#     4   9  17  28  43  64  87 114 151 188 218 252
#     4   9  16  27  44  64  87 116 147 178 213 253
#     4   9  17  29  44  63  88 115 140 166 203 255
#     4   9  17  28  42  62  88 115 141 171 208 250
#     4  10  18  27  44  67  85 106 140 178 209 239
#     4   9  17  29  43  60  87 121 152 183 220 258
#     4   9  18  31  44  58  81 114 145 172 207 249
#
# _framework density 17.126231000000001
#
# number of rings (size 3 to 8) (size 9 to 14) (size 15 to 20)
#    0.000    3.000    0.000    2.250    0.000    6.000 
#    0.000    0.000    0.000    4.125    0.000    0.875 
#    0.000    7.000    0.000    0.000    0.000    0.000 
#
# Total GULP energy -356550.248711 kJ/mol
# GULP energy per Si atom -5571.097636 kJ/mol
# Density = 1.708725 g / cm^3
# Si number density = 17.126231 Si / 1000 Ang^3
#
#
#
# Elastic Constant Matrix: (Units=GPa)
#
#
# Indices 1 2 3 4 5 6 
#
# 1 18.8549 3.8889 7.6407 0.0000 0.0000 0.0000
# 2 3.8889 93.8856 79.0684 0.0000 0.0000 0.0000
# 3 7.6407 79.0684 151.4890 0.0000 0.0000 0.0000
# 4 0.0000 0.0000 0.0000 24.3419 0.0000 0.0000
# 5 0.0000 0.0000 0.0000 0.0000 14.0741 0.0000
# 6 0.0000 0.0000 0.0000 0.0000 0.0000 16.5830
#
#
#
# Elastic Compliance Matrix: (Units=1/GPa)
#
#
# Indices 1 2 3 4 5 6 
#
# 1 0.054144 0.000102 -0.002784 0.000000 0.000000 0.000000
# 2 0.000102 0.019006 -0.009925 0.000000 0.000000 0.000000
# 3 -0.002784 -0.009925 0.011922 0.000000 0.000000 0.000000
# 4 0.000000 0.000000 0.000000 0.041081 0.000000 0.000000
# 5 0.000000 0.000000 0.000000 0.000000 0.071053 0.000000
# 6 0.000000 0.000000 0.000000 0.000000 0.000000 0.060303
#
#
# Mechanical properties :
#
#
# Convention : Reuss Voigt Hill
#
# Bulk Modulus (GPa) = 16.70644 49.49173 33.09908
# Shear Modulus (GPa) = 16.51938 22.57522 19.54730
#
# Velocity S-wave (km/s) = 3.10912 3.63459 3.38208
# Velocity P-wave (km/s) = 4.76076 6.82456 5.88386
#
# Compressibility (1/GPa) = 0.05985715
#
# Stress axis : x y z
#
# Youngs Moduli (GPa) = 18.46929 52.61600 83.87982
#
# Poissons Ratio (x) = -0.00536 0.23353
# Poissons Ratio (y) = -0.00188 0.83250
# Poissons Ratio (z) = 0.05142 0.52221
#
# Static dielectric constant tensor:
#      x y z
#    x 1.623780 0.000000 0.000000 
#    y 0.000000 1.576280 0.000000 
#    z 0.000000 0.000000 1.601370 
# 
# From -- ./inp_files/33206.got.cif
#   From: 2010.05.17/outbox.cif.g08.bks.cpg/sg59_17_cif.got.tgz:33206.got - 2010.06.03 14:40:33.
