data_PCOD9446250
_publ_section_title
;
Structure prediction by ZEFSAII (Michael W. Deem and Ramdas Pophale) SiO2 
 PCOD9446250
Probable space group: P M M N
;
_chemical_formula_sum "Si O2"
_cell_formula_units_Z 64
_cell_length_a 18.611406
_cell_length_b 17.140518
_cell_length_c 11.559136
_cell_angle_alpha 90.000000
_cell_angle_beta 90.000000
_cell_angle_gamma 90.000000
_cell_volume 3687.470029
_symmetry_space_group_name_H-M "P M M N"
_symmetry_group_IT_number 59
_space_group.IT_coordinate_system_code '2'
_symmetry_cell_setting 'orthorhombic'
loop_
_space_group_symop_operation_xyz
x,y,z
1/2-x,1/2-y,z
1/2+x,-y,-z
-x,1/2+y,-z
-x,-y,-z
1/2+x,1/2+y,-z
1/2-x,y,z
x,1/2-y,z
loop_
_atom_site_type_symbol
_atom_site_label
_atom_site_fract_x
_atom_site_fract_y
_atom_site_fract_z
Si Si1 0.333413 0.451016 0.188060
Si Si2 0.110450 0.891525 0.091343
Si Si3 0.038267 0.335695 0.815397
Si Si4 0.666119 0.338035 0.673860
Si Si5 0.832461 0.048185 0.140513
Si Si6 0.829784 0.872467 0.034351
Si Si7 0.402270 0.999880 0.404315
Si Si8 0.434777 0.486674 0.663803
O O1 0.250000 0.475767 0.174664
O O2 0.383629 0.519733 0.138434
O O3 0.342800 0.378269 0.103221
O O4 0.352426 0.447314 0.322140
O O5 0.156165 0.844851 0.187068
O O6 0.029617 0.862515 0.108033
O O7 0.139589 0.894496 0.961050
O O8 0.023174 0.250000 0.766031
O O9 0.054365 0.401539 0.720575
O O10 0.107176 0.332648 0.897349
O O11 0.750000 0.350349 0.646097
O O12 0.645693 0.250000 0.638119
O O13 0.620113 0.409333 0.620792
O O14 0.750000 0.066941 0.174389
O O15 0.888328 0.038178 0.246074
O O16 0.829901 0.962167 0.081036
O O17 0.750000 0.841525 0.055760
O O18 0.484263 0.014882 0.363776
O O19 0.396218 0.016290 0.539795
#
# Coordination Sequence:
#
# PCOD9446250 Si02
#       8
#     8   8   8   8   8   8   8   8
#     4   9  16  29  52  77 101 127 161 213 262 304
#     4  10  17  28  50  75 104 128 160 207 257 317
#     4  11  21  32  51  76 104 138 175 218 272 326
#     4  10  19  32  53  79 107 139 174 218 272 324
#     4   9  18  31  49  75 103 131 163 207 262 317
#     4   8  17  31  48  73 100 127 162 205 262 318
#     4  10  19  32  50  76 106 137 184 223 258 300
#     4  10  21  33  50  75 104 145 180 223 261 304
#
# _framework density 17.356072999999999
#
# number of rings (size 3 to 8) (size 9 to 14) (size 15 to 20)
#    0.000    2.375    2.500    3.375    1.750    2.750 
#    0.000    0.000    0.000    2.250    0.000    1.750 
#    0.000    0.000    0.000    0.000    0.000    0.000 
#
# Total GULP energy -356274.993360 kJ/mol
# GULP energy per Si atom -5566.796771 kJ/mol
# Density = 1.731657 g / cm^3
# Si number density = 17.356073 Si / 1000 Ang^3
#
#
#
# Elastic Constant Matrix: (Units=GPa)
#
#
# Indices 1 2 3 4 5 6 
#
# 1 80.9570 19.4598 32.8503 0.0000 0.0000 0.0000
# 2 19.4598 35.5078 15.4364 0.0000 0.0000 0.0000
# 3 32.8503 15.4364 96.0956 0.0000 0.0000 0.0000
# 4 0.0000 0.0000 0.0000 7.4497 0.0000 0.0000
# 5 0.0000 0.0000 0.0000 0.0000 27.5739 0.0000
# 6 0.0000 0.0000 0.0000 0.0000 0.0000 7.1718
#
#
#
# Elastic Compliance Matrix: (Units=1/GPa)
#
#
# Indices 1 2 3 4 5 6 
#
# 1 0.015714 -0.006748 -0.004288 0.000000 0.000000 0.000000
# 2 -0.006748 0.033175 -0.003022 0.000000 0.000000 0.000000
# 3 -0.004288 -0.003022 0.012358 0.000000 0.000000 0.000000
# 4 0.000000 0.000000 0.000000 0.134233 0.000000 0.000000
# 5 0.000000 0.000000 0.000000 0.000000 0.036266 0.000000
# 6 0.000000 0.000000 0.000000 0.000000 0.000000 0.139435
#
#
# Mechanical properties :
#
#
# Convention : Reuss Voigt Hill
#
# Bulk Modulus (GPa) = 30.18381 38.67261 34.42821
# Shear Modulus (GPa) = 12.18499 18.09335 15.13917
#
# Velocity S-wave (km/s) = 2.65251 3.23225 2.95662
# Velocity P-wave (km/s) = 5.17782 6.02164 5.61560
#
# Compressibility (1/GPa) = 0.03313034
#
# Stress axis : x y z
#
# Youngs Moduli (GPa) = 63.63671 30.14330 80.92175
#
# Poissons Ratio (x) = 0.20341 0.34699
# Poissons Ratio (y) = 0.42942 0.24457
# Poissons Ratio (z) = 0.27287 0.09110
#
# Static dielectric constant tensor:
#      x y z
#    x 1.609610 0.000000 0.000000 
#    y 0.000000 1.610840 0.000000 
#    z 0.000000 0.000000 1.607890 
# 
# From -- ./inp_files/17982.got.cif
#   From: 2010.05.17/outbox.cif.g08.bks.cpg/sg59_9_cif.got.tgz:17982.got - 2010.06.03 14:40:33.
