data_PCOD9446126
_publ_section_title
;
Structure prediction by ZEFSAII (Michael W. Deem and Ramdas Pophale) SiO2 
 PCOD9446126
Probable space group: P M M N
;
_chemical_formula_sum "Si O2"
_cell_formula_units_Z 40
_cell_length_a 9.317977
_cell_length_b 26.787854
_cell_length_c 7.321300
_cell_angle_alpha 90.000000
_cell_angle_beta 90.000000
_cell_angle_gamma 90.000000
_cell_volume 1827.459498
_symmetry_space_group_name_H-M "P M M N"
_symmetry_group_IT_number 59
_space_group.IT_coordinate_system_code '2'
_symmetry_cell_setting 'orthorhombic'
loop_
_space_group_symop_operation_xyz
x,y,z
1/2-x,1/2-y,z
1/2+x,-y,-z
-x,1/2+y,-z
-x,-y,-z
1/2+x,1/2+y,-z
1/2-x,y,z
x,1/2-y,z
loop_
_atom_site_type_symbol
_atom_site_label
_atom_site_fract_x
_atom_site_fract_y
_atom_site_fract_z
Si Si1 0.411481 0.641774 0.488270
Si Si2 0.583395 0.350353 0.958090
Si Si3 0.922181 0.750000 0.069092
Si Si4 0.079329 0.750000 0.454305
Si Si5 0.085832 0.448764 0.967118
Si Si6 0.908805 0.950866 0.468796
O O1 0.250000 0.627090 0.538465
O O2 0.414952 0.646351 0.265607
O O3 0.441762 0.697736 0.556125
O O4 0.519141 0.598905 0.545352
O O5 0.750000 0.347275 0.014955
O O6 0.494501 0.300647 0.005445
O O7 0.505291 0.400412 0.027020
O O8 0.750000 0.750000 0.052546
O O9 0.972212 0.750000 0.282425
O O10 0.250000 0.750000 0.394435
O O11 0.250000 0.450274 0.036981
O O12 0.097357 0.443755 0.748550
O O13 0.000000 0.500000 0.000000
O O14 0.750000 0.958310 0.540873
O O15 0.000000 0.000000 0.500000
#
# Coordination Sequence:
#
# PCOD9446126 Si02
#       6
#     8   8   4   4   8   8
#     4   8  14  25  41  61  87 117 149 185 227 273
#     4   9  16  27  42  61  88 121 153 188 231 278
#     4  10  16  22  36  60  89 118 149 188 231 276
#     4   8  14  24  38  58  85 118 149 180 227 280
#     4  10  20  33  49  71  96 124 158 195 235 282
#     4  10  20  32  47  68  94 124 159 194 231 275
#
# _framework density 21.888307000000001
#
# number of rings (size 3 to 8) (size 9 to 14) (size 15 to 20)
#    0.000    2.800    0.000    3.900    0.000    7.200 
#    0.000    0.000    0.000    0.000    0.000    1.400 
#    0.000    9.600    0.000    0.000    0.000    0.000 
#
# Total GULP energy -223329.588710 kJ/mol
# GULP energy per Si atom -5583.239718 kJ/mol
# Density = 2.183849 g / cm^3
# Si number density = 21.888307 Si / 1000 Ang^3
#
#
#
# Elastic Constant Matrix: (Units=GPa)
#
#
# Indices 1 2 3 4 5 6 
#
# 1 232.8328 158.4007 11.9655 0.0000 0.0000 0.0000
# 2 158.4007 234.5619 -6.7023 0.0000 0.0000 0.0000
# 3 11.9655 -6.7023 70.6355 0.0000 0.0000 0.0000
# 4 0.0000 0.0000 0.0000 12.2931 0.0000 0.0000
# 5 0.0000 0.0000 0.0000 0.0000 4.0029 0.0000
# 6 0.0000 0.0000 0.0000 0.0000 0.0000 47.5595
#
#
#
# Elastic Compliance Matrix: (Units=1/GPa)
#
#
# Indices 1 2 3 4 5 6 
#
# 1 0.008196 -0.005590 -0.001919 0.000000 0.000000 0.000000
# 2 -0.005590 0.008087 0.001714 0.000000 0.000000 0.000000
# 3 -0.001919 0.001714 0.014645 0.000000 0.000000 0.000000
# 4 0.000000 0.000000 0.000000 0.081346 0.000000 0.000000
# 5 0.000000 0.000000 0.000000 0.000000 0.249817 0.000000
# 6 0.000000 0.000000 0.000000 0.000000 0.000000 0.021026
#
#
# Mechanical properties :
#
#
# Convention : Reuss Voigt Hill
#
# Bulk Modulus (GPa) = 51.70774 96.15090 73.92932
# Shear Modulus (GPa) = 12.46406 37.72887 25.09646
#
# Velocity S-wave (km/s) = 2.38888 4.15625 3.38978
# Velocity P-wave (km/s) = 5.59319 8.18877 7.01212
#
# Compressibility (1/GPa) = 0.01933946
#
# Stress axis : x y z
#
# Youngs Moduli (GPa) = 122.00337 123.65262 68.28316
#
# Poissons Ratio (x) = 0.69121 0.13103
# Poissons Ratio (y) = 0.68199 -0.11706
# Poissons Ratio (z) = 0.23411 -0.21198
#
# Static dielectric constant tensor:
#      x y z
#    x 1.747790 0.000000 0.000000 
#    y 0.000000 1.779840 0.000000 
#    z 0.000000 0.000000 1.942180 
# 
# From -- ./inp_files/5951.got.cif
#   From: 2010.05.17/outbox.cif.g08.bks.cpg/sg59_3_cif.got.tgz:5951.got - 2010.06.03 14:40:33.
