data_PCOD9446688
_publ_section_title
;
Structure prediction by ZEFSAII (Michael W. Deem and Ramdas Pophale) SiO2 
 PCOD9446688
Probable space group: P M M N
;
_chemical_formula_sum "Si O2"
_cell_formula_units_Z 64
_cell_length_a 7.611807
_cell_length_b 14.534995
_cell_length_c 26.934528
_cell_angle_alpha 90.000000
_cell_angle_beta 90.000000
_cell_angle_gamma 90.000000
_cell_volume 2979.970907
_symmetry_space_group_name_H-M "P M M N"
_symmetry_group_IT_number 59
_space_group.IT_coordinate_system_code '2'
_symmetry_cell_setting 'orthorhombic'
loop_
_space_group_symop_operation_xyz
x,y,z
1/2-x,1/2-y,z
1/2+x,-y,-z
-x,1/2+y,-z
-x,-y,-z
1/2+x,1/2+y,-z
1/2-x,y,z
x,1/2-y,z
loop_
_atom_site_type_symbol
_atom_site_label
_atom_site_fract_x
_atom_site_fract_y
_atom_site_fract_z
Si Si1 0.466107 0.644024 0.724057
Si Si2 0.961445 0.642067 0.534817
Si Si3 0.465283 0.355329 0.576957
Si Si4 0.047020 0.528494 0.817609
Si Si5 0.456444 0.143795 0.087867
Si Si6 0.459533 0.354456 0.870098
Si Si7 0.959405 0.143878 0.980040
Si Si8 0.546951 0.471910 0.369249
O O1 0.250000 0.646857 0.724082
O O2 0.523638 0.750000 0.724307
O O3 0.526780 0.588595 0.772697
O O4 0.527009 0.589521 0.675089
O O5 0.750000 0.632599 0.537049
O O6 0.002931 0.750000 0.541369
O O7 0.019158 0.616558 0.479023
O O8 0.040019 0.584225 0.579380
O O9 0.250000 0.356590 0.576793
O O10 0.518355 0.250000 0.585526
O O11 0.529936 0.428656 0.617009
O O12 0.250000 0.511570 0.804074
O O13 0.967571 0.429450 0.831786
O O14 0.043007 0.587567 0.868088
O O15 0.250000 0.145345 0.098435
O O16 0.521907 0.250000 0.087180
O O17 0.479251 0.103372 0.032361
O O18 0.250000 0.348943 0.862971
O O19 0.530552 0.250000 0.866830
O O20 0.486665 0.391490 0.926177
O O21 0.750000 0.144583 0.981409
O O22 0.026388 0.250000 0.980257
O O23 0.750000 0.487889 0.355627
#
# Coordination Sequence:
#
# PCOD9446688 Si02
#       8
#     8   8   8   8   8   8   8   8
#     4   9  18  32  49  71  98 123 153 200 249 286
#     4   9  17  29  45  67  98 133 163 195 242 295
#     4   8  15  28  45  68 100 133 162 196 241 290
#     4  10  20  34  52  70  91 127 166 195 236 292
#     4  10  20  33  50  74 103 130 158 198 242 279
#     4   9  18  33  51  71  96 123 155 199 242 277
#     4   9  17  30  50  75 101 130 161 190 229 288
#     4  10  18  29  49  73  95 125 166 206 242 283
#
# _framework density 21.476718999999999
#
# number of rings (size 3 to 8) (size 9 to 14) (size 15 to 20)
#    0.000    2.750    0.000    2.625    0.000    4.500 
#    0.000    1.250    0.000    7.125    0.000    0.000 
#    0.000    2.000    0.000    0.000    0.000    0.000 
#
# Total GULP energy -357170.921903 kJ/mol
# GULP energy per Si atom -5580.795655 kJ/mol
# Density = 2.142784 g / cm^3
# Si number density = 21.476719 Si / 1000 Ang^3
#
#
#
# Elastic Constant Matrix: (Units=GPa)
#
#
# Indices 1 2 3 4 5 6 
#
# 1 45.5985 1.3071 -1.0934 0.0000 0.0000 0.0000
# 2 1.3071 136.6258 104.4484 0.0000 0.0000 0.0000
# 3 -1.0934 104.4484 140.8731 0.0000 0.0000 0.0000
# 4 0.0000 0.0000 0.0000 39.1299 0.0000 0.0000
# 5 0.0000 0.0000 0.0000 0.0000 -14.9096 0.0000
# 6 0.0000 0.0000 0.0000 0.0000 0.0000 3.4260
#
#
#
# Elastic Compliance Matrix: (Units=1/GPa)
#
#
# Indices 1 2 3 4 5 6 
#
# 1 0.021971 -0.000786 0.000753 0.000000 0.000000 0.000000
# 2 -0.000786 0.016925 -0.012555 0.000000 0.000000 0.000000
# 3 0.000753 -0.012555 0.016413 0.000000 0.000000 0.000000
# 4 0.000000 0.000000 0.000000 0.025556 0.000000 0.000000
# 5 0.000000 0.000000 0.000000 0.000000 -0.067071 0.000000
# 6 0.000000 0.000000 0.000000 0.000000 0.000000 0.291888
#
#
# Mechanical properties :
#
#
# Convention : Reuss Voigt Hill
#
# Bulk Modulus (GPa) = 33.18521 59.15795 46.17158
# Shear Modulus (GPa) = 14.66702 20.09161 17.37931
#
# Velocity S-wave (km/s) = 2.61612 3.06192 2.84776
# Velocity P-wave (km/s) = 4.96092 6.33289 5.68842
#
# Compressibility (1/GPa) = 0.03013391
#
# Stress axis : x y z
#
# Youngs Moduli (GPa) = 45.51422 59.08552 60.92770
#
# Poissons Ratio (x) = 0.04645 -0.04591
# Poissons Ratio (y) = 0.03578 0.76492
# Poissons Ratio (z) = -0.03429 0.74180
#
# Static dielectric constant tensor:
#      x y z
#    x 1.792920 0.000000 0.000000 
#    y 0.000000 1.819820 0.000000 
#    z 0.000000 0.000000 1.752430 
# 
# From -- ./inp_files/31670.got.cif
#   From: 2010.05.17/outbox.cif.g08.bks.cpg/sg59_16_cif.got.tgz:31670.got - 2010.06.03 14:40:33.
