data_PCOD9446687
_publ_section_title
;
Structure prediction by ZEFSAII (Michael W. Deem and Ramdas Pophale) SiO2 
 PCOD9446687
Probable space group: P M M N
;
_chemical_formula_sum "Si O2"
_cell_formula_units_Z 48
_cell_length_a 14.297954
_cell_length_b 7.350120
_cell_length_c 18.569287
_cell_angle_alpha 90.000000
_cell_angle_beta 90.000000
_cell_angle_gamma 90.000000
_cell_volume 1951.477524
_symmetry_space_group_name_H-M "P M M N"
_symmetry_group_IT_number 59
_space_group.IT_coordinate_system_code '2'
_symmetry_cell_setting 'orthorhombic'
loop_
_space_group_symop_operation_xyz
x,y,z
1/2-x,1/2-y,z
1/2+x,-y,-z
-x,1/2+y,-z
-x,-y,-z
1/2+x,1/2+y,-z
1/2-x,y,z
x,1/2-y,z
loop_
_atom_site_type_symbol
_atom_site_label
_atom_site_fract_x
_atom_site_fract_y
_atom_site_fract_z
Si Si1 0.447695 0.960772 0.821175
Si Si2 0.390754 0.535347 0.514628
Si Si3 0.560094 0.026145 0.333463
Si Si4 0.348949 0.042664 0.357091
Si Si5 0.143809 0.529979 0.127937
Si Si6 0.860078 0.031817 0.033944
O O1 0.418889 0.750000 0.823144
O O2 0.409099 0.033254 0.745790
O O3 0.414123 0.042225 0.896872
O O4 0.560388 0.969623 0.820916
O O5 0.500000 0.500000 0.500000
O O6 0.370222 0.750000 0.512805
O O7 0.379630 0.470593 0.596955
O O8 0.345006 0.453166 0.444193
O O9 0.558319 0.250000 0.335620
O O10 0.451562 0.963615 0.341381
O O11 0.250000 0.959506 0.331498
O O12 0.350865 0.250000 0.330626
O O13 0.250000 0.470919 0.144232
O O14 0.144737 0.750000 0.127925
O O15 0.118379 0.465286 0.046621
O O16 0.750000 0.001383 0.045143
O O17 0.875371 0.250000 0.030568
#
# Coordination Sequence:
#
# PCOD9446687 Si02
#       6
#     8   8   8   8   8   8
#     4  10  18  29  49  73  93 119 158 196 229 273
#     4   9  16  29  47  64  85 113 146 182 219 261
#     4   8  16  29  44  66  94 119 143 179 230 276
#     4   9  17  30  47  65  88 120 152 182 223 273
#     4   9  18  32  47  65  94 128 156 187 233 282
#     4   8  15  29  48  68  91 121 156 193 234 279
#
# _framework density 24.596747000000001
#
# number of rings (size 3 to 8) (size 9 to 14) (size 15 to 20)
#    0.000    3.167    0.000    3.000    0.000    1.333 
#    0.000    6.667    0.000    4.500    0.000    0.000 
#    0.000    0.000    0.000    0.000    0.000    0.000 
#
# Total GULP energy -267739.126751 kJ/mol
# GULP energy per Si atom -5577.898474 kJ/mol
# Density = 2.454076 g / cm^3
# Si number density = 24.596747 Si / 1000 Ang^3
#
#
#
# Elastic Constant Matrix: (Units=GPa)
#
#
# Indices 1 2 3 4 5 6 
#
# 1 18.0199 -6.0714 5.6666 0.0000 0.0000 0.0000
# 2 -6.0714 97.7986 -3.0876 0.0000 0.0000 0.0000
# 3 5.6666 -3.0876 134.4748 0.0000 0.0000 0.0000
# 4 0.0000 0.0000 0.0000 2.8543 0.0000 0.0000
# 5 0.0000 0.0000 0.0000 0.0000 -0.5519 0.0000
# 6 0.0000 0.0000 0.0000 0.0000 0.0000 1.8680
#
#
#
# Elastic Compliance Matrix: (Units=1/GPa)
#
#
# Indices 1 2 3 4 5 6 
#
# 1 0.057405 0.003490 -0.002339 0.000000 0.000000 0.000000
# 2 0.003490 0.010445 0.000093 0.000000 0.000000 0.000000
# 3 -0.002339 0.000093 0.007537 0.000000 0.000000 0.000000
# 4 0.000000 0.000000 0.000000 0.350347 0.000000 0.000000
# 5 0.000000 0.000000 0.000000 0.000000 -1.811886 0.000000
# 6 0.000000 0.000000 0.000000 0.000000 0.000000 0.535324
#
#
# Mechanical properties :
#
#
# Convention : Reuss Voigt Hill
#
# Bulk Modulus (GPa) = 12.84111 27.03426 19.93768
# Shear Modulus (GPa) = -6.04334 17.75315 5.85490
#
# Velocity S-wave (km/s) = -1.56917 2.68949 1.54451
# Velocity P-wave (km/s) = 1.39604 4.54525 3.36216
#
# Compressibility (1/GPa) = 0.07787488
#
# Stress axis : x y z
#
# Youngs Moduli (GPa) = 17.41995 95.74248 132.67842
#
# Poissons Ratio (x) = -0.33414 0.31031
# Poissons Ratio (y) = -0.06079 -0.01231
# Poissons Ratio (z) = 0.04074 -0.00888
#
# Static dielectric constant tensor:
#      x y z
#    x 1.942820 0.000000 0.000000 
#    y 0.000000 1.944850 0.000000 
#    z 0.000000 0.000000 1.987140 
# 
# From -- ./inp_files/27781.got.cif
#   From: 2010.05.17/outbox.cif.g08.bks.cpg/sg59_14_cif.got.tgz:27781.got - 2010.06.03 14:40:33.
