data_PCOD9446966
_publ_section_title
;
Structure prediction by ZEFSAII (Michael W. Deem and Ramdas Pophale) SiO2 
 PCOD9446966
Probable space group: P M M N
;
_chemical_formula_sum "Si O2"
_cell_formula_units_Z 48
_cell_length_a 7.388719
_cell_length_b 18.857591
_cell_length_c 16.081343
_cell_angle_alpha 90.000000
_cell_angle_beta 90.000000
_cell_angle_gamma 90.000000
_cell_volume 2240.668855
_symmetry_space_group_name_H-M "P M M N"
_symmetry_group_IT_number 59
_space_group.IT_coordinate_system_code '2'
_symmetry_cell_setting 'orthorhombic'
loop_
_space_group_symop_operation_xyz
x,y,z
1/2-x,1/2-y,z
1/2+x,-y,-z
-x,1/2+y,-z
-x,-y,-z
1/2+x,1/2+y,-z
1/2-x,y,z
x,1/2-y,z
loop_
_atom_site_type_symbol
_atom_site_label
_atom_site_fract_x
_atom_site_fract_y
_atom_site_fract_z
Si Si1 0.970939 0.750000 0.221854
Si Si2 0.458935 0.989218 0.639353
Si Si3 0.970716 0.750000 0.412882
Si Si4 0.462461 0.670534 0.916023
Si Si5 0.468240 0.377675 0.896705
Si Si6 0.469339 0.395684 0.507507
Si Si7 0.472125 0.971626 0.826944
O O1 0.750000 0.750000 0.221818
O O2 0.030159 0.750000 0.317210
O O3 0.028079 0.679373 0.172469
O O4 0.250000 0.010063 0.651900
O O5 0.467910 0.918840 0.583499
O O6 0.532983 0.980538 0.731456
O O7 0.536429 0.048411 0.577113
O O8 0.750000 0.750000 0.410579
O O9 0.027312 0.680607 0.461983
O O10 0.250000 0.674491 0.895408
O O11 0.538105 0.750000 0.902268
O O12 0.535570 0.602795 0.865576
O O13 0.477724 0.650587 0.013117
O O14 0.250000 0.378431 0.894475
O O15 0.528486 0.457903 0.877332
O O16 0.250000 0.398698 0.505906
O O17 0.250000 0.970347 0.828661
#
# Coordination Sequence:
#
# PCOD9446966 Si02
#       7
#     4   8   4   8   8   8   8
#     4   9  16  26  47  76  97 118 152 201 247 281
#     4   9  17  32  51  71  96 126 161 198 236 281
#     4   9  16  28  47  72  97 124 158 193 237 291
#     4  10  20  34  49  67  98 134 163 193 238 290
#     4  10  18  31  52  75  97 120 159 207 244 279
#     4   9  17  30  50  72  97 126 156 196 244 287
#     4   9  18  32  51  73  94 126 168 201 230 281
#
# _framework density 21.422174999999999
#
# number of rings (size 3 to 8) (size 9 to 14) (size 15 to 20)
#    0.000    2.667    0.833    1.500    0.000    4.000 
#    1.500    2.083    0.000    4.000    0.000    0.000 
#    0.000    0.000    0.000    0.000    0.000    0.000 
#
# Total GULP energy -267975.059455 kJ/mol
# GULP energy per Si atom -5582.813739 kJ/mol
# Density = 2.137342 g / cm^3
# Si number density = 21.422175 Si / 1000 Ang^3
#
#
#
# Elastic Constant Matrix: (Units=GPa)
#
#
# Indices 1 2 3 4 5 6 
#
# 1 72.2368 2.0887 -11.2678 0.0000 0.0000 0.0000
# 2 2.0887 169.3346 37.7360 0.0000 0.0000 0.0000
# 3 -11.2678 37.7360 34.0050 0.0000 0.0000 0.0000
# 4 0.0000 0.0000 0.0000 27.3496 0.0000 0.0000
# 5 0.0000 0.0000 0.0000 0.0000 4.6791 0.0000
# 6 0.0000 0.0000 0.0000 0.0000 0.0000 8.4597
#
#
#
# Elastic Compliance Matrix: (Units=1/GPa)
#
#
# Indices 1 2 3 4 5 6 
#
# 1 0.014963 -0.001713 0.006859 0.000000 0.000000 0.000000
# 2 -0.001713 0.008042 -0.009492 0.000000 0.000000 0.000000
# 3 0.006859 -0.009492 0.042214 0.000000 0.000000 0.000000
# 4 0.000000 0.000000 0.000000 0.036564 0.000000 0.000000
# 5 0.000000 0.000000 0.000000 0.000000 0.213716 0.000000
# 6 0.000000 0.000000 0.000000 0.000000 0.000000 0.118208
#
#
# Mechanical properties :
#
#
# Convention : Reuss Voigt Hill
#
# Bulk Modulus (GPa) = 17.69082 36.96557 27.32820
# Shear Modulus (GPa) = 10.84036 24.56566 17.70301
#
# Velocity S-wave (km/s) = 2.25196 3.39003 2.87781
# Velocity P-wave (km/s) = 3.87787 5.71107 4.88130
#
# Compressibility (1/GPa) = 0.05652650
#
# Stress axis : x y z
#
# Youngs Moduli (GPa) = 66.83238 124.34959 23.68909
#
# Poissons Ratio (x) = 0.21302 -0.16249
# Poissons Ratio (y) = 0.11449 0.22485
# Poissons Ratio (z) = -0.45841 1.18031
#
# Static dielectric constant tensor:
#      x y z
#    x 1.836850 0.000000 0.000000 
#    y 0.000000 1.770430 0.000000 
#    z 0.000000 0.000000 1.720210 
# 
# From -- ./inp_files/20573.got.cif
#   From: 2010.05.17/outbox.cif.g08.bks.cpg/sg59_11_cif.got.tgz:20573.got - 2010.06.03 14:40:33.
