data_PCOD9446595
_publ_section_title
;
Structure prediction by ZEFSAII (Michael W. Deem and Ramdas Pophale) SiO2 
 PCOD9446595
Probable space group: P M M N
;
_chemical_formula_sum "Si O2"
_cell_formula_units_Z 64
_cell_length_a 30.977636
_cell_length_b 7.511670
_cell_length_c 15.186128
_cell_angle_alpha 90.000000
_cell_angle_beta 90.000000
_cell_angle_gamma 90.000000
_cell_volume 3533.717513
_symmetry_space_group_name_H-M "P M M N"
_symmetry_group_IT_number 59
_space_group.IT_coordinate_system_code '2'
_symmetry_cell_setting 'orthorhombic'
loop_
_space_group_symop_operation_xyz
x,y,z
1/2-x,1/2-y,z
1/2+x,-y,-z
-x,1/2+y,-z
-x,-y,-z
1/2+x,1/2+y,-z
1/2-x,y,z
x,1/2-y,z
loop_
_atom_site_type_symbol
_atom_site_label
_atom_site_fract_x
_atom_site_fract_y
_atom_site_fract_z
Si Si1 0.967574 0.036779 0.830121
Si Si2 0.021129 0.036750 0.375047
Si Si3 0.610774 0.041650 0.943442
Si Si4 0.385952 0.459168 0.704919
Si Si5 0.202205 0.535397 0.793604
Si Si6 0.701560 0.467595 0.002451
Si Si7 0.430515 0.046822 0.539775
Si Si8 0.562269 0.966436 0.124217
O O1 0.967538 0.250000 0.842415
O O2 0.924476 0.964443 0.876209
O O3 0.012463 0.973267 0.873706
O O4 0.969423 0.001574 0.726159
O O5 0.017103 0.250000 0.386189
O O6 0.057158 0.970166 0.444483
O O7 0.975760 0.955881 0.406440
O O8 0.615696 0.250000 0.921357
O O9 0.659476 0.968534 0.949859
O O10 0.588856 0.028441 0.039708
O O11 0.397022 0.250000 0.699508
O O12 0.336616 0.474961 0.732977
O O13 0.397533 0.536825 0.609516
O O14 0.414669 0.530048 0.785923
O O15 0.250000 0.476693 0.766087
O O16 0.201712 0.750000 0.794185
O O17 0.195642 0.478798 0.895184
O O18 0.750000 0.522284 0.974661
O O19 0.701198 0.250000 0.001398
O O20 0.416681 0.250000 0.522482
O O21 0.563158 0.750000 0.123280
#
# Coordination Sequence:
#
# PCOD9446595 Si02
#       8
#     8   8   8   8   8   8   8   8
#     4  10  20  33  45  61  92 125 153 189 230 263
#     4  10  19  30  48  69  87 116 154 188 223 266
#     4  10  19  30  47  66  85 120 159 187 219 269
#     4  10  18  29  46  65  90 123 150 179 225 272
#     4   9  17  29  45  65  91 119 147 187 229 262
#     4   8  14  26  43  63  86 110 142 185 224 258
#     4   9  18  33  48  65  92 119 147 186 230 267
#     4  10  19  30  42  60  92 127 149 181 225 258
#
# _framework density 18.111238
#
# number of rings (size 3 to 8) (size 9 to 14) (size 15 to 20)
#    0.000    2.500    2.500    1.500    0.000    2.250 
#    0.000    0.000    0.000    0.375    0.000    0.875 
#    0.000    3.000    0.000    0.000    0.000    0.000 
#
# Total GULP energy -356857.751283 kJ/mol
# GULP energy per Si atom -5575.902364 kJ/mol
# Density = 1.807002 g / cm^3
# Si number density = 18.111238 Si / 1000 Ang^3
#
#
#
# Elastic Constant Matrix: (Units=GPa)
#
#
# Indices 1 2 3 4 5 6 
#
# 1 137.2456 -3.2858 43.4753 0.0000 0.0000 0.0000
# 2 -3.2858 47.7308 -12.6936 0.0000 0.0000 0.0000
# 3 43.4753 -12.6936 47.7983 0.0000 0.0000 0.0000
# 4 0.0000 0.0000 0.0000 10.2404 0.0000 0.0000
# 5 0.0000 0.0000 0.0000 0.0000 28.8995 0.0000
# 6 0.0000 0.0000 0.0000 0.0000 0.0000 9.7968
#
#
#
# Elastic Compliance Matrix: (Units=1/GPa)
#
#
# Indices 1 2 3 4 5 6 
#
# 1 0.010399 -0.001936 -0.009973 0.000000 0.000000 0.000000
# 2 -0.001936 0.022903 0.007843 0.000000 0.000000 0.000000
# 3 -0.009973 0.007843 0.032075 0.000000 0.000000 0.000000
# 4 0.000000 0.000000 0.000000 0.097653 0.000000 0.000000
# 5 0.000000 0.000000 0.000000 0.000000 0.034603 0.000000
# 6 0.000000 0.000000 0.000000 0.000000 0.000000 0.102074
#
#
# Mechanical properties :
#
#
# Convention : Reuss Voigt Hill
#
# Bulk Modulus (GPa) = 17.46831 31.97404 24.72118
# Shear Modulus (GPa) = 15.29428 23.47259 19.38343
#
# Velocity S-wave (km/s) = 2.90912 3.60394 3.27501
# Velocity P-wave (km/s) = 4.57711 5.91696 5.28963
#
# Compressibility (1/GPa) = 0.05724652
#
# Stress axis : x y z
#
# Youngs Moduli (GPa) = 96.16444 43.66151 31.17715
#
# Poissons Ratio (x) = 0.08454 0.31092
# Poissons Ratio (y) = 0.18620 -0.24454
# Poissons Ratio (z) = 0.95900 -0.34246
#
# Static dielectric constant tensor:
#      x y z
#    x 1.638270 0.000000 0.000000 
#    y 0.000000 1.185730 0.000000 
#    z 0.000000 0.000000 1.616030 
# 
# From -- ./inp_files/21940.got.cif
#   From: 2010.05.17/outbox.cif.g08.bks.cpg/sg59_11_cif.got.tgz:21940.got - 2010.06.03 14:40:33.
