data_PCOD9446181
_publ_section_title
;
Structure prediction by ZEFSAII (Michael W. Deem and Ramdas Pophale) SiO2 
 PCOD9446181
Probable space group: P M M N
;
_chemical_formula_sum "Si O2"
_cell_formula_units_Z 64
_cell_length_a 7.575492
_cell_length_b 14.369915
_cell_length_c 33.191540
_cell_angle_alpha 90.000000
_cell_angle_beta 90.000000
_cell_angle_gamma 90.000000
_cell_volume 3613.203699
_symmetry_space_group_name_H-M "P M M N"
_symmetry_group_IT_number 59
_space_group.IT_coordinate_system_code '2'
_symmetry_cell_setting 'orthorhombic'
loop_
_space_group_symop_operation_xyz
x,y,z
1/2-x,1/2-y,z
1/2+x,-y,-z
-x,1/2+y,-z
-x,-y,-z
1/2+x,1/2+y,-z
1/2-x,y,z
x,1/2-y,z
loop_
_atom_site_type_symbol
_atom_site_label
_atom_site_fract_x
_atom_site_fract_y
_atom_site_fract_z
Si Si1 0.038008 0.142538 0.771464
Si Si2 0.041373 0.460826 0.604101
Si Si3 0.037021 0.356201 0.435312
Si Si4 0.537874 0.461709 0.938112
Si Si5 0.460342 0.856630 0.140463
Si Si6 0.464022 0.140558 0.524670
Si Si7 0.965560 0.859055 0.316448
Si Si8 0.538418 0.355016 0.017990
O O1 0.250000 0.143649 0.770251
O O2 0.975604 0.250000 0.772720
O O3 0.977258 0.105880 0.727910
O O4 0.989333 0.102337 0.814862
O O5 0.250000 0.439623 0.604178
O O6 0.966810 0.414146 0.563337
O O7 0.970314 0.417760 0.645402
O O8 0.019111 0.570459 0.598038
O O9 0.250000 0.355111 0.436447
O O10 0.978260 0.250000 0.428908
O O11 0.973507 0.387703 0.479989
O O12 0.750000 0.453676 0.938060
O O13 0.471274 0.419248 0.896187
O O14 0.498299 0.569210 0.947512
O O15 0.471495 0.400778 0.976168
O O16 0.250000 0.849640 0.135363
O O17 0.530968 0.750000 0.138818
O O18 0.250000 0.131864 0.524132
O O19 0.503217 0.250000 0.529242
O O20 0.750000 0.861531 0.316509
O O21 0.013790 0.750000 0.320721
O O22 0.750000 0.349364 0.014436
O O23 0.471917 0.250000 0.024186
#
# Coordination Sequence:
#
# PCOD9446181 Si02
#       8
#     8   8   8   8   8   8   8   8
#     4   8  14  25  40  58  82 110 135 160 195 241
#     4  10  17  25  43  66  81  99 133 171 198 226
#     4   9  18  31  42  53  77 111 138 162 198 239
#     4   9  17  28  42  61  84 111 143 175 206 241
#     4   9  16  26  41  61  85 112 140 169 201 237
#     4   8  14  25  41  60  81 106 134 160 190 234
#     4   8  14  25  41  62  87 110 130 156 196 245
#     4   9  17  29  43  59  83 114 144 174 208 243
#
# _framework density 17.712813000000001
#
# number of rings (size 3 to 8) (size 9 to 14) (size 15 to 20)
#    0.000    3.250    0.000    2.625    0.000    4.000 
#    0.000    0.625    0.000    5.250    0.000    0.875 
#    0.000    1.000    0.000    0.000    0.000    0.000 
#
# Total GULP energy -356492.493267 kJ/mol
# GULP energy per Si atom -5570.195207 kJ/mol
# Density = 1.767250 g / cm^3
# Si number density = 17.712813 Si / 1000 Ang^3
#
#
#
# Elastic Constant Matrix: (Units=GPa)
#
#
# Indices 1 2 3 4 5 6 
#
# 1 38.0895 -0.1884 4.8240 0.0000 0.0000 0.0000
# 2 -0.1884 94.3378 84.2747 0.0000 0.0000 0.0000
# 3 4.8240 84.2747 162.6516 0.0000 0.0000 0.0000
# 4 0.0000 0.0000 0.0000 26.5093 0.0000 0.0000
# 5 0.0000 0.0000 0.0000 0.0000 8.7230 0.0000
# 6 0.0000 0.0000 0.0000 0.0000 0.0000 13.6475
#
#
#
# Elastic Compliance Matrix: (Units=1/GPa)
#
#
# Indices 1 2 3 4 5 6 
#
# 1 0.026452 0.001403 -0.001512 0.000000 0.000000 0.000000
# 2 0.001403 0.019809 -0.010305 0.000000 0.000000 0.000000
# 3 -0.001512 -0.010305 0.011532 0.000000 0.000000 0.000000
# 4 0.000000 0.000000 0.000000 0.037723 0.000000 0.000000
# 5 0.000000 0.000000 0.000000 0.000000 0.114639 0.000000
# 6 0.000000 0.000000 0.000000 0.000000 0.000000 0.073273
#
#
# Mechanical properties :
#
#
# Convention : Reuss Voigt Hill
#
# Bulk Modulus (GPa) = 27.05161 52.54441 39.79801
# Shear Modulus (GPa) = 15.79387 23.52053 19.65720
#
# Velocity S-wave (km/s) = 2.98931 3.64796 3.33494
# Velocity P-wave (km/s) = 5.21729 6.89003 6.11117
#
# Compressibility (1/GPa) = 0.03696638
#
# Stress axis : x y z
#
# Youngs Moduli (GPa) = 37.80385 50.48207 86.71214
#
# Poissons Ratio (x) = -0.07083 0.13107
# Poissons Ratio (y) = -0.05304 0.89359
# Poissons Ratio (z) = 0.05714 0.52023
#
# Static dielectric constant tensor:
#      x y z
#    x 1.674180 0.000000 0.000000 
#    y 0.000000 1.592130 0.000000 
#    z 0.000000 0.000000 1.636230 
# 
# From -- ./inp_files/31955.got.cif
#   From: 2010.05.17/outbox.cif.g08.bks.cpg/sg59_16_cif.got.tgz:31955.got - 2010.06.03 14:40:33.
