data_PCOD9446204
_publ_section_title
;
Structure prediction by ZEFSAII (Michael W. Deem and Ramdas Pophale) SiO2 
 PCOD9446204
Probable space group: P M M N
;
_chemical_formula_sum "Si O2"
_cell_formula_units_Z 64
_cell_length_a 17.943200
_cell_length_b 25.108957
_cell_length_c 9.610431
_cell_angle_alpha 90.000000
_cell_angle_beta 90.000000
_cell_angle_gamma 90.000000
_cell_volume 4329.835889
_symmetry_space_group_name_H-M "P M M N"
_symmetry_group_IT_number 59
_space_group.IT_coordinate_system_code '2'
_symmetry_cell_setting 'orthorhombic'
loop_
_space_group_symop_operation_xyz
x,y,z
1/2-x,1/2-y,z
1/2+x,-y,-z
-x,1/2+y,-z
-x,-y,-z
1/2+x,1/2+y,-z
1/2-x,y,z
x,1/2-y,z
loop_
_atom_site_type_symbol
_atom_site_label
_atom_site_fract_x
_atom_site_fract_y
_atom_site_fract_z
Si Si1 0.484228 0.054974 0.821043
Si Si2 0.664634 0.993680 0.558104
Si Si3 0.836151 0.312118 0.454064
Si Si4 0.429190 0.905120 0.416153
Si Si5 0.163106 0.811611 0.881061
Si Si6 0.973606 0.942551 0.675515
Si Si7 0.432232 0.590323 0.906469
Si Si8 0.663035 0.504760 0.220839
O O1 0.516478 0.098878 0.715650
O O2 0.505715 0.999298 0.745472
O O3 0.395038 0.049431 0.834298
O O4 0.528025 0.062088 0.964026
O O5 0.750000 0.985363 0.594929
O O6 0.635494 0.051216 0.609826
O O7 0.658338 0.994327 0.389478
O O8 0.610738 0.949546 0.625564
O O9 0.750000 0.325397 0.487770
O O10 0.848368 0.250000 0.486755
O O11 0.891719 0.351279 0.531902
O O12 0.843632 0.318027 0.286836
O O13 0.478084 0.930997 0.539363
O O14 0.250000 0.821231 0.916317
O O15 0.146092 0.750000 0.914436
O O16 0.108675 0.855194 0.945524
O O17 0.002980 0.901508 0.791034
O O18 0.369960 0.551053 0.838182
O O19 0.750000 0.511000 0.183235
#
# Coordination Sequence:
#
# PCOD9446204 Si02
#       8
#     8   8   8   8   8   8   8   8
#     4  10  20  31  41  66  93 121 154 189 221 268
#     4  10  17  26  44  68  89 116 154 188 222 266
#     4   9  17  29  47  72  94 116 156 200 227 256
#     4  11  16  30  47  63  90 122 154 183 229 270
#     4   9  17  30  48  70  92 117 157 196 221 260
#     4  10  17  30  45  63  89 118 155 187 223 268
#     4  11  19  30  46  66  92 127 155 181 226 269
#     4  10  17  28  45  65  89 119 155 183 218 272
#
# _framework density 14.78116
#
# number of rings (size 3 to 8) (size 9 to 14) (size 15 to 20)
#    0.000    2.000    5.000    3.750    0.000    2.000 
#    0.000   10.000    0.000    1.500    0.000    0.000 
#    0.000    6.000    0.000    0.000    0.000    0.000 
#
# Total GULP energy -356346.016096 kJ/mol
# GULP energy per Si atom -5567.906502 kJ/mol
# Density = 1.474752 g / cm^3
# Si number density = 14.781160 Si / 1000 Ang^3
#
#
#
# Elastic Constant Matrix: (Units=GPa)
#
#
# Indices 1 2 3 4 5 6 
#
# 1 127.7922 44.2712 30.9689 0.0000 0.0000 0.0000
# 2 44.2712 51.5851 10.4110 0.0000 0.0000 0.0000
# 3 30.9689 10.4110 47.0505 0.0000 0.0000 0.0000
# 4 0.0000 0.0000 0.0000 10.7052 0.0000 0.0000
# 5 0.0000 0.0000 0.0000 0.0000 20.4963 0.0000
# 6 0.0000 0.0000 0.0000 0.0000 0.0000 23.0975
#
#
#
# Elastic Compliance Matrix: (Units=1/GPa)
#
#
# Indices 1 2 3 4 5 6 
#
# 1 0.012659 -0.009612 -0.006205 0.000000 0.000000 0.000000
# 2 -0.009612 0.027590 0.000222 0.000000 0.000000 0.000000
# 3 -0.006205 0.000222 0.025289 0.000000 0.000000 0.000000
# 4 0.000000 0.000000 0.000000 0.093413 0.000000 0.000000
# 5 0.000000 0.000000 0.000000 0.000000 0.048789 0.000000
# 6 0.000000 0.000000 0.000000 0.000000 0.000000 0.043295
#
#
# Mechanical properties :
#
#
# Convention : Reuss Voigt Hill
#
# Bulk Modulus (GPa) = 29.11480 44.19223 36.65352
# Shear Modulus (GPa) = 17.02571 20.24491 18.63531
#
# Velocity S-wave (km/s) = 3.39758 3.70488 3.55455
# Velocity P-wave (km/s) = 5.92717 6.94724 6.45738
#
# Compressibility (1/GPa) = 0.03434679
#
# Stress axis : x y z
#
# Youngs Moduli (GPa) = 78.99697 36.24565 39.54274
#
# Poissons Ratio (x) = 0.34838 0.24537
# Poissons Ratio (y) = 0.75928 -0.00876
# Poissons Ratio (z) = 0.49020 -0.00803
#
# Static dielectric constant tensor:
#      x y z
#    x 1.510320 0.000000 0.000000 
#    y 0.000000 1.493900 0.000000 
#    z 0.000000 0.000000 1.518080 
# 
# From -- ./inp_files/10782.got.cif
#   From: 2010.05.17/outbox.cif.g08.bks.cpg/sg59_6_cif.got.tgz:10782.got - 2010.06.03 14:40:33.
