data_PCOD9446395
_publ_section_title
;
Structure prediction by ZEFSAII (Michael W. Deem and Ramdas Pophale) SiO2 
 PCOD9446395
Probable space group: P M M N
;
_chemical_formula_sum "Si O2"
_cell_formula_units_Z 64
_cell_length_a 19.696001
_cell_length_b 7.628612
_cell_length_c 22.475188
_cell_angle_alpha 90.000000
_cell_angle_beta 90.000000
_cell_angle_gamma 90.000000
_cell_volume 3376.967784
_symmetry_space_group_name_H-M "P M M N"
_symmetry_group_IT_number 59
_space_group.IT_coordinate_system_code '2'
_symmetry_cell_setting 'orthorhombic'
loop_
_space_group_symop_operation_xyz
x,y,z
1/2-x,1/2-y,z
1/2+x,-y,-z
-x,1/2+y,-z
-x,-y,-z
1/2+x,1/2+y,-z
1/2-x,y,z
x,1/2-y,z
loop_
_atom_site_type_symbol
_atom_site_label
_atom_site_fract_x
_atom_site_fract_y
_atom_site_fract_z
Si Si1 0.910783 0.039604 0.649090
Si Si2 0.942335 0.959669 0.308343
Si Si3 0.827086 0.038961 0.402484
Si Si4 0.529075 0.948601 0.183624
Si Si5 0.881004 0.956631 0.776167
Si Si6 0.028952 0.961266 0.064586
Si Si7 0.671484 0.464005 0.535960
Si Si8 0.177036 0.958618 0.101830
O O1 0.914903 0.250000 0.644048
O O2 0.877046 0.972873 0.588617
O O3 0.986959 0.972898 0.663145
O O4 0.866313 0.998380 0.707676
O O5 0.950448 0.750000 0.301615
O O6 0.933379 0.029989 0.240794
O O7 0.880233 0.989775 0.352152
O O8 0.750000 0.977291 0.390938
O O9 0.824917 0.250000 0.404427
O O10 0.847512 0.979421 0.469056
O O11 0.554869 0.750000 0.175449
O O12 0.519370 0.029443 0.118198
O O13 0.451123 0.946242 0.207181
O O14 0.893113 0.750000 0.781456
O O15 0.829230 0.010960 0.827285
O O16 0.031316 0.750000 0.072101
O O17 0.106304 0.027291 0.074230
O O18 0.000000 0.000000 0.000000
O O19 0.750000 0.514057 0.546321
O O20 0.669832 0.250000 0.536531
O O21 0.250000 0.029511 0.080946
O O22 0.177416 0.750000 0.091235
#
# Coordination Sequence:
#
# PCOD9446395 Si02
#       8
#     8   8   8   8   8   8   8   8
#     4   9  17  30  46  65  91 123 158 189 221 274
#     4   9  17  29  47  69  91 117 150 190 230 269
#     4   9  18  32  48  66  88 114 149 195 243 287
#     4   8  16  32  49  66  92 123 153 181 214 268
#     4  10  18  27  42  67  96 120 146 187 235 272
#     4   9  17  30  50  74  97 124 156 189 226 268
#     4   8  15  29  47  63  82 116 158 191 223 276
#     4   9  18  33  50  66  90 129 170 197 221 267
#
# _framework density 18.951913000000001
#
# number of rings (size 3 to 8) (size 9 to 14) (size 15 to 20)
#    0.000    3.125    0.000    3.375    0.000    5.500 
#    0.000    1.875    0.000    1.500    0.000    3.500 
#    0.000    0.000    0.000    0.000    0.000    0.000 
#
# Total GULP energy -356357.552084 kJ/mol
# GULP energy per Si atom -5568.086751 kJ/mol
# Density = 1.890878 g / cm^3
# Si number density = 18.951913 Si / 1000 Ang^3
#
#
#
# Elastic Constant Matrix: (Units=GPa)
#
#
# Indices 1 2 3 4 5 6 
#
# 1 82.8234 -1.4253 83.8840 0.0000 0.0000 0.0000
# 2 -1.4253 40.9053 -3.2479 0.0000 0.0000 0.0000
# 3 83.8840 -3.2479 184.9826 0.0000 0.0000 0.0000
# 4 0.0000 0.0000 0.0000 18.3093 0.0000 0.0000
# 5 0.0000 0.0000 0.0000 0.0000 5.1772 0.0000
# 6 0.0000 0.0000 0.0000 0.0000 0.0000 5.9262
#
#
#
# Elastic Compliance Matrix: (Units=1/GPa)
#
#
# Indices 1 2 3 4 5 6 
#
# 1 0.022329 -0.000026 -0.010126 0.000000 0.000000 0.000000
# 2 -0.000026 0.024481 0.000442 0.000000 0.000000 0.000000
# 3 -0.010126 0.000442 0.010006 0.000000 0.000000 0.000000
# 4 0.000000 0.000000 0.000000 0.054617 0.000000 0.000000
# 5 0.000000 0.000000 0.000000 0.000000 0.193155 0.000000
# 6 0.000000 0.000000 0.000000 0.000000 0.000000 0.168741
#
#
# Mechanical properties :
#
#
# Convention : Reuss Voigt Hill
#
# Bulk Modulus (GPa) = 26.74174 51.90365 39.32269
# Shear Modulus (GPa) = 9.89679 21.18258 15.53969
#
# Velocity S-wave (km/s) = 2.28766 3.34683 2.86659
# Velocity P-wave (km/s) = 4.59552 6.51011 5.63473
#
# Compressibility (1/GPa) = 0.03739473
#
# Stress axis : x y z
#
# Youngs Moduli (GPa) = 44.78449 40.84821 99.94480
#
# Poissons Ratio (x) = 0.00106 1.01205
# Poissons Ratio (y) = 0.00116 -0.04414
# Poissons Ratio (z) = 0.45349 -0.01804
#
# Static dielectric constant tensor:
#      x y z
#    x 1.650360 0.000000 0.000000 
#    y 0.000000 1.728140 0.000000 
#    z 0.000000 0.000000 1.691430 
# 
# From -- ./inp_files/31006.got.cif
#   From: 2010.05.17/outbox.cif.g08.bks.cpg/sg59_16_cif.got.tgz:31006.got - 2010.06.03 14:40:33.
