data_PCOD9446983
_publ_section_title
;
Structure prediction by ZEFSAII (Michael W. Deem and Ramdas Pophale) SiO2 
 PCOD9446983
Probable space group: P M M N
;
_chemical_formula_sum "Si O2"
_cell_formula_units_Z 64
_cell_length_a 8.445870
_cell_length_b 14.951158
_cell_length_c 25.383862
_cell_angle_alpha 90.000000
_cell_angle_beta 90.000000
_cell_angle_gamma 90.000000
_cell_volume 3205.360801
_symmetry_space_group_name_H-M "P M M N"
_symmetry_group_IT_number 59
_space_group.IT_coordinate_system_code '2'
_symmetry_cell_setting 'orthorhombic'
loop_
_space_group_symop_operation_xyz
x,y,z
1/2-x,1/2-y,z
1/2+x,-y,-z
-x,1/2+y,-z
-x,-y,-z
1/2+x,1/2+y,-z
1/2-x,y,z
x,1/2-y,z
loop_
_atom_site_type_symbol
_atom_site_label
_atom_site_fract_x
_atom_site_fract_y
_atom_site_fract_z
Si Si1 0.561369 0.151984 0.594974
Si Si2 0.064364 0.031464 0.681904
Si Si3 0.443710 0.649867 0.634830
Si Si4 0.936696 0.545584 0.120796
Si Si5 0.060260 0.903912 0.518117
Si Si6 0.938066 0.145923 0.777322
Si Si7 0.562015 0.401239 0.986437
Si Si8 0.061344 0.347420 0.094978
O O1 0.750000 0.132520 0.599892
O O2 0.532659 0.250000 0.618444
O O3 0.462299 0.078327 0.625484
O O4 0.522520 0.154291 0.533212
O O5 0.250000 0.030854 0.695314
O O6 0.974523 0.091852 0.724033
O O7 0.007034 0.929678 0.673855
O O8 0.250000 0.648192 0.634153
O O9 0.492995 0.750000 0.649441
O O10 0.498756 0.628233 0.575004
O O11 0.750000 0.545301 0.111720
O O12 0.979543 0.591619 0.175665
O O13 0.014961 0.605752 0.074492
O O14 0.992399 0.441233 0.117217
O O15 0.250000 0.906056 0.522623
O O16 0.000000 0.000000 0.500000
O O17 0.750000 0.145743 0.786504
O O18 0.990220 0.250000 0.774297
O O19 0.750000 0.394006 0.991749
O O20 0.500000 0.500000 0.000000
O O21 0.481704 0.345790 0.032837
O O22 0.250000 0.353151 0.100718
O O23 0.008229 0.250000 0.117156
#
# Coordination Sequence:
#
# PCOD9446983 Si02
#       8
#     8   8   8   8   8   8   8   8
#     4  10  20  33  52  78 109 147 185 221 270 333
#     4  11  22  37  59  85 110 140 182 235 287 333
#     4   9  18  34  56  81 111 148 187 225 271 332
#     4  11  22  38  61  88 120 155 195 247 301 353
#     4  10  18  31  52  78 110 147 185 224 270 325
#     4  11  25  45  66  85 109 145 188 235 291 354
#     4  10  18  31  53  81 118 160 201 243 287 339
#     4  10  20  35  57  87 125 167 207 245 287 339
#
# _framework density 19.966550999999999
#
# number of rings (size 3 to 8) (size 9 to 14) (size 15 to 20)
#    0.000    1.750    1.250    5.625    0.000    5.750 
#    0.000    0.625    0.000    6.375    0.000    0.000 
#    0.000    0.000    0.000    0.000    0.000    0.000 
#
# Total GULP energy -357004.807279 kJ/mol
# GULP energy per Si atom -5578.200114 kJ/mol
# Density = 1.992111 g / cm^3
# Si number density = 19.966551 Si / 1000 Ang^3
#
#
#
# Elastic Constant Matrix: (Units=GPa)
#
#
# Indices 1 2 3 4 5 6 
#
# 1 28.2685 11.3681 1.5208 0.0000 0.0000 0.0000
# 2 11.3681 150.3398 36.7130 0.0000 0.0000 0.0000
# 3 1.5208 36.7130 66.5041 0.0000 0.0000 0.0000
# 4 0.0000 0.0000 0.0000 24.7137 0.0000 0.0000
# 5 0.0000 0.0000 0.0000 0.0000 26.7077 0.0000
# 6 0.0000 0.0000 0.0000 0.0000 0.0000 17.9863
#
#
#
# Elastic Compliance Matrix: (Units=1/GPa)
#
#
# Indices 1 2 3 4 5 6 
#
# 1 0.036521 -0.002956 0.000797 0.000000 0.000000 0.000000
# 2 -0.002956 0.007927 -0.004309 0.000000 0.000000 0.000000
# 3 0.000797 -0.004309 0.017397 0.000000 0.000000 0.000000
# 4 0.000000 0.000000 0.000000 0.040463 0.000000 0.000000
# 5 0.000000 0.000000 0.000000 0.000000 0.037442 0.000000
# 6 0.000000 0.000000 0.000000 0.000000 0.000000 0.055598
#
#
# Mechanical properties :
#
#
# Convention : Reuss Voigt Hill
#
# Bulk Modulus (GPa) = 20.44599 38.25735 29.35167
# Shear Modulus (GPa) = 22.26300 26.91557 24.58929
#
# Velocity S-wave (km/s) = 3.34281 3.67554 3.51311
# Velocity P-wave (km/s) = 5.01612 6.10042 5.58465
#
# Compressibility (1/GPa) = 0.04890934
#
# Stress axis : x y z
#
# Youngs Moduli (GPa) = 27.38148 126.14650 57.48128
#
# Poissons Ratio (x) = 0.37291 -0.04580
# Poissons Ratio (y) = 0.08094 0.24766
# Poissons Ratio (z) = -0.02182 0.54351
#
# Static dielectric constant tensor:
#      x y z
#    x 1.687340 0.000000 0.000000 
#    y 0.000000 1.738250 0.000000 
#    z 0.000000 0.000000 1.725230 
# 
# From -- ./inp_files/31500.got.cif
#   From: 2010.05.17/outbox.cif.g08.bks.cpg/sg59_16_cif.got.tgz:31500.got - 2010.06.03 14:40:33.
