data_PCOD9446770
_publ_section_title
;
Structure prediction by ZEFSAII (Michael W. Deem and Ramdas Pophale) SiO2 
 PCOD9446770
Probable space group: P M M N
;
_chemical_formula_sum "Si O2"
_cell_formula_units_Z 64
_cell_length_a 25.982469
_cell_length_b 8.765806
_cell_length_c 17.644410
_cell_angle_alpha 90.000000
_cell_angle_beta 90.000000
_cell_angle_gamma 90.000000
_cell_volume 4018.642876
_symmetry_space_group_name_H-M "P M M N"
_symmetry_group_IT_number 59
_space_group.IT_coordinate_system_code '2'
_symmetry_cell_setting 'orthorhombic'
loop_
_space_group_symop_operation_xyz
x,y,z
1/2-x,1/2-y,z
1/2+x,-y,-z
-x,1/2+y,-z
-x,-y,-z
1/2+x,1/2+y,-z
1/2-x,y,z
x,1/2-y,z
loop_
_atom_site_type_symbol
_atom_site_label
_atom_site_fract_x
_atom_site_fract_y
_atom_site_fract_z
Si Si1 0.596991 0.068647 0.179966
Si Si2 0.941142 0.566436 0.333478
Si Si3 0.557054 0.566763 0.665575
Si Si4 0.901400 0.432088 0.817001
Si Si5 0.690547 0.933554 0.912843
Si Si6 0.497717 0.433167 0.915681
Si Si7 0.057420 0.433191 0.500413
Si Si8 0.690099 0.933076 0.089026
O O1 0.592141 0.250000 0.180148
O O2 0.590135 0.004594 0.264567
O O3 0.551110 0.998068 0.129373
O O4 0.650512 0.017318 0.143004
O O5 0.941752 0.750000 0.326629
O O6 0.920398 0.522509 0.417471
O O7 0.999996 0.506249 0.327823
O O8 0.552059 0.750000 0.669535
O O9 0.590308 0.507298 0.735256
O O10 0.579298 0.524412 0.582145
O O11 0.901177 0.250000 0.809080
O O12 0.850120 0.488223 0.858300
O O13 0.950594 0.473821 0.869340
O O14 0.750000 0.974683 0.896967
O O15 0.686315 0.750000 0.906375
O O16 0.679693 0.972600 0.000883
O O17 0.493987 0.250000 0.919122
O O18 0.500000 0.500000 0.000000
O O19 0.054274 0.250000 0.501432
O O20 0.000000 0.500000 0.500000
O O21 0.750000 0.967971 0.104444
O O22 0.683564 0.750000 0.096354
#
# Coordination Sequence:
#
# PCOD9446770 Si02
#       8
#     8   8   8   8   8   8   8   8
#     4  12  23  33  49  74 103 135 169 204 247 297
#     4  10  18  31  48  69 100 133 166 205 245 292
#     4  10  18  30  48  71  99 131 166 203 245 297
#     4  11  22  33  48  72 101 134 167 202 246 295
#     4   9  19  36  56  75  95 124 165 211 254 295
#     4  11  23  36  49  68  99 134 170 206 247 299
#     4   8  16  28  45  68  94 127 164 201 243 289
#     4   9  19  37  58  76  96 126 166 212 259 300
#
# _framework density 15.925774000000001
#
# number of rings (size 3 to 8) (size 9 to 14) (size 15 to 20)
#    0.000    2.000    1.250    4.125    0.000    5.500 
#    0.000    1.250    0.000    0.000    0.000    0.875 
#    0.000    7.000    0.000    0.000    0.000    0.000 
#
# Total GULP energy -357008.697369 kJ/mol
# GULP energy per Si atom -5578.260896 kJ/mol
# Density = 1.588953 g / cm^3
# Si number density = 15.925774 Si / 1000 Ang^3
#
#
#
# Elastic Constant Matrix: (Units=GPa)
#
#
# Indices 1 2 3 4 5 6 
#
# 1 68.4855 35.2877 69.1437 0.0000 0.0000 0.0000
# 2 35.2877 50.2386 55.9859 0.0000 0.0000 0.0000
# 3 69.1437 55.9859 172.0310 0.0000 0.0000 0.0000
# 4 0.0000 0.0000 0.0000 23.6181 0.0000 0.0000
# 5 0.0000 0.0000 0.0000 0.0000 14.1169 0.0000
# 6 0.0000 0.0000 0.0000 0.0000 0.0000 24.1479
#
#
#
# Elastic Compliance Matrix: (Units=1/GPa)
#
#
# Indices 1 2 3 4 5 6 
#
# 1 0.028098 -0.011220 -0.007642 0.000000 0.000000 0.000000
# 2 -0.011220 0.035712 -0.007113 0.000000 0.000000 0.000000
# 3 -0.007642 -0.007113 0.011199 0.000000 0.000000 0.000000
# 4 0.000000 0.000000 0.000000 0.042340 0.000000 0.000000
# 5 0.000000 0.000000 0.000000 0.000000 0.070837 0.000000
# 6 0.000000 0.000000 0.000000 0.000000 0.000000 0.041411
#
#
# Mechanical properties :
#
#
# Convention : Reuss Voigt Hill
#
# Bulk Modulus (GPa) = 43.36428 67.95439 55.65933
# Shear Modulus (GPa) = 17.28699 21.06576 19.17637
#
# Velocity S-wave (km/s) = 3.29822 3.64090 3.47379
# Velocity P-wave (km/s) = 6.46471 7.77412 7.14946
#
# Compressibility (1/GPa) = 0.02306046
#
# Stress axis : x y z
#
# Youngs Moduli (GPa) = 35.58941 28.00153 89.29266
#
# Poissons Ratio (x) = 0.31418 0.68237
# Poissons Ratio (y) = 0.39932 0.63510
# Poissons Ratio (z) = 0.27197 0.19916
#
# Static dielectric constant tensor:
#      x y z
#    x 1.498260 0.000000 0.000000 
#    y 0.000000 1.532980 0.000000 
#    z 0.000000 0.000000 1.557450 
# 
# From -- ./inp_files/28487.got.cif
#   From: 2010.05.17/outbox.cif.g08.bks.cpg/sg59_15_cif.got.tgz:28487.got - 2010.06.03 14:40:33.
