data_PCOD9446609
_publ_section_title
;
Structure prediction by ZEFSAII (Michael W. Deem and Ramdas Pophale) SiO2 
 PCOD9446609
Probable space group: P M M N
;
_chemical_formula_sum "Si O2"
_cell_formula_units_Z 64
_cell_length_a 14.658568
_cell_length_b 17.998398
_cell_length_c 15.635692
_cell_angle_alpha 90.000000
_cell_angle_beta 90.000000
_cell_angle_gamma 90.000000
_cell_volume 4125.176206
_symmetry_space_group_name_H-M "P M M N"
_symmetry_group_IT_number 59
_space_group.IT_coordinate_system_code '2'
_symmetry_cell_setting 'orthorhombic'
loop_
_space_group_symop_operation_xyz
x,y,z
1/2-x,1/2-y,z
1/2+x,-y,-z
-x,1/2+y,-z
-x,-y,-z
1/2+x,1/2+y,-z
1/2-x,y,z
x,1/2-y,z
loop_
_atom_site_type_symbol
_atom_site_label
_atom_site_fract_x
_atom_site_fract_y
_atom_site_fract_z
Si Si1 0.852623 0.928843 0.326970
Si Si2 0.857049 0.098427 0.264522
Si Si3 0.144458 0.659530 0.104790
Si Si4 0.360384 0.835305 0.915221
Si Si5 0.518077 0.164407 0.410437
Si Si6 0.353067 0.619257 0.431075
Si Si7 0.027870 0.838525 0.267832
Si Si8 0.096197 0.460704 0.479475
O O1 0.750000 0.902738 0.306995
O O2 0.863103 0.935379 0.429871
O O3 0.933054 0.878752 0.289412
O O4 0.863282 0.012145 0.290070
O O5 0.750000 0.120416 0.276123
O O6 0.883501 0.115457 0.166754
O O7 0.922747 0.142896 0.327843
O O8 0.250000 0.635656 0.119331
O O9 0.146448 0.750000 0.104202
O O10 0.076456 0.636550 0.179964
O O11 0.112266 0.637408 0.009571
O O12 0.250000 0.832726 0.919195
O O13 0.391739 0.750000 0.902217
O O14 0.491113 0.250000 0.409385
O O15 0.585467 0.149442 0.490974
O O16 0.431895 0.109547 0.422396
O O17 0.250000 0.647573 0.436463
O O18 0.402534 0.642978 0.344472
O O19 0.350745 0.529282 0.437918
O O20 0.014091 0.750000 0.264393
O O21 0.000000 0.500000 0.500000
#
# Coordination Sequence:
#
# PCOD9446609 Si02
#       8
#     8   8   8   8   8   8   8   8
#     4  11  21  35  50  64  90 132 171 198 235 283
#     4  10  18  29  46  69  96 126 158 195 240 288
#     4   8  15  29  48  69  96 126 150 181 234 295
#     4   8  14  26  45  69  96 124 151 181 228 291
#     4  11  20  29  45  70  99 124 156 199 238 275
#     4  11  20  31  49  70  94 125 157 193 238 286
#     4  11  21  33  48  70  96 123 160 205 242 279
#     4  10  18  34  48  62  91 132 162 188 229 286
#
# _framework density 15.514488999999999
#
# number of rings (size 3 to 8) (size 9 to 14) (size 15 to 20)
#    0.000    2.000    5.000    2.625    0.000    3.000 
#    0.000    0.625    0.000    1.125    0.000    0.000 
#    0.000    1.000    0.000    7.750    0.000    0.000 
#
# Total GULP energy -356585.243645 kJ/mol
# GULP energy per Si atom -5571.644432 kJ/mol
# Density = 1.547918 g / cm^3
# Si number density = 15.514489 Si / 1000 Ang^3
#
#
#
# Elastic Constant Matrix: (Units=GPa)
#
#
# Indices 1 2 3 4 5 6 
#
# 1 28.0888 5.9013 6.4952 0.0000 0.0000 0.0000
# 2 5.9013 56.0410 11.2829 0.0000 0.0000 0.0000
# 3 6.4952 11.2829 93.9306 0.0000 0.0000 0.0000
# 4 0.0000 0.0000 0.0000 18.7185 0.0000 0.0000
# 5 0.0000 0.0000 0.0000 0.0000 15.9828 0.0000
# 6 0.0000 0.0000 0.0000 0.0000 0.0000 4.6729
#
#
#
# Elastic Compliance Matrix: (Units=1/GPa)
#
#
# Indices 1 2 3 4 5 6 
#
# 1 0.036819 -0.003448 -0.002132 0.000000 0.000000 0.000000
# 2 -0.003448 0.018609 -0.001997 0.000000 0.000000 0.000000
# 3 -0.002132 -0.001997 0.011033 0.000000 0.000000 0.000000
# 4 0.000000 0.000000 0.000000 0.053423 0.000000 0.000000
# 5 0.000000 0.000000 0.000000 0.000000 0.062567 0.000000
# 6 0.000000 0.000000 0.000000 0.000000 0.000000 0.213998
#
#
# Mechanical properties :
#
#
# Convention : Reuss Voigt Hill
#
# Bulk Modulus (GPa) = 19.49009 25.04657 22.26833
# Shear Modulus (GPa) = 11.66302 18.16692 14.91497
#
# Velocity S-wave (km/s) = 2.74478 3.42565 3.10394
# Velocity P-wave (km/s) = 4.75761 5.64144 5.21827
#
# Compressibility (1/GPa) = 0.05130813
#
# Stress axis : x y z
#
# Youngs Moduli (GPa) = 27.16009 53.73689 90.63362
#
# Poissons Ratio (x) = 0.18528 0.19321
# Poissons Ratio (y) = 0.09365 0.18099
# Poissons Ratio (z) = 0.05790 0.10731
#
# Static dielectric constant tensor:
#      x y z
#    x 1.508560 0.000000 0.000000 
#    y 0.000000 1.531930 0.000000 
#    z 0.000000 0.000000 1.528970 
# 
# From -- ./inp_files/23442.got.cif
#   From: 2010.05.17/outbox.cif.g08.bks.cpg/sg59_12_cif.got.tgz:23442.got - 2010.06.03 14:40:33.
