data_PCOD9446240
_publ_section_title
;
Structure prediction by ZEFSAII (Michael W. Deem and Ramdas Pophale) SiO2 
 PCOD9446240
Probable space group: P M M N
;
_chemical_formula_sum "Si O2"
_cell_formula_units_Z 64
_cell_length_a 18.078670
_cell_length_b 14.667481
_cell_length_c 16.009119
_cell_angle_alpha 90.000000
_cell_angle_beta 90.000000
_cell_angle_gamma 90.000000
_cell_volume 4245.114852
_symmetry_space_group_name_H-M "P M M N"
_symmetry_group_IT_number 59
_space_group.IT_coordinate_system_code '2'
_symmetry_cell_setting 'orthorhombic'
loop_
_space_group_symop_operation_xyz
x,y,z
1/2-x,1/2-y,z
1/2+x,-y,-z
-x,1/2+y,-z
-x,-y,-z
1/2+x,1/2+y,-z
1/2-x,y,z
x,1/2-y,z
loop_
_atom_site_type_symbol
_atom_site_label
_atom_site_fract_x
_atom_site_fract_y
_atom_site_fract_z
Si Si1 0.339430 0.030078 0.276427
Si Si2 0.339856 0.145330 0.113514
Si Si3 0.591572 0.354467 0.793477
Si Si4 0.661335 0.353100 0.976435
Si Si5 0.164867 0.139339 0.622135
Si Si6 0.840083 0.855301 0.562574
Si Si7 0.415189 0.142398 0.791708
Si Si8 0.839153 0.959939 0.056132
O O1 0.250000 0.025562 0.275699
O O2 0.371843 0.929750 0.265104
O O3 0.362795 0.089381 0.195452
O O4 0.362878 0.081198 0.360907
O O5 0.250000 0.146622 0.114808
O O6 0.365293 0.250000 0.115312
O O7 0.360849 0.095012 0.027933
O O8 0.608999 0.250000 0.769315
O O9 0.622865 0.367943 0.887161
O O10 0.503416 0.365421 0.794130
O O11 0.750000 0.359071 0.962743
O O12 0.644156 0.250000 0.004870
O O13 0.641634 0.434403 0.039063
O O14 0.250000 0.109380 0.633984
O O15 0.165957 0.250000 0.619091
O O16 0.137584 0.111620 0.529937
O O17 0.116106 0.113366 0.701396
O O18 0.750000 0.853909 0.561375
O O19 0.863551 0.750000 0.575416
O O20 0.396246 0.250000 0.803685
O O21 0.378200 0.084091 0.864667
O O22 0.750000 0.952688 0.065393
#
# Coordination Sequence:
#
# PCOD9446240 Si02
#       8
#     8   8   8   8   8   8   8   8
#     4  10  17  28  45  65  87 115 148 183 221 260
#     4   9  16  25  39  63  93 115 134 167 217 273
#     4  10  20  32  44  61  87 120 157 188 219 255
#     4   9  17  31  48  63  83 114 154 194 221 249
#     4   8  14  27  46  67  90 116 144 175 214 263
#     4   8  14  25  45  71  93 112 139 176 219 268
#     4  10  20  31  44  64  93 122 147 182 223 263
#     4  10  18  29  47  69  87 113 148 180 221 268
#
# _framework density 15.076153
#
# number of rings (size 3 to 8) (size 9 to 14) (size 15 to 20)
#    0.000    2.750    1.250    2.250    0.000    4.000 
#    0.000    0.625    0.000    0.750    0.000    0.875 
#    0.000    3.000    0.000    0.000    0.000    0.000 
#
# Total GULP energy -356484.727510 kJ/mol
# GULP energy per Si atom -5570.073867 kJ/mol
# Density = 1.504184 g / cm^3
# Si number density = 15.076153 Si / 1000 Ang^3
#
#
#
# Elastic Constant Matrix: (Units=GPa)
#
#
# Indices 1 2 3 4 5 6 
#
# 1 19.3076 32.6598 32.5885 0.0000 0.0000 0.0000
# 2 32.6598 107.6511 73.2808 0.0000 0.0000 0.0000
# 3 32.5885 73.2808 135.6496 0.0000 0.0000 0.0000
# 4 0.0000 0.0000 0.0000 11.7778 0.0000 0.0000
# 5 0.0000 0.0000 0.0000 0.0000 -105.9045 0.0000
# 6 0.0000 0.0000 0.0000 0.0000 0.0000 13.6779
#
#
#
# Elastic Compliance Matrix: (Units=1/GPa)
#
#
# Indices 1 2 3 4 5 6 
#
# 1 0.122721 -0.027144 -0.014819 0.000000 0.000000 0.000000
# 2 -0.027144 0.020696 -0.004659 0.000000 0.000000 0.000000
# 3 -0.014819 -0.004659 0.013449 0.000000 0.000000 0.000000
# 4 0.000000 0.000000 0.000000 0.084906 0.000000 0.000000
# 5 0.000000 0.000000 0.000000 0.000000 -0.009442 0.000000
# 6 0.000000 0.000000 0.000000 0.000000 0.000000 0.073110
#
#
# Mechanical properties :
#
#
# Convention : Reuss Voigt Hill
#
# Bulk Modulus (GPa) = 15.71791 59.96294 37.84043
# Shear Modulus (GPa) = 11.90781 -7.81782 2.04500
#
# Velocity S-wave (km/s) = 2.81347 -2.27965 1.16593
# Velocity P-wave (km/s) = 4.58284 5.73852 5.19293
#
# Compressibility (1/GPa) = 0.06362169
#
# Stress axis : x y z
#
# Youngs Moduli (GPa) = 8.14855 48.31794 74.35472
#
# Poissons Ratio (x) = 1.31156 1.10183
# Poissons Ratio (y) = 0.22119 0.34644
# Poissons Ratio (z) = 0.12075 0.22513
#
# Static dielectric constant tensor:
#      x y z
#    x 1.485280 0.000000 0.000000 
#    y 0.000000 1.507950 0.000000 
#    z 0.000000 0.000000 1.494010 
# 
# From -- ./inp_files/24027.got.cif
#   From: 2010.05.17/outbox.cif.g08.bks.cpg/sg59_13_cif.got.tgz:24027.got - 2010.06.03 14:40:33.
