data_PCOD9446330
_publ_section_title
;
Structure prediction by ZEFSAII (Michael W. Deem and Ramdas Pophale) SiO2 
 PCOD9446330
Probable space group: P M M N
;
_chemical_formula_sum "Si O2"
_cell_formula_units_Z 64
_cell_length_a 9.202920
_cell_length_b 22.383265
_cell_length_c 20.793239
_cell_angle_alpha 90.000000
_cell_angle_beta 90.000000
_cell_angle_gamma 90.000000
_cell_volume 4283.228353
_symmetry_space_group_name_H-M "P M M N"
_symmetry_group_IT_number 59
_space_group.IT_coordinate_system_code '2'
_symmetry_cell_setting 'orthorhombic'
loop_
_space_group_symop_operation_xyz
x,y,z
1/2-x,1/2-y,z
1/2+x,-y,-z
-x,1/2+y,-z
-x,-y,-z
1/2+x,1/2+y,-z
1/2-x,y,z
x,1/2-y,z
loop_
_atom_site_type_symbol
_atom_site_label
_atom_site_fract_x
_atom_site_fract_y
_atom_site_fract_z
Si Si1 0.075179 0.064766 0.992794
Si Si2 0.576846 0.320258 0.361551
Si Si3 0.422698 0.587657 0.528961
Si Si4 0.922246 0.612363 0.753761
Si Si5 0.422367 0.458539 0.592951
Si Si6 0.921016 0.028746 0.725437
Si Si7 0.083037 0.450403 0.851664
Si Si8 0.418999 0.906866 0.883010
O O1 0.250000 0.059685 0.000463
O O2 0.046252 0.082555 0.918658
O O3 0.004892 0.102669 0.050325
O O4 0.000000 0.000000 0.000000
O O5 0.750000 0.330030 0.350983
O O6 0.551459 0.250000 0.368854
O O7 0.537282 0.357170 0.425532
O O8 0.490312 0.346885 0.301453
O O9 0.250000 0.589671 0.515632
O O10 0.450703 0.526769 0.569209
O O11 0.509206 0.582383 0.462663
O O12 0.750000 0.621684 0.760315
O O13 0.945049 0.542827 0.733755
O O14 0.002348 0.621923 0.821738
O O15 0.250000 0.450513 0.596946
O O16 0.495443 0.450510 0.662000
O O17 0.750000 0.038655 0.718566
O O18 0.981134 0.058486 0.790615
O O19 0.250000 0.437034 0.834601
O O20 0.077140 0.521453 0.868590
O O21 0.250000 0.889956 0.888109
#
# Coordination Sequence:
#
# PCOD9446330 Si02
#       8
#     8   8   8   8   8   8   8   8
#     4   9  15  23  34  50  73 103 138 173 207 243
#     4  10  20  34  50  65  84 112 143 177 219 264
#     4   9  18  31  45  63  84 107 137 175 214 259
#     4  10  19  29  42  60  82 107 140 179 216 256
#     4  10  18  28  45  63  83 110 138 175 217 258
#     4  10  18  26  39  59  82 109 140 176 213 253
#     4   8  15  24  34  50  75 106 137 169 205 246
#     4   9  16  25  38  53  73 103 138 176 211 245
#
# _framework density 14.942
#
# number of rings (size 3 to 8) (size 9 to 14) (size 15 to 20)
#    0.000    2.625    1.250    2.625    0.000    5.750 
#    0.000    0.000    0.000    0.000    0.000    0.000 
#    0.000    0.000    0.000    1.125    0.000   18.375 
#
# Total GULP energy -356479.258644 kJ/mol
# GULP energy per Si atom -5569.988416 kJ/mol
# Density = 1.490799 g / cm^3
# Si number density = 14.942000 Si / 1000 Ang^3
#
#
#
# Elastic Constant Matrix: (Units=GPa)
#
#
# Indices 1 2 3 4 5 6 
#
# 1 79.1532 29.2844 88.5135 0.0000 0.0000 0.0000
# 2 29.2844 32.1536 36.5598 0.0000 0.0000 0.0000
# 3 88.5135 36.5598 159.8117 0.0000 0.0000 0.0000
# 4 0.0000 0.0000 0.0000 7.9356 0.0000 0.0000
# 5 0.0000 0.0000 0.0000 0.0000 34.2668 0.0000
# 6 0.0000 0.0000 0.0000 0.0000 0.0000 10.2148
#
#
#
# Elastic Compliance Matrix: (Units=1/GPa)
#
#
# Indices 1 2 3 4 5 6 
#
# 1 0.037457 -0.014226 -0.017491 0.000000 0.000000 0.000000
# 2 -0.014226 0.047438 -0.002973 0.000000 0.000000 0.000000
# 3 -0.017491 -0.002973 0.016625 0.000000 0.000000 0.000000
# 4 0.000000 0.000000 0.000000 0.126015 0.000000 0.000000
# 5 0.000000 0.000000 0.000000 0.000000 0.029183 0.000000
# 6 0.000000 0.000000 0.000000 0.000000 0.000000 0.097897
#
#
# Mechanical properties :
#
#
# Convention : Reuss Voigt Hill
#
# Bulk Modulus (GPa) = 31.11489 64.42599 47.77044
# Shear Modulus (GPa) = 11.50195 18.26748 14.88472
#
# Velocity S-wave (km/s) = 2.77749 3.50031 3.15963
# Velocity P-wave (km/s) = 5.58166 7.71668 6.73432
#
# Compressibility (1/GPa) = 0.03213895
#
# Stress axis : x y z
#
# Youngs Moduli (GPa) = 26.69736 21.08028 60.14923
#
# Poissons Ratio (x) = 0.29989 1.05210
# Poissons Ratio (y) = 0.37980 0.17882
# Poissons Ratio (z) = 0.46698 0.06267
#
# Static dielectric constant tensor:
#      x y z
#    x 1.498000 0.000000 0.000000 
#    y 0.000000 1.461520 0.000000 
#    z 0.000000 0.000000 1.508990 
# 
# From -- ./inp_files/26465.got.cif
#   From: 2010.05.17/outbox.cif.g08.bks.cpg/sg59_14_cif.got.tgz:26465.got - 2010.06.03 14:40:33.
