data_PCOD9446343
_publ_section_title
;
Structure prediction by ZEFSAII (Michael W. Deem and Ramdas Pophale) SiO2 
 PCOD9446343
Probable space group: P M M N
;
_chemical_formula_sum "Si O2"
_cell_formula_units_Z 40
_cell_length_a 14.321550
_cell_length_b 14.823346
_cell_length_c 7.641856
_cell_angle_alpha 90.000000
_cell_angle_beta 90.000000
_cell_angle_gamma 90.000000
_cell_volume 1622.314759
_symmetry_space_group_name_H-M "P M M N"
_symmetry_group_IT_number 59
_space_group.IT_coordinate_system_code '2'
_symmetry_cell_setting 'orthorhombic'
loop_
_space_group_symop_operation_xyz
x,y,z
1/2-x,1/2-y,z
1/2+x,-y,-z
-x,1/2+y,-z
-x,-y,-z
1/2+x,1/2+y,-z
1/2-x,y,z
x,1/2-y,z
loop_
_atom_site_type_symbol
_atom_site_label
_atom_site_fract_x
_atom_site_fract_y
_atom_site_fract_z
Si Si1 0.350989 0.140826 0.883345
Si Si2 0.603532 0.352081 0.214513
Si Si3 0.061922 0.642180 0.185798
Si Si4 0.382086 0.148678 0.287891
Si Si5 0.889219 0.019241 0.508789
O O1 0.250000 0.110078 0.814971
O O2 0.353328 0.250000 0.866913
O O3 0.352615 0.122469 0.091744
O O4 0.452371 0.111097 0.812217
O O5 0.640433 0.250000 0.238671
O O6 0.494728 0.348342 0.272862
O O7 0.644277 0.429829 0.336080
O O8 0.601563 0.373779 0.008779
O O9 0.063110 0.750000 0.216515
O O10 0.119072 0.589442 0.330864
O O11 0.351833 0.250000 0.328142
O O12 0.351139 0.076505 0.429328
O O13 0.000000 0.000000 0.500000
#
# Coordination Sequence:
#
# PCOD9446343 Si02
#       5
#     8   8   8   8   8
#     4   8  14  26  44  63  86 121 159 189 218 258
#     4   8  15  27  41  61  89 116 143 177 217 263
#     4   9  17  29  46  68  94 122 150 182 225 274
#     4   8  15  26  39  60  89 118 148 180 215 258
#     4  10  18  26  43  65  90 122 151 182 225 272
#
# _framework density 24.656129
#
# number of rings (size 3 to 8) (size 9 to 14) (size 15 to 20)
#    0.000    3.400    0.000    3.000    0.000    8.000 
#    0.000    0.000    0.000   12.000    0.000   50.400 
#    0.000    7.200    0.000   49.200    0.000    1.600 
#
# Total GULP energy -223544.332921 kJ/mol
# GULP energy per Si atom -5588.608323 kJ/mol
# Density = 2.460001 g / cm^3
# Si number density = 24.656129 Si / 1000 Ang^3
#
#
#
# Elastic Constant Matrix: (Units=GPa)
#
#
# Indices 1 2 3 4 5 6 
#
# 1 79.7468 6.6448 8.0272 0.0000 0.0000 0.0000
# 2 6.6448 107.1878 82.6523 0.0000 0.0000 0.0000
# 3 8.0272 82.6523 95.9154 0.0000 0.0000 0.0000
# 4 0.0000 0.0000 0.0000 51.7655 0.0000 0.0000
# 5 0.0000 0.0000 0.0000 0.0000 -12.8105 0.0000
# 6 0.0000 0.0000 0.0000 0.0000 0.0000 -198.0494
#
#
#
# Elastic Compliance Matrix: (Units=1/GPa)
#
#
# Indices 1 2 3 4 5 6 
#
# 1 0.012647 0.000096 -0.001141 0.000000 0.000000 0.000000
# 2 0.000096 0.027806 -0.023969 0.000000 0.000000 0.000000
# 3 -0.001141 -0.023969 0.031176 0.000000 0.000000 0.000000
# 4 0.000000 0.000000 0.000000 0.019318 0.000000 0.000000
# 5 0.000000 0.000000 0.000000 0.000000 -0.078061 0.000000
# 6 0.000000 0.000000 0.000000 0.000000 0.000000 -0.005049
#
#
# Mechanical properties :
#
#
# Convention : Reuss Voigt Hill
#
# Bulk Modulus (GPa) = 46.29598 53.05540 49.67569
# Shear Modulus (GPa) = 76.84792 -19.45049 28.69872
#
# Velocity S-wave (km/s) = 5.58888 -2.81173 3.41539
# Velocity P-wave (km/s) = 7.77591 3.32020 5.97865
#
# Compressibility (1/GPa) = 0.02160015
#
# Stress axis : x y z
#
# Youngs Moduli (GPa) = 79.07290 35.96374 32.07619
#
# Poissons Ratio (x) = -0.00345 0.03660
# Poissons Ratio (y) = -0.00758 0.76883
# Poissons Ratio (z) = 0.09022 0.86201
#
# Static dielectric constant tensor:
#      x y z
#    x 1.959230 0.000000 0.000000 
#    y 0.000000 1.968480 0.000000 
#    z 0.000000 0.000000 1.927120 
# 
# From -- ./inp_files/10125.got.cif
#   From: 2010.05.17/outbox.cif.g08.bks.cpg/sg59_6_cif.got.tgz:10125.got - 2010.06.03 14:40:33.
