data_PCOD9446179
_publ_section_title
;
Structure prediction by ZEFSAII (Michael W. Deem and Ramdas Pophale) SiO2 
 PCOD9446179
Probable space group: P M M N
;
_chemical_formula_sum "Si O2"
_cell_formula_units_Z 56
_cell_length_a 7.401003
_cell_length_b 14.557925
_cell_length_c 27.125455
_cell_angle_alpha 90.000000
_cell_angle_beta 90.000000
_cell_angle_gamma 90.000000
_cell_volume 2922.584587
_symmetry_space_group_name_H-M "P M M N"
_symmetry_group_IT_number 59
_space_group.IT_coordinate_system_code '2'
_symmetry_cell_setting 'orthorhombic'
loop_
_space_group_symop_operation_xyz
x,y,z
1/2-x,1/2-y,z
1/2+x,-y,-z
-x,1/2+y,-z
-x,-y,-z
1/2+x,1/2+y,-z
1/2-x,y,z
x,1/2-y,z
loop_
_atom_site_type_symbol
_atom_site_label
_atom_site_fract_x
_atom_site_fract_y
_atom_site_fract_z
Si Si1 0.529979 0.644879 0.830999
Si Si2 0.532109 0.142680 0.459091
Si Si3 0.470846 0.354656 0.281350
Si Si4 0.970894 0.144391 0.569285
Si Si5 0.465669 0.354055 0.980476
Si Si6 0.043155 0.017069 0.367253
Si Si7 0.966444 0.533235 0.924252
O O1 0.750000 0.643761 0.830798
O O2 0.477291 0.750000 0.843147
O O3 0.474215 0.625006 0.774857
O O4 0.467476 0.574276 0.872640
O O5 0.750000 0.135951 0.457074
O O6 0.484940 0.250000 0.453256
O O7 0.473358 0.114204 0.514160
O O8 0.456537 0.083645 0.414685
O O9 0.250000 0.354691 0.282625
O O10 0.525903 0.250000 0.293435
O O11 0.536825 0.427270 0.321534
O O12 0.750000 0.141680 0.569149
O O13 0.023414 0.250000 0.576064
O O14 0.037734 0.076723 0.611598
O O15 0.250000 0.347323 0.985978
O O16 0.534221 0.250000 0.974057
O O17 0.496909 0.427108 0.936811
O O18 0.535306 0.404420 0.030089
O O19 0.250000 0.996191 0.353240
O O20 0.750000 0.542810 0.923970
#
# Coordination Sequence:
#
# PCOD9446179 Si02
#       7
#     8   8   8   8   8   8   8
#     4   8  13  23  40  60  83 110 135 160 195 239
#     4   9  17  28  40  55  79 108 131 154 193 244
#     4   8  14  23  36  59  86 104 123 159 204 240
#     4   8  15  27  40  55  77 105 134 161 193 235
#     4   9  17  28  41  60  87 114 138 166 204 248
#     4  10  17  25  42  63  80 101 131 166 198 231
#     4   9  16  26  43  64  82 106 143 177 199 229
#
# _framework density 19.161121999999999
#
# number of rings (size 3 to 8) (size 9 to 14) (size 15 to 20)
#    0.000    3.286    0.000    3.000    0.000    2.857 
#    0.000    0.000    0.000    4.286    0.000    6.000 
#    0.000    0.000    0.000    0.000    0.000    0.000 
#
# Total GULP energy -312276.052102 kJ/mol
# GULP energy per Si atom -5576.358073 kJ/mol
# Density = 1.911751 g / cm^3
# Si number density = 19.161122 Si / 1000 Ang^3
#
#
#
# Elastic Constant Matrix: (Units=GPa)
#
#
# Indices 1 2 3 4 5 6 
#
# 1 63.6057 0.7533 0.6905 0.0000 0.0000 0.0000
# 2 0.7533 138.7683 92.3946 0.0000 0.0000 0.0000
# 3 0.6905 92.3946 121.4094 0.0000 0.0000 0.0000
# 4 0.0000 0.0000 0.0000 33.6654 0.0000 0.0000
# 5 0.0000 0.0000 0.0000 0.0000 5.7419 0.0000
# 6 0.0000 0.0000 0.0000 0.0000 0.0000 7.4252
#
#
#
# Elastic Compliance Matrix: (Units=1/GPa)
#
#
# Indices 1 2 3 4 5 6 
#
# 1 0.015723 -0.000052 -0.000050 0.000000 0.000000 0.000000
# 2 -0.000052 0.014608 -0.011117 0.000000 0.000000 0.000000
# 3 -0.000050 -0.011117 0.016697 0.000000 0.000000 0.000000
# 4 0.000000 0.000000 0.000000 0.029704 0.000000 0.000000
# 5 0.000000 0.000000 0.000000 0.000000 0.174158 0.000000
# 6 0.000000 0.000000 0.000000 0.000000 0.000000 0.134677
#
#
# Mechanical properties :
#
#
# Convention : Reuss Voigt Hill
#
# Bulk Modulus (GPa) = 40.66571 56.82891 48.74731
# Shear Modulus (GPa) = 12.01340 24.69615 18.35478
#
# Velocity S-wave (km/s) = 2.50665 3.59398 3.09838
# Velocity P-wave (km/s) = 5.44489 6.85165 6.18837
#
# Compressibility (1/GPa) = 0.02459074
#
# Stress axis : x y z
#
# Youngs Moduli (GPa) = 63.60098 68.45353 59.89064
#
# Poissons Ratio (x) = 0.00358 0.00297
# Poissons Ratio (y) = 0.00333 0.66580
# Poissons Ratio (z) = 0.00316 0.76100
#
# Static dielectric constant tensor:
#      x y z
#    x 1.742820 0.000000 0.000000 
#    y 0.000000 1.666770 0.000000 
#    z 0.000000 0.000000 1.654680 
# 
# From -- ./inp_files/31907.got.cif
#   From: 2010.05.17/outbox.cif.g08.bks.cpg/sg59_16_cif.got.tgz:31907.got - 2010.06.03 14:40:33.
