data_PCOD9446468
_publ_section_title
;
Structure prediction by ZEFSAII (Michael W. Deem and Ramdas Pophale) SiO2 
 PCOD9446468
Probable space group: P M M N
;
_chemical_formula_sum "Si O2"
_cell_formula_units_Z 64
_cell_length_a 18.969504
_cell_length_b 9.168688
_cell_length_c 20.560285
_cell_angle_alpha 90.000000
_cell_angle_beta 90.000000
_cell_angle_gamma 90.000000
_cell_volume 3575.957102
_symmetry_space_group_name_H-M "P M M N"
_symmetry_group_IT_number 59
_space_group.IT_coordinate_system_code '2'
_symmetry_cell_setting 'orthorhombic'
loop_
_space_group_symop_operation_xyz
x,y,z
1/2-x,1/2-y,z
1/2+x,-y,-z
-x,1/2+y,-z
-x,-y,-z
1/2+x,1/2+y,-z
1/2-x,y,z
x,1/2-y,z
loop_
_atom_site_type_symbol
_atom_site_label
_atom_site_fract_x
_atom_site_fract_y
_atom_site_fract_z
Si Si1 0.596001 0.417439 0.051384
Si Si2 0.575846 0.076428 0.414082
Si Si3 0.074075 0.418103 0.075825
Si Si4 0.169052 0.426221 0.476109
Si Si5 0.169480 0.417481 0.685451
Si Si6 0.924954 0.926566 0.639361
Si Si7 0.960685 0.573113 0.783998
Si Si8 0.106815 0.420250 0.821068
O O1 0.617569 0.250000 0.053868
O O2 0.510954 0.423212 0.064111
O O3 0.628097 0.506992 0.111136
O O4 0.607862 0.485513 0.980541
O O5 0.576524 0.250000 0.424183
O O6 0.495775 0.028440 0.399334
O O7 0.615322 0.996077 0.472675
O O8 0.620001 0.031282 0.350446
O O9 0.095746 0.250000 0.068059
O O10 0.083674 0.463345 0.150954
O O11 0.250000 0.470309 0.487581
O O12 0.165581 0.250000 0.481948
O O13 0.141940 0.467910 0.404071
O O14 0.250000 0.435894 0.664498
O O15 0.147868 0.250000 0.669241
O O16 0.162409 0.432356 0.762877
O O17 0.926467 0.750000 0.641375
O O18 0.929266 0.973489 0.714523
O O19 0.969318 0.750000 0.784293
O O20 0.036527 0.499243 0.794345
O O21 0.091235 0.250000 0.832266
#
# Coordination Sequence:
#
# PCOD9446468 Si02
#       8
#     8   8   8   8   8   8   8   8
#     4   9  16  25  39  59  89 126 158 194 237 282
#     4  11  21  34  54  76  99 127 162 206 249 292
#     4   8  14  23  38  61  88 120 154 190 235 284
#     4  10  21  37  55  74 100 133 165 199 243 296
#     4  10  21  35  49  68  97 132 167 204 249 302
#     4   9  18  33  53  76 100 129 164 203 247 294
#     4   9  16  29  47  67  95 124 155 198 245 288
#     4  10  18  28  44  65  91 123 161 201 241 289
#
# _framework density 17.897306
#
# number of rings (size 3 to 8) (size 9 to 14) (size 15 to 20)
#    0.000    2.500    1.250    2.625    0.000    5.500 
#    0.000    1.250    0.000    0.000    0.000    0.875 
#    0.000    5.000    0.000    0.000    0.000    0.000 
#
# Total GULP energy -356675.096198 kJ/mol
# GULP energy per Si atom -5573.048378 kJ/mol
# Density = 1.785657 g / cm^3
# Si number density = 17.897306 Si / 1000 Ang^3
#
#
#
# Elastic Constant Matrix: (Units=GPa)
#
#
# Indices 1 2 3 4 5 6 
#
# 1 20.4668 9.8301 24.5755 0.0000 0.0000 0.0000
# 2 9.8301 36.6268 32.2670 0.0000 0.0000 0.0000
# 3 24.5755 32.2670 137.3047 0.0000 0.0000 0.0000
# 4 0.0000 0.0000 0.0000 27.2334 0.0000 0.0000
# 5 0.0000 0.0000 0.0000 0.0000 0.7468 0.0000
# 6 0.0000 0.0000 0.0000 0.0000 0.0000 11.8312
#
#
#
# Elastic Compliance Matrix: (Units=1/GPa)
#
#
# Indices 1 2 3 4 5 6 
#
# 1 0.064507 -0.009006 -0.009429 0.000000 0.000000 0.000000
# 2 -0.009006 0.035688 -0.006775 0.000000 0.000000 0.000000
# 3 -0.009429 -0.006775 0.010563 0.000000 0.000000 0.000000
# 4 0.000000 0.000000 0.000000 0.036720 0.000000 0.000000
# 5 0.000000 0.000000 0.000000 0.000000 1.339031 0.000000
# 6 0.000000 0.000000 0.000000 0.000000 0.000000 0.084522
#
#
# Mechanical properties :
#
#
# Convention : Reuss Voigt Hill
#
# Bulk Modulus (GPa) = 16.57331 36.41594 26.49462
# Shear Modulus (GPa) = 3.04588 16.47733 9.76160
#
# Velocity S-wave (km/s) = 1.30597 3.03753 2.33796
# Velocity P-wave (km/s) = 3.39918 5.71782 4.70361
#
# Compressibility (1/GPa) = 0.06033798
#
# Stress axis : x y z
#
# Youngs Moduli (GPa) = 15.50208 28.02072 94.67077
#
# Poissons Ratio (x) = 0.25235 0.89270
# Poissons Ratio (y) = 0.13961 0.64138
# Poissons Ratio (z) = 0.14618 0.18984
#
# Static dielectric constant tensor:
#      x y z
#    x 1.585550 0.000000 0.000000 
#    y 0.000000 1.608970 0.000000 
#    z 0.000000 0.000000 1.655250 
# 
# From -- ./inp_files/30658.got.cif
#   From: 2010.05.17/outbox.cif.g08.bks.cpg/sg59_16_cif.got.tgz:30658.got - 2010.06.03 14:40:33.
