data_PCOD9446407
_publ_section_title
;
Structure prediction by ZEFSAII (Michael W. Deem and Ramdas Pophale) SiO2 
 PCOD9446407
Probable space group: P M M N
;
_chemical_formula_sum "Si O2"
_cell_formula_units_Z 64
_cell_length_a 21.461052
_cell_length_b 8.587348
_cell_length_c 21.186081
_cell_angle_alpha 90.000000
_cell_angle_beta 90.000000
_cell_angle_gamma 90.000000
_cell_volume 3904.457484
_symmetry_space_group_name_H-M "P M M N"
_symmetry_group_IT_number 59
_space_group.IT_coordinate_system_code '2'
_symmetry_cell_setting 'orthorhombic'
loop_
_space_group_symop_operation_xyz
x,y,z
1/2-x,1/2-y,z
1/2+x,-y,-z
-x,1/2+y,-z
-x,-y,-z
1/2+x,1/2+y,-z
1/2-x,y,z
x,1/2-y,z
loop_
_atom_site_type_symbol
_atom_site_label
_atom_site_fract_x
_atom_site_fract_y
_atom_site_fract_z
Si Si1 0.501472 0.063805 0.677590
Si Si2 0.359548 0.061224 0.343727
Si Si3 0.661737 0.571296 0.791170
Si Si4 0.818189 0.560240 0.517617
Si Si5 0.817392 0.065103 0.924271
Si Si6 0.458240 0.563752 0.056580
Si Si7 0.487120 0.427099 0.190118
Si Si8 0.945740 0.561410 0.453917
O O1 0.502243 0.250000 0.681526
O O2 0.459042 0.015174 0.618351
O O3 0.570861 0.006061 0.659762
O O4 0.483542 0.999173 0.746605
O O5 0.363845 0.250000 0.342089
O O6 0.324059 0.016157 0.279490
O O7 0.328163 0.015945 0.409217
O O8 0.682311 0.750000 0.800209
O O9 0.682636 0.467878 0.849295
O O10 0.586677 0.574356 0.794361
O O11 0.750000 0.507843 0.495620
O O12 0.818483 0.750000 0.515823
O O13 0.878362 0.507864 0.478614
O O14 0.750000 0.003788 0.948855
O O15 0.817785 0.250000 0.935490
O O16 0.885674 0.004680 0.946314
O O17 0.455948 0.750000 0.053778
O O18 0.488904 0.515365 0.123521
O O19 0.500000 0.500000 0.000000
O O20 0.508392 0.250000 0.181422
O O21 0.947514 0.750000 0.456878
O O22 0.000000 0.500000 0.500000
#
# Coordination Sequence:
#
# PCOD9446407 Si02
#       8
#     8   8   8   8   8   8   8   8
#     4  10  18  27  43  68  93 117 150 196 243 284
#     4   9  16  27  43  61  84 117 155 190 227 272
#     4   8  15  25  39  61  86 115 151 189 224 260
#     4   9  17  29  44  62  86 117 155 197 240 289
#     4   9  18  31  45  63  90 126 162 191 223 266
#     4  10  19  32  51  74 102 132 160 195 234 278
#     4   9  17  30  47  68  94 123 156 193 234 280
#     4  10  19  30  47  68  89 118 156 198 243 287
#
# _framework density 16.391521999999998
#
# number of rings (size 3 to 8) (size 9 to 14) (size 15 to 20)
#    0.000    2.750    1.250    1.875    0.000    4.750 
#    0.000    1.250    0.000    1.500    0.000    0.875 
#    0.000    3.000    0.000    0.000    0.000    0.000 
#
# Total GULP energy -356310.405400 kJ/mol
# GULP energy per Si atom -5567.350084 kJ/mol
# Density = 1.635421 g / cm^3
# Si number density = 16.391522 Si / 1000 Ang^3
#
#
#
# Elastic Constant Matrix: (Units=GPa)
#
#
# Indices 1 2 3 4 5 6 
#
# 1 105.6518 15.1003 65.3434 0.0000 0.0000 0.0000
# 2 15.1003 20.2629 23.4445 0.0000 0.0000 0.0000
# 3 65.3434 23.4445 115.6510 0.0000 0.0000 0.0000
# 4 0.0000 0.0000 0.0000 22.2649 0.0000 0.0000
# 5 0.0000 0.0000 0.0000 0.0000 5.3626 0.0000
# 6 0.0000 0.0000 0.0000 0.0000 0.0000 -2.2656
#
#
#
# Elastic Compliance Matrix: (Units=1/GPa)
#
#
# Indices 1 2 3 4 5 6 
#
# 1 0.014596 -0.001745 -0.007893 0.000000 0.000000 0.000000
# 2 -0.001745 0.064682 -0.012126 0.000000 0.000000 0.000000
# 3 -0.007893 -0.012126 0.015565 0.000000 0.000000 0.000000
# 4 0.000000 0.000000 0.000000 0.044914 0.000000 0.000000
# 5 0.000000 0.000000 0.000000 0.000000 0.186475 0.000000
# 6 0.000000 0.000000 0.000000 0.000000 0.000000 -0.441380
#
#
# Mechanical properties :
#
#
# Convention : Reuss Voigt Hill
#
# Bulk Modulus (GPa) = 19.48790 49.92691 34.70740
# Shear Modulus (GPa) = -91.71766 14.25088 -38.73339
#
# Velocity S-wave (km/s) = -7.48838 2.95177 -4.86636
# Velocity P-wave (km/s) = 7.92798 6.49171 3.21796
#
# Compressibility (1/GPa) = 0.05131390
#
# Stress axis : x y z
#
# Youngs Moduli (GPa) = 68.51083 15.46033 64.24815
#
# Poissons Ratio (x) = 0.02697 0.50713
# Poissons Ratio (y) = 0.11954 0.77909
# Poissons Ratio (z) = 0.54077 0.18748
#
# Static dielectric constant tensor:
#      x y z
#    x 1.576630 0.000000 0.000000 
#    y 0.000000 1.566200 0.000000 
#    z 0.000000 0.000000 1.557200 
# 
# From -- ./inp_files/30978.got.cif
#   From: 2010.05.17/outbox.cif.g08.bks.cpg/sg59_16_cif.got.tgz:30978.got - 2010.06.03 14:40:33.
