data_PCOD9446346
_publ_section_title
;
Structure prediction by ZEFSAII (Michael W. Deem and Ramdas Pophale) SiO2 
 PCOD9446346
Probable space group: P M M N
;
_chemical_formula_sum "Si O2"
_cell_formula_units_Z 40
_cell_length_a 9.137813
_cell_length_b 25.257475
_cell_length_c 10.403164
_cell_angle_alpha 90.000000
_cell_angle_beta 90.000000
_cell_angle_gamma 90.000000
_cell_volume 2401.030313
_symmetry_space_group_name_H-M "P M M N"
_symmetry_group_IT_number 59
_space_group.IT_coordinate_system_code '2'
_symmetry_cell_setting 'orthorhombic'
loop_
_space_group_symop_operation_xyz
x,y,z
1/2-x,1/2-y,z
1/2+x,-y,-z
-x,1/2+y,-z
-x,-y,-z
1/2+x,1/2+y,-z
1/2-x,y,z
x,1/2-y,z
loop_
_atom_site_type_symbol
_atom_site_label
_atom_site_fract_x
_atom_site_fract_y
_atom_site_fract_z
Si Si1 0.421574 0.750000 0.498345
Si Si2 0.425090 0.858164 0.219423
Si Si3 0.573957 0.472804 0.878598
Si Si4 0.424327 0.032119 0.385362
Si Si5 0.923723 0.750000 0.225924
Si Si6 0.421350 0.866551 0.526603
O O1 0.250000 0.750000 0.452505
O O2 0.526882 0.750000 0.375675
O O3 0.442283 0.805608 0.568763
O O4 0.250000 0.850548 0.207612
O O5 0.468156 0.911453 0.144782
O O6 0.506633 0.804870 0.175861
O O7 0.452610 0.867689 0.372573
O O8 0.750000 0.474023 0.892232
O O9 0.536132 0.505292 0.749714
O O10 0.500000 0.500000 0.000000
O O11 0.250000 0.029117 0.399669
O O12 0.480252 0.091906 0.399227
O O13 0.500000 0.000000 0.500000
O O14 0.750000 0.750000 0.212546
O O15 0.250000 0.880517 0.541620
#
# Coordination Sequence:
#
# PCOD9446346 Si02
#       6
#     4   8   8   8   4   8
#     4   8  16  30  46  67 104 141 166 204 260 312
#     4   9  17  33  51  70 103 140 170 207 258 314
#     4  10  22  38  54  75 105 140 178 217 261 312
#     4  11  21  34  52  77 106 136 171 213 257 309
#     4  10  18  26  44  77 104 127 170 218 256 300
#     4   9  16  30  51  75 102 135 173 213 256 305
#
# _framework density 16.659516
#
# number of rings (size 3 to 8) (size 9 to 14) (size 15 to 20)
#    0.000    2.400    2.000    2.700    0.000    5.600 
#    0.000    0.000    0.000    1.200    0.000    4.200 
#    0.000    0.000    0.000    0.000    0.000    0.000 
#
# Total GULP energy -222966.455764 kJ/mol
# GULP energy per Si atom -5574.161394 kJ/mol
# Density = 1.662160 g / cm^3
# Si number density = 16.659516 Si / 1000 Ang^3
#
#
#
# Elastic Constant Matrix: (Units=GPa)
#
#
# Indices 1 2 3 4 5 6 
#
# 1 54.6041 68.4644 44.2297 0.0000 0.0000 0.0000
# 2 68.4644 178.4523 65.6888 0.0000 0.0000 0.0000
# 3 44.2297 65.6888 78.0359 0.0000 0.0000 0.0000
# 4 0.0000 0.0000 0.0000 18.6124 0.0000 0.0000
# 5 0.0000 0.0000 0.0000 0.0000 23.3407 0.0000
# 6 0.0000 0.0000 0.0000 0.0000 0.0000 34.2222
#
#
#
# Elastic Compliance Matrix: (Units=1/GPa)
#
#
# Indices 1 2 3 4 5 6 
#
# 1 0.046265 -0.011733 -0.016346 0.000000 0.000000 0.000000
# 2 -0.011733 0.011095 -0.002690 0.000000 0.000000 0.000000
# 3 -0.016346 -0.002690 0.024343 0.000000 0.000000 0.000000
# 4 0.000000 0.000000 0.000000 0.053728 0.000000 0.000000
# 5 0.000000 0.000000 0.000000 0.000000 0.042844 0.000000
# 6 0.000000 0.000000 0.000000 0.000000 0.000000 0.029221
#
#
# Mechanical properties :
#
#
# Convention : Reuss Voigt Hill
#
# Bulk Modulus (GPa) = 49.58681 74.20647 61.89664
# Shear Modulus (GPa) = 18.13207 24.08237 21.10722
#
# Velocity S-wave (km/s) = 3.30266 3.80618 3.56332
# Velocity P-wave (km/s) = 6.66130 7.99723 7.35964
#
# Compressibility (1/GPa) = 0.02016665
#
# Stress axis : x y z
#
# Youngs Moduli (GPa) = 21.61460 90.12908 41.07907
#
# Poissons Ratio (x) = 1.05748 0.67147
# Poissons Ratio (y) = 0.25360 0.11049
# Poissons Ratio (z) = 0.35331 0.24241
#
# Static dielectric constant tensor:
#      x y z
#    x 1.553740 0.000000 0.000000 
#    y 0.000000 1.609100 0.000000 
#    z 0.000000 0.000000 1.529110 
# 
# From -- ./inp_files/5918.got.cif
#   From: 2010.05.17/outbox.cif.g08.bks.cpg/sg59_3_cif.got.tgz:5918.got - 2010.06.03 14:40:33.
