data_PCOD9446824
_publ_section_title
;
Structure prediction by ZEFSAII (Michael W. Deem and Ramdas Pophale) SiO2 
 PCOD9446824
Probable space group: P M M N
;
_chemical_formula_sum "Si O2"
_cell_formula_units_Z 64
_cell_length_a 30.156805
_cell_length_b 9.048630
_cell_length_c 15.224720
_cell_angle_alpha 90.000000
_cell_angle_beta 90.000000
_cell_angle_gamma 90.000000
_cell_volume 4154.487649
_symmetry_space_group_name_H-M "P M M N"
_symmetry_group_IT_number 59
_space_group.IT_coordinate_system_code '2'
_symmetry_cell_setting 'orthorhombic'
loop_
_space_group_symop_operation_xyz
x,y,z
1/2-x,1/2-y,z
1/2+x,-y,-z
-x,1/2+y,-z
-x,-y,-z
1/2+x,1/2+y,-z
1/2-x,y,z
x,1/2-y,z
loop_
_atom_site_type_symbol
_atom_site_label
_atom_site_fract_x
_atom_site_fract_y
_atom_site_fract_z
Si Si1 0.110133 0.573136 0.462549
Si Si2 0.061495 0.425541 0.627290
Si Si3 0.199281 0.073361 0.504777
Si Si4 0.124582 0.424028 0.794533
Si Si5 0.537086 0.427695 0.682327
Si Si6 0.698823 0.420523 0.307396
Si Si7 0.971352 0.574012 0.868934
Si Si8 0.440105 0.073326 0.943876
O O1 0.113779 0.750000 0.468004
O O2 0.086984 0.511832 0.550985
O O3 0.158877 0.502530 0.453824
O O4 0.077297 0.534746 0.382503
O O5 0.062669 0.250000 0.606918
O O6 0.086996 0.446125 0.719576
O O7 0.010370 0.471904 0.639975
O O8 0.250000 0.033249 0.478547
O O9 0.195142 0.250000 0.500941
O O10 0.193632 0.018930 0.605296
O O11 0.136119 0.250000 0.793100
O O12 0.166026 0.520533 0.766075
O O13 0.103465 0.461648 0.888235
O O14 0.535406 0.250000 0.692325
O O15 0.541610 0.499828 0.777657
O O16 0.750000 0.430042 0.279981
O O17 0.689008 0.250000 0.330066
O O18 0.973703 0.750000 0.858114
O O19 0.018937 0.511763 0.899864
O O20 0.939745 0.540858 0.952509
O O21 0.448237 0.250000 0.933668
#
# Coordination Sequence:
#
# PCOD9446824 Si02
#       8
#     8   8   8   8   8   8   8   8
#     4  11  22  33  49  71  95 128 164 201 242 282
#     4  10  19  32  48  66  95 135 168 195 228 274
#     4  10  20  34  51  69  92 124 159 196 241 289
#     4  10  18  30  50  70  94 130 162 192 233 283
#     4  10  21  36  49  65  97 135 165 198 243 283
#     4  10  20  32  47  69  97 124 154 198 241 280
#     4  10  19  30  49  73  93 122 162 201 236 274
#     4   9  18  33  49  68  97 126 155 194 240 282
#
# _framework density 15.405028
#
# number of rings (size 3 to 8) (size 9 to 14) (size 15 to 20)
#    0.000    2.000    2.500    1.875    0.000    4.000 
#    0.000    0.000    0.000    0.000    0.000    0.875 
#    0.000    1.000    0.000    0.000    0.000    0.000 
#
# Total GULP energy -357021.665310 kJ/mol
# GULP energy per Si atom -5578.463520 kJ/mol
# Density = 1.536997 g / cm^3
# Si number density = 15.405028 Si / 1000 Ang^3
#
#
#
# Elastic Constant Matrix: (Units=GPa)
#
#
# Indices 1 2 3 4 5 6 
#
# 1 101.6024 42.2431 46.1808 0.0000 0.0000 0.0000
# 2 42.2431 38.1353 31.6407 0.0000 0.0000 0.0000
# 3 46.1808 31.6407 71.5207 0.0000 0.0000 0.0000
# 4 0.0000 0.0000 0.0000 24.0421 0.0000 0.0000
# 5 0.0000 0.0000 0.0000 0.0000 20.2947 0.0000
# 6 0.0000 0.0000 0.0000 0.0000 0.0000 25.4961
#
#
#
# Elastic Compliance Matrix: (Units=1/GPa)
#
#
# Indices 1 2 3 4 5 6 
#
# 1 0.019204 -0.017355 -0.004722 0.000000 0.000000 0.000000
# 2 -0.017355 0.057113 -0.014061 0.000000 0.000000 0.000000
# 3 -0.004722 -0.014061 0.023252 0.000000 0.000000 0.000000
# 4 0.000000 0.000000 0.000000 0.041594 0.000000 0.000000
# 5 0.000000 0.000000 0.000000 0.000000 0.049274 0.000000
# 6 0.000000 0.000000 0.000000 0.000000 0.000000 0.039222
#
#
# Mechanical properties :
#
#
# Convention : Reuss Voigt Hill
#
# Bulk Modulus (GPa) = 36.63957 50.15418 43.39688
# Shear Modulus (GPa) = 16.07554 20.04616 18.06085
#
# Velocity S-wave (km/s) = 3.23387 3.61123 3.42775
# Velocity P-wave (km/s) = 6.14652 7.07218 6.62553
#
# Compressibility (1/GPa) = 0.02729289
#
# Stress axis : x y z
#
# Youngs Moduli (GPa) = 52.07162 17.50925 43.00753
#
# Poissons Ratio (x) = 0.30387 0.20310
# Poissons Ratio (y) = 0.90369 0.60472
# Poissons Ratio (z) = 0.24591 0.24619
#
# Static dielectric constant tensor:
#      x y z
#    x 1.516810 0.000000 0.000000 
#    y 0.000000 1.516710 0.000000 
#    z 0.000000 0.000000 1.495740 
# 
# From -- ./inp_files/25062.got.cif
#   From: 2010.05.17/outbox.cif.g08.bks.cpg/sg59_13_cif.got.tgz:25062.got - 2010.06.03 14:40:33.
