data_PCOD9446872
_publ_section_title
;
Structure prediction by ZEFSAII (Michael W. Deem and Ramdas Pophale) SiO2 
 PCOD9446872
Probable space group: P M M N
;
_chemical_formula_sum "Si O2"
_cell_formula_units_Z 64
_cell_length_a 8.589981
_cell_length_b 19.951681
_cell_length_c 20.875376
_cell_angle_alpha 90.000000
_cell_angle_beta 90.000000
_cell_angle_gamma 90.000000
_cell_volume 3577.717145
_symmetry_space_group_name_H-M "P M M N"
_symmetry_group_IT_number 59
_space_group.IT_coordinate_system_code '2'
_symmetry_cell_setting 'orthorhombic'
loop_
_space_group_symop_operation_xyz
x,y,z
1/2-x,1/2-y,z
1/2+x,-y,-z
-x,1/2+y,-z
-x,-y,-z
1/2+x,1/2+y,-z
1/2-x,y,z
x,1/2-y,z
loop_
_atom_site_type_symbol
_atom_site_label
_atom_site_fract_x
_atom_site_fract_y
_atom_site_fract_z
Si Si1 0.936618 0.923334 0.293100
Si Si2 0.562674 0.453650 0.845613
Si Si3 0.061845 0.574230 0.513977
Si Si4 0.438280 0.672713 0.400107
Si Si5 0.564045 0.824880 0.760498
Si Si6 0.062967 0.602253 0.879377
Si Si7 0.562644 0.426175 0.983527
Si Si8 0.062392 0.929647 0.658360
O O1 0.750000 0.920701 0.293951
O O2 0.994637 0.925192 0.220046
O O3 0.003285 0.863528 0.335932
O O4 0.986308 0.994195 0.325376
O O5 0.750000 0.454909 0.841369
O O6 0.503356 0.529847 0.856920
O O7 0.514806 0.413026 0.910192
O O8 0.250000 0.572295 0.512236
O O9 0.009173 0.627518 0.460662
O O10 0.014315 0.590650 0.586714
O O11 0.000000 0.500000 0.500000
O O12 0.250000 0.672179 0.399937
O O13 0.489324 0.750000 0.404736
O O14 0.750000 0.827852 0.762364
O O15 0.514868 0.750000 0.741856
O O16 0.499111 0.843537 0.830102
O O17 0.503150 0.879469 0.710743
O O18 0.250000 0.598619 0.875712
O O19 0.016294 0.615481 0.953482
O O20 0.750000 0.427968 0.983027
O O21 0.500000 0.500000 0.000000
O O22 0.250000 0.928127 0.661721
#
# Coordination Sequence:
#
# PCOD9446872 Si02
#       8
#     8   8   8   8   8   8   8   8
#     4  11  21  34  55  84 114 145 183 226 272 327
#     4  10  18  30  51  79 109 142 178 224 274 320
#     4  10  20  36  59  85 111 142 181 224 270 324
#     4  10  22  39  59  84 112 145 184 224 272 330
#     4  11  24  38  52  75 108 147 190 231 275 331
#     4  10  18  31  51  75 105 140 179 225 274 328
#     4   8  16  28  45  73 105 134 171 217 268 320
#     4  10  21  36  56  82 110 142 182 227 274 327
#
# _framework density 17.888501000000002
#
# number of rings (size 3 to 8) (size 9 to 14) (size 15 to 20)
#    0.000    2.000    2.500    1.500    0.000    3.750 
#    0.000    1.250    0.000    0.750    0.000    1.750 
#    0.000    0.000    0.000    0.000    0.000    0.000 
#
# Total GULP energy -356945.387696 kJ/mol
# GULP energy per Si atom -5577.271683 kJ/mol
# Density = 1.784779 g / cm^3
# Si number density = 17.888501 Si / 1000 Ang^3
#
#
#
# Elastic Constant Matrix: (Units=GPa)
#
#
# Indices 1 2 3 4 5 6 
#
# 1 13.3482 21.2664 23.1896 0.0000 0.0000 0.0000
# 2 21.2664 105.6906 60.2587 0.0000 0.0000 0.0000
# 3 23.1896 60.2587 158.8105 0.0000 0.0000 0.0000
# 4 0.0000 0.0000 0.0000 21.2316 0.0000 0.0000
# 5 0.0000 0.0000 0.0000 0.0000 23.1067 0.0000
# 6 0.0000 0.0000 0.0000 0.0000 0.0000 19.7205
#
#
#
# Elastic Compliance Matrix: (Units=1/GPa)
#
#
# Indices 1 2 3 4 5 6 
#
# 1 0.123680 -0.018617 -0.010996 0.000000 0.000000 0.000000
# 2 -0.018617 0.014876 -0.002926 0.000000 0.000000 0.000000
# 3 -0.010996 -0.002926 0.009013 0.000000 0.000000 0.000000
# 4 0.000000 0.000000 0.000000 0.047100 0.000000 0.000000
# 5 0.000000 0.000000 0.000000 0.000000 0.043277 0.000000
# 6 0.000000 0.000000 0.000000 0.000000 0.000000 0.050709
#
#
# Mechanical properties :
#
#
# Convention : Reuss Voigt Hill
#
# Bulk Modulus (GPa) = 12.12252 54.14206 33.13229
# Shear Modulus (GPa) = 13.11549 24.35409 18.73479
#
# Velocity S-wave (km/s) = 2.71067 3.69377 3.23973
# Velocity P-wave (km/s) = 4.07288 6.96592 5.70580
#
# Compressibility (1/GPa) = 0.08249112
#
# Stress axis : x y z
#
# Youngs Moduli (GPa) = 8.08537 67.22345 110.95500
#
# Poissons Ratio (x) = 1.25149 1.22005
# Poissons Ratio (y) = 0.15052 0.32465
# Poissons Ratio (z) = 0.08891 0.19669
#
# Static dielectric constant tensor:
#      x y z
#    x 1.604430 0.000000 0.000000 
#    y 0.000000 1.588160 0.000000 
#    z 0.000000 0.000000 1.643800 
# 
# From -- ./inp_files/29413.got.cif
#   From: 2010.05.17/outbox.cif.g08.bks.cpg/sg59_15_cif.got.tgz:29413.got - 2010.06.03 14:40:33.
