data_PCOD9446424
_publ_section_title
;
Structure prediction by ZEFSAII (Michael W. Deem and Ramdas Pophale) SiO2 
 PCOD9446424
Probable space group: P M M N
;
_chemical_formula_sum "Si O2"
_cell_formula_units_Z 56
_cell_length_a 7.647689
_cell_length_b 27.604390
_cell_length_c 15.123971
_cell_angle_alpha 90.000000
_cell_angle_beta 90.000000
_cell_angle_gamma 90.000000
_cell_volume 3192.818338
_symmetry_space_group_name_H-M "P M M N"
_symmetry_group_IT_number 59
_space_group.IT_coordinate_system_code '2'
_symmetry_cell_setting 'orthorhombic'
loop_
_space_group_symop_operation_xyz
x,y,z
1/2-x,1/2-y,z
1/2+x,-y,-z
-x,1/2+y,-z
-x,-y,-z
1/2+x,1/2+y,-z
1/2-x,y,z
x,1/2-y,z
loop_
_atom_site_type_symbol
_atom_site_label
_atom_site_fract_x
_atom_site_fract_y
_atom_site_fract_z
Si Si1 0.540749 0.931950 0.571297
Si Si2 0.957756 0.384131 0.979741
Si Si3 0.040255 0.436327 0.813647
Si Si4 0.461154 0.042676 0.619052
Si Si5 0.958250 0.695583 0.879980
Si Si6 0.044141 0.963195 0.886526
Si Si7 0.537241 0.616446 0.743032
O O1 0.750000 0.926376 0.566285
O O2 0.472442 0.931894 0.470804
O O3 0.476839 0.893002 0.642963
O O4 0.505391 0.985819 0.609252
O O5 0.750000 0.385680 0.988259
O O6 0.003110 0.391374 0.877554
O O7 0.032363 0.430571 0.034373
O O8 0.014468 0.336170 0.031685
O O9 0.250000 0.441459 0.808290
O O10 0.975358 0.436627 0.712736
O O11 0.968472 0.484501 0.862906
O O12 0.250000 0.046033 0.618358
O O13 0.750000 0.699081 0.868087
O O14 0.029575 0.750000 0.884921
O O15 0.024770 0.663491 0.797209
O O16 0.250000 0.969981 0.904881
O O17 0.023178 0.929397 0.800793
O O18 0.750000 0.616648 0.743786
#
# Coordination Sequence:
#
# PCOD9446424 Si02
#       7
#     8   8   8   8   8   8   8
#     4   9  16  26  40  61  86 114 147 181 215 248
#     4  10  20  30  43  63  86 111 143 183 222 256
#     4  10  18  28  41  58  85 121 154 179 209 253
#     4   9  17  27  40  58  85 120 152 179 209 248
#     4   9  18  33  50  66  85 110 139 173 218 272
#     4   9  17  28  40  58  85 117 148 177 210 253
#     4   9  16  26  43  65  87 111 142 179 218 259
#
# _framework density 17.539362000000001
#
# number of rings (size 3 to 8) (size 9 to 14) (size 15 to 20)
#    0.000    2.714    1.429    0.857    0.000    2.000 
#    0.000    0.000    0.000    0.000    0.000    1.000 
#    0.000    5.714    0.000    0.143    0.000    0.429 
#
# Total GULP energy -312010.806874 kJ/mol
# GULP energy per Si atom -5571.621551 kJ/mol
# Density = 1.749944 g / cm^3
# Si number density = 17.539362 Si / 1000 Ang^3
#
#
#
# Elastic Constant Matrix: (Units=GPa)
#
#
# Indices 1 2 3 4 5 6 
#
# 1 32.3969 0.6274 -4.6796 0.0000 0.0000 0.0000
# 2 0.6274 94.8273 74.7325 0.0000 0.0000 0.0000
# 3 -4.6796 74.7325 127.8217 0.0000 0.0000 0.0000
# 4 0.0000 0.0000 0.0000 9.3457 0.0000 0.0000
# 5 0.0000 0.0000 0.0000 0.0000 2.0078 0.0000
# 6 0.0000 0.0000 0.0000 0.0000 0.0000 11.3887
#
#
#
# Elastic Compliance Matrix: (Units=1/GPa)
#
#
# Indices 1 2 3 4 5 6 
#
# 1 0.031246 -0.002055 0.002345 0.000000 0.000000 0.000000
# 2 -0.002055 0.019692 -0.011588 0.000000 0.000000 0.000000
# 3 0.002345 -0.011588 0.014684 0.000000 0.000000 0.000000
# 4 0.000000 0.000000 0.000000 0.107001 0.000000 0.000000
# 5 0.000000 0.000000 0.000000 0.000000 0.498062 0.000000
# 6 0.000000 0.000000 0.000000 0.000000 0.000000 0.087807
#
#
# Mechanical properties :
#
#
# Convention : Reuss Voigt Hill
#
# Bulk Modulus (GPa) = 23.24173 44.04518 33.64345
# Shear Modulus (GPa) = 6.28591 16.83946 11.56269
#
# Velocity S-wave (km/s) = 1.89517 3.10190 2.57036
# Velocity P-wave (km/s) = 4.25075 6.16407 5.29455
#
# Compressibility (1/GPa) = 0.04302605
#
# Stress axis : x y z
#
# Youngs Moduli (GPa) = 32.00437 50.78302 68.09927
#
# Poissons Ratio (x) = 0.10437 -0.15973
# Poissons Ratio (y) = 0.06577 0.78915
# Poissons Ratio (z) = -0.07507 0.58848
#
# Static dielectric constant tensor:
#      x y z
#    x 1.633730 0.000000 0.000000 
#    y 0.000000 1.582600 0.000000 
#    z 0.000000 0.000000 1.659010 
# 
# From -- ./inp_files/21764.got.cif
#   From: 2010.05.17/outbox.cif.g08.bks.cpg/sg59_11_cif.got.tgz:21764.got - 2010.06.03 14:40:33.
