data_PCOD9446085
_publ_section_title
;
Structure prediction by ZEFSAII (Michael W. Deem and Ramdas Pophale) SiO2 
 PCOD9446085
Probable space group: P N N M
;
_chemical_formula_sum "Si O2"
_cell_formula_units_Z 64
_cell_length_a 12.000000
_cell_length_b 15.000000
_cell_length_c 18.000000
_cell_angle_alpha 90.000000
_cell_angle_beta 90.000000
_cell_angle_gamma 90.000000
_cell_volume 3240.000000
_symmetry_space_group_name_H-M "P N N M"
_symmetry_group_IT_number 58
_symmetry_cell_setting 'orthorhombic'
loop_
_space_group_symop_operation_xyz
x,y,z
-x,-y,z
1/2+x,1/2-y,1/2-z
1/2-x,1/2+y,1/2-z
-x,-y,-z
x,y,-z
1/2-x,1/2+y,1/2+z
1/2+x,1/2-y,1/2+z
loop_
_atom_site_type_symbol
_atom_site_label
_atom_site_fract_x
_atom_site_fract_y
_atom_site_fract_z
Si Si1 0.476600 0.391678 0.697737
Si Si2 0.152336 0.239442 0.414991
Si Si3 0.567141 0.713110 0.152430
Si Si4 0.474210 0.763078 0.585388
Si Si5 0.707575 0.102375 0.355282
Si Si6 0.900956 0.423364 0.307982
Si Si7 0.782701 0.590312 0.321006
Si Si8 0.668685 0.895573 0.362075
O O1 0.500000 0.500000 0.704236
O O2 0.486500 0.334151 0.774030
O O3 0.531581 0.326051 0.636371
O O4 0.346942 0.389246 0.676829
O O5 0.191568 0.246790 0.500000
O O6 0.161970 0.334507 0.372557
O O7 0.220837 0.163514 0.371290
O O8 0.024510 0.210691 0.411226
O O9 0.672270 0.649407 0.137036
O O10 0.590556 0.820697 0.162992
O O11 0.473713 0.735552 0.500000
O O12 0.374319 0.829569 0.605051
O O13 0.579362 0.830031 0.598833
O O14 0.682391 0.101461 0.265932
O O15 0.691800 0.999794 0.383918
O O16 0.803427 0.486464 0.341084
O O17 0.875248 0.406177 0.221692
O O18 0.000000 0.500000 0.315216
#
# Coordination Sequence:
#
# PCOD9446085 Si02
#       8
#     8   8   8   8   8   8   8   8
#     4  11  25  41  69 100 128 169 215 276 337 383
#     4  12  25  42  65  93 139 182 215 264 327 402
#     4  11  24  43  66  98 132 169 223 274 320 390
#     4  12  24  42  66  96 136 175 215 269 332 403
#     4  10  24  41  67  97 128 172 221 280 324 378
#     4  11  20  39  70 101 124 163 218 282 321 375
#     4  10  21  41  66  98 126 168 222 272 321 390
#     4  11  22  40  65  96 128 170 222 266 332 389
#
# _framework density 19.753086
#
# number of rings (size 3 to 8) (size 9 to 14) (size 15 to 20)
#    0.000    1.000    3.750    3.750    7.000    2.250 
#    0.000    1.875    0.000    0.000    0.000    0.000 
#    0.000    0.000    0.000    0.000    0.000    0.000 
#
# Total GULP energy -356482.505111 kJ/mol
# GULP energy per Si atom -5570.039142 kJ/mol
# Density = 1.970813 g / cm^3
# Si number density = 19.753086 Si / 1000 Ang^3
#
#
#
# Elastic Constant Matrix: (Units=GPa)
#
#
# Indices 1 2 3 4 5 6 
#
# 1 51.3741 3.2823 18.3083 0.0000 0.0000 0.0000
# 2 3.2823 157.1135 28.9910 0.0000 0.0000 0.0000
# 3 18.3083 28.9910 24.9254 0.0000 0.0000 0.0000
# 4 0.0000 0.0000 0.0000 12.7975 0.0000 0.0000
# 5 0.0000 0.0000 0.0000 0.0000 51.8567 0.0000
# 6 0.0000 0.0000 0.0000 0.0000 0.0000 42.3869
#
#
#
# Elastic Compliance Matrix: (Units=1/GPa)
#
#
# Indices 1 2 3 4 5 6 
#
# 1 0.028331 0.004136 -0.025620 0.000000 0.000000 0.000000
# 2 0.004136 0.008708 -0.013166 0.000000 0.000000 0.000000
# 3 -0.025620 -0.013166 0.074251 0.000000 0.000000 0.000000
# 4 0.000000 0.000000 0.000000 0.078140 0.000000 0.000000
# 5 0.000000 0.000000 0.000000 0.000000 0.019284 0.000000
# 6 0.000000 0.000000 0.000000 0.000000 0.000000 0.023592
#
#
# Mechanical properties :
#
#
# Convention : Reuss Voigt Hill
#
# Bulk Modulus (GPa) = 23.81525 37.17511 30.49518
# Shear Modulus (GPa) = 15.84269 33.59698 24.71983
#
# Velocity S-wave (km/s) = 2.83510 4.12861 3.54141
# Velocity P-wave (km/s) = 4.77490 6.44887 5.67396
#
# Compressibility (1/GPa) = 0.04198991
#
# Stress axis : x y z
#
# Youngs Moduli (GPa) = 35.29701 114.83937 13.46779
#
# Poissons Ratio (x) = -0.47493 0.34504
# Poissons Ratio (y) = -0.14597 0.17731
# Poissons Ratio (z) = 0.90430 1.51195
#
# Static dielectric constant tensor:
#      x y z
#    x 1.903290 0.000000 0.000000 
#    y 0.000000 1.689050 0.000000 
#    z 0.000000 0.000000 1.702350 
# 
# From -- ./inp_files/26386.got.cif
#   From: 2010.05.17/outbox.ucp.g08.bks.cvg/sg58_14_cif.got.tgz:26386.got - 2010.06.11 16:41:41.
