data_PCOD9446257
_publ_section_title
;
Structure prediction by ZEFSAII (Michael W. Deem and Ramdas Pophale) SiO2 
 PCOD9446257
Probable space group: P M M N
;
_chemical_formula_sum "Si O2"
_cell_formula_units_Z 48
_cell_length_a 15.875095
_cell_length_b 27.177781
_cell_length_c 5.438571
_cell_angle_alpha 90.000000
_cell_angle_beta 90.000000
_cell_angle_gamma 90.000000
_cell_volume 2346.470671
_symmetry_space_group_name_H-M "P M M N"
_symmetry_group_IT_number 59
_space_group.IT_coordinate_system_code '2'
_symmetry_cell_setting 'orthorhombic'
loop_
_space_group_symop_operation_xyz
x,y,z
1/2-x,1/2-y,z
1/2+x,-y,-z
-x,1/2+y,-z
-x,-y,-z
1/2+x,1/2+y,-z
1/2-x,y,z
x,1/2-y,z
loop_
_atom_site_type_symbol
_atom_site_label
_atom_site_fract_x
_atom_site_fract_y
_atom_site_fract_z
Si Si1 0.105595 0.436852 0.250000
Si Si2 0.434205 0.953695 0.250000
Si Si3 0.850217 0.085629 0.250000
Si Si4 0.513225 0.160665 0.250000
Si Si5 0.123880 0.090004 0.750000
Si Si6 0.064666 0.195533 0.750000
O O1 0.054778 0.487597 0.250000
O O2 0.156580 0.432760 0.500169
O O3 0.045617 0.388660 0.249999
O O4 0.156580 0.432760 0.999830
O O5 0.384396 0.939210 0.498116
O O6 0.523880 0.925753 0.250001
O O7 0.384396 0.939210 0.001885
O O8 0.750000 0.086045 0.250000
O O9 0.892670 0.139810 0.250000
O O10 0.489588 0.188636 0.500561
O O11 0.489588 0.188636 0.999438
O O12 0.127996 0.149022 0.750000
O O13 0.102690 0.250000 0.750000
#
# Coordination Sequence:
#
# PCOD9446257 Si02
#       6
#     8   8   8   8   8   8
#     4  10  18  28  51  71  94 109 144 204 223 272
#     4  12  19  33  49  70  90 119 155 194 229 272
#     4  12  23  34  47  64  94 127 159 195 231 273
#     4  10  19  34  46  71  88 117 159 190 234 274
#     4  10  17  29  45  73  92 111 148 185 236 279
#     4  10  18  30  49  66  89 118 151 193 236 285
#
# _framework density 20.456254000000001
#
# number of rings (size 3 to 8) (size 9 to 14) (size 15 to 20)
#    0.000    1.333    6.667    3.000    0.000    0.000 
#    0.000    0.000    0.000    3.000    0.000    0.000 
#    0.000    0.000    0.000    0.000    0.000  933.333 
#
# Total GULP energy -267967.061748 kJ/mol
# GULP energy per Si atom -5582.647120 kJ/mol
# Density = 2.040969 g / cm^3
# Si number density = 20.456254 Si / 1000 Ang^3
#
#
#
# Elastic Constant Matrix: (Units=GPa)
#
#
# Indices 1 2 3 4 5 6 
#
# 1 78.4566 -21.7925 9.3248 0.0000 0.0000 0.0000
# 2 -21.7925 87.6660 2.6507 0.0000 0.0000 0.0000
# 3 9.3248 2.6507 203.2546 0.0000 0.0000 0.0000
# 4 0.0000 0.0000 0.0000 16.9006 0.0000 0.0000
# 5 0.0000 0.0000 0.0000 0.0000 -26.2329 0.0000
# 6 0.0000 0.0000 0.0000 0.0000 0.0000 -2.1994
#
#
#
# Elastic Compliance Matrix: (Units=1/GPa)
#
#
# Indices 1 2 3 4 5 6 
#
# 1 0.013784 0.003447 -0.000677 0.000000 0.000000 0.000000
# 2 0.003447 0.012273 -0.000318 0.000000 0.000000 0.000000
# 3 -0.000677 -0.000318 0.004955 0.000000 0.000000 0.000000
# 4 0.000000 0.000000 0.000000 0.059170 0.000000 0.000000
# 5 0.000000 0.000000 0.000000 0.000000 -0.038120 0.000000
# 6 0.000000 0.000000 0.000000 0.000000 0.000000 -0.454668
#
#
# Mechanical properties :
#
#
# Convention : Reuss Voigt Hill
#
# Bulk Modulus (GPa) = 27.84333 38.86035 33.35184
# Shear Modulus (GPa) = -12.64104 22.97327 5.16612
#
# Velocity S-wave (km/s) = -2.48857 3.35482 1.59089
# Velocity P-wave (km/s) = 2.32022 5.83476 4.44004
#
# Compressibility (1/GPa) = 0.03591525
#
# Stress axis : x y z
#
# Youngs Moduli (GPa) = 72.54876 81.47696 201.80975
#
# Poissons Ratio (x) = -0.28085 0.13669
# Poissons Ratio (y) = -0.25007 0.06422
# Poissons Ratio (z) = 0.04914 0.02593
#
# Static dielectric constant tensor:
#      x y z
#    x 1.715570 0.000000 0.000000 
#    y 0.000000 1.724790 0.000000 
#    z 0.000000 0.000000 1.841870 
# 
# From -- ./inp_files/2927.got.cif
#   From: 2010.05.17/outbox.cif.g08.bks.cpg/sg59_2_cif.got.tgz:2927.got - 2010.06.03 14:40:33.
