data_PCOD9446656
_publ_section_title
;
Structure prediction by ZEFSAII (Michael W. Deem and Ramdas Pophale) SiO2 
 PCOD9446656
Probable space group: P M M N
;
_chemical_formula_sum "Si O2"
_cell_formula_units_Z 56
_cell_length_a 14.581638
_cell_length_b 7.383289
_cell_length_c 24.045526
_cell_angle_alpha 90.000000
_cell_angle_beta 90.000000
_cell_angle_gamma 90.000000
_cell_volume 2588.752088
_symmetry_space_group_name_H-M "P M M N"
_symmetry_group_IT_number 59
_space_group.IT_coordinate_system_code '2'
_symmetry_cell_setting 'orthorhombic'
loop_
_space_group_symop_operation_xyz
x,y,z
1/2-x,1/2-y,z
1/2+x,-y,-z
-x,1/2+y,-z
-x,-y,-z
1/2+x,1/2+y,-z
1/2-x,y,z
x,1/2-y,z
loop_
_atom_site_type_symbol
_atom_site_label
_atom_site_fract_x
_atom_site_fract_y
_atom_site_fract_z
Si Si1 0.057759 0.964460 0.365130
Si Si2 0.855170 0.971460 0.082997
Si Si3 0.644196 0.472163 0.750336
Si Si4 0.856888 0.968363 0.958097
Si Si5 0.976951 0.042676 0.852057
Si Si6 0.604970 0.034903 0.516340
Si Si7 0.151972 0.968515 0.603647
O O1 0.074890 0.750000 0.365757
O O2 0.098834 0.032634 0.307538
O O3 0.108849 0.037186 0.420695
O O4 0.947111 0.983942 0.370540
O O5 0.750000 0.025173 0.091871
O O6 0.857083 0.750000 0.082881
O O7 0.926150 0.037934 0.128990
O O8 0.883764 0.026936 0.020441
O O9 0.750000 0.528257 0.755033
O O10 0.644680 0.250000 0.751194
O O11 0.582914 0.535838 0.802195
O O12 0.750000 0.016945 0.950485
O O13 0.862972 0.750000 0.956148
O O14 0.916966 0.042231 0.908224
O O15 0.995995 0.250000 0.835592
O O16 0.624555 0.250000 0.519005
O O17 0.653118 0.966139 0.460680
O O18 0.500000 0.000000 0.500000
O O19 0.250000 0.025484 0.629662
O O20 0.151478 0.750000 0.602576
#
# Coordination Sequence:
#
# PCOD9446656 Si02
#       7
#     8   8   8   8   8   8   8
#     4   9  17  30  47  66  90 122 157 189 221 262
#     4   8  15  28  45  66  92 120 149 182 223 270
#     4   9  18  31  46  67  94 119 146 185 228 265
#     4   9  17  29  45  66  93 122 149 181 225 272
#     4  10  18  29  48  70  91 118 152 188 223 260
#     4   8  14  25  42  63  86 113 146 181 217 259
#     4   9  17  29  46  69  95 120 147 184 231 277
#
# _framework density 21.632044
#
# number of rings (size 3 to 8) (size 9 to 14) (size 15 to 20)
#    0.000    3.143    0.000    1.714    0.000    1.714 
#    0.000    4.286    0.000    5.143    0.000    4.000 
#    0.000    0.000    0.000    0.000    0.000    0.000 
#
# Total GULP energy -312142.603156 kJ/mol
# GULP energy per Si atom -5573.975056 kJ/mol
# Density = 2.158281 g / cm^3
# Si number density = 21.632044 Si / 1000 Ang^3
#
#
#
# Elastic Constant Matrix: (Units=GPa)
#
#
# Indices 1 2 3 4 5 6 
#
# 1 105.6120 -5.0184 86.6828 0.0000 0.0000 0.0000
# 2 -5.0184 75.4465 3.7892 0.0000 0.0000 0.0000
# 3 86.6828 3.7892 154.9221 0.0000 0.0000 0.0000
# 4 0.0000 0.0000 0.0000 7.1097 0.0000 0.0000
# 5 0.0000 0.0000 0.0000 0.0000 27.7662 0.0000
# 6 0.0000 0.0000 0.0000 0.0000 0.0000 1.3560
#
#
#
# Elastic Compliance Matrix: (Units=1/GPa)
#
#
# Indices 1 2 3 4 5 6 
#
# 1 0.017720 0.001679 -0.009956 0.000000 0.000000 0.000000
# 2 0.001679 0.013430 -0.001268 0.000000 0.000000 0.000000
# 3 -0.009956 -0.001268 0.012056 0.000000 0.000000 0.000000
# 4 0.000000 0.000000 0.000000 0.140653 0.000000 0.000000
# 5 0.000000 0.000000 0.000000 0.000000 0.036015 0.000000
# 6 0.000000 0.000000 0.000000 0.000000 0.000000 0.737456
#
#
# Mechanical properties :
#
#
# Convention : Reuss Voigt Hill
#
# Bulk Modulus (GPa) = 41.46580 56.32087 48.89334
# Shear Modulus (GPa) = 5.07894 23.94818 14.51356
#
# Velocity S-wave (km/s) = 1.53394 3.33088 2.59304
# Velocity P-wave (km/s) = 4.72733 6.39416 5.62285
#
# Compressibility (1/GPa) = 0.02411626
#
# Stress axis : x y z
#
# Youngs Moduli (GPa) = 56.43455 74.46155 82.94422
#
# Poissons Ratio (x) = -0.12499 0.82576
# Poissons Ratio (y) = -0.09473 0.10515
# Poissons Ratio (z) = 0.56184 0.09440
#
# Static dielectric constant tensor:
#      x y z
#    x 1.794080 0.000000 0.000000 
#    y 0.000000 1.840020 0.000000 
#    z 0.000000 0.000000 1.774220 
# 
# From -- ./inp_files/30407.got.cif
#   From: 2010.05.17/outbox.cif.g08.bks.cpg/sg59_16_cif.got.tgz:30407.got - 2010.06.03 14:40:33.
