data_PCOD9446225
_publ_section_title
;
Structure prediction by ZEFSAII (Michael W. Deem and Ramdas Pophale) SiO2 
 PCOD9446225
Probable space group: P M M N
;
_chemical_formula_sum "Si O2"
_cell_formula_units_Z 48
_cell_length_a 8.766889
_cell_length_b 21.868597
_cell_length_c 15.745317
_cell_angle_alpha 90.000000
_cell_angle_beta 90.000000
_cell_angle_gamma 90.000000
_cell_volume 3018.685286
_symmetry_space_group_name_H-M "P M M N"
_symmetry_group_IT_number 59
_space_group.IT_coordinate_system_code '2'
_symmetry_cell_setting 'orthorhombic'
loop_
_space_group_symop_operation_xyz
x,y,z
1/2-x,1/2-y,z
1/2+x,-y,-z
-x,1/2+y,-z
-x,-y,-z
1/2+x,1/2+y,-z
1/2-x,y,z
x,1/2-y,z
loop_
_atom_site_type_symbol
_atom_site_label
_atom_site_fract_x
_atom_site_fract_y
_atom_site_fract_z
Si Si1 0.432692 0.821280 0.692715
Si Si2 0.432293 0.089313 0.445409
Si Si3 0.933628 0.903969 0.839079
Si Si4 0.432165 0.952118 0.382133
Si Si5 0.066589 0.038626 0.797540
Si Si6 0.066851 0.066596 0.979343
O O1 0.250000 0.826601 0.694488
O O2 0.474209 0.750000 0.689375
O O3 0.496182 0.858040 0.611917
O O4 0.500840 0.853725 0.775946
O O5 0.250000 0.094947 0.447215
O O6 0.497723 0.086106 0.540419
O O7 0.469648 0.023443 0.402574
O O8 0.750000 0.906344 0.831220
O O9 0.975815 0.893377 0.938445
O O10 0.999978 0.970314 0.812432
O O11 0.250000 0.946258 0.381691
O O12 0.500218 0.937034 0.290447
O O13 0.250000 0.034752 0.792359
O O14 0.023319 0.078097 0.881475
O O15 0.250000 0.062744 0.980389
O O16 0.000000 0.000000 0.000000
#
# Coordination Sequence:
#
# PCOD9446225 Si02
#       6
#     8   8   8   8   8   8
#     4  11  23  36  50  69  95 128 164 202 243 287
#     4  10  20  33  49  69  94 126 161 200 242 289
#     4  10  18  30  46  66  94 126 161 198 234 279
#     4  10  19  30  47  71  99 128 158 196 242 294
#     4  10  17  27  45  69  98 129 157 190 235 287
#     4   8  16  27  41  64  93 124 155 187 227 274
#
# _framework density 15.900963000000001
#
# number of rings (size 3 to 8) (size 9 to 14) (size 15 to 20)
#    0.000    2.167    1.667    2.500    0.000    4.000 
#    0.000    0.000    0.000    0.000    0.000    1.167 
#    0.000    6.667    0.000    0.000    0.000    0.000 
#
# Total GULP energy -267522.824675 kJ/mol
# GULP energy per Si atom -5573.392181 kJ/mol
# Density = 1.586477 g / cm^3
# Si number density = 15.900963 Si / 1000 Ang^3
#
#
#
# Elastic Constant Matrix: (Units=GPa)
#
#
# Indices 1 2 3 4 5 6 
#
# 1 41.2722 30.7598 50.2338 0.0000 0.0000 0.0000
# 2 30.7598 66.3471 59.0008 0.0000 0.0000 0.0000
# 3 50.2338 59.0008 194.3100 0.0000 0.0000 0.0000
# 4 0.0000 0.0000 0.0000 14.1085 0.0000 0.0000
# 5 0.0000 0.0000 0.0000 0.0000 27.6669 0.0000
# 6 0.0000 0.0000 0.0000 0.0000 0.0000 16.2778
#
#
#
# Elastic Compliance Matrix: (Units=1/GPa)
#
#
# Indices 1 2 3 4 5 6 
#
# 1 0.042880 -0.013729 -0.006917 0.000000 0.000000 0.000000
# 2 -0.013729 0.025043 -0.004055 0.000000 0.000000 0.000000
# 3 -0.006917 -0.004055 0.008166 0.000000 0.000000 0.000000
# 4 0.000000 0.000000 0.000000 0.070879 0.000000 0.000000
# 5 0.000000 0.000000 0.000000 0.000000 0.036144 0.000000
# 6 0.000000 0.000000 0.000000 0.000000 0.000000 0.061434
#
#
# Mechanical properties :
#
#
# Convention : Reuss Voigt Hill
#
# Bulk Modulus (GPa) = 37.47055 64.65759 51.06407
# Shear Modulus (GPa) = 16.51013 22.40628 19.45821
#
# Velocity S-wave (km/s) = 3.22578 3.75789 3.50196
# Velocity P-wave (km/s) = 6.12293 7.71880 6.96672
#
# Compressibility (1/GPa) = 0.02668762
#
# Stress axis : x y z
#
# Youngs Moduli (GPa) = 23.32067 39.93091 122.46172
#
# Poissons Ratio (x) = 0.54822 0.84705
# Poissons Ratio (y) = 0.32017 0.49657
# Poissons Ratio (z) = 0.16131 0.16191
#
# Static dielectric constant tensor:
#      x y z
#    x 1.529390 0.000000 0.000000 
#    y 0.000000 1.487130 0.000000 
#    z 0.000000 0.000000 1.576050 
# 
# From -- ./inp_files/20728.got.cif
#   From: 2010.05.17/outbox.cif.g08.bks.cpg/sg59_11_cif.got.tgz:20728.got - 2010.06.03 14:40:33.
