data_PCOD9446121
_publ_section_title
;
Structure prediction by ZEFSAII (Michael W. Deem and Ramdas Pophale) SiO2 
 PCOD9446121
Probable space group: P N N M
;
_chemical_formula_sum "Si O2"
_cell_formula_units_Z 56
_cell_length_a 21.000000
_cell_length_b 15.000000
_cell_length_c 9.000000
_cell_angle_alpha 90.000000
_cell_angle_beta 90.000000
_cell_angle_gamma 90.000000
_cell_volume 2835.000000
_symmetry_space_group_name_H-M "P N N M"
_symmetry_group_IT_number 58
_symmetry_cell_setting 'orthorhombic'
loop_
_space_group_symop_operation_xyz
x,y,z
-x,-y,z
1/2+x,1/2-y,1/2-z
1/2-x,1/2+y,1/2-z
-x,-y,-z
x,y,-z
1/2-x,1/2+y,1/2+z
1/2+x,1/2-y,1/2+z
loop_
_atom_site_type_symbol
_atom_site_label
_atom_site_fract_x
_atom_site_fract_y
_atom_site_fract_z
Si Si1 0.984771 0.789091 0.180289
Si Si2 0.783926 0.200751 0.820617
Si Si3 0.469711 0.909253 0.677605
Si Si4 0.098019 0.900203 0.676234
Si Si5 0.872306 0.894070 0.323591
Si Si6 0.766775 0.391462 0.320406
Si Si7 0.181139 0.426267 0.178009
O O1 0.996116 0.686375 0.228073
O O2 0.918155 0.822632 0.247153
O O3 0.037702 0.853283 0.249596
O O4 0.984270 0.794035 0.000000
O O5 0.840956 0.138508 0.762009
O O6 0.792314 0.298915 0.749645
O O7 0.720879 0.152611 0.756120
O O8 0.782536 0.205416 0.000000
O O9 0.481645 0.910354 0.500000
O O10 0.393880 0.910897 0.697780
O O11 0.500000 0.000000 0.740675
O O12 0.101833 0.879535 0.500000
O O13 0.097246 0.007222 0.689391
O O14 0.862794 0.876003 0.500000
O O15 0.805854 0.895945 0.237013
O O16 0.770538 0.390899 0.500000
O O17 0.800197 0.479220 0.252044
O O18 0.195347 0.428247 0.000000
#
# Coordination Sequence:
#
# PCOD9446121 Si02
#       7
#     8   8   8   8   8   8   8
#     4  11  23  39  65  96 129 172 221 270 325 387
#     4  12  25  42  66  95 130 172 219 271 331 394
#     4   9  21  41  64  92 127 170 215 263 316 381
#     4  11  24  42  64  93 131 170 214 270 330 390
#     4  11  23  42  66  93 130 173 217 265 330 393
#     4  12  25  41  65  96 132 169 216 269 327 393
#     4  11  22  41  68  97 131 170 216 268 325 386
#
# _framework density 19.753086
#
# number of rings (size 3 to 8) (size 9 to 14) (size 15 to 20)
#    0.000    1.000    1.429    5.571    2.000    4.571 
#    0.000    2.143    0.000    3.429    0.000    0.000 
#    0.000    0.000    0.000    0.000    0.000    0.000 
#
# Total GULP energy -313218.842132 kJ/mol
# GULP energy per Si atom -5593.193609 kJ/mol
# Density = 1.970813 g / cm^3
# Si number density = 19.753086 Si / 1000 Ang^3
#
#
#
# Elastic Constant Matrix: (Units=GPa)
#
#
# Indices 1 2 3 4 5 6 
#
# 1 13.8365 4.9674 17.8242 0.0000 0.0000 0.0000
# 2 4.9674 74.6526 23.5999 0.0000 0.0000 0.0000
# 3 17.8242 23.5999 139.8004 0.0000 0.0000 0.0000
# 4 0.0000 0.0000 0.0000 30.9880 0.0000 0.0000
# 5 0.0000 0.0000 0.0000 0.0000 25.7417 0.0000
# 6 0.0000 0.0000 0.0000 0.0000 0.0000 19.2696
#
#
#
# Elastic Compliance Matrix: (Units=1/GPa)
#
#
# Indices 1 2 3 4 5 6 
#
# 1 0.086883 -0.002408 -0.010671 0.000000 0.000000 0.000000
# 2 -0.002408 0.014217 -0.002093 0.000000 0.000000 0.000000
# 3 -0.010671 -0.002093 0.008867 0.000000 0.000000 0.000000
# 4 0.000000 0.000000 0.000000 0.032271 0.000000 0.000000
# 5 0.000000 0.000000 0.000000 0.000000 0.038848 0.000000
# 6 0.000000 0.000000 0.000000 0.000000 0.000000 0.051895
#
#
# Mechanical properties :
#
#
# Convention : Reuss Voigt Hill
#
# Bulk Modulus (GPa) = 12.55910 35.67473 24.11691
# Shear Modulus (GPa) = 17.24940 27.32639 22.28789
#
# Velocity S-wave (km/s) = 2.95829 3.72344 3.36270
# Velocity P-wave (km/s) = 4.24741 6.04854 5.22615
#
# Compressibility (1/GPa) = 0.07962355
#
# Stress axis : x y z
#
# Youngs Moduli (GPa) = 11.50974 70.33698 112.77912
#
# Poissons Ratio (x) = 0.16936 1.20345
# Poissons Ratio (y) = 0.02771 0.23605
# Poissons Ratio (z) = 0.12282 0.14722
#
# Static dielectric constant tensor:
#      x y z
#    x 1.714370 0.000000 0.000000 
#    y 0.000000 1.695700 0.000000 
#    z 0.000000 0.000000 1.654380 
# 
# From -- ./inp_files/8997.got.cif
#   From: 2010.05.17/outbox.ucp.g08.bks.cvg/sg58_5_cif.got.tgz:8997.got - 2010.06.11 16:41:41.
