data_PCOD9446206
_publ_section_title
;
Structure prediction by ZEFSAII (Michael W. Deem and Ramdas Pophale) SiO2 
 PCOD9446206
Probable space group: P M M N
;
_chemical_formula_sum "Si O2"
_cell_formula_units_Z 64
_cell_length_a 7.735778
_cell_length_b 30.898147
_cell_length_c 15.321759
_cell_angle_alpha 90.000000
_cell_angle_beta 90.000000
_cell_angle_gamma 90.000000
_cell_volume 3662.225311
_symmetry_space_group_name_H-M "P M M N"
_symmetry_group_IT_number 59
_space_group.IT_coordinate_system_code '2'
_symmetry_cell_setting 'orthorhombic'
loop_
_space_group_symop_operation_xyz
x,y,z
1/2-x,1/2-y,z
1/2+x,-y,-z
-x,1/2+y,-z
-x,-y,-z
1/2+x,1/2+y,-z
1/2-x,y,z
x,1/2-y,z
loop_
_atom_site_type_symbol
_atom_site_label
_atom_site_fract_x
_atom_site_fract_y
_atom_site_fract_z
Si Si1 0.040422 0.616083 0.698406
Si Si2 0.462132 0.891795 0.042055
Si Si3 0.550458 0.466450 0.832275
Si Si4 0.952139 0.063090 0.135855
Si Si5 0.949721 0.531405 0.364871
Si Si6 0.046755 0.057432 0.451079
Si Si7 0.039539 0.702136 0.790833
Si Si8 0.960688 0.298413 0.005999
O O1 0.250000 0.615079 0.695741
O O2 0.977462 0.582964 0.774017
O O3 0.982557 0.663207 0.729789
O O4 0.977778 0.600265 0.604844
O O5 0.250000 0.890895 0.042530
O O6 0.518264 0.923730 0.119486
O O7 0.518193 0.841638 0.044123
O O8 0.520954 0.914171 0.951309
O O9 0.750000 0.470809 0.857903
O O10 0.466623 0.511446 0.862649
O O11 0.538643 0.463121 0.727880
O O12 0.750000 0.074544 0.136479
O O13 0.750000 0.542779 0.350427
O O14 0.018529 0.557308 0.449348
O O15 0.960700 0.481600 0.396988
O O16 0.250000 0.046771 0.456046
O O17 0.250000 0.701670 0.790333
O O18 0.982538 0.750000 0.764060
O O19 0.990460 0.695446 0.892076
O O20 0.750000 0.297755 0.003399
O O21 0.018271 0.250000 0.978772
#
# Coordination Sequence:
#
# PCOD9446206 Si02
#       8
#     8   8   8   8   8   8   8   8
#     4  10  17  26  45  69  93 122 149 180 219 262
#     4   9  17  28  40  61  92 123 153 185 221 261
#     4  11  21  30  43  63  91 123 155 190 221 255
#     4  10  18  29  43  61  91 126 156 182 213 258
#     4  10  20  34  48  63  85 114 148 186 225 265
#     4  10  20  32  48  67  87 111 144 186 227 269
#     4   8  13  22  39  65  93 119 149 181 215 260
#     4   8  12  21  39  61  86 115 146 181 220 260
#
# _framework density 17.475714
#
# number of rings (size 3 to 8) (size 9 to 14) (size 15 to 20)
#    0.000    2.500    2.500    2.250    0.000    1.500 
#    0.000    0.625    0.000    0.375    0.000    0.875 
#    0.000    9.500    0.000    0.000    0.000    0.000 
#
# Total GULP energy -356757.199132 kJ/mol
# GULP energy per Si atom -5574.331236 kJ/mol
# Density = 1.743594 g / cm^3
# Si number density = 17.475714 Si / 1000 Ang^3
#
#
#
# Elastic Constant Matrix: (Units=GPa)
#
#
# Indices 1 2 3 4 5 6 
#
# 1 23.2929 -6.1279 -1.8574 0.0000 0.0000 0.0000
# 2 -6.1279 132.4354 50.4377 0.0000 0.0000 0.0000
# 3 -1.8574 50.4377 67.1901 0.0000 0.0000 0.0000
# 4 0.0000 0.0000 0.0000 26.7241 0.0000 0.0000
# 5 0.0000 0.0000 0.0000 0.0000 6.3305 0.0000
# 6 0.0000 0.0000 0.0000 0.0000 0.0000 11.3213
#
#
#
# Elastic Compliance Matrix: (Units=1/GPa)
#
#
# Indices 1 2 3 4 5 6 
#
# 1 0.043470 0.002176 -0.000432 0.000000 0.000000 0.000000
# 2 0.002176 0.010683 -0.007959 0.000000 0.000000 0.000000
# 3 -0.000432 -0.007959 0.020846 0.000000 0.000000 0.000000
# 4 0.000000 0.000000 0.000000 0.037419 0.000000 0.000000
# 5 0.000000 0.000000 0.000000 0.000000 0.157964 0.000000
# 6 0.000000 0.000000 0.000000 0.000000 0.000000 0.088329
#
#
# Mechanical properties :
#
#
# Convention : Reuss Voigt Hill
#
# Bulk Modulus (GPa) = 15.98254 34.20257 25.09255
# Shear Modulus (GPa) = 12.75521 20.90626 16.83073
#
# Velocity S-wave (km/s) = 2.70456 3.46251 3.10674
# Velocity P-wave (km/s) = 4.34952 5.96652 5.22100
#
# Compressibility (1/GPa) = 0.06256828
#
# Stress axis : x y z
#
# Youngs Moduli (GPa) = 23.00464 93.60915 47.97111
#
# Poissons Ratio (x) = -0.20367 0.02070
# Poissons Ratio (y) = -0.05005 0.38181
# Poissons Ratio (z) = 0.00993 0.74504
#
# Static dielectric constant tensor:
#      x y z
#    x 1.680520 0.000000 0.000000 
#    y 0.000000 1.606880 0.000000 
#    z 0.000000 0.000000 1.592370 
# 
# From -- ./inp_files/21903.got.cif
#   From: 2010.05.17/outbox.cif.g08.bks.cpg/sg59_11_cif.got.tgz:21903.got - 2010.06.03 14:40:33.
