data_PCOD9446905
_publ_section_title
;
Structure prediction by ZEFSAII (Michael W. Deem and Ramdas Pophale) SiO2 
 PCOD9446905
Probable space group: P M M N
;
_chemical_formula_sum "Si O2"
_cell_formula_units_Z 64
_cell_length_a 8.666877
_cell_length_b 24.032694
_cell_length_c 19.717197
_cell_angle_alpha 90.000000
_cell_angle_beta 90.000000
_cell_angle_gamma 90.000000
_cell_volume 4106.863472
_symmetry_space_group_name_H-M "P M M N"
_symmetry_group_IT_number 59
_space_group.IT_coordinate_system_code '2'
_symmetry_cell_setting 'orthorhombic'
loop_
_space_group_symop_operation_xyz
x,y,z
1/2-x,1/2-y,z
1/2+x,-y,-z
-x,1/2+y,-z
-x,-y,-z
1/2+x,1/2+y,-z
1/2-x,y,z
x,1/2-y,z
loop_
_atom_site_type_symbol
_atom_site_label
_atom_site_fract_x
_atom_site_fract_y
_atom_site_fract_z
Si Si1 0.563991 0.024132 0.101337
Si Si2 0.436049 0.001432 0.748833
Si Si3 0.565197 0.314074 0.890652
Si Si4 0.938086 0.687045 0.388489
Si Si5 0.436486 0.415595 0.524947
Si Si6 0.065471 0.020728 0.393909
Si Si7 0.936599 0.631442 0.246092
Si Si8 0.565780 0.911400 0.021644
O O1 0.750000 0.028186 0.097597
O O2 0.516824 0.025686 0.179783
O O3 0.521543 0.963366 0.070785
O O4 0.491289 0.070079 0.052391
O O5 0.250000 0.000488 0.745357
O O6 0.501950 0.973462 0.681577
O O7 0.482713 0.066623 0.750477
O O8 0.750000 0.315226 0.889919
O O9 0.514316 0.250000 0.898987
O O10 0.503671 0.338460 0.819606
O O11 0.505418 0.355189 0.949103
O O12 0.750000 0.687996 0.388894
O O13 0.992733 0.750000 0.397232
O O14 0.986917 0.643953 0.446654
O O15 0.983030 0.662313 0.315319
O O16 0.250000 0.418150 0.529094
O O17 0.481086 0.431981 0.448411
O O18 0.501363 0.463399 0.574216
O O19 0.250000 0.018223 0.392105
O O20 0.750000 0.632864 0.241288
O O21 0.750000 0.907138 0.022881
#
# Coordination Sequence:
#
# PCOD9446905 Si02
#       8
#     8   8   8   8   8   8   8   8
#     4   9  18  32  49  70  95 123 154 191 242 289
#     4  10  18  31  49  69  96 126 153 188 232 283
#     4  11  23  35  47  67  98 133 164 196 233 274
#     4   9  16  27  46  67  87 119 160 196 229 267
#     4   9  17  31  45  62  91 121 154 196 236 279
#     4  10  19  28  44  67  91 121 155 193 235 279
#     4  10  18  31  48  67  92 125 164 197 225 270
#     4  10  19  33  51  71  93 122 159 199 235 276
#
# _framework density 15.583669
#
# number of rings (size 3 to 8) (size 9 to 14) (size 15 to 20)
#    0.000    2.250    2.500    1.500    0.000    3.500 
#    0.000    0.000    0.000    0.375    0.000    0.875 
#    0.000    3.000    0.000    0.000    0.000    0.000 
#
# Total GULP energy -356934.799579 kJ/mol
# GULP energy per Si atom -5577.106243 kJ/mol
# Density = 1.554820 g / cm^3
# Si number density = 15.583669 Si / 1000 Ang^3
#
#
#
# Elastic Constant Matrix: (Units=GPa)
#
#
# Indices 1 2 3 4 5 6 
#
# 1 14.3313 21.4758 29.0254 0.0000 0.0000 0.0000
# 2 21.4758 101.4173 75.3209 0.0000 0.0000 0.0000
# 3 29.0254 75.3209 153.6561 0.0000 0.0000 0.0000
# 4 0.0000 0.0000 0.0000 19.6694 0.0000 0.0000
# 5 0.0000 0.0000 0.0000 0.0000 26.7297 0.0000
# 6 0.0000 0.0000 0.0000 0.0000 0.0000 14.0191
#
#
#
# Elastic Compliance Matrix: (Units=1/GPa)
#
#
# Indices 1 2 3 4 5 6 
#
# 1 0.124472 -0.013988 -0.016656 0.000000 0.000000 0.000000
# 2 -0.013988 0.017077 -0.005729 0.000000 0.000000 0.000000
# 3 -0.016656 -0.005729 0.012462 0.000000 0.000000 0.000000
# 4 0.000000 0.000000 0.000000 0.050840 0.000000 0.000000
# 5 0.000000 0.000000 0.000000 0.000000 0.037412 0.000000
# 6 0.000000 0.000000 0.000000 0.000000 0.000000 0.071331
#
#
# Mechanical properties :
#
#
# Convention : Reuss Voigt Hill
#
# Bulk Modulus (GPa) = 12.30518 57.89429 35.09974
# Shear Modulus (GPa) = 12.09402 21.65582 16.87492
#
# Velocity S-wave (km/s) = 2.78883 3.73184 3.29425
# Velocity P-wave (km/s) = 4.27591 7.46995 6.08620
#
# Compressibility (1/GPa) = 0.08126659
#
# Stress axis : x y z
#
# Youngs Moduli (GPa) = 8.03396 58.55896 80.24119
#
# Poissons Ratio (x) = 0.81910 1.33648
# Poissons Ratio (y) = 0.11238 0.45967
# Poissons Ratio (z) = 0.13381 0.33546
#
# Static dielectric constant tensor:
#      x y z
#    x 1.528560 0.000000 0.000000 
#    y 0.000000 1.505980 0.000000 
#    z 0.000000 0.000000 1.519260 
# 
# From -- ./inp_files/26483.got.cif
#   From: 2010.05.17/outbox.cif.g08.bks.cpg/sg59_14_cif.got.tgz:26483.got - 2010.06.03 14:40:33.
