data_PCOD9446814
_publ_section_title
;
Structure prediction by ZEFSAII (Michael W. Deem and Ramdas Pophale) SiO2 
 PCOD9446814
Probable space group: P M M N
;
_chemical_formula_sum "Si O2"
_cell_formula_units_Z 64
_cell_length_a 7.849932
_cell_length_b 15.133192
_cell_length_c 24.764330
_cell_angle_alpha 90.000000
_cell_angle_beta 90.000000
_cell_angle_gamma 90.000000
_cell_volume 2941.866897
_symmetry_space_group_name_H-M "P M M N"
_symmetry_group_IT_number 59
_space_group.IT_coordinate_system_code '2'
_symmetry_cell_setting 'orthorhombic'
loop_
_space_group_symop_operation_xyz
x,y,z
1/2-x,1/2-y,z
1/2+x,-y,-z
-x,1/2+y,-z
-x,-y,-z
1/2+x,1/2+y,-z
1/2-x,y,z
x,1/2-y,z
loop_
_atom_site_type_symbol
_atom_site_label
_atom_site_fract_x
_atom_site_fract_y
_atom_site_fract_z
Si Si1 0.944591 0.457301 0.377043
Si Si2 0.051784 0.150681 0.278136
Si Si3 0.550069 0.151718 0.603400
Si Si4 0.454040 0.150386 0.478474
Si Si5 0.543740 0.154130 0.102578
Si Si6 0.447640 0.018796 0.190298
Si Si7 0.040780 0.849152 0.133338
Si Si8 0.045826 0.899646 0.013488
O O1 0.750000 0.438995 0.364584
O O2 0.047989 0.396012 0.336170
O O3 0.976469 0.561950 0.371729
O O4 0.982325 0.423695 0.437532
O O5 0.250000 0.159492 0.262180
O O6 0.978766 0.250000 0.278649
O O7 0.971944 0.080983 0.236040
O O8 0.750000 0.152073 0.615657
O O9 0.480481 0.250000 0.617863
O O10 0.525999 0.142627 0.538746
O O11 0.250000 0.144458 0.482149
O O12 0.498063 0.250000 0.458597
O O13 0.750000 0.143211 0.104722
O O14 0.501510 0.250000 0.126475
O O15 0.458456 0.076293 0.135744
O O16 0.490241 0.151844 0.040051
O O17 0.250000 0.003427 0.205292
O O18 0.521572 0.923868 0.174590
O O19 0.250000 0.853380 0.132634
O O20 0.992199 0.750000 0.147876
O O21 0.981763 0.870354 0.072105
O O22 0.250000 0.890231 0.015991
O O23 0.000000 0.000000 0.000000
#
# Coordination Sequence:
#
# PCOD9446814 Si02
#       8
#     8   8   8   8   8   8   8   8
#     4  12  24  37  57  84 115 151 192 239 287 339
#     4  10  22  40  59  80 109 142 179 230 288 341
#     4  10  21  38  60  86 118 156 196 235 276 329
#     4  10  20  35  57  86 122 160 196 237 284 335
#     4  10  20  32  49  75 107 141 174 213 267 329
#     4  10  20  36  58  81 104 136 181 231 277 322
#     4   9  17  31  53  79 107 140 178 219 266 324
#     4  10  18  30  49  74 106 142 177 215 261 319
#
# _framework density 21.754892999999999
#
# number of rings (size 3 to 8) (size 9 to 14) (size 15 to 20)
#    0.000    1.875    1.250    3.375    0.000    6.000 
#    0.000    0.625    0.000    4.500    0.000    0.000 
#    0.000    0.000    0.000    0.000    0.000    0.000 
#
# Total GULP energy -357336.106522 kJ/mol
# GULP energy per Si atom -5583.376664 kJ/mol
# Density = 2.170538 g / cm^3
# Si number density = 21.754893 Si / 1000 Ang^3
#
#
#
# Elastic Constant Matrix: (Units=GPa)
#
#
# Indices 1 2 3 4 5 6 
#
# 1 30.2117 -6.7911 -10.3244 0.0000 0.0000 0.0000
# 2 -6.7911 158.5882 30.5355 0.0000 0.0000 0.0000
# 3 -10.3244 30.5355 46.2341 0.0000 0.0000 0.0000
# 4 0.0000 0.0000 0.0000 26.8404 0.0000 0.0000
# 5 0.0000 0.0000 0.0000 0.0000 12.7170 0.0000
# 6 0.0000 0.0000 0.0000 0.0000 0.0000 6.4645
#
#
#
# Elastic Compliance Matrix: (Units=1/GPa)
#
#
# Indices 1 2 3 4 5 6 
#
# 1 0.035834 -0.000007 0.008007 0.000000 0.000000 0.000000
# 2 -0.000007 0.007224 -0.004773 0.000000 0.000000 0.000000
# 3 0.008007 -0.004773 0.026569 0.000000 0.000000 0.000000
# 4 0.000000 0.000000 0.000000 0.037257 0.000000 0.000000
# 5 0.000000 0.000000 0.000000 0.000000 0.078635 0.000000
# 6 0.000000 0.000000 0.000000 0.000000 0.000000 0.154690
#
#
# Mechanical properties :
#
#
# Convention : Reuss Voigt Hill
#
# Bulk Modulus (GPa) = 13.14380 29.09711 21.12046
# Shear Modulus (GPa) = 13.92302 23.97866 18.95084
#
# Velocity S-wave (km/s) = 2.53256 3.32357 2.95465
# Velocity P-wave (km/s) = 3.82187 5.30398 4.62271
#
# Compressibility (1/GPa) = 0.07608147
#
# Stress axis : x y z
#
# Youngs Moduli (GPa) = 27.90617 138.42095 37.63734
#
# Poissons Ratio (x) = 0.00099 -0.30136
# Poissons Ratio (y) = 0.00020 0.17964
# Poissons Ratio (z) = -0.22344 0.66068
#
# Static dielectric constant tensor:
#      x y z
#    x 1.786010 0.000000 0.000000 
#    y 0.000000 1.822130 0.000000 
#    z 0.000000 0.000000 1.794460 
# 
# From -- ./inp_files/31410.got.cif
#   From: 2010.05.17/outbox.cif.g08.bks.cpg/sg59_16_cif.got.tgz:31410.got - 2010.06.03 14:40:33.
