data_PCOD9446393
_publ_section_title
;
Structure prediction by ZEFSAII (Michael W. Deem and Ramdas Pophale) SiO2 
 PCOD9446393
Probable space group: P M M N
;
_chemical_formula_sum "Si O2"
_cell_formula_units_Z 48
_cell_length_a 23.585887
_cell_length_b 8.688702
_cell_length_c 13.783476
_cell_angle_alpha 90.000000
_cell_angle_beta 90.000000
_cell_angle_gamma 90.000000
_cell_volume 2824.657985
_symmetry_space_group_name_H-M "P M M N"
_symmetry_group_IT_number 59
_space_group.IT_coordinate_system_code '2'
_symmetry_cell_setting 'orthorhombic'
loop_
_space_group_symop_operation_xyz
x,y,z
1/2-x,1/2-y,z
1/2+x,-y,-z
-x,1/2+y,-z
-x,-y,-z
1/2+x,1/2+y,-z
1/2-x,y,z
x,1/2-y,z
loop_
_atom_site_type_symbol
_atom_site_label
_atom_site_fract_x
_atom_site_fract_y
_atom_site_fract_z
Si Si1 0.091338 0.925039 0.748086
Si Si2 0.095759 0.929565 0.253566
Si Si3 0.498999 0.434690 0.892125
Si Si4 0.815590 0.933467 0.610166
Si Si5 0.012381 0.425119 0.398668
Si Si6 0.683355 0.435977 0.401512
O O1 0.103712 0.750000 0.781375
O O2 0.146480 0.989268 0.691577
O O3 0.044963 0.916756 0.662710
O O4 0.057155 0.011470 0.833227
O O5 0.107542 0.750000 0.239251
O O6 0.056735 0.987282 0.164143
O O7 0.151473 0.012972 0.293518
O O8 0.053699 0.960659 0.342824
O O9 0.499772 0.250000 0.892494
O O10 0.500000 0.500000 0.000000
O O11 0.750000 0.982347 0.617375
O O12 0.818407 0.750000 0.603420
O O13 0.836907 0.001072 0.506510
O O14 0.035554 0.250000 0.404632
O O15 0.000000 0.500000 0.500000
O O16 0.750000 0.476383 0.391220
O O17 0.678544 0.250000 0.404441
#
# Coordination Sequence:
#
# PCOD9446393 Si02
#       6
#     8   8   8   8   8   8
#     4   9  18  31  47  69  97 128 163 200 240 288
#     4  10  20  33  49  70  95 126 164 202 244 295
#     4  10  21  36  55  76  96 121 156 202 255 304
#     4  10  20  32  48  73 104 137 170 203 240 284
#     4  10  18  27  42  66  97 130 161 198 242 289
#     4   9  17  30  49  73 103 139 173 203 236 279
#
# _framework density 16.993207999999999
#
# number of rings (size 3 to 8) (size 9 to 14) (size 15 to 20)
#    0.000    2.333    0.000    3.000    0.000    5.667 
#    0.000    0.000    0.000    1.000    0.000    2.333 
#    0.000    0.000    0.000    0.000    0.000    0.000 
#
# Total GULP energy -267297.991947 kJ/mol
# GULP energy per Si atom -5568.708166 kJ/mol
# Density = 1.695453 g / cm^3
# Si number density = 16.993208 Si / 1000 Ang^3
#
#
#
# Elastic Constant Matrix: (Units=GPa)
#
#
# Indices 1 2 3 4 5 6 
#
# 1 77.9418 13.7619 46.1198 0.0000 0.0000 0.0000
# 2 13.7619 28.1358 28.7856 0.0000 0.0000 0.0000
# 3 46.1198 28.7856 128.6680 0.0000 0.0000 0.0000
# 4 0.0000 0.0000 0.0000 19.1949 0.0000 0.0000
# 5 0.0000 0.0000 0.0000 0.0000 24.3611 0.0000
# 6 0.0000 0.0000 0.0000 0.0000 0.0000 21.9920
#
#
#
# Elastic Compliance Matrix: (Units=1/GPa)
#
#
# Indices 1 2 3 4 5 6 
#
# 1 0.016430 -0.002608 -0.005306 0.000000 0.000000 0.000000
# 2 -0.002608 0.046506 -0.009469 0.000000 0.000000 0.000000
# 3 -0.005306 -0.009469 0.011792 0.000000 0.000000 0.000000
# 4 0.000000 0.000000 0.000000 0.052097 0.000000 0.000000
# 5 0.000000 0.000000 0.000000 0.000000 0.041049 0.000000
# 6 0.000000 0.000000 0.000000 0.000000 0.000000 0.045471
#
#
# Mechanical properties :
#
#
# Convention : Reuss Voigt Hill
#
# Bulk Modulus (GPa) = 25.02401 45.78669 35.40535
# Shear Modulus (GPa) = 19.12541 22.84816 20.98679
#
# Velocity S-wave (km/s) = 3.35845 3.67078 3.51808
# Velocity P-wave (km/s) = 5.45864 6.70588 6.11415
#
# Compressibility (1/GPa) = 0.03996162
#
# Stress axis : x y z
#
# Youngs Moduli (GPa) = 60.86389 21.50270 84.80164
#
# Poissons Ratio (x) = 0.05608 0.44993
# Poissons Ratio (y) = 0.15874 0.80302
# Poissons Ratio (z) = 0.32293 0.20362
#
# Static dielectric constant tensor:
#      x y z
#    x 1.629140 0.000000 0.000000 
#    y 0.000000 1.593930 0.000000 
#    z 0.000000 0.000000 1.550890 
# 
# From -- ./inp_files/14338.got.cif
#   From: 2010.05.17/outbox.cif.g08.bks.cpg/sg59_8_cif.got.tgz:14338.got - 2010.06.03 14:40:33.
