data_PCOD9446445
_publ_section_title
;
Structure prediction by ZEFSAII (Michael W. Deem and Ramdas Pophale) SiO2 
 PCOD9446445
Probable space group: P M M N
;
_chemical_formula_sum "Si O2"
_cell_formula_units_Z 56
_cell_length_a 7.925914
_cell_length_b 25.643151
_cell_length_c 16.691981
_cell_angle_alpha 90.000000
_cell_angle_beta 90.000000
_cell_angle_gamma 90.000000
_cell_volume 3392.568514
_symmetry_space_group_name_H-M "P M M N"
_symmetry_group_IT_number 59
_space_group.IT_coordinate_system_code '2'
_symmetry_cell_setting 'orthorhombic'
loop_
_space_group_symop_operation_xyz
x,y,z
1/2-x,1/2-y,z
1/2+x,-y,-z
-x,1/2+y,-z
-x,-y,-z
1/2+x,1/2+y,-z
1/2-x,y,z
x,1/2-y,z
loop_
_atom_site_type_symbol
_atom_site_label
_atom_site_fract_x
_atom_site_fract_y
_atom_site_fract_z
Si Si1 0.447971 0.994479 0.382034
Si Si2 0.052376 0.012904 0.797905
Si Si3 0.547309 0.555072 0.040490
Si Si4 0.456508 0.691161 0.586757
Si Si5 0.450046 0.094560 0.121542
Si Si6 0.051781 0.913685 0.512016
Si Si7 0.453726 0.691258 0.771594
O O1 0.250000 0.000447 0.400464
O O2 0.468858 0.984117 0.288529
O O3 0.517016 0.947310 0.437397
O O4 0.532758 0.048048 0.411535
O O5 0.250000 0.023523 0.786341
O O6 0.983122 0.050842 0.868383
O O7 0.033301 0.954257 0.832703
O O8 0.750000 0.558465 0.047354
O O9 0.500000 0.500000 0.000000
O O10 0.491819 0.595434 0.971681
O O11 0.250000 0.690636 0.585635
O O12 0.508541 0.750000 0.564039
O O13 0.518909 0.643194 0.532948
O O14 0.506358 0.681842 0.679376
O O15 0.250000 0.083805 0.121267
O O16 0.482640 0.147267 0.169007
O O17 0.250000 0.906076 0.495983
O O18 0.250000 0.689928 0.772507
O O19 0.507295 0.750000 0.793376
#
# Coordination Sequence:
#
# PCOD9446445 Si02
#       7
#     8   8   8   8   8   8   8
#     4  10  19  28  40  62  89 113 140 175 211 250
#     4  10  18  29  44  60  82 113 143 168 204 254
#     4   8  16  28  41  59  81 105 135 168 202 244
#     4   8  14  26  44  62  79 104 139 173 201 238
#     4  10  18  28  43  63  86 109 137 176 214 244
#     4   9  17  29  44  62  85 112 141 172 211 257
#     4   9  17  28  42  62  87 114 143 169 198 247
#
# _framework density 16.506667
#
# number of rings (size 3 to 8) (size 9 to 14) (size 15 to 20)
#    0.000    2.857    0.000    3.000    0.000    3.143 
#    0.000    0.000    0.000    1.286    0.000    1.000 
#    0.000    3.429    0.000    0.000    0.000    0.000 
#
# Total GULP energy -311796.726692 kJ/mol
# GULP energy per Si atom -5567.798691 kJ/mol
# Density = 1.646910 g / cm^3
# Si number density = 16.506667 Si / 1000 Ang^3
#
#
#
# Elastic Constant Matrix: (Units=GPa)
#
#
# Indices 1 2 3 4 5 6 
#
# 1 13.1032 -3.0496 -3.2501 0.0000 0.0000 0.0000
# 2 -3.0496 97.3891 45.9937 0.0000 0.0000 0.0000
# 3 -3.2501 45.9937 98.7045 0.0000 0.0000 0.0000
# 4 0.0000 0.0000 0.0000 27.7735 0.0000 0.0000
# 5 0.0000 0.0000 0.0000 0.0000 10.9956 0.0000
# 6 0.0000 0.0000 0.0000 0.0000 0.0000 12.0704
#
#
#
# Elastic Compliance Matrix: (Units=1/GPa)
#
#
# Indices 1 2 3 4 5 6 
#
# 1 0.077130 0.001559 0.001813 0.000000 0.000000 0.000000
# 2 0.001559 0.013197 -0.006098 0.000000 0.000000 0.000000
# 3 0.001813 -0.006098 0.013032 0.000000 0.000000 0.000000
# 4 0.000000 0.000000 0.000000 0.036006 0.000000 0.000000
# 5 0.000000 0.000000 0.000000 0.000000 0.090945 0.000000
# 6 0.000000 0.000000 0.000000 0.000000 0.000000 0.082847
#
#
# Mechanical properties :
#
#
# Convention : Reuss Voigt Hill
#
# Bulk Modulus (GPa) = 10.21373 32.06497 21.13935
# Shear Modulus (GPa) = 14.23509 21.46810 17.85160
#
# Velocity S-wave (km/s) = 2.93982 3.61026 3.29215
# Velocity P-wave (km/s) = 4.21005 6.07011 5.22354
#
# Compressibility (1/GPa) = 0.09790738
#
# Stress axis : x y z
#
# Youngs Moduli (GPa) = 12.96516 75.77598 76.73142
#
# Poissons Ratio (x) = -0.11813 -0.13914
# Poissons Ratio (y) = -0.02021 0.46791
# Poissons Ratio (z) = -0.02351 0.46208
#
# Static dielectric constant tensor:
#      x y z
#    x 1.618900 0.000000 0.000000 
#    y 0.000000 1.552340 0.000000 
#    z 0.000000 0.000000 1.579970 
# 
# From -- ./inp_files/26420.got.cif
#   From: 2010.05.17/outbox.cif.g08.bks.cpg/sg59_14_cif.got.tgz:26420.got - 2010.06.03 14:40:33.
