data_PCOD9446452
_publ_section_title
;
Structure prediction by ZEFSAII (Michael W. Deem and Ramdas Pophale) SiO2 
 PCOD9446452
Probable space group: P M M N
;
_chemical_formula_sum "Si O2"
_cell_formula_units_Z 56
_cell_length_a 29.309399
_cell_length_b 8.651950
_cell_length_c 13.990891
_cell_angle_alpha 90.000000
_cell_angle_beta 90.000000
_cell_angle_gamma 90.000000
_cell_volume 3547.858474
_symmetry_space_group_name_H-M "P M M N"
_symmetry_group_IT_number 59
_space_group.IT_coordinate_system_code '2'
_symmetry_cell_setting 'orthorhombic'
loop_
_space_group_symop_operation_xyz
x,y,z
1/2-x,1/2-y,z
1/2+x,-y,-z
-x,1/2+y,-z
-x,-y,-z
1/2+x,1/2+y,-z
1/2-x,y,z
x,1/2-y,z
loop_
_atom_site_type_symbol
_atom_site_label
_atom_site_fract_x
_atom_site_fract_y
_atom_site_fract_z
Si Si1 0.484968 0.565573 0.601306
Si Si2 0.943954 0.933997 0.100903
Si Si3 0.110145 0.934124 0.076908
Si Si4 0.466586 0.563552 0.212176
Si Si5 0.699330 0.436200 0.230088
Si Si6 0.603491 0.436870 0.288612
Si Si7 0.198080 0.065493 0.983400
O O1 0.500000 0.500000 0.500000
O O2 0.487387 0.750000 0.598684
O O3 0.516746 0.506207 0.688041
O O4 0.432776 0.521718 0.629440
O O5 0.941891 0.750000 0.084447
O O6 0.995215 0.977984 0.132321
O O7 0.914419 0.980374 0.193316
O O8 0.922648 0.020988 0.011416
O O9 0.115207 0.750000 0.079517
O O10 0.082654 0.984220 0.171772
O O11 0.159009 0.007716 0.054451
O O12 0.467508 0.750000 0.220581
O O13 0.750000 0.491048 0.258580
O O14 0.700384 0.250000 0.226354
O O15 0.656699 0.479289 0.296961
O O16 0.690463 0.495040 0.122292
O O17 0.600663 0.250000 0.275486
O O18 0.250000 0.023677 0.011943
O O19 0.195208 0.250000 0.975335
#
# Coordination Sequence:
#
# PCOD9446452 Si02
#       7
#     8   8   8   8   8   8   8
#     4  10  20  34  52  71  93 120 152 194 242 291
#     4  10  18  28  43  64  93 127 158 189 226 267
#     4  11  20  30  45  65  93 127 160 194 231 273
#     4   9  20  34  47  67  93 121 156 194 231 277
#     4   9  16  27  44  65  91 123 156 189 226 270
#     4   9  17  29  45  67  93 123 156 189 229 278
#     4  10  20  31  43  63  92 126 164 200 232 269
#
# _framework density 15.78417
#
# number of rings (size 3 to 8) (size 9 to 14) (size 15 to 20)
#    0.000    2.286    1.429    2.143    0.000    3.143 
#    0.000    0.000    0.000    0.000    0.000    1.000 
#    0.000    5.714    0.000    0.000    0.000    0.000 
#
# Total GULP energy -312107.590487 kJ/mol
# GULP energy per Si atom -5573.349830 kJ/mol
# Density = 1.574824 g / cm^3
# Si number density = 15.784170 Si / 1000 Ang^3
#
#
#
# Elastic Constant Matrix: (Units=GPa)
#
#
# Indices 1 2 3 4 5 6 
#
# 1 148.4989 26.5640 65.8079 0.0000 0.0000 0.0000
# 2 26.5640 11.8927 13.9670 0.0000 0.0000 0.0000
# 3 65.8079 13.9670 66.4618 0.0000 0.0000 0.0000
# 4 0.0000 0.0000 0.0000 16.6098 0.0000 0.0000
# 5 0.0000 0.0000 0.0000 0.0000 17.1193 0.0000
# 6 0.0000 0.0000 0.0000 0.0000 0.0000 21.1670
#
#
#
# Elastic Compliance Matrix: (Units=1/GPa)
#
#
# Indices 1 2 3 4 5 6 
#
# 1 0.015329 -0.021793 -0.010599 0.000000 0.000000 0.000000
# 2 -0.021793 0.142621 -0.008393 0.000000 0.000000 0.000000
# 3 -0.010599 -0.008393 0.027304 0.000000 0.000000 0.000000
# 4 0.000000 0.000000 0.000000 0.060205 0.000000 0.000000
# 5 0.000000 0.000000 0.000000 0.000000 0.058414 0.000000
# 6 0.000000 0.000000 0.000000 0.000000 0.000000 0.047243
#
#
# Mechanical properties :
#
#
# Convention : Reuss Voigt Hill
#
# Bulk Modulus (GPa) = 9.64463 48.83680 29.24071
# Shear Modulus (GPa) = 10.70095 19.01352 14.85724
#
# Velocity S-wave (km/s) = 2.60658 3.47449 3.07135
# Velocity P-wave (km/s) = 3.89649 6.86321 5.58060
#
# Compressibility (1/GPa) = 0.10368462
#
# Stress axis : x y z
#
# Youngs Moduli (GPa) = 65.23452 7.01160 36.62407
#
# Poissons Ratio (x) = 0.15280 0.38817
# Poissons Ratio (y) = 1.42166 0.30740
# Poissons Ratio (z) = 0.69140 0.05885
#
# Static dielectric constant tensor:
#      x y z
#    x 1.583380 0.000000 0.000000 
#    y 0.000000 1.463200 0.000000 
#    z 0.000000 0.000000 1.490960 
# 
# From -- ./inp_files/24958.got.cif
#   From: 2010.05.17/outbox.cif.g08.bks.cpg/sg59_13_cif.got.tgz:24958.got - 2010.06.03 14:40:33.
