data_PCOD9446170
_publ_section_title
;
Structure prediction by ZEFSAII (Michael W. Deem and Ramdas Pophale) SiO2 
 PCOD9446170
Probable space group: P M M N
;
_chemical_formula_sum "Si O2"
_cell_formula_units_Z 64
_cell_length_a 14.996775
_cell_length_b 8.998857
_cell_length_c 21.856459
_cell_angle_alpha 90.000000
_cell_angle_beta 90.000000
_cell_angle_gamma 90.000000
_cell_volume 2949.612933
_symmetry_space_group_name_H-M "P M M N"
_symmetry_group_IT_number 59
_space_group.IT_coordinate_system_code '2'
_symmetry_cell_setting 'orthorhombic'
loop_
_space_group_symop_operation_xyz
x,y,z
1/2-x,1/2-y,z
1/2+x,-y,-z
-x,1/2+y,-z
-x,-y,-z
1/2+x,1/2+y,-z
1/2-x,y,z
x,1/2-y,z
loop_
_atom_site_type_symbol
_atom_site_label
_atom_site_fract_x
_atom_site_fract_y
_atom_site_fract_z
Si Si1 0.100001 0.427486 0.689689
Si Si2 0.901389 0.570450 0.687254
Si Si3 0.600049 0.071832 0.566796
Si Si4 0.356810 0.584038 0.055170
Si Si5 0.856179 0.914289 0.063061
Si Si6 0.606932 0.418155 0.187728
Si Si7 0.607541 0.582391 0.820357
Si Si8 0.401676 0.928124 0.568101
O O1 0.101419 0.250000 0.686550
O O2 0.137683 0.485004 0.754292
O O3 0.141069 0.498954 0.628238
O O4 0.998087 0.489893 0.689355
O O5 0.911965 0.750000 0.683292
O O6 0.857250 0.506352 0.625866
O O7 0.857493 0.538344 0.753114
O O8 0.594939 0.250000 0.575759
O O9 0.639769 0.045572 0.499095
O O10 0.500406 0.001400 0.564398
O O11 0.250000 0.590910 0.047870
O O12 0.392633 0.750000 0.049297
O O13 0.372935 0.520331 0.122407
O O14 0.392003 0.482951 0.999919
O O15 0.750000 0.901814 0.055177
O O16 0.892942 0.750000 0.074583
O O17 0.869367 0.015112 0.122252
O O18 0.639429 0.250000 0.194345
O O19 0.499263 0.413666 0.187644
O O20 0.638402 0.750000 0.834295
O O21 0.409148 0.750000 0.576451
#
# Coordination Sequence:
#
# PCOD9446170 Si02
#       8
#     8   8   8   8   8   8   8   8
#     4  10  17  25  39  59  85 118 155 192 234 280
#     4   9  16  26  39  57  85 118 153 192 234 280
#     4   9  15  21  32  51  76 111 153 191 230 276
#     4  10  21  36  54  75  97 124 158 195 237 283
#     4  10  21  37  56  76  98 125 157 193 234 281
#     4  10  20  34  51  72  99 128 160 197 237 283
#     4   9  19  33  49  71  97 128 162 196 238 284
#     4   9  15  22  32  49  77 113 152 191 230 275
#
# _framework density 21.697762000000001
#
# number of rings (size 3 to 8) (size 9 to 14) (size 15 to 20)
#    0.000    2.500    0.000    5.625    0.000    6.500 
#    0.000    0.000    0.000    0.000    0.000    0.000 
#    0.000    1.000    0.000    7.000    0.000    8.250 
#
# Total GULP energy -357000.476700 kJ/mol
# GULP energy per Si atom -5578.132448 kJ/mol
# Density = 2.164838 g / cm^3
# Si number density = 21.697762 Si / 1000 Ang^3
#
#
#
# Elastic Constant Matrix: (Units=GPa)
#
#
# Indices 1 2 3 4 5 6 
#
# 1 52.2480 4.8382 2.6223 0.0000 0.0000 0.0000
# 2 4.8382 148.7043 91.9537 0.0000 0.0000 0.0000
# 3 2.6223 91.9537 203.9119 0.0000 0.0000 0.0000
# 4 0.0000 0.0000 0.0000 44.7110 0.0000 0.0000
# 5 0.0000 0.0000 0.0000 0.0000 39.9035 0.0000
# 6 0.0000 0.0000 0.0000 0.0000 0.0000 9.8139
#
#
#
# Elastic Compliance Matrix: (Units=1/GPa)
#
#
# Indices 1 2 3 4 5 6 
#
# 1 0.019198 -0.000654 0.000048 0.000000 0.000000 0.000000
# 2 -0.000654 0.009347 -0.004207 0.000000 0.000000 0.000000
# 3 0.000048 -0.004207 0.006800 0.000000 0.000000 0.000000
# 4 0.000000 0.000000 0.000000 0.022366 0.000000 0.000000
# 5 0.000000 0.000000 0.000000 0.000000 0.025060 0.000000
# 6 0.000000 0.000000 0.000000 0.000000 0.000000 0.101897
#
#
# Mechanical properties :
#
#
# Convention : Reuss Voigt Hill
#
# Bulk Modulus (GPa) = 38.88084 67.07696 52.97890
# Shear Modulus (GPa) = 24.64661 39.24899 31.94780
#
# Velocity S-wave (km/s) = 3.37398 4.25773 3.84135
# Velocity P-wave (km/s) = 5.75643 7.42646 6.64412
#
# Compressibility (1/GPa) = 0.02571961
#
# Stress axis : x y z
#
# Youngs Moduli (GPa) = 52.08962 106.98199 147.04815
#
# Poissons Ratio (x) = 0.07001 -0.00709
# Poissons Ratio (y) = 0.03409 0.61860
# Poissons Ratio (z) = -0.00251 0.45005
#
# Static dielectric constant tensor:
#      x y z
#    x 1.828140 0.000000 0.000000 
#    y 0.000000 1.755350 0.000000 
#    z 0.000000 0.000000 1.836340 
# 
# From -- ./inp_files/30893.got.cif
#   From: 2010.05.17/outbox.cif.g08.bks.cpg/sg59_16_cif.got.tgz:30893.got - 2010.06.03 14:40:33.
