data_PCOD9446832
_publ_section_title
;
Structure prediction by ZEFSAII (Michael W. Deem and Ramdas Pophale) SiO2 
 PCOD9446832
Probable space group: P M M N
;
_chemical_formula_sum "Si O2"
_cell_formula_units_Z 56
_cell_length_a 22.712733
_cell_length_b 8.871727
_cell_length_c 17.469609
_cell_angle_alpha 90.000000
_cell_angle_beta 90.000000
_cell_angle_gamma 90.000000
_cell_volume 3520.146594
_symmetry_space_group_name_H-M "P M M N"
_symmetry_group_IT_number 59
_space_group.IT_coordinate_system_code '2'
_symmetry_cell_setting 'orthorhombic'
loop_
_space_group_symop_operation_xyz
x,y,z
1/2-x,1/2-y,z
1/2+x,-y,-z
-x,1/2+y,-z
-x,-y,-z
1/2+x,1/2+y,-z
1/2-x,y,z
x,1/2-y,z
loop_
_atom_site_type_symbol
_atom_site_label
_atom_site_fract_x
_atom_site_fract_y
_atom_site_fract_z
Si Si1 0.523750 0.423212 0.280139
Si Si2 0.816062 0.569433 0.418141
Si Si3 0.917024 0.926525 0.002761
Si Si4 0.451727 0.430973 0.557902
Si Si5 0.683554 0.077575 0.085137
Si Si6 0.484001 0.570786 0.127565
Si Si7 0.662185 0.076738 0.257106
O O1 0.506520 0.250000 0.295752
O O2 0.525904 0.518217 0.358104
O O3 0.487691 0.491884 0.209612
O O4 0.591641 0.424141 0.253569
O O5 0.750000 0.518303 0.446908
O O6 0.816393 0.750000 0.425066
O O7 0.881659 0.519131 0.449827
O O8 0.818607 0.521721 0.329028
O O9 0.926376 0.750000 0.988652
O O10 0.960627 0.972008 0.072738
O O11 0.853665 0.966490 0.034153
O O12 0.930783 0.017468 0.925918
O O13 0.500000 0.500000 0.500000
O O14 0.452137 0.250000 0.551492
O O15 0.750000 0.083582 0.058250
O O16 0.659087 0.250000 0.083479
O O17 0.683228 0.028548 0.173818
O O18 0.484775 0.750000 0.137927
O O19 0.681081 0.250000 0.270300
#
# Coordination Sequence:
#
# PCOD9446832 Si02
#       7
#     8   8   8   8   8   8   8
#     4  10  18  30  50  72  96 126 161 198 240 288
#     4   9  18  31  47  68  95 128 163 199 238 283
#     4  10  20  31  45  65  91 122 160 202 241 280
#     4  10  20  34  51  73 103 133 165 202 246 296
#     4  10  19  30  43  61  90 127 163 199 240 284
#     4  10  19  31  48  68  92 121 156 199 243 284
#     4   9  17  28  43  64  93 126 161 195 228 276
#
# _framework density 15.908428000000001
#
# number of rings (size 3 to 8) (size 9 to 14) (size 15 to 20)
#    0.000    2.286    1.429    2.143    0.000    4.000 
#    0.000    0.000    0.000    0.000    0.000    1.000 
#    0.000    5.714    0.000    0.000    0.000    0.000 
#
# Total GULP energy -311754.264209 kJ/mol
# GULP energy per Si atom -5567.040432 kJ/mol
# Density = 1.587222 g / cm^3
# Si number density = 15.908428 Si / 1000 Ang^3
#
#
#
# Elastic Constant Matrix: (Units=GPa)
#
#
# Indices 1 2 3 4 5 6 
#
# 1 76.6607 18.5136 41.5167 0.0000 0.0000 0.0000
# 2 18.5136 31.2721 21.0385 0.0000 0.0000 0.0000
# 3 41.5167 21.0385 66.7016 0.0000 0.0000 0.0000
# 4 0.0000 0.0000 0.0000 26.4231 0.0000 0.0000
# 5 0.0000 0.0000 0.0000 0.0000********** 0.0000
# 6 0.0000 0.0000 0.0000 0.0000 0.0000 16.8136
#
#
#
# Elastic Compliance Matrix: (Units=1/GPa)
#
#
# Indices 1 2 3 4 5 6 
#
# 1 0.020150 -0.004432 -0.011144 0.000000 0.000000 0.000000
# 2 -0.004432 0.041565 -0.010352 0.000000 0.000000 0.000000
# 3 -0.011144 -0.010352 0.025193 0.000000 0.000000 0.000000
# 4 0.000000 0.000000 0.000000 0.037846 0.000000 0.000000
# 5 0.000000 0.000000 0.000000 0.000000 -0.000081 0.000000
# 6 0.000000 0.000000 0.000000 0.000000 0.000000 0.059475
#
#
# Mechanical properties :
#
#
# Convention : Reuss Voigt Hill
#
# Bulk Modulus (GPa) = 28.52773 37.41910 32.97341
# Shear Modulus (GPa) = 20.18665 -2458.54152 -1219.17744
#
# Velocity S-wave (km/s) = 3.56607 -39.35465 -27.71346
# Velocity P-wave (km/s) = 5.90992 45.18272 31.67453
#
# Compressibility (1/GPa) = 0.03505362
#
# Stress axis : x y z
#
# Youngs Moduli (GPa) = 49.62785 24.05853 39.69293
#
# Poissons Ratio (x) = 0.10663 0.44233
# Poissons Ratio (y) = 0.21995 0.41089
# Poissons Ratio (z) = 0.55305 0.24904
#
# Static dielectric constant tensor:
#      x y z
#    x 1.577570 0.000000 0.000000 
#    y 0.000000 1.553100 0.000000 
#    z 0.000000 0.000000 1.503300 
# 
# From -- ./inp_files/25997.got.cif
#   From: 2010.05.17/outbox.cif.g08.bks.cpg/sg59_13_cif.got.tgz:25997.got - 2010.06.03 14:40:33.
