data_PCOD9446958
_publ_section_title
;
Structure prediction by ZEFSAII (Michael W. Deem and Ramdas Pophale) SiO2 
 PCOD9446958
Probable space group: P M M N
;
_chemical_formula_sum "Si O2"
_cell_formula_units_Z 56
_cell_length_a 29.834035
_cell_length_b 8.486306
_cell_length_c 13.165520
_cell_angle_alpha 90.000000
_cell_angle_beta 90.000000
_cell_angle_gamma 90.000000
_cell_volume 3333.256231
_symmetry_space_group_name_H-M "P M M N"
_symmetry_group_IT_number 59
_space_group.IT_coordinate_system_code '2'
_symmetry_cell_setting 'orthorhombic'
loop_
_space_group_symop_operation_xyz
x,y,z
1/2-x,1/2-y,z
1/2+x,-y,-z
-x,1/2+y,-z
-x,-y,-z
1/2+x,1/2+y,-z
1/2-x,y,z
x,1/2-y,z
loop_
_atom_site_type_symbol
_atom_site_label
_atom_site_fract_x
_atom_site_fract_y
_atom_site_fract_z
Si Si1 0.392898 0.938102 0.698255
Si Si2 0.799510 0.941738 0.615159
Si Si3 0.950702 0.940374 0.885062
Si Si4 0.050295 0.061390 0.883856
Si Si5 0.800284 0.940060 0.377950
Si Si6 0.550878 0.060545 0.500265
Si Si7 0.893749 0.941133 0.693948
O O1 0.394594 0.750000 0.699236
O O2 0.422211 0.992945 0.600670
O O3 0.415099 0.001106 0.800743
O O4 0.341869 0.992257 0.683246
O O5 0.750000 0.995217 0.648462
O O6 0.799120 0.750000 0.617758
O O7 0.805502 0.985786 0.496734
O O8 0.842605 0.995226 0.677654
O O9 0.951697 0.750000 0.884230
O O10 0.915998 0.993423 0.799322
O O11 0.939747 0.991223 0.000234
O O12 0.000442 0.999998 0.859336
O O13 0.049813 0.250000 0.882356
O O14 0.750000 0.988473 0.345669
O O15 0.802092 0.750000 0.373794
O O16 0.550511 0.250000 0.501354
O O17 0.500000 0.000000 0.500000
O O18 0.576780 0.999030 0.599297
O O19 0.894047 0.750000 0.692298
#
# Coordination Sequence:
#
# PCOD9446958 Si02
#       7
#     8   8   8   8   8   8   8
#     4  11  22  34  49  72 102 133 167 206 247 293
#     4   8  14  26  47  74  99 124 156 191 233 290
#     4   9  19  34  51  74  99 126 166 213 254 294
#     4  10  20  34  52  71  96 132 172 211 250 295
#     4   9  17  31  52  76 100 128 165 203 240 293
#     4  11  23  34  45  68 101 132 162 198 242 295
#     4  10  18  31  52  73  98 128 158 198 246 295
#
# _framework density 16.80039
#
# number of rings (size 3 to 8) (size 9 to 14) (size 15 to 20)
#    0.000    2.286    1.429    3.000    0.000    6.571 
#    0.000    0.000    0.000    1.286    0.000    4.000 
#    0.000    0.000    0.000    0.000    0.000    0.000 
#
# Total GULP energy -312390.826706 kJ/mol
# GULP energy per Si atom -5578.407620 kJ/mol
# Density = 1.676215 g / cm^3
# Si number density = 16.800390 Si / 1000 Ang^3
#
#
#
# Elastic Constant Matrix: (Units=GPa)
#
#
# Indices 1 2 3 4 5 6 
#
# 1 178.0029 19.6014 100.5420 0.0000 0.0000 0.0000
# 2 19.6014 9.4264 18.5481 0.0000 0.0000 0.0000
# 3 100.5420 18.5481 109.1068 0.0000 0.0000 0.0000
# 4 0.0000 0.0000 0.0000 19.9321 0.0000 0.0000
# 5 0.0000 0.0000 0.0000 0.0000 22.9185 0.0000
# 6 0.0000 0.0000 0.0000 0.0000 0.0000 22.7341
#
#
#
# Elastic Compliance Matrix: (Units=1/GPa)
#
#
# Indices 1 2 3 4 5 6 
#
# 1 0.011855 -0.004742 -0.010119 0.000000 0.000000 0.000000
# 2 -0.004742 0.161306 -0.023052 0.000000 0.000000 0.000000
# 3 -0.010119 -0.023052 0.022408 0.000000 0.000000 0.000000
# 4 0.000000 0.000000 0.000000 0.050170 0.000000 0.000000
# 5 0.000000 0.000000 0.000000 0.000000 0.043633 0.000000
# 6 0.000000 0.000000 0.000000 0.000000 0.000000 0.043987
#
#
# Mechanical properties :
#
#
# Convention : Reuss Voigt Hill
#
# Bulk Modulus (GPa) = 8.35115 63.76881 36.05998
# Shear Modulus (GPa) = 11.13339 23.63991 17.38665
#
# Velocity S-wave (km/s) = 2.57706 3.75521 3.22047
# Velocity P-wave (km/s) = 3.71976 7.53931 5.94466
#
# Compressibility (1/GPa) = 0.11974397
#
# Stress axis : x y z
#
# Youngs Moduli (GPa) = 84.34956 6.19941 44.62606
#
# Poissons Ratio (x) = 0.02940 0.45155
# Poissons Ratio (y) = 0.40001 1.02871
# Poissons Ratio (z) = 0.85350 0.14291
#
# Static dielectric constant tensor:
#      x y z
#    x 1.561300 0.000000 0.000000 
#    y 0.000000 1.579450 0.000000 
#    z 0.000000 0.000000 1.557760 
# 
# From -- ./inp_files/24981.got.cif
#   From: 2010.05.17/outbox.cif.g08.bks.cpg/sg59_13_cif.got.tgz:24981.got - 2010.06.03 14:40:33.
