data_PCOD9446917
_publ_section_title
;
Structure prediction by ZEFSAII (Michael W. Deem and Ramdas Pophale) SiO2 
 PCOD9446917
Probable space group: P M M N
;
_chemical_formula_sum "Si O2"
_cell_formula_units_Z 56
_cell_length_a 24.292958
_cell_length_b 24.689781
_cell_length_c 5.266236
_cell_angle_alpha 90.000000
_cell_angle_beta 90.000000
_cell_angle_gamma 90.000000
_cell_volume 3158.624172
_symmetry_space_group_name_H-M "P M M N"
_symmetry_group_IT_number 59
_space_group.IT_coordinate_system_code '2'
_symmetry_cell_setting 'orthorhombic'
loop_
_space_group_symop_operation_xyz
x,y,z
1/2-x,1/2-y,z
1/2+x,-y,-z
-x,1/2+y,-z
-x,-y,-z
1/2+x,1/2+y,-z
1/2-x,y,z
x,1/2-y,z
loop_
_atom_site_type_symbol
_atom_site_label
_atom_site_fract_x
_atom_site_fract_y
_atom_site_fract_z
Si Si1 0.106762 0.622715 0.747089
Si Si2 0.015759 0.587354 0.095050
Si Si3 0.370454 0.503031 0.692811
Si Si4 0.750000 0.467485 0.211523
Si Si5 0.936857 0.521570 0.786642
Si Si6 0.161881 0.810735 0.109407
Si Si7 0.750000 0.392706 0.704073
Si Si8 0.459171 0.688820 0.361515
O O1 0.077175 0.598790 0.995575
O O2 0.122533 0.566883 0.613321
O O3 0.061320 0.660234 0.617699
O O4 0.155750 0.661531 0.833687
O O5 0.976801 0.570963 0.861730
O O6 0.023907 0.531692 0.252558
O O7 0.001989 0.643579 0.232444
O O8 0.305823 0.498278 0.751988
O O9 0.397664 0.471961 0.455575
O O10 0.402316 0.488105 0.952677
O O11 0.750000 0.424508 0.441993
O O12 0.750000 0.435340 0.941897
O O13 0.184241 0.750000 0.100633
O O14 0.197962 0.852827 0.265864
O O15 0.099622 0.806406 0.214897
O O16 0.480683 0.750000 0.388114
#
# Coordination Sequence:
#
# PCOD9446917 Si02
#       8
#     8   8   8   4   8   8   4   8
#     4  10  18  31  50  68  97 130 169 214 258 303
#     4   9  20  31  50  73 101 127 170 210 253 308
#     4  11  21  35  53  74  98 130 166 212 257 309
#     4  12  24  36  55  72  98 130 169 210 268 311
#     4  10  21  34  54  77  99 129 168 213 258 300
#     4  10  21  34  45  66  93 131 181 226 265 295
#     4  12  23  36  52  68  92 134 174 230 263 297
#     4  10  19  32  50  70  99 136 173 214 257 307
#
# _framework density 17.729239
#
# number of rings (size 3 to 8) (size 9 to 14) (size 15 to 20)
#    0.000    1.714    2.857    2.357    4.000    2.286 
#    0.000    0.714    0.000    0.000    0.000    0.000 
#    0.000    0.000    0.000    3.857    0.000    0.000 
#
# Total GULP energy -311931.275288 kJ/mol
# GULP energy per Si atom -5570.201344 kJ/mol
# Density = 1.768889 g / cm^3
# Si number density = 17.729239 Si / 1000 Ang^3
#
#
#
# Elastic Constant Matrix: (Units=GPa)
#
#
# Indices 1 2 3 4 5 6 
#
# 1 52.9086 12.7360 5.4842 0.0000 0.0000 0.0000
# 2 12.7360 60.3042 8.1214 0.0000 0.0000 0.0000
# 3 5.4842 8.1214 64.9552 0.0000 0.0000 0.0000
# 4 0.0000 0.0000 0.0000 13.3373 0.0000 0.0000
# 5 0.0000 0.0000 0.0000 0.0000 22.7696 0.0000
# 6 0.0000 0.0000 0.0000 0.0000 0.0000 10.6496
#
#
#
# Elastic Compliance Matrix: (Units=1/GPa)
#
#
# Indices 1 2 3 4 5 6 
#
# 1 0.020001 -0.004065 -0.001180 0.000000 0.000000 0.000000
# 2 -0.004065 0.017693 -0.001869 0.000000 0.000000 0.000000
# 3 -0.001180 -0.001869 0.015729 0.000000 0.000000 0.000000
# 4 0.000000 0.000000 0.000000 0.074978 0.000000 0.000000
# 5 0.000000 0.000000 0.000000 0.000000 0.043918 0.000000
# 6 0.000000 0.000000 0.000000 0.000000 0.000000 0.093900
#
#
# Mechanical properties :
#
#
# Convention : Reuss Voigt Hill
#
# Bulk Modulus (GPa) = 25.51436 25.65014 25.58225
# Shear Modulus (GPa) = 17.03505 19.47307 18.25406
#
# Velocity S-wave (km/s) = 3.10311 3.31775 3.21222
# Velocity P-wave (km/s) = 5.22125 5.40145 5.31212
#
# Compressibility (1/GPa) = 0.03919362
#
# Stress axis : x y z
#
# Youngs Moduli (GPa) = 49.99638 56.52004 63.57860
#
# Poissons Ratio (x) = 0.22977 0.07505
# Poissons Ratio (y) = 0.20325 0.11882
# Poissons Ratio (z) = 0.05902 0.10563
#
# Static dielectric constant tensor:
#      x y z
#    x 1.655970 0.000000 0.000000 
#    y 0.000000 1.646910 0.000000 
#    z 0.000000 0.000000 1.725850 
# 
# From -- ./inp_files/3914.got.cif
#   From: 2010.05.17/outbox.cif.g08.bks.cpg/sg59_2_cif.got.tgz:3914.got - 2010.06.03 14:40:33.
