data_PCOD9446390
_publ_section_title
;
Structure prediction by ZEFSAII (Michael W. Deem and Ramdas Pophale) SiO2 
 PCOD9446390
Probable space group: P M M N
;
_chemical_formula_sum "Si O2"
_cell_formula_units_Z 64
_cell_length_a 29.797751
_cell_length_b 7.536763
_cell_length_c 14.264342
_cell_angle_alpha 90.000000
_cell_angle_beta 90.000000
_cell_angle_gamma 90.000000
_cell_volume 3203.465774
_symmetry_space_group_name_H-M "P M M N"
_symmetry_group_IT_number 59
_space_group.IT_coordinate_system_code '2'
_symmetry_cell_setting 'orthorhombic'
loop_
_space_group_symop_operation_xyz
x,y,z
1/2-x,1/2-y,z
1/2+x,-y,-z
-x,1/2+y,-z
-x,-y,-z
1/2+x,1/2+y,-z
1/2-x,y,z
x,1/2-y,z
loop_
_atom_site_type_symbol
_atom_site_label
_atom_site_fract_x
_atom_site_fract_y
_atom_site_fract_z
Si Si1 0.869909 0.956429 0.401398
Si Si2 0.699943 0.966509 0.739528
Si Si3 0.630286 0.462182 0.112843
Si Si4 0.441318 0.951479 0.750931
Si Si5 0.299556 0.535508 0.734245
Si Si6 0.700096 0.962781 0.956486
Si Si7 0.616789 0.966964 0.612652
Si Si8 0.985114 0.536318 0.608356
O O1 0.883363 0.750000 0.399579
O O2 0.874274 0.022871 0.506008
O O3 0.901359 0.052818 0.326259
O O4 0.819758 0.976459 0.364102
O O5 0.750000 0.020322 0.706052
O O6 0.699465 0.750000 0.737827
O O7 0.696008 0.020406 0.848377
O O8 0.657108 0.026955 0.679712
O O9 0.626763 0.250000 0.122737
O O10 0.582540 0.529398 0.155208
O O11 0.667372 0.531644 0.185699
O O12 0.655246 0.491342 0.014388
O O13 0.455255 0.750000 0.774294
O O14 0.481315 0.033931 0.689065
O O15 0.250000 0.470728 0.750324
O O16 0.299609 0.750000 0.737271
O O17 0.750000 0.026292 0.991761
O O18 0.702288 0.750000 0.957195
O O19 0.617249 0.750000 0.615176
O O20 0.565541 0.022777 0.630639
O O21 0.986213 0.750000 0.614085
O O22 0.000000 0.500000 0.500000
#
# Coordination Sequence:
#
# PCOD9446390 Si02
#       8
#     8   8   8   8   8   8   8   8
#     4  10  18  27  42  66  92 116 151 196 231 266
#     4   8  15  29  47  67  94 123 150 187 235 283
#     4   9  17  29  45  64  86 117 153 185 225 275
#     4   9  18  31  45  63  92 127 155 181 226 282
#     4   9  18  31  43  58  87 126 159 183 220 282
#     4   9  17  29  47  70  90 113 150 193 237 280
#     4   9  17  28  45  70  94 119 155 193 230 273
#     4  10  18  30  49  71  94 122 159 198 229 267
#
# _framework density 19.978361
#
# number of rings (size 3 to 8) (size 9 to 14) (size 15 to 20)
#    0.000    2.875    1.250    2.250    0.000    3.500 
#    0.000    1.250    0.000    3.000    0.000    0.000 
#    0.000    0.000    0.000    0.000    0.000    0.250 
#
# Total GULP energy -356297.277414 kJ/mol
# GULP energy per Si atom -5567.144960 kJ/mol
# Density = 1.993289 g / cm^3
# Si number density = 19.978361 Si / 1000 Ang^3
#
#
#
# Elastic Constant Matrix: (Units=GPa)
#
#
# Indices 1 2 3 4 5 6 
#
# 1 121.3922 -0.6109 47.7412 0.0000 0.0000 0.0000
# 2 -0.6109 53.0098 -2.0178 0.0000 0.0000 0.0000
# 3 47.7412 -2.0178 61.2882 0.0000 0.0000 0.0000
# 4 0.0000 0.0000 0.0000 17.3736 0.0000 0.0000
# 5 0.0000 0.0000 0.0000 0.0000 33.5785 0.0000
# 6 0.0000 0.0000 0.0000 0.0000 0.0000 9.9025
#
#
#
# Elastic Compliance Matrix: (Units=1/GPa)
#
#
# Indices 1 2 3 4 5 6 
#
# 1 0.011878 -0.000216 -0.009260 0.000000 0.000000 0.000000
# 2 -0.000216 0.018892 0.000790 0.000000 0.000000 0.000000
# 3 -0.009260 0.000790 0.023555 0.000000 0.000000 0.000000
# 4 0.000000 0.000000 0.000000 0.057558 0.000000 0.000000
# 5 0.000000 0.000000 0.000000 0.000000 0.029781 0.000000
# 6 0.000000 0.000000 0.000000 0.000000 0.000000 0.100985
#
#
# Mechanical properties :
#
#
# Convention : Reuss Voigt Hill
#
# Bulk Modulus (GPa) = 27.06014 36.21281 31.63647
# Shear Modulus (GPa) = 18.35942 24.87610 21.61776
#
# Velocity S-wave (km/s) = 3.03473 3.53250 3.29303
# Velocity P-wave (km/s) = 5.08464 5.89944 5.50713
#
# Compressibility (1/GPa) = 0.03695473
#
# Stress axis : x y z
#
# Youngs Moduli (GPa) = 84.18620 52.93240 42.45294
#
# Poissons Ratio (x) = 0.01141 0.39311
# Poissons Ratio (y) = 0.01815 -0.03353
# Poissons Ratio (z) = 0.77956 -0.04181
#
# Static dielectric constant tensor:
#      x y z
#    x 1.753820 0.000000 0.000000 
#    y 0.000000 1.766930 0.000000 
#    z 0.000000 0.000000 1.707070 
# 
# From -- ./inp_files/25041.got.cif
#   From: 2010.05.17/outbox.cif.g08.bks.cpg/sg59_13_cif.got.tgz:25041.got - 2010.06.03 14:40:33.
