data_PCOD9446757
_publ_section_title
;
Structure prediction by ZEFSAII (Michael W. Deem and Ramdas Pophale) SiO2 
 PCOD9446757
Probable space group: P M M N
;
_chemical_formula_sum "Si O2"
_cell_formula_units_Z 64
_cell_length_a 31.057058
_cell_length_b 8.882690
_cell_length_c 14.741355
_cell_angle_alpha 90.000000
_cell_angle_beta 90.000000
_cell_angle_gamma 90.000000
_cell_volume 4066.700825
_symmetry_space_group_name_H-M "P M M N"
_symmetry_group_IT_number 59
_space_group.IT_coordinate_system_code '2'
_symmetry_cell_setting 'orthorhombic'
loop_
_space_group_symop_operation_xyz
x,y,z
1/2-x,1/2-y,z
1/2+x,-y,-z
-x,1/2+y,-z
-x,-y,-z
1/2+x,1/2+y,-z
1/2-x,y,z
x,1/2-y,z
loop_
_atom_site_type_symbol
_atom_site_label
_atom_site_fract_x
_atom_site_fract_y
_atom_site_fract_z
Si Si1 0.473215 0.924870 0.260344
Si Si2 0.041714 0.428218 0.449987
Si Si3 0.385152 0.926831 0.568896
Si Si4 0.298950 0.568622 0.653531
Si Si5 0.040541 0.930379 0.054348
Si Si6 0.700961 0.931605 0.147567
Si Si7 0.576417 0.920348 0.262320
Si Si8 0.885433 0.572408 0.061217
O O1 0.459912 0.750000 0.271861
O O2 0.459976 0.977174 0.159983
O O3 0.525065 0.928153 0.262299
O O4 0.457550 0.019816 0.345721
O O5 0.037708 0.250000 0.457458
O O6 0.084785 0.484154 0.499825
O O7 0.000000 0.500000 0.500000
O O8 0.387142 0.750000 0.547758
O O9 0.335476 0.975106 0.581427
O O10 0.405091 0.959683 0.668052
O O11 0.250000 0.527576 0.628288
O O12 0.301153 0.750000 0.662946
O O13 0.307828 0.497558 0.752346
O O14 0.035845 0.750000 0.052006
O O15 0.084637 0.981731 0.007105
O O16 0.000000 0.000000 0.000000
O O17 0.750000 0.973469 0.122787
O O18 0.698626 0.750000 0.154395
O O19 0.663873 0.977835 0.077130
O O20 0.589073 0.750000 0.291722
O O21 0.593305 0.941271 0.160904
O O22 0.886183 0.750000 0.036989
#
# Coordination Sequence:
#
# PCOD9446757 Si02
#       8
#     8   8   8   8   8   8   8   8
#     4  10  21  37  51  68  98 132 166 208 248 285
#     4  12  24  36  52  73  98 130 167 206 246 293
#     4  11  21  32  49  73 100 134 170 202 244 293
#     4   9  18  31  47  71 102 132 165 205 246 292
#     4  11  22  35  52  73  99 131 167 205 247 293
#     4   9  17  29  47  71 100 135 170 204 246 293
#     4  10  18  30  48  69 100 135 166 204 243 282
#     4  10  19  32  48  71 102 135 170 206 245 289
#
# _framework density 15.737572
#
# number of rings (size 3 to 8) (size 9 to 14) (size 15 to 20)
#    0.000    1.750    3.750    1.875    0.000    2.500 
#    0.000    0.000    0.000    0.000    0.000    0.875 
#    0.000    1.000    0.000    0.000    0.000    0.000 
#
# Total GULP energy -357038.523561 kJ/mol
# GULP energy per Si atom -5578.726931 kJ/mol
# Density = 1.570175 g / cm^3
# Si number density = 15.737572 Si / 1000 Ang^3
#
#
#
# Elastic Constant Matrix: (Units=GPa)
#
#
# Indices 1 2 3 4 5 6 
#
# 1 116.5262 38.0709 57.7852 0.0000 0.0000 0.0000
# 2 38.0709 52.2649 42.4143 0.0000 0.0000 0.0000
# 3 57.7852 42.4143 92.8167 0.0000 0.0000 0.0000
# 4 0.0000 0.0000 0.0000 25.2962 0.0000 0.0000
# 5 0.0000 0.0000 0.0000 0.0000 22.6564 0.0000
# 6 0.0000 0.0000 0.0000 0.0000 0.0000 19.4873
#
#
#
# Elastic Compliance Matrix: (Units=1/GPa)
#
#
# Indices 1 2 3 4 5 6 
#
# 1 0.013087 -0.004642 -0.006026 0.000000 0.000000 0.000000
# 2 -0.004642 0.032058 -0.011759 0.000000 0.000000 0.000000
# 3 -0.006026 -0.011759 0.019899 0.000000 0.000000 0.000000
# 4 0.000000 0.000000 0.000000 0.039532 0.000000 0.000000
# 5 0.000000 0.000000 0.000000 0.000000 0.044138 0.000000
# 6 0.000000 0.000000 0.000000 0.000000 0.000000 0.051315
#
#
# Mechanical properties :
#
#
# Convention : Reuss Voigt Hill
#
# Bulk Modulus (GPa) = 49.53317 59.79428 54.66372
# Shear Modulus (GPa) = 19.87177 21.71049 20.79113
#
# Velocity S-wave (km/s) = 3.55730 3.71823 3.63866
# Velocity P-wave (km/s) = 6.95811 7.51737 7.24314
#
# Compressibility (1/GPa) = 0.02018849
#
# Stress axis : x y z
#
# Youngs Moduli (GPa) = 76.41274 31.19366 50.25346
#
# Poissons Ratio (x) = 0.14481 0.30283
# Poissons Ratio (y) = 0.35474 0.59094
# Poissons Ratio (z) = 0.46047 0.36681
#
# Static dielectric constant tensor:
#      x y z
#    x 1.550600 0.000000 0.000000 
#    y 0.000000 1.553950 0.000000 
#    z 0.000000 0.000000 1.502540 
# 
# From -- ./inp_files/25102.got.cif
#   From: 2010.05.17/outbox.cif.g08.bks.cpg/sg59_13_cif.got.tgz:25102.got - 2010.06.03 14:40:33.
