data_PCOD9446645
_publ_section_title
;
Structure prediction by ZEFSAII (Michael W. Deem and Ramdas Pophale) SiO2 
 PCOD9446645
Probable space group: P M M N
;
_chemical_formula_sum "Si O2"
_cell_formula_units_Z 48
_cell_length_a 14.017839
_cell_length_b 13.923950
_cell_length_c 12.966911
_cell_angle_alpha 90.000000
_cell_angle_beta 90.000000
_cell_angle_gamma 90.000000
_cell_volume 2530.929528
_symmetry_space_group_name_H-M "P M M N"
_symmetry_group_IT_number 59
_space_group.IT_coordinate_system_code '2'
_symmetry_cell_setting 'orthorhombic'
loop_
_space_group_symop_operation_xyz
x,y,z
1/2-x,1/2-y,z
1/2+x,-y,-z
-x,1/2+y,-z
-x,-y,-z
1/2+x,1/2+y,-z
1/2-x,y,z
x,1/2-y,z
loop_
_atom_site_type_symbol
_atom_site_label
_atom_site_fract_x
_atom_site_fract_y
_atom_site_fract_z
Si Si1 0.858444 0.148860 0.124186
Si Si2 0.639004 0.568509 0.198889
Si Si3 0.967640 0.891214 0.003100
Si Si4 0.483354 0.133872 0.398190
Si Si5 0.864006 0.529818 0.427234
Si Si6 0.856166 0.863848 0.794833
O O1 0.750000 0.145970 0.085748
O O2 0.869046 0.250000 0.186226
O O3 0.935029 0.155969 0.034018
O O4 0.872062 0.047365 0.180930
O O5 0.750000 0.590541 0.178949
O O6 0.617865 0.583520 0.318393
O O7 0.575938 0.624499 0.115422
O O8 0.891126 0.876996 0.911972
O O9 0.000000 0.000000 0.000000
O O10 0.495405 0.250000 0.403649
O O11 0.578411 0.071257 0.420366
O O12 0.436214 0.105441 0.287454
O O13 0.407208 0.094749 0.482028
O O14 0.750000 0.515405 0.437061
O O15 0.750000 0.905726 0.778950
O O16 0.849240 0.750000 0.778251
#
# Coordination Sequence:
#
# PCOD9446645 Si02
#       6
#     8   8   8   8   8   8
#     4   9  17  29  46  69  98 133 173 216 261 309
#     4   9  18  32  50  74 104 135 166 205 259 320
#     4  10  18  29  47  72 102 132 162 202 252 306
#     4  10  21  38  59  83 111 143 182 230 279 324
#     4  10  21  37  58  84 111 143 184 225 271 331
#     4  10  20  34  54  78 102 132 174 222 268 314
#
# _framework density 18.965364000000001
#
# number of rings (size 3 to 8) (size 9 to 14) (size 15 to 20)
#    0.000    2.333    0.000    3.500    0.000    4.000 
#    0.000    3.333    0.000    3.000    0.000    0.000 
#    0.000    0.000    0.000    0.000    0.000    0.000 
#
# Total GULP energy -267246.785629 kJ/mol
# GULP energy per Si atom -5567.641367 kJ/mol
# Density = 1.892220 g / cm^3
# Si number density = 18.965364 Si / 1000 Ang^3
#
#
#
# Elastic Constant Matrix: (Units=GPa)
#
#
# Indices 1 2 3 4 5 6 
#
# 1 120.2534 15.7440 48.8812 0.0000 0.0000 0.0000
# 2 15.7440 43.6580 5.9220 0.0000 0.0000 0.0000
# 3 48.8812 5.9220 97.7382 0.0000 0.0000 0.0000
# 4 0.0000 0.0000 0.0000 19.6719 0.0000 0.0000
# 5 0.0000 0.0000 0.0000 0.0000 7.4867 0.0000
# 6 0.0000 0.0000 0.0000 0.0000 0.0000 30.7797
#
#
#
# Elastic Compliance Matrix: (Units=1/GPa)
#
#
# Indices 1 2 3 4 5 6 
#
# 1 0.010866 -0.003208 -0.005240 0.000000 0.000000 0.000000
# 2 -0.003208 0.024042 0.000147 0.000000 0.000000 0.000000
# 3 -0.005240 0.000147 0.012843 0.000000 0.000000 0.000000
# 4 0.000000 0.000000 0.000000 0.050834 0.000000 0.000000
# 5 0.000000 0.000000 0.000000 0.000000 0.133571 0.000000
# 6 0.000000 0.000000 0.000000 0.000000 0.000000 0.032489
#
#
# Mechanical properties :
#
#
# Convention : Reuss Voigt Hill
#
# Bulk Modulus (GPa) = 32.10187 44.74933 38.42560
# Shear Modulus (GPa) = 17.14514 24.32781 20.73647
#
# Velocity S-wave (km/s) = 3.00996 3.58543 3.31023
# Velocity P-wave (km/s) = 5.38917 6.38647 5.90890
#
# Compressibility (1/GPa) = 0.03115083
#
# Stress axis : x y z
#
# Youngs Moduli (GPa) = 92.03333 41.59378 77.86323
#
# Poissons Ratio (x) = 0.13342 0.40799
# Poissons Ratio (y) = 0.29521 -0.01148
# Poissons Ratio (z) = 0.48224 -0.00613
#
# Static dielectric constant tensor:
#      x y z
#    x 1.691160 0.000000 0.000000 
#    y 0.000000 1.676230 0.000000 
#    z 0.000000 0.000000 1.665730 
# 
# From -- ./inp_files/16795.got.cif
#   From: 2010.05.17/outbox.cif.g08.bks.cpg/sg59_9_cif.got.tgz:16795.got - 2010.06.03 14:40:33.
