data_PCOD9446033
_publ_section_title
;
Structure prediction by ZEFSAII (Michael W. Deem and Ramdas Pophale) SiO2 
 PCOD9446033
Probable space group: P N N M
;
_chemical_formula_sum "Si O2"
_cell_formula_units_Z 64
_cell_length_a 15.000000
_cell_length_b 24.000000
_cell_length_c 9.000000
_cell_angle_alpha 90.000000
_cell_angle_beta 90.000000
_cell_angle_gamma 90.000000
_cell_volume 3240.000000
_symmetry_space_group_name_H-M "P N N M"
_symmetry_group_IT_number 58
_symmetry_cell_setting 'orthorhombic'
loop_
_space_group_symop_operation_xyz
x,y,z
-x,-y,z
1/2+x,1/2-y,1/2-z
1/2-x,1/2+y,1/2-z
-x,-y,-z
x,y,-z
1/2-x,1/2+y,1/2+z
1/2+x,1/2-y,1/2+z
loop_
_atom_site_type_symbol
_atom_site_label
_atom_site_fract_x
_atom_site_fract_y
_atom_site_fract_z
Si Si1 0.880487 0.623330 0.320886
Si Si2 0.035403 0.908683 0.820463
Si Si3 0.368274 0.525042 0.320217
Si Si4 0.067805 0.591612 0.822355
Si Si5 0.444037 0.290943 0.821243
Si Si6 0.860817 0.748404 0.320075
Si Si7 0.182050 0.698257 0.179367
Si Si8 0.174987 0.498233 0.320996
O O1 0.890376 0.624839 0.500000
O O2 0.844941 0.684042 0.273581
O O3 0.824711 0.567636 0.285744
O O4 0.976042 0.613107 0.247152
O O5 0.067882 0.852928 0.742397
O O6 0.935089 0.926235 0.772134
O O7 0.091741 0.964169 0.783879
O O8 0.038240 0.901537 0.000000
O O9 0.368091 0.527231 0.500000
O O10 0.267146 0.526048 0.269066
O O11 0.141685 0.638290 0.781956
O O12 0.096301 0.532541 0.754667
O O13 0.060835 0.587954 0.000000
O O14 0.542272 0.269478 0.774360
O O15 0.375812 0.247017 0.752613
O O16 0.438489 0.291017 0.000000
O O17 0.860422 0.748202 0.500000
O O18 0.783003 0.789901 0.271953
O O19 0.176623 0.703369 0.000000
O O20 0.167279 0.503104 0.500000
#
# Coordination Sequence:
#
# PCOD9446033 Si02
#       8
#     8   8   8   8   8   8   8   8
#     4  10  20  38  61  81 106 145 189 232 278 331
#     4   9  18  35  59  82 113 150 187 227 275 331
#     4   8  17  35  57  84 111 145 191 235 270 320
#     4  11  23  38  57  82 114 147 182 229 288 339
#     4  11  22  37  59  88 118 148 186 236 289 338
#     4   9  20  38  60  83 111 149 191 232 279 337
#     4  10  22  40  61  83 111 154 197 231 278 343
#     4  10  21  35  58  85 107 142 193 235 275 329
#
# _framework density 19.753086
#
# number of rings (size 3 to 8) (size 9 to 14) (size 15 to 20)
#    0.000    2.250    1.250    1.875    3.500    2.500 
#    0.000    3.750    0.000    0.000    0.000    0.000 
#    0.000    0.000    0.000    0.000    0.000    0.000 
#
# Total GULP energy -357168.266521 kJ/mol
# GULP energy per Si atom -5580.754164 kJ/mol
# Density = 1.970813 g / cm^3
# Si number density = 19.753086 Si / 1000 Ang^3
#
#
#
# Elastic Constant Matrix: (Units=GPa)
#
#
# Indices 1 2 3 4 5 6 
#
# 1 54.5561 -21.0057 -6.1280 0.0000 0.0000 0.0000
# 2 -21.0057 48.5083 5.6793 0.0000 0.0000 0.0000
# 3 -6.1280 5.6793 6.0381 0.0000 0.0000 0.0000
# 4 0.0000 0.0000 0.0000 22.4174 0.0000 0.0000
# 5 0.0000 0.0000 0.0000 0.0000 14.9638 0.0000
# 6 0.0000 0.0000 0.0000 0.0000 0.0000 -3.1620
#
#
#
# Elastic Compliance Matrix: (Units=1/GPa)
#
#
# Indices 1 2 3 4 5 6 
#
# 1 0.023280 0.008220 0.015895 0.000000 0.000000 0.000000
# 2 0.008220 0.026069 -0.016177 0.000000 0.000000 0.000000
# 3 0.015895 -0.016177 0.196962 0.000000 0.000000 0.000000
# 4 0.000000 0.000000 0.000000 0.044608 0.000000 0.000000
# 5 0.000000 0.000000 0.000000 0.000000 0.066828 0.000000
# 6 0.000000 0.000000 0.000000 0.000000 0.000000 -0.316253
#
#
# Mechanical properties :
#
#
# Convention : Reuss Voigt Hill
#
# Bulk Modulus (GPa) = 3.81407 7.35485 5.58446
# Shear Modulus (GPa) = 44.24281 15.54764 29.89523
#
# Velocity S-wave (km/s) = 4.73778 2.80857 3.89452
# Velocity P-wave (km/s) = 5.64480 3.77477 4.80170
#
# Compressibility (1/GPa) = 0.26218687
#
# Stress axis : x y z
#
# Youngs Moduli (GPa) = 42.95501 38.36027 5.07713
#
# Poissons Ratio (x) = -0.31533 -0.08070
# Poissons Ratio (y) = -0.35310 0.08213
# Poissons Ratio (z) = -0.68277 0.62056
#
# Static dielectric constant tensor:
#      x y z
#    x 1.731490 0.000000 0.000000 
#    y 0.000000 1.670940 0.000000 
#    z 0.000000 0.000000 1.652630 
# 
# From -- ./inp_files/6920.got.cif
#   From: 2010.05.17/outbox.ucp.g08.bks.cvg/sg58_4_cif.got.tgz:6920.got - 2010.06.11 16:41:41.
