data_PCOD9446023
_publ_section_title
;
Structure prediction by ZEFSAII (Michael W. Deem and Ramdas Pophale) SiO2 
 PCOD9446023
Probable space group: P N N M
;
_chemical_formula_sum "Si O2"
_cell_formula_units_Z 64
_cell_length_a 15.000000
_cell_length_b 24.000000
_cell_length_c 9.000000
_cell_angle_alpha 90.000000
_cell_angle_beta 90.000000
_cell_angle_gamma 90.000000
_cell_volume 3240.000000
_symmetry_space_group_name_H-M "P N N M"
_symmetry_group_IT_number 58
_symmetry_cell_setting 'orthorhombic'
loop_
_space_group_symop_operation_xyz
x,y,z
-x,-y,z
1/2+x,1/2-y,1/2-z
1/2-x,1/2+y,1/2-z
-x,-y,-z
x,y,-z
1/2-x,1/2+y,1/2+z
1/2+x,1/2-y,1/2+z
loop_
_atom_site_type_symbol
_atom_site_label
_atom_site_fract_x
_atom_site_fract_y
_atom_site_fract_z
Si Si1 0.936517 0.777281 0.823192
Si Si2 0.223725 0.445839 0.819835
Si Si3 0.693720 0.180380 0.680525
Si Si4 0.591746 0.966606 0.830715
Si Si5 0.621005 0.856184 0.669239
Si Si6 0.331830 0.626888 0.829887
Si Si7 0.619129 0.737193 0.177872
Si Si8 0.399459 0.504838 0.180227
O O1 0.889173 0.719279 0.772910
O O2 0.869010 0.825864 0.776931
O O3 0.030240 0.789773 0.744988
O O4 0.948407 0.775037 0.000000
O O5 0.193127 0.384093 0.772321
O O6 0.163193 0.494332 0.751636
O O7 0.326288 0.458856 0.775792
O O8 0.218132 0.448841 0.000000
O O9 0.693214 0.180588 0.500000
O O10 0.787688 0.208810 0.726221
O O11 0.575919 0.909071 0.744679
O O12 0.500000 0.000000 0.834255
O O13 0.621142 0.955086 0.000000
O O14 0.589280 0.847437 0.500000
O O15 0.725561 0.871086 0.665984
O O16 0.613937 0.800031 0.762202
O O17 0.362610 0.565810 0.782165
O O18 0.363936 0.636859 0.000000
O O19 0.616418 0.735587 0.000000
O O20 0.500000 0.500000 0.237235
O O21 0.403128 0.501983 0.000000
#
# Coordination Sequence:
#
# PCOD9446023 Si02
#       8
#     8   8   8   8   8   8   8   8
#     4  11  23  40  59  89 123 161 206 249 299 359
#     4  10  20  39  62  87 117 157 203 246 294 355
#     4   9  21  39  61  86 119 160 202 245 298 361
#     4  11  25  42  60  88 123 160 201 249 306 362
#     4  11  22  40  65  91 119 157 206 256 303 361
#     4  10  20  37  61  90 117 153 202 251 304 358
#     4  11  23  41  63  91 123 161 202 250 308 361
#     4   9  18  33  59  90 117 147 195 249 296 353
#
# _framework density 19.753086
#
# number of rings (size 3 to 8) (size 9 to 14) (size 15 to 20)
#    0.000    1.750    2.500    1.500    3.500    1.500 
#    0.000    1.875    0.000    0.750    0.000    0.000 
#    0.000    0.000    0.000    0.000    0.000    0.000 
#
# Total GULP energy -357392.106952 kJ/mol
# GULP energy per Si atom -5584.251671 kJ/mol
# Density = 1.970813 g / cm^3
# Si number density = 19.753086 Si / 1000 Ang^3
#
#
#
# Elastic Constant Matrix: (Units=GPa)
#
#
# Indices 1 2 3 4 5 6 
#
# 1 40.0520 -18.8654 3.4178 0.0000 0.0000 0.0000
# 2 -18.8654 44.4242 7.5925 0.0000 0.0000 0.0000
# 3 3.4178 7.5925 51.1031 0.0000 0.0000 0.0000
# 4 0.0000 0.0000 0.0000 29.1189 0.0000 0.0000
# 5 0.0000 0.0000 0.0000 0.0000 20.1143 0.0000
# 6 0.0000 0.0000 0.0000 0.0000 0.0000 27.1401
#
#
#
# Elastic Compliance Matrix: (Units=1/GPa)
#
#
# Indices 1 2 3 4 5 6 
#
# 1 0.032098 0.014362 -0.004281 0.000000 0.000000 0.000000
# 2 0.014362 0.029523 -0.005347 0.000000 0.000000 0.000000
# 3 -0.004281 -0.005347 0.020649 0.000000 0.000000 0.000000
# 4 0.000000 0.000000 0.000000 0.034342 0.000000 0.000000
# 5 0.000000 0.000000 0.000000 0.000000 0.049716 0.000000
# 6 0.000000 0.000000 0.000000 0.000000 0.000000 0.036846
#
#
# Mechanical properties :
#
#
# Convention : Reuss Voigt Hill
#
# Bulk Modulus (GPa) = 10.90035 13.31877 12.10956
# Shear Modulus (GPa) = 22.29318 24.83696 23.56507
#
# Velocity S-wave (km/s) = 3.36310 3.54979 3.45770
# Velocity P-wave (km/s) = 4.53992 4.85372 4.69944
#
# Compressibility (1/GPa) = 0.09174014
#
# Stress axis : x y z
#
# Youngs Moduli (GPa) = 31.15475 33.87153 48.42863
#
# Poissons Ratio (x) = -0.48648 0.20730
# Poissons Ratio (y) = -0.44746 0.25894
# Poissons Ratio (z) = 0.13336 0.18111
#
# Static dielectric constant tensor:
#      x y z
#    x 1.709950 0.000000 0.000000 
#    y 0.000000 1.689560 0.000000 
#    z 0.000000 0.000000 1.679520 
# 
# From -- ./inp_files/6792.got.cif
#   From: 2010.05.17/outbox.ucp.g08.bks.cvg/sg58_4_cif.got.tgz:6792.got - 2010.06.11 16:41:41.
