data_PCOD9446939
_publ_section_title
;
Structure prediction by ZEFSAII (Michael W. Deem and Ramdas Pophale) SiO2 
 PCOD9446939
Probable space group: P M M N
;
_chemical_formula_sum "Si O2"
_cell_formula_units_Z 48
_cell_length_a 18.193438
_cell_length_b 8.711364
_cell_length_c 16.384410
_cell_angle_alpha 90.000000
_cell_angle_beta 90.000000
_cell_angle_gamma 90.000000
_cell_volume 2596.759584
_symmetry_space_group_name_H-M "P M M N"
_symmetry_group_IT_number 59
_space_group.IT_coordinate_system_code '2'
_symmetry_cell_setting 'orthorhombic'
loop_
_space_group_symop_operation_xyz
x,y,z
1/2-x,1/2-y,z
1/2+x,-y,-z
-x,1/2+y,-z
-x,-y,-z
1/2+x,1/2+y,-z
1/2-x,y,z
x,1/2-y,z
loop_
_atom_site_type_symbol
_atom_site_label
_atom_site_fract_x
_atom_site_fract_y
_atom_site_fract_z
Si Si1 0.415061 0.931587 0.663934
Si Si2 0.664769 0.434640 0.833934
Si Si3 0.583345 0.933389 0.502755
Si Si4 0.338672 0.429547 0.818217
Si Si5 0.836607 0.934449 0.002521
Si Si6 0.920863 0.434653 0.670949
O O1 0.421651 0.750000 0.652664
O O2 0.382028 0.005116 0.581123
O O3 0.369078 0.973412 0.743747
O O4 0.495959 0.003939 0.675746
O O5 0.750000 0.485002 0.827082
O O6 0.663950 0.250000 0.837770
O O7 0.632355 0.497250 0.919010
O O8 0.621433 0.481098 0.752941
O O9 0.581365 0.750000 0.503007
O O10 0.500000 0.000000 0.500000
O O11 0.613984 0.996709 0.588126
O O12 0.250000 0.435138 0.819424
O O13 0.359549 0.250000 0.807095
O O14 0.365696 0.481336 0.908255
O O15 0.750000 0.977694 0.002229
O O16 0.840620 0.750000 0.999503
O O17 0.921728 0.250000 0.664825
#
# Coordination Sequence:
#
# PCOD9446939 Si02
#       6
#     8   8   8   8   8   8
#     4  11  21  33  51  75 101 129 165 205 245 292
#     4   9  18  32  51  75 101 129 162 202 246 290
#     4  10  18  31  51  72  96 128 166 204 244 293
#     4   9  18  34  54  75 100 130 164 202 246 294
#     4   8  15  29  50  73  97 128 163 198 239 291
#     4  10  19  33  52  73 100 132 165 203 248 295
#
# _framework density 18.484576000000001
#
# number of rings (size 3 to 8) (size 9 to 14) (size 15 to 20)
#    0.000    2.500    0.000    6.500    0.000    2.333 
#    0.000    3.333    0.000    3.000    0.000    0.000 
#    0.000    0.000    0.000    0.000    0.000    0.000 
#
# Total GULP energy -267541.918374 kJ/mol
# GULP energy per Si atom -5573.789966 kJ/mol
# Density = 1.844250 g / cm^3
# Si number density = 18.484576 Si / 1000 Ang^3
#
#
#
# Elastic Constant Matrix: (Units=GPa)
#
#
# Indices 1 2 3 4 5 6 
#
# 1 9.8489 10.6283 26.8025 0.0000 0.0000 0.0000
# 2 10.6283 84.5129 58.4979 0.0000 0.0000 0.0000
# 3 26.8025 58.4979 200.5481 0.0000 0.0000 0.0000
# 4 0.0000 0.0000 0.0000 37.6523 0.0000 0.0000
# 5 0.0000 0.0000 0.0000 0.0000 28.4525 0.0000
# 6 0.0000 0.0000 0.0000 0.0000 0.0000 12.6027
#
#
#
# Elastic Compliance Matrix: (Units=1/GPa)
#
#
# Indices 1 2 3 4 5 6 
#
# 1 0.162609 -0.006775 -0.019756 0.000000 0.000000 0.000000
# 2 -0.006775 0.015108 -0.003501 0.000000 0.000000 0.000000
# 3 -0.019756 -0.003501 0.008648 0.000000 0.000000 0.000000
# 4 0.000000 0.000000 0.000000 0.026559 0.000000 0.000000
# 5 0.000000 0.000000 0.000000 0.000000 0.035146 0.000000
# 6 0.000000 0.000000 0.000000 0.000000 0.000000 0.079348
#
#
# Mechanical properties :
#
#
# Convention : Reuss Voigt Hill
#
# Bulk Modulus (GPa) = 7.91763 54.08526 31.00144
# Shear Modulus (GPa) = 11.63918 29.00692 20.32305
#
# Velocity S-wave (km/s) = 2.51204 3.96567 3.31941
# Velocity P-wave (km/s) = 3.56462 7.09168 5.61242
#
# Compressibility (1/GPa) = 0.12630043
#
# Stress axis : x y z
#
# Youngs Moduli (GPa) = 6.14971 66.18939 115.63425
#
# Poissons Ratio (x) = 0.44845 2.28445
# Poissons Ratio (y) = 0.04167 0.40488
# Poissons Ratio (z) = 0.12149 0.23176
#
# Static dielectric constant tensor:
#      x y z
#    x 1.635000 0.000000 0.000000 
#    y 0.000000 1.621430 0.000000 
#    z 0.000000 0.000000 1.695100 
# 
# From -- ./inp_files/27367.got.cif
#   From: 2010.05.17/outbox.cif.g08.bks.cpg/sg59_14_cif.got.tgz:27367.got - 2010.06.03 14:40:33.
