data_PCOD9446318
_publ_section_title
;
Structure prediction by ZEFSAII (Michael W. Deem and Ramdas Pophale) SiO2 
 PCOD9446318
Probable space group: P M M N
;
_chemical_formula_sum "Si O2"
_cell_formula_units_Z 30
_cell_length_a 18.683927
_cell_length_b 8.452383
_cell_length_c 8.550772
_cell_angle_alpha 90.000000
_cell_angle_beta 90.000000
_cell_angle_gamma 90.000000
_cell_volume 1350.369612
_symmetry_space_group_name_H-M "P M M N"
_symmetry_group_IT_number 59
_space_group.IT_coordinate_system_code '2'
_symmetry_cell_setting 'orthorhombic'
loop_
_space_group_symop_operation_xyz
x,y,z
1/2-x,1/2-y,z
1/2+x,-y,-z
-x,1/2+y,-z
-x,-y,-z
1/2+x,1/2+y,-z
1/2-x,y,z
x,1/2-y,z
loop_
_atom_site_type_symbol
_atom_site_label
_atom_site_fract_x
_atom_site_fract_y
_atom_site_fract_z
Si Si1 0.590581 0.424945 0.550587
Si Si2 0.390414 0.250000 0.582026
Si Si3 0.834359 0.750000 0.066024
Si Si4 0.250000 0.916313 0.343181
Si Si5 0.250000 0.250000 0.359518
Si Si6 0.557063 0.569779 0.880179
O O1 0.567063 0.250000 0.499695
O O2 0.571167 0.582175 0.453087
O O3 0.677746 0.417453 0.554660
O O4 0.569368 0.461804 0.729950
O O5 0.364764 0.250000 0.758912
O O6 0.321413 0.250000 0.465258
O O7 0.750000 0.750000 0.071173
O O8 0.869901 0.898610 0.975925
O O9 0.250000 0.750000 0.252150
O O10 0.250000 0.088039 0.264054
O O11 0.536423 0.750000 0.830234
O O12 0.500000 0.500000 0.000000
#
# Coordination Sequence:
#
# PCOD9446318 Si02
#       6
#     8   4   4   4   2   8
#     4  10  19  34  62  92 125 169 224 269 328 401
#     4  10  17  37  59  97 127 169 205 280 334 401
#     4  10  23  40  69 100 132 176 223 280 351 405
#     4   8  16  26  45  85 115 149 199 258 306 370
#     4   8  14  24  52  72 124 154 184 244 332 366
#     4  10  22  40  65  90 133 176 226 274 336 397
#
# _framework density 22.216138999999998
#
# number of rings (size 3 to 8) (size 9 to 14) (size 15 to 20)
#    0.800    1.600    2.000    0.800    1.867    0.000 
#    2.400    4.000    0.000    3.200    0.000    0.000 
#    0.000    0.000    0.000    0.000    0.000    0.000 
#
# Total GULP energy -167344.837666 kJ/mol
# GULP energy per Si atom -5578.161256 kJ/mol
# Density = 2.216557 g / cm^3
# Si number density = 22.216139 Si / 1000 Ang^3
#
#
#
# Elastic Constant Matrix: (Units=GPa)
#
#
# Indices 1 2 3 4 5 6 
#
# 1 107.5270 39.8370 44.5613 0.0000 0.0000 0.0000
# 2 39.8370 223.3106 39.4949 0.0000 0.0000 0.0000
# 3 44.5613 39.4949 107.5455 0.0000 0.0000 0.0000
# 4 0.0000 0.0000 0.0000 25.9777 0.0000 0.0000
# 5 0.0000 0.0000 0.0000 0.0000 32.9705 0.0000
# 6 0.0000 0.0000 0.0000 0.0000 0.0000 33.7090
#
#
#
# Elastic Compliance Matrix: (Units=1/GPa)
#
#
# Indices 1 2 3 4 5 6 
#
# 1 0.011571 -0.001301 -0.004317 0.000000 0.000000 0.000000
# 2 -0.001301 0.004935 -0.001274 0.000000 0.000000 0.000000
# 3 -0.004317 -0.001274 0.011555 0.000000 0.000000 0.000000
# 4 0.000000 0.000000 0.000000 0.038495 0.000000 0.000000
# 5 0.000000 0.000000 0.000000 0.000000 0.030330 0.000000
# 6 0.000000 0.000000 0.000000 0.000000 0.000000 0.029666
#
#
# Mechanical properties :
#
#
# Convention : Reuss Voigt Hill
#
# Bulk Modulus (GPa) = 70.03264 76.24105 73.13685
# Shear Modulus (GPa) = 34.46077 39.49745 36.97911
#
# Velocity S-wave (km/s) = 3.94275 4.22106 4.08427
# Velocity P-wave (km/s) = 7.23317 7.62554 7.43194
#
# Compressibility (1/GPa) = 0.01427906
#
# Stress axis : x y z
#
# Youngs Moduli (GPa) = 86.42450 202.62045 86.54499
#
# Poissons Ratio (x) = 0.26355 0.37359
# Poissons Ratio (y) = 0.11241 0.11022
# Poissons Ratio (z) = 0.37307 0.25804
#
# Static dielectric constant tensor:
#      x y z
#    x 1.911500 0.000000 0.000000 
#    y 0.000000 1.890340 0.000000 
#    z 0.000000 0.000000 1.739080 
# 
# From -- ./inp_files/10942.got.cif
#   From: 2010.05.17/outbox.cif.g08.bks.cpg/sg59_6_cif.got.tgz:10942.got - 2010.06.03 14:40:33.
