data_PCOD9446401
_publ_section_title
;
Structure prediction by ZEFSAII (Michael W. Deem and Ramdas Pophale) SiO2 
 PCOD9446401
Probable space group: P M M N
;
_chemical_formula_sum "Si O2"
_cell_formula_units_Z 64
_cell_length_a 14.433607
_cell_length_b 7.779669
_cell_length_c 32.934320
_cell_angle_alpha 90.000000
_cell_angle_beta 90.000000
_cell_angle_gamma 90.000000
_cell_volume 3698.151482
_symmetry_space_group_name_H-M "P M M N"
_symmetry_group_IT_number 59
_space_group.IT_coordinate_system_code '2'
_symmetry_cell_setting 'orthorhombic'
loop_
_space_group_symop_operation_xyz
x,y,z
1/2-x,1/2-y,z
1/2+x,-y,-z
-x,1/2+y,-z
-x,-y,-z
1/2+x,1/2+y,-z
1/2-x,y,z
x,1/2-y,z
loop_
_atom_site_type_symbol
_atom_site_label
_atom_site_fract_x
_atom_site_fract_y
_atom_site_fract_z
Si Si1 0.955172 0.546650 0.942860
Si Si2 0.644403 0.957293 0.434863
Si Si3 0.853014 0.452295 0.022646
Si Si4 0.036819 0.455321 0.395466
Si Si5 0.142723 0.956592 0.228647
Si Si6 0.643768 0.544144 0.683303
Si Si7 0.858819 0.541363 0.524997
Si Si8 0.142084 0.542185 0.139766
O O1 0.956584 0.750000 0.951109
O O2 0.919288 0.517426 0.897666
O O3 0.058801 0.477541 0.952157
O O4 0.884410 0.469028 0.975747
O O5 0.750000 0.015157 0.428278
O O6 0.645678 0.750000 0.436232
O O7 0.613393 0.019610 0.479926
O O8 0.571523 0.012058 0.401241
O O9 0.750000 0.526663 0.028819
O O10 0.847167 0.250000 0.032273
O O11 0.051383 0.250000 0.395590
O O12 0.083481 0.522373 0.354341
O O13 0.085511 0.525498 0.436341
O O14 0.250000 0.015803 0.229803
O O15 0.142847 0.750000 0.227971
O O16 0.107188 0.014439 0.184526
O O17 0.102518 0.008946 0.272041
O O18 0.750000 0.476840 0.681305
O O19 0.649422 0.750000 0.679541
O O20 0.750000 0.502461 0.529940
O O21 0.866872 0.750000 0.524656
O O22 0.250000 0.487565 0.135028
O O23 0.142504 0.750000 0.139330
#
# Coordination Sequence:
#
# PCOD9446401 Si02
#       8
#     8   8   8   8   8   8   8   8
#     4  10  19  28  42  66  88 109 146 189 218 245
#     4   9  18  31  44  58  79 109 143 176 208 241
#     4   9  18  32  45  57  83 122 152 175 212 258
#     4  10  18  27  43  65  85 108 138 170 205 246
#     4   8  15  28  44  61  83 113 144 169 199 246
#     4   9  17  28  42  63  90 114 135 163 203 251
#     4   8  14  26  43  61  83 111 139 166 200 245
#     4   9  17  29  44  62  87 118 145 169 206 255
#
# _framework density 17.305942000000002
#
# number of rings (size 3 to 8) (size 9 to 14) (size 15 to 20)
#    0.000    3.000    0.000    3.000    0.000    5.250 
#    0.000    1.250    0.000    1.875    0.000    0.875 
#    0.000    3.000    0.000    0.000    0.000    0.000 
#
# Total GULP energy -356497.715524 kJ/mol
# GULP energy per Si atom -5570.276805 kJ/mol
# Density = 1.726655 g / cm^3
# Si number density = 17.305942 Si / 1000 Ang^3
#
#
#
# Elastic Constant Matrix: (Units=GPa)
#
#
# Indices 1 2 3 4 5 6 
#
# 1 82.6573 0.0526 65.9225 0.0000 0.0000 0.0000
# 2 0.0526 20.9878 -0.8923 0.0000 0.0000 0.0000
# 3 65.9225 -0.8923 138.6051 0.0000 0.0000 0.0000
# 4 0.0000 0.0000 0.0000 17.5727 0.0000 0.0000
# 5 0.0000 0.0000 0.0000 0.0000 24.1956 0.0000
# 6 0.0000 0.0000 0.0000 0.0000 0.0000 12.9027
#
#
#
# Elastic Compliance Matrix: (Units=1/GPa)
#
#
# Indices 1 2 3 4 5 6 
#
# 1 0.019496 -0.000443 -0.009275 0.000000 0.000000 0.000000
# 2 -0.000443 0.047670 0.000518 0.000000 0.000000 0.000000
# 3 -0.009275 0.000518 0.011630 0.000000 0.000000 0.000000
# 4 0.000000 0.000000 0.000000 0.056906 0.000000 0.000000
# 5 0.000000 0.000000 0.000000 0.000000 0.041330 0.000000
# 6 0.000000 0.000000 0.000000 0.000000 0.000000 0.077503
#
#
# Mechanical properties :
#
#
# Convention : Reuss Voigt Hill
#
# Bulk Modulus (GPa) = 16.55804 41.37952 28.96878
# Shear Modulus (GPa) = 17.06089 22.74536 19.90312
#
# Velocity S-wave (km/s) = 3.14322 3.62927 3.39495
# Velocity P-wave (km/s) = 4.77092 6.44396 5.66949
#
# Compressibility (1/GPa) = 0.06039361
#
# Stress axis : x y z
#
# Youngs Moduli (GPa) = 51.29288 20.97759 85.98776
#
# Poissons Ratio (x) = 0.00930 0.79757
# Poissons Ratio (y) = 0.02273 -0.04451
# Poissons Ratio (z) = 0.47576 -0.01086
#
# Static dielectric constant tensor:
#      x y z
#    x 1.596690 0.000000 0.000000 
#    y 0.000000 1.649070 0.000000 
#    z 0.000000 0.000000 1.604140 
# 
# From -- ./inp_files/33201.got.cif
#   From: 2010.05.17/outbox.cif.g08.bks.cpg/sg59_17_cif.got.tgz:33201.got - 2010.06.03 14:40:33.
