data_PCOD9446200
_publ_section_title
;
Structure prediction by ZEFSAII (Michael W. Deem and Ramdas Pophale) SiO2 
 PCOD9446200
Probable space group: P M M N
;
_chemical_formula_sum "Si O2"
_cell_formula_units_Z 48
_cell_length_a 20.732987
_cell_length_b 9.119964
_cell_length_c 15.808171
_cell_angle_alpha 90.000000
_cell_angle_beta 90.000000
_cell_angle_gamma 90.000000
_cell_volume 2989.073708
_symmetry_space_group_name_H-M "P M M N"
_symmetry_group_IT_number 59
_space_group.IT_coordinate_system_code '2'
_symmetry_cell_setting 'orthorhombic'
loop_
_space_group_symop_operation_xyz
x,y,z
1/2-x,1/2-y,z
1/2+x,-y,-z
-x,1/2+y,-z
-x,-y,-z
1/2+x,1/2+y,-z
1/2-x,y,z
x,1/2-y,z
loop_
_atom_site_type_symbol
_atom_site_label
_atom_site_fract_x
_atom_site_fract_y
_atom_site_fract_z
Si Si1 0.434863 0.073626 0.034052
Si Si2 0.539269 0.573551 0.776080
Si Si3 0.086278 0.918478 0.572187
Si Si4 0.098272 0.074272 0.743215
Si Si5 0.177294 0.071738 0.907546
Si Si6 0.070027 0.418948 0.405199
O O1 0.440965 0.250000 0.024663
O O2 0.428672 0.042102 0.133851
O O3 0.374072 0.024058 0.978271
O O4 0.500000 0.000000 0.000000
O O5 0.528117 0.750000 0.770270
O O6 0.470570 0.492635 0.771310
O O7 0.579293 0.532655 0.691908
O O8 0.106212 0.750000 0.577838
O O9 0.008057 0.923061 0.583259
O O10 0.113328 0.010616 0.650666
O O11 0.099540 0.985299 0.480050
O O12 0.093202 0.250000 0.739251
O O13 0.149641 0.033198 0.815186
O O14 0.250000 0.018581 0.920645
O O15 0.178675 0.250000 0.910838
O O16 0.090196 0.250000 0.414995
#
# Coordination Sequence:
#
# PCOD9446200 Si02
#       6
#     8   8   8   8   8   8
#     4  10  18  30  48  69  92 121 155 194 235 277
#     4   9  17  27  42  64  91 117 147 188 231 270
#     4   9  16  25  38  58  86 117 145 180 221 263
#     4  10  17  26  43  64  86 118 152 183 223 272
#     4   9  18  31  46  67  94 123 156 191 230 279
#     4   8  14  24  36  56  85 116 145 176 217 266
#
# _framework density 16.058485999999998
#
# number of rings (size 3 to 8) (size 9 to 14) (size 15 to 20)
#    0.000    2.833    1.667    2.000    0.000    4.000 
#    0.000    0.000    0.000    4.500    0.000    1.167 
#    0.000    6.667    0.000    0.000    0.000    0.000 
#
# Total GULP energy -267260.199497 kJ/mol
# GULP energy per Si atom -5567.920823 kJ/mol
# Density = 1.602194 g / cm^3
# Si number density = 16.058486 Si / 1000 Ang^3
#
#
#
# Elastic Constant Matrix: (Units=GPa)
#
#
# Indices 1 2 3 4 5 6 
#
# 1 68.2763 22.0262 58.8219 0.0000 0.0000 0.0000
# 2 22.0262 37.4867 49.7796 0.0000 0.0000 0.0000
# 3 58.8219 49.7796 175.1995 0.0000 0.0000 0.0000
# 4 0.0000 0.0000 0.0000 22.7413 0.0000 0.0000
# 5 0.0000 0.0000 0.0000 0.0000 12.8187 0.0000
# 6 0.0000 0.0000 0.0000 0.0000 0.0000 10.1412
#
#
#
# Elastic Compliance Matrix: (Units=1/GPa)
#
#
# Indices 1 2 3 4 5 6 
#
# 1 0.021134 -0.004810 -0.005729 0.000000 0.000000 0.000000
# 2 -0.004810 0.043935 -0.010868 0.000000 0.000000 0.000000
# 3 -0.005729 -0.010868 0.010719 0.000000 0.000000 0.000000
# 4 0.000000 0.000000 0.000000 0.043973 0.000000 0.000000
# 5 0.000000 0.000000 0.000000 0.000000 0.078011 0.000000
# 6 0.000000 0.000000 0.000000 0.000000 0.000000 0.098608
#
#
# Mechanical properties :
#
#
# Convention : Reuss Voigt Hill
#
# Bulk Modulus (GPa) = 30.32777 60.24643 45.28710
# Shear Modulus (GPa) = 14.27818 19.16255 16.72037
#
# Velocity S-wave (km/s) = 2.98507 3.45816 3.23029
# Velocity P-wave (km/s) = 5.55047 7.31734 6.49427
#
# Compressibility (1/GPa) = 0.03297308
#
# Stress axis : x y z
#
# Youngs Moduli (GPa) = 47.31792 22.76108 93.29111
#
# Poissons Ratio (x) = 0.10949 0.53444
# Poissons Ratio (y) = 0.22761 1.01390
# Poissons Ratio (z) = 0.27107 0.24737
#
# Static dielectric constant tensor:
#      x y z
#    x 1.505380 0.000000 0.000000 
#    y 0.000000 1.539070 0.000000 
#    z 0.000000 0.000000 1.574380 
# 
# From -- ./inp_files/21250.got.cif
#   From: 2010.05.17/outbox.cif.g08.bks.cpg/sg59_11_cif.got.tgz:21250.got - 2010.06.03 14:40:33.
