data_PCOD9446503
_publ_section_title
;
Structure prediction by ZEFSAII (Michael W. Deem and Ramdas Pophale) SiO2 
 PCOD9446503
Probable space group: P M M N
;
_chemical_formula_sum "Si O2"
_cell_formula_units_Z 64
_cell_length_a 15.011539
_cell_length_b 7.480068
_cell_length_c 29.157387
_cell_angle_alpha 90.000000
_cell_angle_beta 90.000000
_cell_angle_gamma 90.000000
_cell_volume 3274.005209
_symmetry_space_group_name_H-M "P M M N"
_symmetry_group_IT_number 59
_space_group.IT_coordinate_system_code '2'
_symmetry_cell_setting 'orthorhombic'
loop_
_space_group_symop_operation_xyz
x,y,z
1/2-x,1/2-y,z
1/2+x,-y,-z
-x,1/2+y,-z
-x,-y,-z
1/2+x,1/2+y,-z
1/2-x,y,z
x,1/2-y,z
loop_
_atom_site_type_symbol
_atom_site_label
_atom_site_fract_x
_atom_site_fract_y
_atom_site_fract_z
Si Si1 0.533684 0.537646 0.614463
Si Si2 0.853001 0.533952 0.962764
Si Si3 0.351655 0.468604 0.932909
Si Si4 0.649660 0.038100 0.804618
Si Si5 0.850300 0.964726 0.425432
Si Si6 0.646938 0.532450 0.528767
Si Si7 0.518248 0.044185 0.880184
Si Si8 0.351498 0.034197 0.300869
O O1 0.549521 0.750000 0.614368
O O2 0.428610 0.511091 0.609230
O O3 0.582302 0.466323 0.568656
O O4 0.580543 0.468317 0.660442
O O5 0.750000 0.484371 0.953615
O O6 0.858210 0.750000 0.960873
O O7 0.918345 0.458983 0.924743
O O8 0.874752 0.477831 0.014839
O O9 0.250000 0.522156 0.923516
O O10 0.353410 0.250000 0.932963
O O11 0.424685 0.534496 0.897007
O O12 0.750000 0.964687 0.811646
O O13 0.655073 0.250000 0.814241
O O14 0.575565 0.962552 0.838859
O O15 0.626543 0.016961 0.751213
O O16 0.750000 0.027781 0.414645
O O17 0.846536 0.750000 0.427559
O O18 0.874391 0.028649 0.477051
O O19 0.750000 0.485721 0.538471
O O20 0.642806 0.750000 0.528173
O O21 0.499319 0.250000 0.867388
O O22 0.250000 0.974093 0.310642
O O23 0.350787 0.250000 0.302028
#
# Coordination Sequence:
#
# PCOD9446503 Si02
#       8
#     8   8   8   8   8   8   8   8
#     4  10  18  28  47  71  90 113 149 190 226 259
#     4   9  17  28  42  63  92 122 148 176 215 263
#     4   8  15  28  44  63  89 119 149 181 217 257
#     4   9  18  31  45  64  90 115 141 179 226 268
#     4   9  18  31  45  63  91 126 156 180 213 260
#     4   8  14  26  44  66  93 122 149 179 218 264
#     4  10  18  28  46  68  88 115 151 187 220 256
#     4   9  18  32  49  69  91 115 145 179 218 268
#
# _framework density 19.547920999999999
#
# number of rings (size 3 to 8) (size 9 to 14) (size 15 to 20)
#    0.000    3.000    0.000    3.000    0.000    3.500 
#    0.000    1.250    0.000    3.750    0.000    1.750 
#    0.000    0.000    0.000    0.000    0.000    0.000 
#
# Total GULP energy -357060.081794 kJ/mol
# GULP energy per Si atom -5579.063778 kJ/mol
# Density = 1.950343 g / cm^3
# Si number density = 19.547921 Si / 1000 Ang^3
#
#
#
# Elastic Constant Matrix: (Units=GPa)
#
#
# Indices 1 2 3 4 5 6 
#
# 1 123.2421 -4.4976 101.8605 0.0000 0.0000 0.0000
# 2 -4.4976 53.4792 -1.6756 0.0000 0.0000 0.0000
# 3 101.8605 -1.6756 117.3747 0.0000 0.0000 0.0000
# 4 0.0000 0.0000 0.0000 4.1490 0.0000 0.0000
# 5 0.0000 0.0000 0.0000 0.0000 36.3258 0.0000
# 6 0.0000 0.0000 0.0000 0.0000 0.0000 9.2057
#
#
#
# Elastic Compliance Matrix: (Units=1/GPa)
#
#
# Indices 1 2 3 4 5 6 
#
# 1 0.028842 0.001642 -0.025006 0.000000 0.000000 0.000000
# 2 0.001642 0.018801 -0.001157 0.000000 0.000000 0.000000
# 3 -0.025006 -0.001157 0.030204 0.000000 0.000000 0.000000
# 4 0.000000 0.000000 0.000000 0.241022 0.000000 0.000000
# 5 0.000000 0.000000 0.000000 0.000000 0.027529 0.000000
# 6 0.000000 0.000000 0.000000 0.000000 0.000000 0.108628
#
#
# Mechanical properties :
#
#
# Convention : Reuss Voigt Hill
#
# Bulk Modulus (GPa) = 34.71593 53.94119 44.32856
# Shear Modulus (GPa) = 9.73391 23.16335 16.44863
#
# Velocity S-wave (km/s) = 2.23390 3.44605 2.90393
# Velocity P-wave (km/s) = 4.94487 6.59454 5.82836
#
# Compressibility (1/GPa) = 0.02880522
#
# Stress axis : x y z
#
# Youngs Moduli (GPa) = 34.67193 53.18948 33.10809
#
# Poissons Ratio (x) = -0.08734 0.82790
# Poissons Ratio (y) = -0.05694 0.03830
# Poissons Ratio (z) = 0.86701 0.06152
#
# Static dielectric constant tensor:
#      x y z
#    x 1.694780 0.000000 0.000000 
#    y 0.000000 1.746700 0.000000 
#    z 0.000000 0.000000 1.665550 
# 
# From -- ./inp_files/31949.got.cif
#   From: 2010.05.17/outbox.cif.g08.bks.cpg/sg59_16_cif.got.tgz:31949.got - 2010.06.03 14:40:33.
