data_PCOD9446066
_publ_section_title
;
Structure prediction by ZEFSAII (Michael W. Deem and Ramdas Pophale) SiO2 
 PCOD9446066
Probable space group: P N N M
;
_chemical_formula_sum "Si O2"
_cell_formula_units_Z 44
_cell_length_a 9.000000
_cell_length_b 18.000000
_cell_length_c 15.000000
_cell_angle_alpha 90.000000
_cell_angle_beta 90.000000
_cell_angle_gamma 90.000000
_cell_volume 2430.000000
_symmetry_space_group_name_H-M "P N N M"
_symmetry_group_IT_number 58
_symmetry_cell_setting 'orthorhombic'
loop_
_space_group_symop_operation_xyz
x,y,z
-x,-y,z
1/2+x,1/2-y,1/2-z
1/2-x,1/2+y,1/2-z
-x,-y,-z
x,y,-z
1/2-x,1/2+y,1/2+z
1/2+x,1/2-y,1/2+z
loop_
_atom_site_type_symbol
_atom_site_label
_atom_site_fract_x
_atom_site_fract_y
_atom_site_fract_z
Si Si1 0.000000 0.500000 0.330384
Si Si2 0.790529 0.081268 0.100354
Si Si3 0.266325 0.240502 0.401133
Si Si4 0.910318 0.220068 0.605229
Si Si5 0.814432 0.355709 0.732956
Si Si6 0.516400 0.581340 0.774284
O O1 0.131693 0.459117 0.385111
O O2 0.081536 0.570665 0.280328
O O3 0.785896 0.171029 0.106014
O O4 0.891252 0.062556 0.185066
O O5 0.843484 0.062240 0.000000
O O6 0.316564 0.216788 0.500000
O O7 0.341976 0.192109 0.323488
O O8 0.088549 0.230770 0.395793
O O9 0.863468 0.213861 0.500000
O O10 0.839559 0.293154 0.654580
O O11 0.898824 0.143866 0.664810
O O12 0.644083 0.385011 0.744147
O O13 0.500000 0.500000 0.820802
#
# Coordination Sequence:
#
# PCOD9446066 Si02
#       6
#     4   8   8   8   8   8
#     4  12  23  38  61  90 120 162 199 248 297 356
#     4  11  22  38  60  87 121 157 196 244 301 358
#     4   9  19  38  62  85 114 159 201 241 291 353
#     4  10  21  38  63  89 117 158 207 241 285 360
#     4  11  22  38  64  88 122 157 202 247 297 356
#     4  11  23  41  60  91 126 156 193 251 308 347
#
# _framework density 18.106995999999999
#
# number of rings (size 3 to 8) (size 9 to 14) (size 15 to 20)
#    0.000    1.455    5.455    0.273    0.000    2.182 
#    0.000    0.455    0.000    0.000    0.000    0.000 
#    0.000    0.000    0.000    0.000    0.000    0.000 
#
# Total GULP energy -245111.746379 kJ/mol
# GULP energy per Si atom -5570.721509 kJ/mol
# Density = 1.806578 g / cm^3
# Si number density = 18.106996 Si / 1000 Ang^3
#
#
#
# Elastic Constant Matrix: (Units=GPa)
#
#
# Indices 1 2 3 4 5 6 
#
# 1 45.8598 25.4508 29.1948 0.0000 0.0000 0.0000
# 2 25.4508 140.7958 58.7651 0.0000 0.0000 0.0000
# 3 29.1948 58.7651 136.0470 0.0000 0.0000 0.0000
# 4 0.0000 0.0000 0.0000 22.7195 0.0000 0.0000
# 5 0.0000 0.0000 0.0000 0.0000 25.8399 0.0000
# 6 0.0000 0.0000 0.0000 0.0000 0.0000 37.0496
#
#
#
# Elastic Compliance Matrix: (Units=1/GPa)
#
#
# Indices 1 2 3 4 5 6 
#
# 1 0.026201 -0.002915 -0.004363 0.000000 0.000000 0.000000
# 2 -0.002915 0.008989 -0.003257 0.000000 0.000000 0.000000
# 3 -0.004363 -0.003257 0.009694 0.000000 0.000000 0.000000
# 4 0.000000 0.000000 0.000000 0.044015 0.000000 0.000000
# 5 0.000000 0.000000 0.000000 0.000000 0.038700 0.000000
# 6 0.000000 0.000000 0.000000 0.000000 0.000000 0.026991
#
#
# Mechanical properties :
#
#
# Convention : Reuss Voigt Hill
#
# Bulk Modulus (GPa) = 41.99484 61.05821 51.52653
# Shear Modulus (GPa) = 27.23337 31.07460 29.15398
#
# Velocity S-wave (km/s) = 3.88238 4.14716 4.01695
# Velocity P-wave (km/s) = 6.58332 7.53166 7.07340
#
# Compressibility (1/GPa) = 0.02381245
#
# Stress axis : x y z
#
# Youngs Moduli (GPa) = 38.16622 111.24851 103.15978
#
# Poissons Ratio (x) = 0.32429 0.45014
# Poissons Ratio (y) = 0.11125 0.33601
# Poissons Ratio (z) = 0.16654 0.36236
#
# Static dielectric constant tensor:
#      x y z
#    x 1.625160 0.000000 0.000000 
#    y 0.000000 1.658610 0.000000 
#    z 0.000000 0.000000 1.646990 
# 
# From -- ./inp_files/19713.got.cif
#   From: 2010.05.17/outbox.ucp.g08.bks.cvg/sg58_10_cif.got.tgz:19713.got - 2010.06.11 16:41:41.
