data_PCOD9446095
_publ_section_title
;
Structure prediction by ZEFSAII (Michael W. Deem and Ramdas Pophale) SiO2 
 PCOD9446095
Probable space group: P N N M
;
_chemical_formula_sum "Si O2"
_cell_formula_units_Z 48
_cell_length_a 15.000000
_cell_length_b 18.000000
_cell_length_c 9.000000
_cell_angle_alpha 90.000000
_cell_angle_beta 90.000000
_cell_angle_gamma 90.000000
_cell_volume 2430.000000
_symmetry_space_group_name_H-M "P N N M"
_symmetry_group_IT_number 58
_symmetry_cell_setting 'orthorhombic'
loop_
_space_group_symop_operation_xyz
x,y,z
-x,-y,z
1/2+x,1/2-y,1/2-z
1/2-x,1/2+y,1/2-z
-x,-y,-z
x,y,-z
1/2-x,1/2+y,1/2+z
1/2+x,1/2-y,1/2+z
loop_
_atom_site_type_symbol
_atom_site_label
_atom_site_fract_x
_atom_site_fract_y
_atom_site_fract_z
Si Si1 0.565970 0.931310 0.333218
Si Si2 0.914714 0.176496 0.324757
Si Si3 0.450286 0.577331 0.665196
Si Si4 0.456310 0.807666 0.822571
Si Si5 0.255750 0.767657 0.179371
Si Si6 0.256265 0.104030 0.821820
O O1 0.581796 0.900615 0.500000
O O2 0.504416 0.880271 0.231757
O O3 0.662718 0.940512 0.255934
O O4 0.500000 0.000000 0.349025
O O5 0.895575 0.180367 0.500000
O O6 0.822132 0.177554 0.235872
O O7 0.987314 0.114454 0.287963
O O8 0.972703 0.246560 0.272848
O O9 0.500000 0.500000 0.647642
O O10 0.454152 0.614835 0.500000
O O11 0.345137 0.574918 0.704959
O O12 0.354888 0.793879 0.772545
O O13 0.452750 0.804747 0.000000
O O14 0.239532 0.687381 0.254759
O O15 0.253296 0.761648 0.000000
O O16 0.270262 0.105556 0.000000
#
# Coordination Sequence:
#
# PCOD9446095 Si02
#       6
#     8   8   8   8   8   8
#     4  11  25  42  62  90 125 163 205 252 306 366
#     4  11  22  38  61  93 124 155 204 252 300 360
#     4  10  23  42  63  90 125 165 207 250 304 366
#     4  10  22  39  61  90 121 157 204 251 301 361
#     4  11  22  38  62  91 124 160 202 253 304 361
#     4  11  22  38  63  90 119 160 205 251 306 365
#
# _framework density 19.753086
#
# number of rings (size 3 to 8) (size 9 to 14) (size 15 to 20)
#    0.000    1.333    3.333    2.000    0.000    5.667 
#    0.000    5.000    0.000    0.000    0.000    0.000 
#    0.000    0.000    0.000    0.000    0.000    0.000 
#
# Total GULP energy -267417.463735 kJ/mol
# GULP energy per Si atom -5571.197161 kJ/mol
# Density = 1.970813 g / cm^3
# Si number density = 19.753086 Si / 1000 Ang^3
#
#
#
# Elastic Constant Matrix: (Units=GPa)
#
#
# Indices 1 2 3 4 5 6 
#
# 1 147.8438 5.4654 23.5134 0.0000 0.0000 0.0000
# 2 5.4654 -1.9834 -68.0676 0.0000 0.0000 0.0000
# 3 23.5134 -68.0676 -96.7601 0.0000 0.0000 0.0000
# 4 0.0000 0.0000 0.0000 11.5817 0.0000 0.0000
# 5 0.0000 0.0000 0.0000 0.0000 53.5773 0.0000
# 6 0.0000 0.0000 0.0000 0.0000 0.0000 -14.2252
#
#
#
# Elastic Compliance Matrix: (Units=1/GPa)
#
#
# Indices 1 2 3 4 5 6 
#
# 1 0.006628 0.001599 0.000486 0.000000 0.000000 0.000000
# 2 0.001599 0.022172 -0.015209 0.000000 0.000000 0.000000
# 3 0.000486 -0.015209 0.000482 0.000000 0.000000 0.000000
# 4 0.000000 0.000000 0.000000 0.086343 0.000000 0.000000
# 5 0.000000 0.000000 0.000000 0.000000 0.018665 0.000000
# 6 0.000000 0.000000 0.000000 0.000000 0.000000 -0.070298
#
#
# Mechanical properties :
#
#
# Convention : Reuss Voigt Hill
#
# Bulk Modulus (GPa) = 329.62685 -3.23081 163.19802
# Shear Modulus (GPa) = 54.79335 16.06603 35.42969
#
# Velocity S-wave (km/s) = 5.27251 2.85501 4.23972
# Velocity P-wave (km/s) = 14.29341 3.03792 10.33273
#
# Compressibility (1/GPa) = 0.00303373
#
# Stress axis : x y z
#
# Youngs Moduli (GPa) = 150.88522 45.10117 2074.06483
#
# Poissons Ratio (x) = -0.07213 -1.00708
# Poissons Ratio (y) = -0.24130 31.54430
# Poissons Ratio (z) = -0.07326 0.68594
#
# Static dielectric constant tensor:
#      x y z
#    x 1.700970 0.000000 0.000000 
#    y 0.000000 1.645580 0.000000 
#    z 0.000000 0.000000 1.706340 
# 
# From -- ./inp_files/5851.got.cif
#   From: 2010.05.17/outbox.ucp.g08.bks.cvg/sg58_3_cif.got.tgz:5851.got - 2010.06.11 16:41:41.
