data_PCOD9446264
_publ_section_title
;
Structure prediction by ZEFSAII (Michael W. Deem and Ramdas Pophale) SiO2 
 PCOD9446264
Probable space group: P M M N
;
_chemical_formula_sum "Si O2"
_cell_formula_units_Z 64
_cell_length_a 8.616413
_cell_length_b 20.559492
_cell_length_c 20.218670
_cell_angle_alpha 90.000000
_cell_angle_beta 90.000000
_cell_angle_gamma 90.000000
_cell_volume 3581.718671
_symmetry_space_group_name_H-M "P M M N"
_symmetry_group_IT_number 59
_space_group.IT_coordinate_system_code '2'
_symmetry_cell_setting 'orthorhombic'
loop_
_space_group_symop_operation_xyz
x,y,z
1/2-x,1/2-y,z
1/2+x,-y,-z
-x,1/2+y,-z
-x,-y,-z
1/2+x,1/2+y,-z
1/2-x,y,z
x,1/2-y,z
loop_
_atom_site_type_symbol
_atom_site_label
_atom_site_fract_x
_atom_site_fract_y
_atom_site_fract_z
Si Si1 0.064030 0.080663 0.850931
Si Si2 0.564099 0.609118 0.393441
Si Si3 0.062822 0.824062 0.039322
Si Si4 0.937078 0.176518 0.115006
Si Si5 0.565175 0.070051 0.475669
Si Si6 0.436441 0.469972 0.345135
Si Si7 0.935365 0.945109 0.806075
Si Si8 0.438793 0.321747 0.737105
O O1 0.250000 0.077507 0.849712
O O2 0.008235 0.122720 0.787465
O O3 0.010332 0.121407 0.914420
O O4 0.999038 0.008267 0.844312
O O5 0.750000 0.607974 0.400393
O O6 0.489314 0.617184 0.465555
O O7 0.509829 0.539948 0.363033
O O8 0.518796 0.661372 0.338063
O O9 0.250000 0.827181 0.044371
O O10 0.015528 0.750000 0.058313
O O11 0.021269 0.833486 0.962257
O O12 0.750000 0.174019 0.118609
O O13 0.985699 0.250000 0.133465
O O14 0.005883 0.120578 0.160297
O O15 0.750000 0.067343 0.472407
O O16 0.495089 0.078427 0.402710
O O17 0.500000 0.000000 0.500000
O O18 0.250000 0.475237 0.348854
O O19 0.483062 0.450369 0.271094
O O20 0.750000 0.946918 0.807995
O O21 0.250000 0.322007 0.739674
O O22 0.492960 0.250000 0.756625
#
# Coordination Sequence:
#
# PCOD9446264 Si02
#       8
#     8   8   8   8   8   8   8   8
#     4  11  21  34  54  80 111 145 185 227 267 319
#     4  10  17  29  49  71 100 136 175 218 263 310
#     4   9  19  37  58  80 109 144 181 223 270 321
#     4   9  20  40  63  83 105 137 177 219 270 334
#     4  10  18  28  46  71  99 130 169 213 258 308
#     4  10  19  32  49  73 105 135 169 213 263 315
#     4  11  23  36  55  82 113 143 176 224 276 325
#     4   9  18  31  48  73 105 142 183 223 264 314
#
# _framework density 17.868516
#
# number of rings (size 3 to 8) (size 9 to 14) (size 15 to 20)
#    0.000    2.125    1.250    5.250    0.000    3.500 
#    0.000    1.250    0.000    4.500    0.000    1.750 
#    0.000    0.000    0.000    0.000    0.000    0.000 
#
# Total GULP energy -357041.196797 kJ/mol
# GULP energy per Si atom -5578.768700 kJ/mol
# Density = 1.782785 g / cm^3
# Si number density = 17.868516 Si / 1000 Ang^3
#
#
#
# Elastic Constant Matrix: (Units=GPa)
#
#
# Indices 1 2 3 4 5 6 
#
# 1 48.9144 24.6628 32.9479 0.0000 0.0000 0.0000
# 2 24.6628 107.4201 68.6142 0.0000 0.0000 0.0000
# 3 32.9479 68.6142 110.3445 0.0000 0.0000 0.0000
# 4 0.0000 0.0000 0.0000 20.4151 0.0000 0.0000
# 5 0.0000 0.0000 0.0000 0.0000 26.6801 0.0000
# 6 0.0000 0.0000 0.0000 0.0000 0.0000 19.1222
#
#
#
# Elastic Compliance Matrix: (Units=1/GPa)
#
#
# Indices 1 2 3 4 5 6 
#
# 1 0.025768 -0.001661 -0.006661 0.000000 0.000000 0.000000
# 2 -0.001661 0.015550 -0.009173 0.000000 0.000000 0.000000
# 3 -0.006661 -0.009173 0.016756 0.000000 0.000000 0.000000
# 4 0.000000 0.000000 0.000000 0.048983 0.000000 0.000000
# 5 0.000000 0.000000 0.000000 0.000000 0.037481 0.000000
# 6 0.000000 0.000000 0.000000 0.000000 0.000000 0.052295
#
#
# Mechanical properties :
#
#
# Convention : Reuss Voigt Hill
#
# Bulk Modulus (GPa) = 43.32295 57.68099 50.50197
# Shear Modulus (GPa) = 20.87514 22.60710 21.74112
#
# Velocity S-wave (km/s) = 3.42170 3.56081 3.49195
# Velocity P-wave (km/s) = 6.31733 7.01831 6.67703
#
# Compressibility (1/GPa) = 0.02308245
#
# Stress axis : x y z
#
# Youngs Moduli (GPa) = 38.80729 64.30843 59.68177
#
# Poissons Ratio (x) = 0.10685 0.39755
# Poissons Ratio (y) = 0.06448 0.54747
# Poissons Ratio (z) = 0.25850 0.58991
#
# Static dielectric constant tensor:
#      x y z
#    x 1.600600 0.000000 0.000000 
#    y 0.000000 1.597820 0.000000 
#    z 0.000000 0.000000 1.640470 
# 
# From -- ./inp_files/26320.got.cif
#   From: 2010.05.17/outbox.cif.g08.bks.cpg/sg59_14_cif.got.tgz:26320.got - 2010.06.03 14:40:33.
