data_PCOD9446006
_publ_section_title
;
Structure prediction by ZEFSAII (Michael W. Deem and Ramdas Pophale) SiO2 
 PCOD9446006
Probable space group: P N N M
;
_chemical_formula_sum "Si O2"
_cell_formula_units_Z 64
_cell_length_a 30.000000
_cell_length_b 12.000000
_cell_length_c 9.000000
_cell_angle_alpha 90.000000
_cell_angle_beta 90.000000
_cell_angle_gamma 90.000000
_cell_volume 3240.000000
_symmetry_space_group_name_H-M "P N N M"
_symmetry_group_IT_number 58
_symmetry_cell_setting 'orthorhombic'
loop_
_space_group_symop_operation_xyz
x,y,z
-x,-y,z
1/2+x,1/2-y,1/2-z
1/2-x,1/2+y,1/2-z
-x,-y,-z
x,y,-z
1/2-x,1/2+y,1/2+z
1/2+x,1/2-y,1/2+z
loop_
_atom_site_type_symbol
_atom_site_label
_atom_site_fract_x
_atom_site_fract_y
_atom_site_fract_z
Si Si1 0.068519 0.296987 0.829538
Si Si2 0.746944 0.580832 0.169250
Si Si3 0.646700 0.378608 0.667691
Si Si4 0.640500 0.591009 0.166082
Si Si5 0.502617 0.623636 0.325828
Si Si6 0.591210 0.765763 0.329594
Si Si7 0.447562 0.017359 0.175526
Si Si8 0.262800 0.674098 0.822897
O O1 0.111449 0.219810 0.836122
O O2 0.075486 0.405142 0.731647
O O3 0.029866 0.218169 0.762872
O O4 0.056347 0.330436 0.000000
O O5 0.693446 0.577011 0.160724
O O6 0.758819 0.450847 0.221526
O O7 0.754105 0.700436 0.254530
O O8 0.764989 0.592934 0.000000
O O9 0.663858 0.398052 0.500000
O O10 0.624313 0.491847 0.727130
O O11 0.686094 0.345181 0.776838
O O12 0.629730 0.711160 0.232627
O O13 0.622009 0.580062 0.000000
O O14 0.500000 0.500000 0.260400
O O15 0.488398 0.613612 0.500000
O O16 0.551559 0.674886 0.322501
O O17 0.604713 0.780681 0.500000
O O18 0.572120 0.878631 0.263012
O O19 0.500000 0.000000 0.208939
O O20 0.442610 0.034181 0.000000
O O21 0.256275 0.680881 0.000000
#
# Coordination Sequence:
#
# PCOD9446006 Si02
#       8
#     8   8   8   8   8   8   8   8
#     4  10  20  36  57  80 108 145 192 235 276 333
#     4   9  20  39  61  87 119 155 194 236 284 347
#     4  10  20  36  61  88 115 149 189 234 283 338
#     4  10  21  38  59  85 120 152 185 234 288 340
#     4   9  17  30  51  79 107 135 177 230 275 321
#     4  11  21  35  58  81 108 147 192 235 279 336
#     4  11  23  38  55  76 110 150 189 236 292 344
#     4  10  21  38  62  91 122 156 193 239 293 349
#
# _framework density 19.753086
#
# number of rings (size 3 to 8) (size 9 to 14) (size 15 to 20)
#    0.000    2.000    1.250    3.375    0.000    6.500 
#    2.250    0.000    0.000    1.875    0.000    0.000 
#    0.000    0.000    0.000    0.000    0.000    0.000 
#
# Total GULP energy -356388.804213 kJ/mol
# GULP energy per Si atom -5568.575066 kJ/mol
# Density = 1.970813 g / cm^3
# Si number density = 19.753086 Si / 1000 Ang^3
#
#
#
# Elastic Constant Matrix: (Units=GPa)
#
#
# Indices 1 2 3 4 5 6 
#
# 1 15.3191 7.2386 5.5265 0.0000 0.0000 0.0000
# 2 7.2386 135.9627 39.7639 0.0000 0.0000 0.0000
# 3 5.5265 39.7639 51.9810 0.0000 0.0000 0.0000
# 4 0.0000 0.0000 0.0000 32.3622 0.0000 0.0000
# 5 0.0000 0.0000 0.0000 0.0000 24.6417 0.0000
# 6 0.0000 0.0000 0.0000 0.0000 0.0000 26.3019
#
#
#
# Elastic Compliance Matrix: (Units=1/GPa)
#
#
# Indices 1 2 3 4 5 6 
#
# 1 0.068280 -0.001948 -0.005769 0.000000 0.000000 0.000000
# 2 -0.001948 0.009530 -0.007083 0.000000 0.000000 0.000000
# 3 -0.005769 -0.007083 0.025270 0.000000 0.000000 0.000000
# 4 0.000000 0.000000 0.000000 0.030900 0.000000 0.000000
# 5 0.000000 0.000000 0.000000 0.000000 0.040582 0.000000
# 6 0.000000 0.000000 0.000000 0.000000 0.000000 0.038020
#
#
# Mechanical properties :
#
#
# Convention : Reuss Voigt Hill
#
# Bulk Modulus (GPa) = 13.60939 34.25788 23.93363
# Shear Modulus (GPa) = 18.74939 26.71007 22.72973
#
# Velocity S-wave (km/s) = 3.08423 3.68121 3.39587
# Velocity P-wave (km/s) = 4.42584 5.95392 5.24582
#
# Compressibility (1/GPa) = 0.07347870
#
# Stress axis : x y z
#
# Youngs Moduli (GPa) = 14.64565 104.92914 39.57316
#
# Poissons Ratio (x) = 0.20439 0.22831
# Poissons Ratio (y) = 0.02853 0.28031
# Poissons Ratio (z) = 0.08449 0.74324
#
# Static dielectric constant tensor:
#      x y z
#    x 1.712780 0.000000 0.000000 
#    y 0.000000 1.743210 0.000000 
#    z 0.000000 0.000000 1.707070 
# 
# From -- ./inp_files/10930.got.cif
#   From: 2010.05.17/outbox.ucp.g08.bks.cvg/sg58_6_cif.got.tgz:10930.got - 2010.06.11 16:41:41.
