data_PCOD9446538
_publ_section_title
;
Structure prediction by ZEFSAII (Michael W. Deem and Ramdas Pophale) SiO2 
 PCOD9446538
Probable space group: P M M N
;
_chemical_formula_sum "Si O2"
_cell_formula_units_Z 56
_cell_length_a 7.413690
_cell_length_b 15.921466
_cell_length_c 20.882284
_cell_angle_alpha 90.000000
_cell_angle_beta 90.000000
_cell_angle_gamma 90.000000
_cell_volume 2464.878257
_symmetry_space_group_name_H-M "P M M N"
_symmetry_group_IT_number 59
_space_group.IT_coordinate_system_code '2'
_symmetry_cell_setting 'orthorhombic'
loop_
_space_group_symop_operation_xyz
x,y,z
1/2-x,1/2-y,z
1/2+x,-y,-z
-x,1/2+y,-z
-x,-y,-z
1/2+x,1/2+y,-z
1/2-x,y,z
x,1/2-y,z
loop_
_atom_site_type_symbol
_atom_site_label
_atom_site_fract_x
_atom_site_fract_y
_atom_site_fract_z
Si Si1 0.970758 0.658071 0.344281
Si Si2 0.534233 0.000599 0.424813
Si Si3 0.966148 0.914922 0.793977
Si Si4 0.957197 0.611507 0.205308
Si Si5 0.457102 0.392371 0.069638
Si Si6 0.471281 0.408154 0.932677
Si Si7 0.464959 0.657730 0.655271
O O1 0.750000 0.654650 0.342508
O O2 0.021931 0.750000 0.368134
O O3 0.033607 0.582406 0.388792
O O4 0.035276 0.646090 0.271150
O O5 0.750000 0.000583 0.416048
O O6 0.462865 0.083400 0.389264
O O7 0.500000 0.000000 0.500000
O O8 0.750000 0.922572 0.799820
O O9 0.034092 0.872854 0.860202
O O10 0.007136 0.865719 0.729471
O O11 0.039368 0.009878 0.788700
O O12 0.750000 0.640103 0.203690
O O13 0.031870 0.631029 0.134701
O O14 0.250000 0.363439 0.069743
O O15 0.464574 0.494752 0.068379
O O16 0.532168 0.368181 0.999951
O O17 0.250000 0.410357 0.932927
O O18 0.250000 0.660783 0.645041
O O19 0.538824 0.750000 0.641562
#
# Coordination Sequence:
#
# PCOD9446538 Si02
#       7
#     8   8   8   8   8   8   8
#     4   9  17  31  53  79 105 133 166 205 247 293
#     4  10  21  38  58  81 107 133 163 201 249 303
#     4  10  18  28  47  73 104 137 172 216 263 307
#     4   9  15  27  48  71  98 135 177 216 255 304
#     4   8  14  23  35  60  96 130 165 209 258 301
#     4   8  13  21  37  61  91 128 170 211 251 299
#     4  10  21  38  58  78 103 137 176 214 251 297
#
# _framework density 22.719175
#
# number of rings (size 3 to 8) (size 9 to 14) (size 15 to 20)
#    0.000    2.857    1.429    0.429    0.000    2.000 
#    0.000    0.000    0.000    2.143    0.000    4.000 
#    0.000    0.000    0.000    0.000    0.000    0.000 
#
# Total GULP energy -312404.221187 kJ/mol
# GULP energy per Si atom -5578.646807 kJ/mol
# Density = 2.266747 g / cm^3
# Si number density = 22.719175 Si / 1000 Ang^3
#
#
#
# Elastic Constant Matrix: (Units=GPa)
#
#
# Indices 1 2 3 4 5 6 
#
# 1 83.6955 5.9890 -2.4846 0.0000 0.0000 0.0000
# 2 5.9890 129.4113 99.7109 0.0000 0.0000 0.0000
# 3 -2.4846 99.7109 213.1441 0.0000 0.0000 0.0000
# 4 0.0000 0.0000 0.0000 -11.8956 0.0000 0.0000
# 5 0.0000 0.0000 0.0000 0.0000 11.1970 0.0000
# 6 0.0000 0.0000 0.0000 0.0000 0.0000 -10.2450
#
#
#
# Elastic Compliance Matrix: (Units=1/GPa)
#
#
# Indices 1 2 3 4 5 6 
#
# 1 0.012041 -0.001040 0.000627 0.000000 0.000000 0.000000
# 2 -0.001040 0.012172 -0.005706 0.000000 0.000000 0.000000
# 3 0.000627 -0.005706 0.007368 0.000000 0.000000 0.000000
# 4 0.000000 0.000000 0.000000 -0.084065 0.000000 0.000000
# 5 0.000000 0.000000 0.000000 0.000000 0.089310 0.000000
# 6 0.000000 0.000000 0.000000 0.000000 0.000000 -0.097609
#
#
# Mechanical properties :
#
#
# Convention : Reuss Voigt Hill
#
# Bulk Modulus (GPa) = 51.70001 70.29795 60.99898
# Shear Modulus (GPa) = -118.77897 19.34698 -49.71599
#
# Velocity S-wave (km/s) = -7.23843 2.92133 -4.68298
# Velocity P-wave (km/s) = 6.85961 6.51062 1.52743
#
# Compressibility (1/GPa) = 0.01934236
#
# Stress axis : x y z
#
# Youngs Moduli (GPa) = 83.04858 82.15423 135.71301
#
# Poissons Ratio (x) = 0.08547 -0.08510
# Poissons Ratio (y) = 0.08641 0.77444
# Poissons Ratio (z) = -0.05208 0.46881
#
# Static dielectric constant tensor:
#      x y z
#    x 1.239400 0.000000 0.000000 
#    y 0.000000 1.827820 0.000000 
#    z 0.000000 0.000000 1.854500 
# 
# From -- ./inp_files/28978.got.cif
#   From: 2010.05.17/outbox.cif.g08.bks.cpg/sg59_15_cif.got.tgz:28978.got - 2010.06.03 14:40:33.
