data_PCOD9446063
_publ_section_title
;
Structure prediction by ZEFSAII (Michael W. Deem and Ramdas Pophale) SiO2 
 PCOD9446063
Probable space group: P N N M
;
_chemical_formula_sum "Si O2"
_cell_formula_units_Z 64
_cell_length_a 15.000000
_cell_length_b 24.000000
_cell_length_c 9.000000
_cell_angle_alpha 90.000000
_cell_angle_beta 90.000000
_cell_angle_gamma 90.000000
_cell_volume 3240.000000
_symmetry_space_group_name_H-M "P N N M"
_symmetry_group_IT_number 58
_symmetry_cell_setting 'orthorhombic'
loop_
_space_group_symop_operation_xyz
x,y,z
-x,-y,z
1/2+x,1/2-y,1/2-z
1/2-x,1/2+y,1/2-z
-x,-y,-z
x,y,-z
1/2-x,1/2+y,1/2+z
1/2+x,1/2-y,1/2+z
loop_
_atom_site_type_symbol
_atom_site_label
_atom_site_fract_x
_atom_site_fract_y
_atom_site_fract_z
Si Si1 0.556340 0.205420 0.323807
Si Si2 0.900214 0.009082 0.677798
Si Si3 0.741307 0.415427 0.820087
Si Si4 0.650368 0.104915 0.169522
Si Si5 0.868510 0.243425 0.824022
Si Si6 0.299951 0.703215 0.676809
Si Si7 0.144954 0.878553 0.831198
Si Si8 0.397517 0.006856 0.321006
O O1 0.572481 0.197361 0.500000
O O2 0.586056 0.150409 0.239467
O O3 0.452744 0.217284 0.301692
O O4 0.615020 0.259208 0.277730
O O5 0.901209 0.005228 0.500000
O O6 0.874024 0.070655 0.725155
O O7 0.829756 0.962611 0.728408
O O8 0.000000 0.000000 0.735066
O O9 0.712398 0.356568 0.753588
O O10 0.839330 0.439137 0.775887
O O11 0.740607 0.411191 0.000000
O O12 0.748966 0.130723 0.170183
O O13 0.651046 0.048219 0.262281
O O14 0.626051 0.091985 0.000000
O O15 0.786449 0.261640 0.724669
O O16 0.897743 0.180208 0.790794
O O17 0.843862 0.244942 0.000000
O O18 0.304074 0.695521 0.500000
O O19 0.118899 0.893515 0.000000
O O20 0.397837 0.006517 0.500000
O O21 0.500000 0.000000 0.270501
#
# Coordination Sequence:
#
# PCOD9446063 Si02
#       8
#     8   8   8   8   8   8   8   8
#     4  10  23  41  62  86 117 160 201 237 287 357
#     4  10  22  39  60  88 118 153 196 240 289 344
#     4  10  22  40  59  82 119 160 194 235 289 348
#     4  11  22  38  62  90 118 149 193 251 300 337
#     4  10  22  42  63  85 118 159 199 237 290 357
#     4  11  24  40  60  89 121 153 196 247 294 342
#     4  10  21  38  62  88 115 152 195 241 294 346
#     4  10  22  40  62  86 114 157 201 234 285 355
#
# _framework density 19.753086
#
# number of rings (size 3 to 8) (size 9 to 14) (size 15 to 20)
#    0.000    1.750    2.500    0.750    3.500    3.500 
#    0.000    0.000    0.000    0.000    0.000    0.000 
#    0.000    0.000    0.000    0.000    0.000    0.000 
#
# Total GULP energy -357226.419554 kJ/mol
# GULP energy per Si atom -5581.662806 kJ/mol
# Density = 1.970813 g / cm^3
# Si number density = 19.753086 Si / 1000 Ang^3
#
#
#
# Elastic Constant Matrix: (Units=GPa)
#
#
# Indices 1 2 3 4 5 6 
#
# 1 39.6027 -19.3858 7.0531 0.0000 0.0000 0.0000
# 2 -19.3858 39.5970 -6.0228 0.0000 0.0000 0.0000
# 3 7.0531 -6.0228 -11.9472 0.0000 0.0000 0.0000
# 4 0.0000 0.0000 0.0000 29.6218 0.0000 0.0000
# 5 0.0000 0.0000 0.0000 0.0000 22.1421 0.0000
# 6 0.0000 0.0000 0.0000 0.0000 0.0000 27.7496
#
#
#
# Elastic Compliance Matrix: (Units=1/GPa)
#
#
# Indices 1 2 3 4 5 6 
#
# 1 0.031825 0.017126 0.010155 0.000000 0.000000 0.000000
# 2 0.017126 0.032671 -0.006360 0.000000 0.000000 0.000000
# 3 0.010155 -0.006360 -0.074501 0.000000 0.000000 0.000000
# 4 0.000000 0.000000 0.000000 0.033759 0.000000 0.000000
# 5 0.000000 0.000000 0.000000 0.000000 0.045163 0.000000
# 6 0.000000 0.000000 0.000000 0.000000 0.000000 0.036037
#
#
# Mechanical properties :
#
#
# Convention : Reuss Voigt Hill
#
# Bulk Modulus (GPa) = 31.41015 3.39350 17.40183
# Shear Modulus (GPa) = 67.81868 21.60989 44.71428
#
# Velocity S-wave (km/s) = 5.86581 3.31116 4.76296
# Velocity P-wave (km/s) = 7.86212 4.04228 6.25112
#
# Compressibility (1/GPa) = 0.03183684
#
# Stress axis : x y z
#
# Youngs Moduli (GPa) = 31.42155 30.60789 -13.42272
#
# Poissons Ratio (x) = -0.52418 0.13631
# Poissons Ratio (y) = -0.53811 -0.08537
# Poissons Ratio (z) = -0.31908 0.19467
#
# Static dielectric constant tensor:
#      x y z
#    x 1.727250 0.000000 0.000000 
#    y 0.000000 1.659560 0.000000 
#    z 0.000000 0.000000 1.673500 
# 
# From -- ./inp_files/6814.got.cif
#   From: 2010.05.17/outbox.ucp.g08.bks.cvg/sg58_4_cif.got.tgz:6814.got - 2010.06.11 16:41:41.
