data_PCOD9446387
_publ_section_title
;
Structure prediction by ZEFSAII (Michael W. Deem and Ramdas Pophale) SiO2 
 PCOD9446387
Probable space group: P M M N
;
_chemical_formula_sum "Si O2"
_cell_formula_units_Z 64
_cell_length_a 29.965950
_cell_length_b 7.472814
_cell_length_c 16.120296
_cell_angle_alpha 90.000000
_cell_angle_beta 90.000000
_cell_angle_gamma 90.000000
_cell_volume 3609.817411
_symmetry_space_group_name_H-M "P M M N"
_symmetry_group_IT_number 59
_space_group.IT_coordinate_system_code '2'
_symmetry_cell_setting 'orthorhombic'
loop_
_space_group_symop_operation_xyz
x,y,z
1/2-x,1/2-y,z
1/2+x,-y,-z
-x,1/2+y,-z
-x,-y,-z
1/2+x,1/2+y,-z
1/2-x,y,z
x,1/2-y,z
loop_
_atom_site_type_symbol
_atom_site_label
_atom_site_fract_x
_atom_site_fract_y
_atom_site_fract_z
Si Si1 0.199062 0.534159 0.499298
Si Si2 0.801745 0.969705 0.178769
Si Si3 0.642957 0.537783 0.335763
Si Si4 0.304216 0.043087 0.002889
Si Si5 0.800950 0.965633 0.816699
Si Si6 0.453077 0.959033 0.393567
Si Si7 0.640871 0.463474 0.655966
Si Si8 0.051551 0.031946 0.587804
O O1 0.250000 0.469045 0.497321
O O2 0.200531 0.750000 0.494122
O O3 0.174650 0.488091 0.584766
O O4 0.170450 0.467304 0.420925
O O5 0.750000 0.021284 0.192636
O O6 0.801888 0.750000 0.177294
O O7 0.832948 0.032195 0.253444
O O8 0.816592 0.032310 0.087057
O O9 0.637874 0.750000 0.323076
O O10 0.593942 0.468641 0.359748
O O11 0.250000 0.043307 0.003132
O O12 0.319180 0.250000 0.002525
O O13 0.316468 0.965751 0.092713
O O14 0.750000 0.028040 0.800246
O O15 0.798759 0.750000 0.823301
O O16 0.833436 0.008290 0.741527
O O17 0.456197 0.750000 0.371281
O O18 0.409618 0.035733 0.348213
O O19 0.503007 0.032496 0.381548
O O20 0.443521 0.974060 0.492117
O O21 0.637256 0.250000 0.643227
O O22 0.051358 0.250000 0.586935
#
# Coordination Sequence:
#
# PCOD9446387 Si02
#       8
#     8   8   8   8   8   8   8   8
#     4  10  20  31  40  53  80 117 148 167 190 235
#     4   8  13  22  38  60  85 110 133 159 197 246
#     4  10  18  27  42  65  87 106 134 172 209 243
#     4   7  11  22  39  58  80 105 132 163 201 243
#     4   9  17  28  43  63  84 105 133 172 211 241
#     4   9  17  30  45  58  77 108 141 171 206 245
#     4  10  19  30  43  58  79 111 146 171 197 243
#     4   9  17  28  43  63  83 102 132 177 215 239
#
# _framework density 17.729427999999999
#
# number of rings (size 3 to 8) (size 9 to 14) (size 15 to 20)
#    0.000    3.000    1.250    2.250    0.000    2.500 
#    0.000    0.000    0.000    0.750    0.000    2.625 
#    0.000    0.000    0.000    0.000    0.000    0.000 
#
# Total GULP energy -356643.882667 kJ/mol
# GULP energy per Si atom -5572.560667 kJ/mol
# Density = 1.768908 g / cm^3
# Si number density = 17.729428 Si / 1000 Ang^3
#
#
#
# Elastic Constant Matrix: (Units=GPa)
#
#
# Indices 1 2 3 4 5 6 
#
# 1 137.6071 -0.1202 76.3057 0.0000 0.0000 0.0000
# 2 -0.1202 47.7210 -9.0092 0.0000 0.0000 0.0000
# 3 76.3057 -9.0092 136.2249 0.0000 0.0000 0.0000
# 4 0.0000 0.0000 0.0000 -156.4816 0.0000 0.0000
# 5 0.0000 0.0000 0.0000 0.0000 6.8091 0.0000
# 6 0.0000 0.0000 0.0000 0.0000 0.0000 6.5707
#
#
#
# Elastic Compliance Matrix: (Units=1/GPa)
#
#
# Indices 1 2 3 4 5 6 
#
# 1 0.010599 -0.001108 -0.006010 0.000000 0.000000 0.000000
# 2 -0.001108 0.021336 0.002032 0.000000 0.000000 0.000000
# 3 -0.006010 0.002032 0.010842 0.000000 0.000000 0.000000
# 4 0.000000 0.000000 0.000000 -0.006391 0.000000 0.000000
# 5 0.000000 0.000000 0.000000 0.000000 0.146861 0.000000
# 6 0.000000 0.000000 0.000000 0.000000 0.000000 0.152190
#
#
# Mechanical properties :
#
#
# Convention : Reuss Voigt Hill
#
# Bulk Modulus (GPa) = 30.67150 50.65618 40.66384
# Shear Modulus (GPa) = 14.02612 -11.66189 1.18211
#
# Velocity S-wave (km/s) = 2.81574 -2.56749 0.81743
# Velocity P-wave (km/s) = 5.28285 4.45472 4.88636
#
# Compressibility (1/GPa) = 0.03260355
#
# Stress axis : x y z
#
# Youngs Moduli (GPa) = 94.34989 46.86937 92.23622
#
# Poissons Ratio (x) = 0.05193 0.55435
# Poissons Ratio (y) = 0.10453 -0.18739
# Poissons Ratio (z) = 0.56706 -0.09522
#
# Static dielectric constant tensor:
#      x y z
#    x 1.613690 0.000000 0.000000 
#    y 0.000000 1.674770 0.000000 
#    z 0.000000 0.000000 1.603400 
# 
# From -- ./inp_files/25033.got.cif
#   From: 2010.05.17/outbox.cif.g08.bks.cpg/sg59_13_cif.got.tgz:25033.got - 2010.06.03 14:40:33.
