data_PCOD9446020
_publ_section_title
;
Structure prediction by ZEFSAII (Michael W. Deem and Ramdas Pophale) SiO2 
 PCOD9446020
Probable space group: P N N M
;
_chemical_formula_sum "Si O2"
_cell_formula_units_Z 64
_cell_length_a 30.000000
_cell_length_b 12.000000
_cell_length_c 9.000000
_cell_angle_alpha 90.000000
_cell_angle_beta 90.000000
_cell_angle_gamma 90.000000
_cell_volume 3240.000000
_symmetry_space_group_name_H-M "P N N M"
_symmetry_group_IT_number 58
_symmetry_cell_setting 'orthorhombic'
loop_
_space_group_symop_operation_xyz
x,y,z
-x,-y,z
1/2+x,1/2-y,1/2-z
1/2-x,1/2+y,1/2-z
-x,-y,-z
x,y,-z
1/2-x,1/2+y,1/2+z
1/2+x,1/2-y,1/2+z
loop_
_atom_site_type_symbol
_atom_site_label
_atom_site_fract_x
_atom_site_fract_y
_atom_site_fract_z
Si Si1 0.312833 0.111536 0.176603
Si Si2 0.137478 0.167863 0.821143
Si Si3 0.585651 0.938008 0.821963
Si Si4 0.580276 0.546054 0.330267
Si Si5 0.023923 0.774634 0.322887
Si Si6 0.175412 0.842343 0.171129
Si Si7 0.561577 0.164472 0.676848
Si Si8 0.219181 0.056822 0.678417
O O1 0.316330 0.240716 0.219941
O O2 0.269862 0.070419 0.266894
O O3 0.361772 0.064271 0.218100
O O4 0.306204 0.095719 0.000000
O O5 0.109945 0.279960 0.792701
O O6 0.184244 0.151458 0.736655
O O7 0.102618 0.069345 0.776916
O O8 0.145160 0.155475 0.000000
O O9 0.561848 0.040694 0.742312
O O10 0.560251 0.822570 0.786972
O O11 0.582915 0.952577 0.000000
O O12 0.564885 0.529109 0.500000
O O13 0.542650 0.608080 0.236985
O O14 0.623244 0.627318 0.332089
O O15 0.019094 0.778898 0.500000
O O16 0.977726 0.737089 0.249058
O O17 0.200606 0.947971 0.238366
O O18 0.189241 0.819492 0.000000
O O19 0.555361 0.163427 0.500000
O O20 0.216864 0.049181 0.500000
#
# Coordination Sequence:
#
# PCOD9446020 Si02
#       8
#     8   8   8   8   8   8   8   8
#     4  11  22  39  62  88 119 157 202 250 302 360
#     4   9  21  42  61  84 120 160 200 251 307 359
#     4  10  23  41  60  85 120 158 198 249 302 356
#     4   9  18  35  61  86 113 150 195 246 295 351
#     4  11  22  38  60  88 121 156 199 248 303 360
#     4  10  20  37  60  86 117 153 194 246 301 355
#     4  11  24  40  61  87 120 161 203 247 302 363
#     4  11  23  38  60  90 121 157 200 245 302 365
#
# _framework density 19.753086
#
# number of rings (size 3 to 8) (size 9 to 14) (size 15 to 20)
#    0.000    1.750    1.250    3.750    0.000    8.000 
#    0.000    5.000    0.000    0.000    0.000    0.000 
#    0.000    0.000    0.000    0.000    0.000    0.000 
#
# Total GULP energy -357431.565361 kJ/mol
# GULP energy per Si atom -5584.868209 kJ/mol
# Density = 1.970813 g / cm^3
# Si number density = 19.753086 Si / 1000 Ang^3
#
#
#
# Elastic Constant Matrix: (Units=GPa)
#
#
# Indices 1 2 3 4 5 6 
#
# 1 81.6786 -9.6122 25.7390 0.0000 0.0000 0.0000
# 2 -9.6122 11.6525 -8.3217 0.0000 0.0000 0.0000
# 3 25.7390 -8.3217 40.2674 0.0000 0.0000 0.0000
# 4 0.0000 0.0000 0.0000 27.8547 0.0000 0.0000
# 5 0.0000 0.0000 0.0000 0.0000 31.7658 0.0000
# 6 0.0000 0.0000 0.0000 0.0000 0.0000 21.2108
#
#
#
# Elastic Compliance Matrix: (Units=1/GPa)
#
#
# Indices 1 2 3 4 5 6 
#
# 1 0.015780 0.006820 -0.008677 0.000000 0.000000 0.000000
# 2 0.006820 0.103625 0.017056 0.000000 0.000000 0.000000
# 3 -0.008677 0.017056 0.033905 0.000000 0.000000 0.000000
# 4 0.000000 0.000000 0.000000 0.035901 0.000000 0.000000
# 5 0.000000 0.000000 0.000000 0.000000 0.031480 0.000000
# 6 0.000000 0.000000 0.000000 0.000000 0.000000 0.047146
#
#
# Mechanical properties :
#
#
# Convention : Reuss Voigt Hill
#
# Bulk Modulus (GPa) = 5.44342 16.57875 11.01109
# Shear Modulus (GPa) = 16.74055 24.55248 20.64651
#
# Velocity S-wave (km/s) = 2.91433 3.52940 3.23651
# Velocity P-wave (km/s) = 3.75315 5.00201 4.42189
#
# Compressibility (1/GPa) = 0.18370794
#
# Stress axis : x y z
#
# Youngs Moduli (GPa) = 63.37067 9.65016 29.49399
#
# Poissons Ratio (x) = -0.06582 0.25593
# Poissons Ratio (y) = -0.43221 -0.50304
# Poissons Ratio (z) = 0.54988 -0.16459
#
# Static dielectric constant tensor:
#      x y z
#    x 1.693540 0.000000 0.000000 
#    y 0.000000 1.714330 0.000000 
#    z 0.000000 0.000000 1.658980 
# 
# From -- ./inp_files/4788.got.cif
#   From: 2010.05.17/outbox.ucp.g08.bks.cvg/sg58_3_cif.got.tgz:4788.got - 2010.06.11 16:41:41.
