data_PCOD9446157
_publ_section_title
;
Structure prediction by ZEFSAII (Michael W. Deem and Ramdas Pophale) SiO2 
 PCOD9446157
Probable space group: P M M N
;
_chemical_formula_sum "Si O2"
_cell_formula_units_Z 28
_cell_length_a 14.695801
_cell_length_b 10.728173
_cell_length_c 7.201705
_cell_angle_alpha 90.000000
_cell_angle_beta 90.000000
_cell_angle_gamma 90.000000
_cell_volume 1135.414296
_symmetry_space_group_name_H-M "P M M N"
_symmetry_group_IT_number 59
_space_group.IT_coordinate_system_code '2'
_symmetry_cell_setting 'orthorhombic'
loop_
_space_group_symop_operation_xyz
x,y,z
1/2-x,1/2-y,z
1/2+x,-y,-z
-x,1/2+y,-z
-x,-y,-z
1/2+x,1/2+y,-z
1/2-x,y,z
x,1/2-y,z
loop_
_atom_site_type_symbol
_atom_site_label
_atom_site_fract_x
_atom_site_fract_y
_atom_site_fract_z
Si Si1 0.569342 0.250000 0.566030
Si Si2 0.889929 0.995083 0.492881
Si Si3 0.498718 0.250000 0.946280
Si Si4 0.099896 0.250000 0.306429
Si Si5 0.152531 0.606650 0.887635
O O1 0.631395 0.371289 0.581469
O O2 0.505305 0.250000 0.382732
O O3 0.491791 0.250000 0.726554
O O4 0.859268 0.875321 0.606721
O O5 0.860833 0.009636 0.279084
O O6 0.000000 0.000000 0.500000
O O7 0.413608 0.250000 0.084542
O O8 0.562084 0.371590 0.991839
O O9 0.250000 0.580117 0.980868
O O10 0.161381 0.750000 0.812270
#
# Coordination Sequence:
#
# PCOD9446157 Si02
#       5
#     4   8   4   4   8
#     4  10  18  28  55  77  93 136 176 198 262 300
#     4  10  16  34  51  75 103 135 169 213 252 304
#     4  10  17  31  49  77 103 131 164 218 260 298
#     4  10  20  33  49  74 112 129 166 212 255 296
#     4   9  16  31  51  72 102 132 161 214 259 289
#
# _framework density 24.660601
#
# number of rings (size 3 to 8) (size 9 to 14) (size 15 to 20)
#    0.857    1.429    7.143    0.000    0.000    1.143 
#    0.000    3.571    0.000    0.000    0.000    0.000 
#    0.000    0.000    0.000    0.000    0.000    0.000 
#
# Total GULP energy -155908.138345 kJ/mol
# GULP energy per Si atom -5568.147798 kJ/mol
# Density = 2.460447 g / cm^3
# Si number density = 24.660601 Si / 1000 Ang^3
#
#
#
# Elastic Constant Matrix: (Units=GPa)
#
#
# Indices 1 2 3 4 5 6 
#
# 1 62.5876 -3.1349 -13.2659 0.0000 0.0000 0.0000
# 2 -3.1349 134.2085 -12.4325 0.0000 0.0000 0.0000
# 3 -13.2659 -12.4325 62.9860 0.0000 0.0000 0.0000
# 4 0.0000 0.0000 0.0000 5.5483 0.0000 0.0000
# 5 0.0000 0.0000 0.0000 0.0000 5.1420 0.0000
# 6 0.0000 0.0000 0.0000 0.0000 0.0000 4.2719
#
#
#
# Elastic Compliance Matrix: (Units=1/GPa)
#
#
# Indices 1 2 3 4 5 6 
#
# 1 0.016795 0.000733 0.003682 0.000000 0.000000 0.000000
# 2 0.000733 0.007622 0.001659 0.000000 0.000000 0.000000
# 3 0.003682 0.001659 0.016979 0.000000 0.000000 0.000000
# 4 0.000000 0.000000 0.000000 0.180237 0.000000 0.000000
# 5 0.000000 0.000000 0.000000 0.000000 0.194476 0.000000
# 6 0.000000 0.000000 0.000000 0.000000 0.000000 0.234089
#
#
# Mechanical properties :
#
#
# Convention : Reuss Voigt Hill
#
# Bulk Modulus (GPa) = 18.67595 22.45728 20.56661
# Shear Modulus (GPa) = 7.62314 22.23345 14.92830
#
# Velocity S-wave (km/s) = 1.76009 3.00589 2.46306
# Velocity P-wave (km/s) = 3.42348 4.60146 4.05547
#
# Compressibility (1/GPa) = 0.05354481
#
# Stress axis : x y z
#
# Youngs Moduli (GPa) = 59.54230 131.20093 58.89458
#
# Poissons Ratio (x) = -0.09622 -0.21685
# Poissons Ratio (y) = -0.04367 -0.09770
# Poissons Ratio (z) = -0.21924 -0.21765
#
# Static dielectric constant tensor:
#      x y z
#    x 4.562460 0.000000 0.000000 
#    y 0.000000 2.112450 0.000000 
#    z 0.000000 0.000000 2.003670 
# 
# From -- ./inp_files/6982.got.cif
#   From: 2010.05.17/outbox.cif.g08.bks.cpg/sg59_4_cif.got.tgz:6982.got - 2010.06.03 14:40:33.
