data_PCOD9446244
_publ_section_title
;
Structure prediction by ZEFSAII (Michael W. Deem and Ramdas Pophale) SiO2 
 PCOD9446244
Probable space group: P M M N
;
_chemical_formula_sum "Si O2"
_cell_formula_units_Z 64
_cell_length_a 24.227676
_cell_length_b 8.026712
_cell_length_c 19.769117
_cell_angle_alpha 90.000000
_cell_angle_beta 90.000000
_cell_angle_gamma 90.000000
_cell_volume 3844.472065
_symmetry_space_group_name_H-M "P M M N"
_symmetry_group_IT_number 59
_space_group.IT_coordinate_system_code '2'
_symmetry_cell_setting 'orthorhombic'
loop_
_space_group_symop_operation_xyz
x,y,z
1/2-x,1/2-y,z
1/2+x,-y,-z
-x,1/2+y,-z
-x,-y,-z
1/2+x,1/2+y,-z
1/2-x,y,z
x,1/2-y,z
loop_
_atom_site_type_symbol
_atom_site_label
_atom_site_fract_x
_atom_site_fract_y
_atom_site_fract_z
Si Si1 0.188045 0.050776 0.890790
Si Si2 0.312868 0.046126 0.611927
Si Si3 0.913727 0.950356 0.477094
Si Si4 0.997076 0.548759 0.248579
Si Si5 0.412672 0.553235 0.975611
Si Si6 0.021846 0.448266 0.101088
Si Si7 0.977254 0.049208 0.603695
Si Si8 0.130838 0.046391 0.752807
O O1 0.250000 0.985639 0.901069
O O2 0.191727 0.250000 0.883614
O O3 0.161208 0.987612 0.820678
O O4 0.145209 0.016520 0.950613
O O5 0.250000 0.990018 0.602812
O O6 0.312262 0.250000 0.611487
O O7 0.356274 0.990837 0.554748
O O8 0.337277 0.996047 0.684903
O O9 0.913727 0.750000 0.472826
O O10 0.965346 0.010045 0.430965
O O11 0.928357 0.997971 0.553585
O O12 0.996691 0.750000 0.248759
O O13 0.025321 0.492323 0.179502
O O14 0.932973 0.492971 0.248093
O O15 0.024350 0.491556 0.318855
O O16 0.410501 0.750000 0.965634
O O17 0.430682 0.516395 0.052155
O O18 0.463213 0.485653 0.928911
O O19 0.021610 0.250000 0.093511
O O20 0.979318 0.250000 0.604442
O O21 0.130505 0.250000 0.753251
#
# Coordination Sequence:
#
# PCOD9446244 Si02
#       8
#     8   8   8   8   8   8   8   8
#     4  10  19  30  47  70  95 126 162 195 227 265
#     4   9  15  24  41  65  91 120 157 195 226 261
#     4   9  16  27  42  63  88 117 152 191 230 266
#     4  10  17  28  47  68  92 122 153 187 230 280
#     4  10  20  33  48  67  92 125 158 191 232 276
#     4  10  20  32  48  69  93 120 154 194 236 280
#     4   9  17  28  43  63  88 119 152 186 228 275
#     4   9  15  25  41  64  94 124 155 189 221 261
#
# _framework density 16.647279000000001
#
# number of rings (size 3 to 8) (size 9 to 14) (size 15 to 20)
#    0.000    2.500    2.500    1.125    0.000    3.250 
#    0.000    0.000    0.000    1.125    0.000    0.875 
#    0.000    3.000    0.000    0.000    0.000    0.000 
#
# Total GULP energy -356859.360679 kJ/mol
# GULP energy per Si atom -5575.927511 kJ/mol
# Density = 1.660939 g / cm^3
# Si number density = 16.647279 Si / 1000 Ang^3
#
#
#
# Elastic Constant Matrix: (Units=GPa)
#
#
# Indices 1 2 3 4 5 6 
#
# 1 102.9290 2.2214 68.4642 0.0000 0.0000 0.0000
# 2 2.2214 7.8507 -3.1391 0.0000 0.0000 0.0000
# 3 68.4642 -3.1391 125.4106 0.0000 0.0000 0.0000
# 4 0.0000 0.0000 0.0000 19.2407 0.0000 0.0000
# 5 0.0000 0.0000 0.0000 0.0000 17.2812 0.0000
# 6 0.0000 0.0000 0.0000 0.0000 0.0000 11.9564
#
#
#
# Elastic Compliance Matrix: (Units=1/GPa)
#
#
# Indices 1 2 3 4 5 6 
#
# 1 0.015733 -0.007966 -0.008788 0.000000 0.000000 0.000000
# 2 -0.007966 0.132698 0.007670 0.000000 0.000000 0.000000
# 3 -0.008788 0.007670 0.012964 0.000000 0.000000 0.000000
# 4 0.000000 0.000000 0.000000 0.051973 0.000000 0.000000
# 5 0.000000 0.000000 0.000000 0.000000 0.057867 0.000000
# 6 0.000000 0.000000 0.000000 0.000000 0.000000 0.083637
#
#
# Mechanical properties :
#
#
# Convention : Reuss Voigt Hill
#
# Bulk Modulus (GPa) = 6.98193 41.25370 24.11781
# Shear Modulus (GPa) = 11.88265 20.93858 16.41061
#
# Velocity S-wave (km/s) = 2.67458 3.55036 3.14313
# Velocity P-wave (km/s) = 3.70689 6.45303 5.26225
#
# Compressibility (1/GPa) = 0.14322681
#
# Stress axis : x y z
#
# Youngs Moduli (GPa) = 63.56066 7.53590 77.13940
#
# Poissons Ratio (x) = 0.06003 0.67793
# Poissons Ratio (y) = 0.50631 -0.59167
# Poissons Ratio (z) = 0.55859 -0.05780
#
# Static dielectric constant tensor:
#      x y z
#    x 1.551510 0.000000 0.000000 
#    y 0.000000 1.604830 0.000000 
#    z 0.000000 0.000000 1.559780 
# 
# From -- ./inp_files/26548.got.cif
#   From: 2010.05.17/outbox.cif.g08.bks.cpg/sg59_14_cif.got.tgz:26548.got - 2010.06.03 14:40:33.
