data_PCOD9446408
_publ_section_title
;
Structure prediction by ZEFSAII (Michael W. Deem and Ramdas Pophale) SiO2 
 PCOD9446408
Probable space group: P M M N
;
_chemical_formula_sum "Si O2"
_cell_formula_units_Z 64
_cell_length_a 8.859821
_cell_length_b 19.543710
_cell_length_c 22.125281
_cell_angle_alpha 90.000000
_cell_angle_beta 90.000000
_cell_angle_gamma 90.000000
_cell_volume 3831.075868
_symmetry_space_group_name_H-M "P M M N"
_symmetry_group_IT_number 59
_space_group.IT_coordinate_system_code '2'
_symmetry_cell_setting 'orthorhombic'
loop_
_space_group_symop_operation_xyz
x,y,z
1/2-x,1/2-y,z
1/2+x,-y,-z
-x,1/2+y,-z
-x,-y,-z
1/2+x,1/2+y,-z
1/2-x,y,z
x,1/2-y,z
loop_
_atom_site_type_symbol
_atom_site_label
_atom_site_fract_x
_atom_site_fract_y
_atom_site_fract_z
Si Si1 0.066922 0.434962 0.305187
Si Si2 0.922645 0.977377 0.821473
Si Si3 0.433762 0.172115 0.405874
Si Si4 0.430670 0.078981 0.652324
Si Si5 0.432114 0.074155 0.514672
Si Si6 0.931604 0.675766 0.110429
Si Si7 0.930073 0.970525 0.060864
Si Si8 0.922426 0.131935 0.767972
O O1 0.250000 0.443294 0.307096
O O2 0.024898 0.430463 0.234364
O O3 0.024484 0.370586 0.346175
O O4 0.993330 0.502973 0.333397
O O5 0.750000 0.960047 0.837881
O O6 0.921236 0.053040 0.791317
O O7 0.020824 0.984238 0.881353
O O8 0.250000 0.173888 0.407151
O O9 0.487942 0.250000 0.406049
O O10 0.481923 0.128788 0.464475
O O11 0.250000 0.078765 0.658508
O O12 0.471176 0.095251 0.583115
O O13 0.500545 0.129011 0.702625
O O14 0.250000 0.068686 0.511448
O O15 0.500000 0.000000 0.500000
O O16 0.750000 0.673424 0.110949
O O17 0.979060 0.750000 0.085462
O O18 0.983409 0.607544 0.075249
O O19 0.989043 0.670251 0.179235
O O20 0.750000 0.969777 0.056077
O O21 0.000000 0.000000 0.000000
O O22 0.750000 0.155492 0.764103
#
# Coordination Sequence:
#
# PCOD9446408 Si02
#       8
#     8   8   8   8   8   8   8   8
#     4   9  16  28  48  70  91 118 154 199 248 293
#     4   8  15  27  44  68  94 119 151 191 235 281
#     4   9  17  30  48  69  93 122 160 206 255 305
#     4  10  18  27  43  69  95 121 158 203 247 293
#     4  10  19  30  47  69  93 124 166 210 252 301
#     4   9  18  33  52  74 101 133 168 206 248 294
#     4  10  19  31  50  75 103 134 165 200 239 281
#     4   9  17  29  46  69  96 126 157 196 241 288
#
# _framework density 16.705490000000001
#
# number of rings (size 3 to 8) (size 9 to 14) (size 15 to 20)
#    0.000    2.750    1.250    1.875    0.000    4.250 
#    0.000    0.625    0.000    4.500    0.000    3.500 
#    0.000    0.000    0.000    0.000    0.000    0.000 
#
# Total GULP energy -356481.460792 kJ/mol
# GULP energy per Si atom -5570.022825 kJ/mol
# Density = 1.666747 g / cm^3
# Si number density = 16.705490 Si / 1000 Ang^3
#
#
#
# Elastic Constant Matrix: (Units=GPa)
#
#
# Indices 1 2 3 4 5 6 
#
# 1 21.9370 15.7589 36.6620 0.0000 0.0000 0.0000
# 2 15.7589 91.8795 63.0357 0.0000 0.0000 0.0000
# 3 36.6620 63.0357 148.6788 0.0000 0.0000 0.0000
# 4 0.0000 0.0000 0.0000 15.2979 0.0000 0.0000
# 5 0.0000 0.0000 0.0000 0.0000 25.2466 0.0000
# 6 0.0000 0.0000 0.0000 0.0000 0.0000 14.0542
#
#
#
# Elastic Compliance Matrix: (Units=1/GPa)
#
#
# Indices 1 2 3 4 5 6 
#
# 1 0.077544 -0.000256 -0.019013 0.000000 0.000000 0.000000
# 2 -0.000256 0.015349 -0.006444 0.000000 0.000000 0.000000
# 3 -0.019013 -0.006444 0.014146 0.000000 0.000000 0.000000
# 4 0.000000 0.000000 0.000000 0.065368 0.000000 0.000000
# 5 0.000000 0.000000 0.000000 0.000000 0.039609 0.000000
# 6 0.000000 0.000000 0.000000 0.000000 0.000000 0.071153
#
#
# Mechanical properties :
#
#
# Convention : Reuss Voigt Hill
#
# Bulk Modulus (GPa) = 17.98142 54.82315 36.40228
# Shear Modulus (GPa) = 14.15894 20.72232 17.44063
#
# Velocity S-wave (km/s) = 2.91445 3.52582 3.23461
# Velocity P-wave (km/s) = 4.70239 7.03306 5.98233
#
# Compressibility (1/GPa) = 0.05561296
#
# Stress axis : x y z
#
# Youngs Moduli (GPa) = 12.89595 65.15058 70.68954
#
# Poissons Ratio (x) = 0.01669 1.34399
# Poissons Ratio (y) = 0.00330 0.45555
# Poissons Ratio (z) = 0.24518 0.41986
#
# Static dielectric constant tensor:
#      x y z
#    x 1.568080 0.000000 0.000000 
#    y 0.000000 1.570920 0.000000 
#    z 0.000000 0.000000 1.567500 
# 
# From -- ./inp_files/29650.got.cif
#   From: 2010.05.17/outbox.cif.g08.bks.cpg/sg59_15_cif.got.tgz:29650.got - 2010.06.03 14:40:33.
