data_PCOD9446219
_publ_section_title
;
Structure prediction by ZEFSAII (Michael W. Deem and Ramdas Pophale) SiO2 
 PCOD9446219
Probable space group: P M M N
;
_chemical_formula_sum "Si O2"
_cell_formula_units_Z 56
_cell_length_a 9.007143
_cell_length_b 28.868048
_cell_length_c 13.973612
_cell_angle_alpha 90.000000
_cell_angle_beta 90.000000
_cell_angle_gamma 90.000000
_cell_volume 3633.399539
_symmetry_space_group_name_H-M "P M M N"
_symmetry_group_IT_number 59
_space_group.IT_coordinate_system_code '2'
_symmetry_cell_setting 'orthorhombic'
loop_
_space_group_symop_operation_xyz
x,y,z
1/2-x,1/2-y,z
1/2+x,-y,-z
-x,1/2+y,-z
-x,-y,-z
1/2+x,1/2+y,-z
1/2-x,y,z
x,1/2-y,z
loop_
_atom_site_type_symbol
_atom_site_label
_atom_site_fract_x
_atom_site_fract_y
_atom_site_fract_z
Si Si1 0.924336 0.962958 0.721694
Si Si2 0.930490 0.301847 0.517169
Si Si3 0.573938 0.606888 0.205223
Si Si4 0.427942 0.895095 0.583178
Si Si5 0.076709 0.558567 0.382023
Si Si6 0.928472 0.986304 0.100287
Si Si7 0.571477 0.302598 0.740408
O O1 0.750000 0.957823 0.742522
O O2 0.991545 0.917389 0.673500
O O3 0.940323 0.004852 0.644634
O O4 0.009356 0.980659 0.815719
O O5 0.750000 0.302393 0.516701
O O6 0.978305 0.250000 0.489053
O O7 0.977956 0.343821 0.449393
O O8 0.972857 0.309356 0.628440
O O9 0.750000 0.612116 0.202302
O O10 0.523204 0.586540 0.307655
O O11 0.530803 0.566504 0.130554
O O12 0.497767 0.656714 0.196957
O O13 0.250000 0.894672 0.598993
O O14 0.456440 0.927282 0.490099
O O15 0.250000 0.571357 0.364337
O O16 0.750000 0.989345 0.096917
O O17 0.000000 0.000000 0.000000
O O18 0.750000 0.305661 0.743790
O O19 0.529215 0.250000 0.767107
#
# Coordination Sequence:
#
# PCOD9446219 Si02
#       7
#     8   8   8   8   8   8   8
#     4  10  20  31  45  67  94 122 154 192 232 280
#     4   8  14  25  42  63  88 123 165 201 229 261
#     4  10  19  29  45  70  98 124 153 193 240 284
#     4  10  17  27  44  64  91 126 162 197 229 267
#     4   9  17  29  43  61  90 128 163 190 223 269
#     4  10  21  37  54  72  93 120 154 194 241 291
#     4   9  16  28  46  66  92 129 168 197 224 269
#
# _framework density 15.412563
#
# number of rings (size 3 to 8) (size 9 to 14) (size 15 to 20)
#    0.000    2.571    1.429    2.571    0.000    3.143 
#    0.000    0.000    0.000    0.429    0.000    1.000 
#    0.000    5.714    0.000    0.000    0.000    0.000 
#
# Total GULP energy -312057.204638 kJ/mol
# GULP energy per Si atom -5572.450083 kJ/mol
# Density = 1.537748 g / cm^3
# Si number density = 15.412563 Si / 1000 Ang^3
#
#
#
# Elastic Constant Matrix: (Units=GPa)
#
#
# Indices 1 2 3 4 5 6 
#
# 1 38.0721 48.8829 37.2526 0.0000 0.0000 0.0000
# 2 48.8829 121.0105 66.2035 0.0000 0.0000 0.0000
# 3 37.2526 66.2035 76.0577 0.0000 0.0000 0.0000
# 4 0.0000 0.0000 0.0000 17.3298 0.0000 0.0000
# 5 0.0000 0.0000 0.0000 0.0000 21.5089 0.0000
# 6 0.0000 0.0000 0.0000 0.0000 0.0000 23.5726
#
#
#
# Elastic Compliance Matrix: (Units=1/GPa)
#
#
# Indices 1 2 3 4 5 6 
#
# 1 0.064295 -0.016693 -0.016961 0.000000 0.000000 0.000000
# 2 -0.016693 0.020111 -0.009329 0.000000 0.000000 0.000000
# 3 -0.016961 -0.009329 0.029576 0.000000 0.000000 0.000000
# 4 0.000000 0.000000 0.000000 0.057704 0.000000 0.000000
# 5 0.000000 0.000000 0.000000 0.000000 0.046492 0.000000
# 6 0.000000 0.000000 0.000000 0.000000 0.000000 0.042422
#
#
# Mechanical properties :
#
#
# Convention : Reuss Voigt Hill
#
# Bulk Modulus (GPa) = 35.69491 59.97982 47.83736
# Shear Modulus (GPa) = 14.04869 18.00235 16.02552
#
# Velocity S-wave (km/s) = 3.02240 3.42135 3.22804
# Velocity P-wave (km/s) = 5.94893 7.38974 6.70813
#
# Compressibility (1/GPa) = 0.02801520
#
# Stress axis : x y z
#
# Youngs Moduli (GPa) = 15.55328 49.72440 33.81163
#
# Poissons Ratio (x) = 0.83006 0.57348
# Poissons Ratio (y) = 0.25963 0.31543
# Poissons Ratio (z) = 0.26380 0.46388
#
# Static dielectric constant tensor:
#      x y z
#    x 1.515700 0.000000 0.000000 
#    y 0.000000 1.545030 0.000000 
#    z 0.000000 0.000000 1.479920 
# 
# From -- ./inp_files/21717.got.cif
#   From: 2010.05.17/outbox.cif.g08.bks.cpg/sg59_11_cif.got.tgz:21717.got - 2010.06.03 14:40:33.
