data_PCOD9446471
_publ_section_title
;
Structure prediction by ZEFSAII (Michael W. Deem and Ramdas Pophale) SiO2 
 PCOD9446471
Probable space group: P M M N
;
_chemical_formula_sum "Si O2"
_cell_formula_units_Z 64
_cell_length_a 30.487010
_cell_length_b 7.571918
_cell_length_c 15.575784
_cell_angle_alpha 90.000000
_cell_angle_beta 90.000000
_cell_angle_gamma 90.000000
_cell_volume 3595.594035
_symmetry_space_group_name_H-M "P M M N"
_symmetry_group_IT_number 59
_space_group.IT_coordinate_system_code '2'
_symmetry_cell_setting 'orthorhombic'
loop_
_space_group_symop_operation_xyz
x,y,z
1/2-x,1/2-y,z
1/2+x,-y,-z
-x,1/2+y,-z
-x,-y,-z
1/2+x,1/2+y,-z
1/2-x,y,z
x,1/2-y,z
loop_
_atom_site_type_symbol
_atom_site_label
_atom_site_fract_x
_atom_site_fract_y
_atom_site_fract_z
Si Si1 0.931059 0.454794 0.041912
Si Si2 0.475455 0.965998 0.125121
Si Si3 0.536751 0.038578 0.680261
Si Si4 0.060914 0.537630 0.630819
Si Si5 0.886749 0.458157 0.204377
Si Si6 0.798974 0.962242 0.493603
Si Si7 0.894051 0.460794 0.543993
Si Si8 0.298998 0.036841 0.703128
O O1 0.919352 0.250000 0.027753
O O2 0.897323 0.534194 0.110624
O O3 0.977474 0.467697 0.092124
O O4 0.940681 0.527293 0.947056
O O5 0.477245 0.750000 0.123646
O O6 0.466066 0.026589 0.221708
O O7 0.541228 0.250000 0.686762
O O8 0.577026 0.970259 0.623110
O O9 0.490584 0.002208 0.633403
O O10 0.065925 0.750000 0.631449
O O11 0.083257 0.467752 0.718313
O O12 0.085822 0.470263 0.546080
O O13 0.897466 0.250000 0.198957
O O14 0.837131 0.475590 0.234940
O O15 0.750000 0.023701 0.520104
O O16 0.797153 0.750000 0.491144
O O17 0.806731 0.023877 0.395172
O O18 0.842002 0.009092 0.547141
O O19 0.900445 0.250000 0.542398
O O20 0.250000 0.980963 0.727885
O O21 0.299897 0.250000 0.701756
#
# Coordination Sequence:
#
# PCOD9446471 Si02
#       8
#     8   8   8   8   8   8   8   8
#     4   9  17  29  44  62  86 113 143 179 216 254
#     4   9  17  29  44  62  84 113 147 182 217 248
#     4  10  20  31  44  63  88 119 155 188 215 250
#     4  10  19  30  42  61  91 123 151 178 211 254
#     4  10  18  28  44  66  90 117 146 177 216 261
#     4   9  18  32  48  66  87 112 145 182 219 261
#     4  10  20  32  44  63  90 119 150 181 216 260
#     4   9  18  31  46  65  89 115 143 178 218 261
#
# _framework density 17.799561000000001
#
# number of rings (size 3 to 8) (size 9 to 14) (size 15 to 20)
#    0.000    2.500    2.500    1.125    0.000    2.500 
#    0.000    1.250    0.000    0.000    0.000    0.875 
#    0.000    7.000    0.000    0.000    0.000    0.000 
#
# Total GULP energy -356812.674801 kJ/mol
# GULP energy per Si atom -5575.198044 kJ/mol
# Density = 1.775905 g / cm^3
# Si number density = 17.799561 Si / 1000 Ang^3
#
#
#
# Elastic Constant Matrix: (Units=GPa)
#
#
# Indices 1 2 3 4 5 6 
#
# 1 114.7235 -12.6371 49.1062 0.0000 0.0000 0.0000
# 2 -12.6371 39.1543 0.0164 0.0000 0.0000 0.0000
# 3 49.1062 0.0164 76.4132 0.0000 0.0000 0.0000
# 4 0.0000 0.0000 0.0000 4.4635 0.0000 0.0000
# 5 0.0000 0.0000 0.0000 0.0000 27.1266 0.0000
# 6 0.0000 0.0000 0.0000 0.0000 0.0000 21.5097
#
#
#
# Elastic Compliance Matrix: (Units=1/GPa)
#
#
# Indices 1 2 3 4 5 6 
#
# 1 0.012645 0.004085 -0.008127 0.000000 0.000000 0.000000
# 2 0.004085 0.026859 -0.002631 0.000000 0.000000 0.000000
# 3 -0.008127 -0.002631 0.018310 0.000000 0.000000 0.000000
# 4 0.000000 0.000000 0.000000 0.224040 0.000000 0.000000
# 5 0.000000 0.000000 0.000000 0.000000 0.036864 0.000000
# 6 0.000000 0.000000 0.000000 0.000000 0.000000 0.046491
#
#
# Mechanical properties :
#
#
# Convention : Reuss Voigt Hill
#
# Bulk Modulus (GPa) = 22.48791 33.69576 28.09184
# Shear Modulus (GPa) = 12.71040 23.54033 18.12536
#
# Velocity S-wave (km/s) = 2.67514 3.64060 3.19455
# Velocity P-wave (km/s) = 4.71203 6.05340 5.42434
#
# Compressibility (1/GPa) = 0.04446833
#
# Stress axis : x y z
#
# Youngs Moduli (GPa) = 79.08047 37.23090 54.61429
#
# Poissons Ratio (x) = -0.15208 0.44387
# Poissons Ratio (y) = -0.32302 0.14368
# Poissons Ratio (z) = 0.64271 0.09794
#
# Static dielectric constant tensor:
#      x y z
#    x 1.602400 0.000000 0.000000 
#    y 0.000000 1.844220 0.000000 
#    z 0.000000 0.000000 1.632070 
# 
# From -- ./inp_files/21855.got.cif
#   From: 2010.05.17/outbox.cif.g08.bks.cpg/sg59_11_cif.got.tgz:21855.got - 2010.06.03 14:40:33.
