data_PCOD9446414
_publ_section_title
;
Structure prediction by ZEFSAII (Michael W. Deem and Ramdas Pophale) SiO2 
 PCOD9446414
Probable space group: P M M N
;
_chemical_formula_sum "Si O2"
_cell_formula_units_Z 64
_cell_length_a 7.656400
_cell_length_b 28.185203
_cell_length_c 15.376930
_cell_angle_alpha 90.000000
_cell_angle_beta 90.000000
_cell_angle_gamma 90.000000
_cell_volume 3318.298258
_symmetry_space_group_name_H-M "P M M N"
_symmetry_group_IT_number 59
_space_group.IT_coordinate_system_code '2'
_symmetry_cell_setting 'orthorhombic'
loop_
_space_group_symop_operation_xyz
x,y,z
1/2-x,1/2-y,z
1/2+x,-y,-z
-x,1/2+y,-z
-x,-y,-z
1/2+x,1/2+y,-z
1/2-x,y,z
x,1/2-y,z
loop_
_atom_site_type_symbol
_atom_site_label
_atom_site_fract_x
_atom_site_fract_y
_atom_site_fract_z
Si Si1 0.048407 0.085225 0.154575
Si Si2 0.036930 0.195679 0.845595
Si Si3 0.043715 0.476595 0.849651
Si Si4 0.045596 0.889321 0.475996
Si Si5 0.960799 0.696029 0.351400
Si Si6 0.035208 0.110406 0.968397
Si Si7 0.456057 0.423104 0.343291
Si Si8 0.961580 0.470041 0.652245
O O1 0.250000 0.101059 0.157045
O O2 0.969351 0.093593 0.250413
O O3 0.972078 0.108121 0.067631
O O4 0.043254 0.028089 0.142413
O O5 0.250000 0.195435 0.845826
O O6 0.983048 0.250000 0.863689
O O7 0.982111 0.183280 0.746880
O O8 0.979301 0.156581 0.914612
O O9 0.250000 0.483772 0.862898
O O10 0.980823 0.437136 0.917173
O O11 0.015138 0.458579 0.751060
O O12 0.250000 0.898136 0.485155
O O13 0.970500 0.932328 0.417511
O O14 0.019487 0.841425 0.422415
O O15 0.975433 0.890121 0.573590
O O16 0.750000 0.695848 0.350952
O O17 0.018128 0.750000 0.368906
O O18 0.250000 0.109904 0.968494
O O19 0.250000 0.429549 0.327631
O O20 0.523382 0.476099 0.365141
O O21 0.750000 0.468913 0.649452
#
# Coordination Sequence:
#
# PCOD9446414 Si02
#       8
#     8   8   8   8   8   8   8   8
#     4   9  18  32  46  62  92 128 156 189 232 272
#     4   8  14  26  46  72  97 118 145 183 224 268
#     4  10  18  27  44  69  94 122 157 193 226 269
#     4  11  21  31  48  72  95 121 156 197 238 279
#     4   9  18  33  52  73  98 126 153 184 227 280
#     4   9  16  26  43  67  93 122 154 187 227 272
#     4   9  18  32  47  62  88 128 165 194 228 273
#     4   9  19  33  46  66  97 128 155 188 235 284
#
# _framework density 19.286995000000001
#
# number of rings (size 3 to 8) (size 9 to 14) (size 15 to 20)
#    0.000    2.750    0.000    3.750    0.000    4.250 
#    0.000    0.625    0.000    1.500    0.000    3.500 
#    0.000    0.000    0.000    0.000    0.000    0.000 
#
# Total GULP energy -357026.439405 kJ/mol
# GULP energy per Si atom -5578.538116 kJ/mol
# Density = 1.924310 g / cm^3
# Si number density = 19.286995 Si / 1000 Ang^3
#
#
#
# Elastic Constant Matrix: (Units=GPa)
#
#
# Indices 1 2 3 4 5 6 
#
# 1 35.0911 -6.6105 -4.9530 0.0000 0.0000 0.0000
# 2 -6.6105 60.9051 78.4994 0.0000 0.0000 0.0000
# 3 -4.9530 78.4994 169.2468 0.0000 0.0000 0.0000
# 4 0.0000 0.0000 0.0000 28.1178 0.0000 0.0000
# 5 0.0000 0.0000 0.0000 0.0000 6.9906 0.0000
# 6 0.0000 0.0000 0.0000 0.0000 0.0000 13.4359
#
#
#
# Elastic Compliance Matrix: (Units=1/GPa)
#
#
# Indices 1 2 3 4 5 6 
#
# 1 0.029251 0.005150 -0.001533 0.000000 0.000000 0.000000
# 2 0.005150 0.041730 -0.019204 0.000000 0.000000 0.000000
# 3 -0.001533 -0.019204 0.014771 0.000000 0.000000 0.000000
# 4 0.000000 0.000000 0.000000 0.035565 0.000000 0.000000
# 5 0.000000 0.000000 0.000000 0.000000 0.143049 0.000000
# 6 0.000000 0.000000 0.000000 0.000000 0.000000 0.074428
#
#
# Mechanical properties :
#
#
# Convention : Reuss Voigt Hill
#
# Bulk Modulus (GPa) = 18.32214 44.34611 31.33412
# Shear Modulus (GPa) = 12.88129 22.92933 17.90531
#
# Velocity S-wave (km/s) = 2.58713 3.45171 3.05021
# Velocity P-wave (km/s) = 4.29473 6.23926 5.35598
#
# Compressibility (1/GPa) = 0.05457878
#
# Stress axis : x y z
#
# Youngs Moduli (GPa) = 34.18671 23.96345 67.70022
#
# Poissons Ratio (x) = -0.12342 0.10377
# Poissons Ratio (y) = -0.17608 1.30014
# Poissons Ratio (z) = 0.05240 0.46020
#
# Static dielectric constant tensor:
#      x y z
#    x 1.728320 0.000000 0.000000 
#    y 0.000000 1.643960 0.000000 
#    z 0.000000 0.000000 1.696850 
# 
# From -- ./inp_files/21924.got.cif
#   From: 2010.05.17/outbox.cif.g08.bks.cpg/sg59_11_cif.got.tgz:21924.got - 2010.06.03 14:40:33.
