data_PCOD9446616
_publ_section_title
;
Structure prediction by ZEFSAII (Michael W. Deem and Ramdas Pophale) SiO2 
 PCOD9446616
Probable space group: P M M N
;
_chemical_formula_sum "Si O2"
_cell_formula_units_Z 48
_cell_length_a 9.352061
_cell_length_b 30.713776
_cell_length_c 10.143221
_cell_angle_alpha 90.000000
_cell_angle_beta 90.000000
_cell_angle_gamma 90.000000
_cell_volume 2913.509453
_symmetry_space_group_name_H-M "P M M N"
_symmetry_group_IT_number 59
_space_group.IT_coordinate_system_code '2'
_symmetry_cell_setting 'orthorhombic'
loop_
_space_group_symop_operation_xyz
x,y,z
1/2-x,1/2-y,z
1/2+x,-y,-z
-x,1/2+y,-z
-x,-y,-z
1/2+x,1/2+y,-z
1/2-x,y,z
x,1/2-y,z
loop_
_atom_site_type_symbol
_atom_site_label
_atom_site_fract_x
_atom_site_fract_y
_atom_site_fract_z
Si Si1 0.083580 0.797995 0.216996
Si Si2 0.580347 0.615079 0.538156
Si Si3 0.419677 0.529180 0.608412
Si Si4 0.919977 0.884124 0.221520
Si Si5 0.580741 0.977379 0.119000
Si Si6 0.083862 0.701166 0.537227
O O1 0.250000 0.801903 0.179921
O O2 0.031179 0.750000 0.174173
O O3 0.078407 0.798040 0.377140
O O4 0.996629 0.840248 0.174292
O O5 0.750000 0.611724 0.561837
O O6 0.493026 0.576321 0.605418
O O7 0.557016 0.610712 0.379473
O O8 0.517895 0.661954 0.579584
O O9 0.500000 0.500000 0.500000
O O10 0.250000 0.532024 0.579211
O O11 0.436825 0.505498 0.748310
O O12 0.750000 0.879783 0.203527
O O13 0.969213 0.928161 0.150194
O O14 0.750000 0.975328 0.090534
O O15 0.500000 0.000000 0.000000
O O16 0.250000 0.693061 0.572874
O O17 0.044218 0.750000 0.582063
#
# Coordination Sequence:
#
# PCOD9446616 Si02
#       6
#     8   8   8   8   8   8
#     4   8  14  24  39  63  93 123 159 198 236 287
#     4  10  18  29  46  71 100 129 166 207 249 297
#     4  11  21  35  53  74 101 130 167 210 251 298
#     4   9  17  30  45  66  98 128 160 202 243 288
#     4  10  22  38  52  72 101 132 169 211 251 300
#     4   8  14  25  40  62  95 131 164 199 244 296
#
# _framework density 16.474976000000002
#
# number of rings (size 3 to 8) (size 9 to 14) (size 15 to 20)
#    0.000    2.667    1.667    2.000    0.000    3.333 
#    0.000    3.333    0.000    0.000    0.000    1.167 
#    0.000    6.667    0.000    0.000    0.000    0.000 
#
# Total GULP energy -267426.756001 kJ/mol
# GULP energy per Si atom -5571.390750 kJ/mol
# Density = 1.643748 g / cm^3
# Si number density = 16.474976 Si / 1000 Ang^3
#
#
#
# Elastic Constant Matrix: (Units=GPa)
#
#
# Indices 1 2 3 4 5 6 
#
# 1 77.1102 83.1386 35.0296 0.0000 0.0000 0.0000
# 2 83.1386 184.7416 34.1705 0.0000 0.0000 0.0000
# 3 35.0296 34.1705 29.1270 0.0000 0.0000 0.0000
# 4 0.0000 0.0000 0.0000 12.4595 0.0000 0.0000
# 5 0.0000 0.0000 0.0000 0.0000 19.0651 0.0000
# 6 0.0000 0.0000 0.0000 0.0000 0.0000 36.6031
#
#
#
# Elastic Compliance Matrix: (Units=1/GPa)
#
#
# Indices 1 2 3 4 5 6 
#
# 1 0.043933 -0.012769 -0.037856 0.000000 0.000000 0.000000
# 2 -0.012769 0.010624 0.002893 0.000000 0.000000 0.000000
# 3 -0.037856 0.002893 0.076467 0.000000 0.000000 0.000000
# 4 0.000000 0.000000 0.000000 0.080260 0.000000 0.000000
# 5 0.000000 0.000000 0.000000 0.000000 0.052452 0.000000
# 6 0.000000 0.000000 0.000000 0.000000 0.000000 0.027320
#
#
# Mechanical properties :
#
#
# Convention : Reuss Voigt Hill
#
# Bulk Modulus (GPa) = 28.12221 66.18402 47.15312
# Shear Modulus (GPa) = 12.55103 22.86820 17.70962
#
# Velocity S-wave (km/s) = 2.76311 3.72971 3.28219
# Velocity P-wave (km/s) = 5.22364 7.66859 6.56101
#
# Compressibility (1/GPa) = 0.03555908
#
# Stress axis : x y z
#
# Youngs Moduli (GPa) = 22.76197 94.12375 13.07762
#
# Poissons Ratio (x) = 1.20187 0.49507
# Poissons Ratio (y) = 0.29065 -0.03783
# Poissons Ratio (z) = 0.86168 -0.27227
#
# Static dielectric constant tensor:
#      x y z
#    x 1.547570 0.000000 0.000000 
#    y 0.000000 1.576340 0.000000 
#    z 0.000000 0.000000 1.527170 
# 
# From -- ./inp_files/6330.got.cif
#   From: 2010.05.17/outbox.cif.g08.bks.cpg/sg59_4_cif.got.tgz:6330.got - 2010.06.03 14:40:33.
