data_PCOD9446147
_publ_section_title
;
Structure prediction by ZEFSAII (Michael W. Deem and Ramdas Pophale) SiO2 
 PCOD9446147
Probable space group: P M M N
;
_chemical_formula_sum "Si O2"
_cell_formula_units_Z 48
_cell_length_a 18.868323
_cell_length_b 7.487956
_cell_length_c 13.634848
_cell_angle_alpha 90.000000
_cell_angle_beta 90.000000
_cell_angle_gamma 90.000000
_cell_volume 1926.401851
_symmetry_space_group_name_H-M "P M M N"
_symmetry_group_IT_number 59
_space_group.IT_coordinate_system_code '2'
_symmetry_cell_setting 'orthorhombic'
loop_
_space_group_symop_operation_xyz
x,y,z
1/2-x,1/2-y,z
1/2+x,-y,-z
-x,1/2+y,-z
-x,-y,-z
1/2+x,1/2+y,-z
1/2-x,y,z
x,1/2-y,z
loop_
_atom_site_type_symbol
_atom_site_label
_atom_site_fract_x
_atom_site_fract_y
_atom_site_fract_z
Si Si1 0.124945 0.453694 0.434987
Si Si2 0.908272 0.956398 0.152623
Si Si3 0.250000 0.049083 0.068472
Si Si4 0.750000 0.033329 0.709813
Si Si5 0.092750 0.029911 0.058905
Si Si6 0.250000 0.957509 0.798870
Si Si7 0.750000 0.966172 0.429987
Si Si8 0.967618 0.957297 0.730365
O O1 0.107847 0.250000 0.465268
O O2 0.181824 0.463518 0.346920
O O3 0.176196 0.532329 0.520025
O O4 0.057435 0.533005 0.375201
O O5 0.927219 0.750000 0.153597
O O6 0.824037 0.968653 0.161627
O O7 0.936340 0.030857 0.047984
O O8 0.949117 0.036230 0.245392
O O9 0.250000 0.250000 0.027365
O O10 0.174228 0.967025 0.047253
O O11 0.250000 0.051409 0.185069
O O12 0.750000 0.250000 0.712994
O O13 0.091876 0.250000 0.059911
O O14 0.065990 0.970719 0.166661
O O15 0.250000 0.750000 0.822044
O O16 0.250000 0.989383 0.683035
O O17 0.750000 0.750000 0.444133
O O18 0.946685 0.750000 0.725916
#
# Coordination Sequence:
#
# PCOD9446147 Si02
#       8
#     8   8   4   4   8   4   4   8
#     4   9  18  35  60  86 117 155 188 222 284 357
#     4  11  23  40  61  86 115 154 200 246 288 336
#     4  10  16  30  51  72 104 155 202 233 276 334
#     4  11  19  26  43  77 117 148 183 232 279 325
#     4   9  18  32  56  84 118 162 204 238 279 333
#     4  12  26  46  66  83 108 149 196 247 298 350
#     4   9  19  38  66  94 113 142 189 242 291 345
#     4  10  19  35  59  89 124 159 191 229 282 351
#
# _framework density 24.916920000000001
#
# number of rings (size 3 to 8) (size 9 to 14) (size 15 to 20)
#    0.000    2.000    1.667    3.500    0.000    3.333 
#    0.000    4.167    0.000    0.000    0.000    0.000 
#    0.000    0.000    0.000    0.000    0.000    0.000 
#
# Total GULP energy -267657.590245 kJ/mol
# GULP energy per Si atom -5576.199797 kJ/mol
# Density = 2.486021 g / cm^3
# Si number density = 24.916920 Si / 1000 Ang^3
#
#
#
# Elastic Constant Matrix: (Units=GPa)
#
#
# Indices 1 2 3 4 5 6 
#
# 1 92.5396 3.1606 14.3337 0.0000 0.0000 0.0000
# 2 3.1606 99.1366 -9.4822 0.0000 0.0000 0.0000
# 3 14.3337 -9.4822 103.1731 0.0000 0.0000 0.0000
# 4 0.0000 0.0000 0.0000 3.3432 0.0000 0.0000
# 5 0.0000 0.0000 0.0000 0.0000 9.6418 0.0000
# 6 0.0000 0.0000 0.0000 0.0000 0.0000 22.2385
#
#
#
# Elastic Compliance Matrix: (Units=1/GPa)
#
#
# Indices 1 2 3 4 5 6 
#
# 1 0.011069 -0.000504 -0.001584 0.000000 0.000000 0.000000
# 2 -0.000504 0.010200 0.001007 0.000000 0.000000 0.000000
# 3 -0.001584 0.001007 0.010005 0.000000 0.000000 0.000000
# 4 0.000000 0.000000 0.000000 0.299117 0.000000 0.000000
# 5 0.000000 0.000000 0.000000 0.000000 0.103715 0.000000
# 6 0.000000 0.000000 0.000000 0.000000 0.000000 0.044967
#
#
# Mechanical properties :
#
#
# Convention : Reuss Voigt Hill
#
# Bulk Modulus (GPa) = 34.35088 34.54148 34.44618
# Shear Modulus (GPa) = 10.18456 26.16717 18.17587
#
# Velocity S-wave (km/s) = 2.02393 3.24416 2.70378
# Velocity P-wave (km/s) = 4.39065 5.28446 4.85815
#
# Compressibility (1/GPa) = 0.02911133
#
# Stress axis : x y z
#
# Youngs Moduli (GPa) = 90.34418 98.04363 99.94880
#
# Poissons Ratio (x) = 0.04945 0.15833
# Poissons Ratio (y) = 0.04557 -0.10070
# Poissons Ratio (z) = 0.14312 -0.09878
#
# Static dielectric constant tensor:
#      x y z
#    x 1.991370 0.000000 0.000000 
#    y 0.000000 1.933070 0.000000 
#    z 0.000000 0.000000 1.969420 
# 
# From -- ./inp_files/23798.got.cif
#   From: 2010.05.17/outbox.cif.g08.bks.cpg/sg59_12_cif.got.tgz:23798.got - 2010.06.03 14:40:33.
