data_PCOD9446662
_publ_section_title
;
Structure prediction by ZEFSAII (Michael W. Deem and Ramdas Pophale) SiO2 
 PCOD9446662
Probable space group: P M M N
;
_chemical_formula_sum "Si O2"
_cell_formula_units_Z 64
_cell_length_a 8.576025
_cell_length_b 28.150635
_cell_length_c 15.324107
_cell_angle_alpha 90.000000
_cell_angle_beta 90.000000
_cell_angle_gamma 90.000000
_cell_volume 3699.554333
_symmetry_space_group_name_H-M "P M M N"
_symmetry_group_IT_number 59
_space_group.IT_coordinate_system_code '2'
_symmetry_cell_setting 'orthorhombic'
loop_
_space_group_symop_operation_xyz
x,y,z
1/2-x,1/2-y,z
1/2+x,-y,-z
-x,1/2+y,-z
-x,-y,-z
1/2+x,1/2+y,-z
1/2-x,y,z
x,1/2-y,z
loop_
_atom_site_type_symbol
_atom_site_label
_atom_site_fract_x
_atom_site_fract_y
_atom_site_fract_z
Si Si1 0.436990 0.467372 0.657812
Si Si2 0.937669 0.921069 0.843449
Si Si3 0.063126 0.531474 0.152593
Si Si4 0.940111 0.695662 0.153672
Si Si5 0.561396 0.888095 0.028012
Si Si6 0.563338 0.111844 0.529207
Si Si7 0.062434 0.922204 0.655867
Si Si8 0.562044 0.694925 0.352362
O O1 0.250000 0.464671 0.659447
O O2 0.501954 0.452679 0.752469
O O3 0.501027 0.433041 0.583710
O O4 0.484192 0.522362 0.643875
O O5 0.750000 0.920186 0.840273
O O6 0.999814 0.905763 0.749318
O O7 0.984867 0.976286 0.857665
O O8 0.990136 0.891299 0.927500
O O9 0.250000 0.533856 0.150609
O O10 0.993347 0.565051 0.078855
O O11 0.750000 0.695436 0.153165
O O12 0.988744 0.750000 0.136156
O O13 0.993858 0.657522 0.082841
O O14 0.987103 0.682849 0.252809
O O15 0.750000 0.887583 0.028418
O O16 0.750000 0.110312 0.529934
O O17 0.509916 0.106825 0.428904
O O18 0.507031 0.158880 0.578187
O O19 0.250000 0.921251 0.659230
O O20 0.750000 0.691493 0.355018
O O21 0.520103 0.750000 0.368084
#
# Coordination Sequence:
#
# PCOD9446662 Si02
#       8
#     8   8   8   8   8   8   8   8
#     4  10  19  32  49  69  96 130 164 197 237 286
#     4   9  19  32  46  67  95 127 163 201 236 276
#     4  10  19  30  44  67  99 129 158 195 237 280
#     4   8  15  29  49  71  94 119 148 185 228 276
#     4  10  18  29  48  72  95 123 160 195 235 288
#     4  11  21  32  49  74  99 124 160 202 246 294
#     4   9  20  35  49  67  94 130 167 200 237 286
#     4   9  18  33  52  74  99 128 161 193 233 291
#
# _framework density 17.299379999999999
#
# number of rings (size 3 to 8) (size 9 to 14) (size 15 to 20)
#    0.000    2.500    0.000    3.375    0.000    3.750 
#    0.000    0.000    0.000    1.875    0.000    1.750 
#    0.000    0.000    0.000    0.000    0.000    0.000 
#
# Total GULP energy -357057.320212 kJ/mol
# GULP energy per Si atom -5579.020628 kJ/mol
# Density = 1.726001 g / cm^3
# Si number density = 17.299380 Si / 1000 Ang^3
#
#
#
# Elastic Constant Matrix: (Units=GPa)
#
#
# Indices 1 2 3 4 5 6 
#
# 1 10.7878 18.9766 25.7500 0.0000 0.0000 0.0000
# 2 18.9766 69.6738 82.1513 0.0000 0.0000 0.0000
# 3 25.7500 82.1513 180.8455 0.0000 0.0000 0.0000
# 4 0.0000 0.0000 0.0000 27.3560 0.0000 0.0000
# 5 0.0000 0.0000 0.0000 0.0000 24.7567 0.0000
# 6 0.0000 0.0000 0.0000 0.0000 0.0000 18.2835
#
#
#
# Elastic Compliance Matrix: (Units=1/GPa)
#
#
# Indices 1 2 3 4 5 6 
#
# 1 0.182363 -0.041028 -0.007329 0.000000 0.000000 0.000000
# 2 -0.041028 0.040137 -0.012391 0.000000 0.000000 0.000000
# 3 -0.007329 -0.012391 0.012202 0.000000 0.000000 0.000000
# 4 0.000000 0.000000 0.000000 0.036555 0.000000 0.000000
# 5 0.000000 0.000000 0.000000 0.000000 0.040393 0.000000
# 6 0.000000 0.000000 0.000000 0.000000 0.000000 0.054694
#
#
# Mechanical properties :
#
#
# Convention : Reuss Voigt Hill
#
# Bulk Modulus (GPa) = 8.83341 57.22922 33.03131
# Shear Modulus (GPa) = 9.51341 23.04117 16.27729
#
# Velocity S-wave (km/s) = 2.34760 3.65349 3.07077
# Velocity P-wave (km/s) = 3.53066 7.13798 5.63100
#
# Compressibility (1/GPa) = 0.11320659
#
# Stress axis : x y z
#
# Youngs Moduli (GPa) = 5.48358 24.91469 81.95517
#
# Poissons Ratio (x) = 1.02220 0.60062
# Poissons Ratio (y) = 0.22498 1.01550
# Poissons Ratio (z) = 0.04019 0.30871
#
# Static dielectric constant tensor:
#      x y z
#    x 1.589030 0.000000 0.000000 
#    y 0.000000 1.577090 0.000000 
#    z 0.000000 0.000000 1.591630 
# 
# From -- ./inp_files/21947.got.cif
#   From: 2010.05.17/outbox.cif.g08.bks.cpg/sg59_11_cif.got.tgz:21947.got - 2010.06.03 14:40:33.
