data_PCOD9446527
_publ_section_title
;
Structure prediction by ZEFSAII (Michael W. Deem and Ramdas Pophale) SiO2 
 PCOD9446527
Probable space group: P M M N
;
_chemical_formula_sum "Si O2"
_cell_formula_units_Z 56
_cell_length_a 10.531310
_cell_length_b 22.299863
_cell_length_c 13.116530
_cell_angle_alpha 90.000000
_cell_angle_beta 90.000000
_cell_angle_gamma 90.000000
_cell_volume 3080.374707
_symmetry_space_group_name_H-M "P M M N"
_symmetry_group_IT_number 59
_space_group.IT_coordinate_system_code '2'
_symmetry_cell_setting 'orthorhombic'
loop_
_space_group_symop_operation_xyz
x,y,z
1/2-x,1/2-y,z
1/2+x,-y,-z
-x,1/2+y,-z
-x,-y,-z
1/2+x,1/2+y,-z
1/2-x,y,z
x,1/2-y,z
loop_
_atom_site_type_symbol
_atom_site_label
_atom_site_fract_x
_atom_site_fract_y
_atom_site_fract_z
Si Si1 0.889220 0.450321 0.205998
Si Si2 0.615919 0.250000 0.895053
Si Si3 0.607984 0.358269 0.736932
Si Si4 0.393654 0.082166 0.862281
Si Si5 0.901202 0.453733 0.445682
Si Si6 0.388211 0.250000 0.049581
Si Si7 0.401218 0.682090 0.493164
Si Si8 0.606003 0.618057 0.905164
O O1 0.750000 0.421079 0.193595
O O2 0.890365 0.510539 0.139178
O O3 0.902760 0.466190 0.324864
O O4 0.004195 0.411209 0.167166
O O5 0.750000 0.250000 0.953016
O O6 0.613045 0.306748 0.821483
O O7 0.498307 0.250000 0.968258
O O8 0.750000 0.386324 0.731053
O O9 0.495789 0.399827 0.777339
O O10 0.581281 0.328441 0.627946
O O11 0.250000 0.103743 0.838056
O O12 0.425738 0.105943 0.975338
O O13 0.750000 0.459624 0.478654
O O14 0.940867 0.383115 0.460585
O O15 0.000000 0.500000 0.500000
O O16 0.250000 0.250000 0.996694
O O17 0.395543 0.189130 0.111738
O O18 0.250000 0.684647 0.513157
O O19 0.450638 0.750000 0.520118
O O20 0.750000 0.595529 0.889909
#
# Coordination Sequence:
#
# PCOD9446527 Si02
#       8
#     8   4   8   8   8   4   8   8
#     4  10  22  38  54  80 111 138 180 231 271 316
#     4  10  18  28  46  75 108 136 168 217 264 305
#     4  10  18  29  50  80 108 136 175 220 264 316
#     4  10  20  34  53  77 110 146 176 216 269 324
#     4  10  21  38  60  84 111 145 184 231 283 332
#     4  10  20  36  54  75 106 142 184 219 256 325
#     4   9  17  32  54  79 108 143 184 227 272 328
#     4  10  21  36  55  77 103 143 183 216 264 324
#
# _framework density 18.179606
#
# number of rings (size 3 to 8) (size 9 to 14) (size 15 to 20)
#    0.000    2.143    2.143    1.286    0.000    2.286 
#    1.286    0.000    0.000    1.286    0.000    0.000 
#    0.000    0.000    0.000    0.000    0.000    0.000 
#
# Total GULP energy -311742.711342 kJ/mol
# GULP energy per Si atom -5566.834131 kJ/mol
# Density = 1.813823 g / cm^3
# Si number density = 18.179606 Si / 1000 Ang^3
#
#
#
# Elastic Constant Matrix: (Units=GPa)
#
#
# Indices 1 2 3 4 5 6 
#
# 1 81.5123 46.1686 32.0706 0.0000 0.0000 0.0000
# 2 46.1686 92.3582 24.4033 0.0000 0.0000 0.0000
# 3 32.0706 24.4033 28.3730 0.0000 0.0000 0.0000
# 4 0.0000 0.0000 0.0000 18.7783 0.0000 0.0000
# 5 0.0000 0.0000 0.0000 0.0000 21.2605 0.0000
# 6 0.0000 0.0000 0.0000 0.0000 0.0000 30.5347
#
#
#
# Elastic Compliance Matrix: (Units=1/GPa)
#
#
# Indices 1 2 3 4 5 6 
#
# 1 0.024739 -0.006442 -0.022422 0.000000 0.000000 0.000000
# 2 -0.006442 0.015689 -0.006212 0.000000 0.000000 0.000000
# 3 -0.022422 -0.006212 0.065932 0.000000 0.000000 0.000000
# 4 0.000000 0.000000 0.000000 0.053253 0.000000 0.000000
# 5 0.000000 0.000000 0.000000 0.000000 0.047036 0.000000
# 6 0.000000 0.000000 0.000000 0.000000 0.000000 0.032750
#
#
# Mechanical properties :
#
#
# Convention : Reuss Voigt Hill
#
# Bulk Modulus (GPa) = 27.61900 45.28096 36.44998
# Shear Modulus (GPa) = 15.54630 20.75477 18.15054
#
# Velocity S-wave (km/s) = 2.92747 3.38250 3.16318
# Velocity P-wave (km/s) = 5.16256 6.34166 5.78225
#
# Compressibility (1/GPa) = 0.03620695
#
# Stress axis : x y z
#
# Youngs Moduli (GPa) = 40.42250 63.73798 15.16715
#
# Poissons Ratio (x) = 0.41061 0.34008
# Poissons Ratio (y) = 0.26041 0.09423
# Poissons Ratio (z) = 0.90635 0.39597
#
# Static dielectric constant tensor:
#      x y z
#    x 1.676550 0.000000 0.000000 
#    y 0.000000 1.666480 0.000000 
#    z 0.000000 0.000000 1.594690 
# 
# From -- ./inp_files/21150.got.cif
#   From: 2010.05.17/outbox.cif.g08.bks.cpg/sg59_11_cif.got.tgz:21150.got - 2010.06.03 14:40:33.
