data_PCOD9446260
_publ_section_title
;
Structure prediction by ZEFSAII (Michael W. Deem and Ramdas Pophale) SiO2 
 PCOD9446260
Probable space group: P M M N
;
_chemical_formula_sum "Si O2"
_cell_formula_units_Z 64
_cell_length_a 31.349370
_cell_length_b 7.540641
_cell_length_c 14.700689
_cell_angle_alpha 90.000000
_cell_angle_beta 90.000000
_cell_angle_gamma 90.000000
_cell_volume 3475.159743
_symmetry_space_group_name_H-M "P M M N"
_symmetry_group_IT_number 59
_space_group.IT_coordinate_system_code '2'
_symmetry_cell_setting 'orthorhombic'
loop_
_space_group_symop_operation_xyz
x,y,z
1/2-x,1/2-y,z
1/2+x,-y,-z
-x,1/2+y,-z
-x,-y,-z
1/2+x,1/2+y,-z
1/2-x,y,z
x,1/2-y,z
loop_
_atom_site_type_symbol
_atom_site_label
_atom_site_fract_x
_atom_site_fract_y
_atom_site_fract_z
Si Si1 0.437291 0.964788 0.036940
Si Si2 0.797503 0.033229 0.495398
Si Si3 0.529693 0.045176 0.348780
Si Si4 0.064816 0.038308 0.372979
Si Si5 0.888005 0.454719 0.446349
Si Si6 0.297110 0.533755 0.292843
Si Si7 0.478106 0.043683 0.857118
Si Si8 0.381255 0.537169 0.195938
O O1 0.438273 0.750000 0.035235
O O2 0.479473 0.026486 0.092294
O O3 0.397772 0.025222 0.098156
O O4 0.441634 0.025634 0.933402
O O5 0.750000 0.978683 0.464231
O O6 0.798162 0.250000 0.493681
O O7 0.840113 0.969569 0.444541
O O8 0.801854 0.981375 0.601562
O O9 0.529132 0.250000 0.379718
O O10 0.483828 0.969736 0.379152
O O11 0.572775 0.963450 0.389803
O O12 0.530648 0.042478 0.239519
O O13 0.064545 0.250000 0.385929
O O14 0.095495 0.958875 0.449502
O O15 0.083629 0.001492 0.273332
O O16 0.883888 0.250000 0.416424
O O17 0.250000 0.479387 0.261745
O O18 0.298154 0.750000 0.292403
O O19 0.336250 0.468538 0.232661
O O20 0.485504 0.250000 0.837561
O O21 0.378030 0.750000 0.190184
#
# Coordination Sequence:
#
# PCOD9446260 Si02
#       8
#     8   8   8   8   8   8   8   8
#     4   9  18  30  46  67  89 115 147 181 220 264
#     4   8  13  23  43  68  88 109 144 189 227 260
#     4  10  21  33  45  63  90 123 155 190 225 259
#     4  11  21  30  41  63  94 124 154 186 217 255
#     4  10  19  32  48  64  87 122 157 186 222 268
#     4   8  13  22  41  68  91 112 144 186 223 258
#     4  10  19  31  48  67  88 116 147 185 225 263
#     4  10  17  29  48  67  89 121 154 181 217 268
#
# _framework density 18.416418
#
# number of rings (size 3 to 8) (size 9 to 14) (size 15 to 20)
#    0.000    2.500    2.500    1.875    0.000    2.000 
#    0.000    0.000    0.000    1.500    0.000    0.875 
#    0.000    7.000    0.000    0.000    0.000    0.000 
#
# Total GULP energy -356883.143529 kJ/mol
# GULP energy per Si atom -5576.299118 kJ/mol
# Density = 1.837450 g / cm^3
# Si number density = 18.416418 Si / 1000 Ang^3
#
#
#
# Elastic Constant Matrix: (Units=GPa)
#
#
# Indices 1 2 3 4 5 6 
#
# 1 158.9740 2.1312 22.7843 0.0000 0.0000 0.0000
# 2 2.1312 45.7929 -9.2264 0.0000 0.0000 0.0000
# 3 22.7843 -9.2264 29.6834 0.0000 0.0000 0.0000
# 4 0.0000 0.0000 0.0000 11.6205 0.0000 0.0000
# 5 0.0000 0.0000 0.0000 0.0000 22.7610 0.0000
# 6 0.0000 0.0000 0.0000 0.0000 0.0000 4.1038
#
#
#
# Elastic Compliance Matrix: (Units=1/GPa)
#
#
# Indices 1 2 3 4 5 6 
#
# 1 0.007168 -0.001538 -0.005980 0.000000 0.000000 0.000000
# 2 -0.001538 0.023627 0.008525 0.000000 0.000000 0.000000
# 3 -0.005980 0.008525 0.040929 0.000000 0.000000 0.000000
# 4 0.000000 0.000000 0.000000 0.086055 0.000000 0.000000
# 5 0.000000 0.000000 0.000000 0.000000 0.043935 0.000000
# 6 0.000000 0.000000 0.000000 0.000000 0.000000 0.243674
#
#
# Mechanical properties :
#
#
# Convention : Reuss Voigt Hill
#
# Bulk Modulus (GPa) = 13.56201 29.53650 21.54925
# Shear Modulus (GPa) = 10.68482 22.28116 16.48299
#
# Velocity S-wave (km/s) = 2.41130 3.48207 2.99493
# Velocity P-wave (km/s) = 3.89006 5.67797 4.86682
#
# Compressibility (1/GPa) = 0.07373540
#
# Stress axis : x y z
#
# Youngs Moduli (GPa) = 139.50786 42.32518 24.43266
#
# Poissons Ratio (x) = 0.06512 0.14611
# Poissons Ratio (y) = 0.21463 -0.20828
# Poissons Ratio (z) = 0.83429 -0.36081
#
# Static dielectric constant tensor:
#      x y z
#    x 1.683900 0.000000 0.000000 
#    y 0.000000 1.688240 0.000000 
#    z 0.000000 0.000000 1.610170 
# 
# From -- ./inp_files/25120.got.cif
#   From: 2010.05.17/outbox.cif.g08.bks.cpg/sg59_13_cif.got.tgz:25120.got - 2010.06.03 14:40:33.
