data_PCOD9446826
_publ_section_title
;
Structure prediction by ZEFSAII (Michael W. Deem and Ramdas Pophale) SiO2 
 PCOD9446826
Probable space group: P M M N
;
_chemical_formula_sum "Si O2"
_cell_formula_units_Z 48
_cell_length_a 8.729252
_cell_length_b 31.158701
_cell_length_c 10.394273
_cell_angle_alpha 90.000000
_cell_angle_beta 90.000000
_cell_angle_gamma 90.000000
_cell_volume 2827.160692
_symmetry_space_group_name_H-M "P M M N"
_symmetry_group_IT_number 59
_space_group.IT_coordinate_system_code '2'
_symmetry_cell_setting 'orthorhombic'
loop_
_space_group_symop_operation_xyz
x,y,z
1/2-x,1/2-y,z
1/2+x,-y,-z
-x,1/2+y,-z
-x,-y,-z
1/2+x,1/2+y,-z
1/2-x,y,z
x,1/2-y,z
loop_
_atom_site_type_symbol
_atom_site_label
_atom_site_fract_x
_atom_site_fract_y
_atom_site_fract_z
Si Si1 0.566601 0.023275 0.875694
Si Si2 0.566788 0.528337 0.615999
Si Si3 0.431768 0.886755 0.514328
Si Si4 0.935090 0.889515 0.225245
Si Si5 0.431080 0.296064 0.791517
Si Si6 0.569615 0.797256 0.520247
O O1 0.750000 0.026703 0.884408
O O2 0.495608 0.070225 0.853841
O O3 0.529301 0.995035 0.749436
O O4 0.500000 0.000000 0.000000
O O5 0.500000 0.500000 0.500000
O O6 0.750000 0.530536 0.603255
O O7 0.497184 0.575642 0.603078
O O8 0.250000 0.890320 0.503209
O O9 0.504302 0.893090 0.371893
O O10 0.479196 0.839372 0.561968
O O11 0.750000 0.889454 0.229330
O O12 0.989536 0.843128 0.170390
O O13 0.250000 0.295348 0.822958
O O14 0.497472 0.250000 0.835687
O O15 0.441711 0.296348 0.635713
O O16 0.750000 0.802086 0.550334
O O17 0.518413 0.750000 0.566138
#
# Coordination Sequence:
#
# PCOD9446826 Si02
#       6
#     8   8   8   8   8   8
#     4  11  24  39  55  76 103 136 175 218 266 320
#     4  11  22  36  55  77 102 135 175 216 259 311
#     4  11  20  29  46  74 105 136 172 214 261 311
#     4  10  18  30  50  72 100 137 173 213 258 304
#     4   7  11  21  39  65  94 125 162 201 244 295
#     4   8  14  26  43  64  95 134 171 208 255 309
#
# _framework density 16.978165000000001
#
# number of rings (size 3 to 8) (size 9 to 14) (size 15 to 20)
#    0.000    2.333    1.667    5.000    0.000    2.333 
#    0.000    0.000    0.000    1.500    0.000    1.167 
#    0.000    4.000    0.000    0.000    0.000    0.000 
#
# Total GULP energy -267462.285582 kJ/mol
# GULP energy per Si atom -5572.130950 kJ/mol
# Density = 1.693952 g / cm^3
# Si number density = 16.978165 Si / 1000 Ang^3
#
#
#
# Elastic Constant Matrix: (Units=GPa)
#
#
# Indices 1 2 3 4 5 6 
#
# 1 59.2932 58.4351 36.9322 0.0000 0.0000 0.0000
# 2 58.4351 204.4112 54.7500 0.0000 0.0000 0.0000
# 3 36.9322 54.7500 57.7041 0.0000 0.0000 0.0000
# 4 0.0000 0.0000 0.0000 13.3242 0.0000 0.0000
# 5 0.0000 0.0000 0.0000 0.0000 16.5437 0.0000
# 6 0.0000 0.0000 0.0000 0.0000 0.0000 29.2446
#
#
#
# Elastic Compliance Matrix: (Units=1/GPa)
#
#
# Indices 1 2 3 4 5 6 
#
# 1 0.031186 -0.004785 -0.015420 0.000000 0.000000 0.000000
# 2 -0.004785 0.007293 -0.003857 0.000000 0.000000 0.000000
# 3 -0.015420 -0.003857 0.030858 0.000000 0.000000 0.000000
# 4 0.000000 0.000000 0.000000 0.075052 0.000000 0.000000
# 5 0.000000 0.000000 0.000000 0.000000 0.060446 0.000000
# 6 0.000000 0.000000 0.000000 0.000000 0.000000 0.034194
#
#
# Mechanical properties :
#
#
# Convention : Reuss Voigt Hill
#
# Bulk Modulus (GPa) = 47.13960 69.07145 58.10552
# Shear Modulus (GPa) = 16.99387 23.24191 20.11789
#
# Velocity S-wave (km/s) = 3.16717 3.70392 3.44601
# Velocity P-wave (km/s) = 6.41870 7.68524 7.08035
#
# Compressibility (1/GPa) = 0.02121359
#
# Stress axis : x y z
#
# Youngs Moduli (GPa) = 32.06614 137.11555 32.40609
#
# Poissons Ratio (x) = 0.65610 0.49969
# Poissons Ratio (y) = 0.15344 0.12500
# Poissons Ratio (z) = 0.49444 0.52888
#
# Static dielectric constant tensor:
#      x y z
#    x 1.570420 0.000000 0.000000 
#    y 0.000000 1.634900 0.000000 
#    z 0.000000 0.000000 1.535610 
# 
# From -- ./inp_files/14692.got.cif
#   From: 2010.05.17/outbox.cif.g08.bks.cpg/sg59_8_cif.got.tgz:14692.got - 2010.06.03 14:40:33.
