data_PCOD9446326
_publ_section_title
;
Structure prediction by ZEFSAII (Michael W. Deem and Ramdas Pophale) SiO2 
 PCOD9446326
Probable space group: P M M N
;
_chemical_formula_sum "Si O2"
_cell_formula_units_Z 64
_cell_length_a 27.312210
_cell_length_b 7.580547
_cell_length_c 18.021126
_cell_angle_alpha 90.000000
_cell_angle_beta 90.000000
_cell_angle_gamma 90.000000
_cell_volume 3731.120807
_symmetry_space_group_name_H-M "P M M N"
_symmetry_group_IT_number 59
_space_group.IT_coordinate_system_code '2'
_symmetry_cell_setting 'orthorhombic'
loop_
_space_group_symop_operation_xyz
x,y,z
1/2-x,1/2-y,z
1/2+x,-y,-z
-x,1/2+y,-z
-x,-y,-z
1/2+x,1/2+y,-z
1/2-x,y,z
x,1/2-y,z
loop_
_atom_site_type_symbol
_atom_site_label
_atom_site_fract_x
_atom_site_fract_y
_atom_site_fract_z
Si Si1 0.431531 0.549045 0.166422
Si Si2 0.943690 0.959343 0.521695
Si Si3 0.194895 0.461802 0.907962
Si Si4 0.034438 0.542739 0.896009
Si Si5 0.576895 0.966214 0.363748
Si Si6 0.467950 0.543679 0.319597
Si Si7 0.108694 0.537607 0.019758
Si Si8 0.878511 0.536420 0.215570
O O1 0.414450 0.750000 0.179328
O O2 0.484512 0.550304 0.126246
O O3 0.441864 0.465983 0.246972
O O4 0.396418 0.469016 0.103501
O O5 0.937672 0.750000 0.527162
O O6 0.914765 0.023712 0.448730
O O7 0.937326 0.031749 0.604349
O O8 0.000000 0.000000 0.500000
O O9 0.250000 0.529803 0.916253
O O10 0.197517 0.250000 0.902193
O O11 0.167264 0.526343 0.833457
O O12 0.158689 0.499870 0.976386
O O13 0.023961 0.750000 0.905631
O O14 0.073149 0.520417 0.829252
O O15 0.063694 0.473576 0.967909
O O16 0.575564 0.750000 0.365554
O O17 0.522540 0.026777 0.337280
O O18 0.615070 0.020425 0.300586
O O19 0.475906 0.750000 0.302421
O O20 0.103771 0.750000 0.022373
O O21 0.877808 0.750000 0.215159
#
# Coordination Sequence:
#
# PCOD9446326 Si02
#       8
#     8   8   8   8   8   8   8   8
#     4  10  18  29  42  55  79 113 145 170 202 246
#     4   9  16  25  36  52  75 103 138 170 200 235
#     4   9  18  31  47  65  83 104 132 168 209 251
#     4  10  18  26  37  59  85 105 136 174 207 239
#     4   8  13  23  38  54  72 102 139 165 191 232
#     4   9  16  26  38  53  75 106 142 170 198 234
#     4   9  19  31  43  60  80 107 139 171 206 249
#     4   9  15  27  44  58  78 110 140 165 201 245
#
# _framework density 17.153023000000001
#
# number of rings (size 3 to 8) (size 9 to 14) (size 15 to 20)
#    0.000    2.875    1.250    1.875    0.000    1.750 
#    0.000    0.625    0.000    0.000    0.000    0.000 
#    0.000    1.000    0.000    4.250    0.000    1.500 
#
# Total GULP energy -356411.756040 kJ/mol
# GULP energy per Si atom -5568.933688 kJ/mol
# Density = 1.711398 g / cm^3
# Si number density = 17.153023 Si / 1000 Ang^3
#
#
#
# Elastic Constant Matrix: (Units=GPa)
#
#
# Indices 1 2 3 4 5 6 
#
# 1 59.1101 -1.5054 52.7647 0.0000 0.0000 0.0000
# 2 -1.5054 41.6250 -0.9531 0.0000 0.0000 0.0000
# 3 52.7647 -0.9531 163.7314 0.0000 0.0000 0.0000
# 4 0.0000 0.0000 0.0000 12.0935 0.0000 0.0000
# 5 0.0000 0.0000 0.0000 0.0000 10.1917 0.0000
# 6 0.0000 0.0000 0.0000 0.0000 0.0000 9.7063
#
#
#
# Elastic Compliance Matrix: (Units=1/GPa)
#
#
# Indices 1 2 3 4 5 6 
#
# 1 0.023769 0.000684 -0.007656 0.000000 0.000000 0.000000
# 2 0.000684 0.024047 -0.000081 0.000000 0.000000 0.000000
# 3 -0.007656 -0.000081 0.008574 0.000000 0.000000 0.000000
# 4 0.000000 0.000000 0.000000 0.082689 0.000000 0.000000
# 5 0.000000 0.000000 0.000000 0.000000 0.098119 0.000000
# 6 0.000000 0.000000 0.000000 0.000000 0.000000 0.103025
#
#
# Mechanical properties :
#
#
# Convention : Reuss Voigt Hill
#
# Bulk Modulus (GPa) = 23.64849 40.56433 32.10641
# Shear Modulus (GPa) = 13.57133 20.67566 17.12349
#
# Velocity S-wave (km/s) = 2.81586 3.47560 3.16298
# Velocity P-wave (km/s) = 4.93850 6.30922 5.66547
#
# Compressibility (1/GPa) = 0.04228600
#
# Stress axis : x y z
#
# Youngs Moduli (GPa) = 42.07147 41.58536 116.62731
#
# Poissons Ratio (x) = -0.02846 0.89289
# Poissons Ratio (y) = -0.02879 0.00939
# Poissons Ratio (z) = 0.32210 0.00335
#
# Static dielectric constant tensor:
#      x y z
#    x 1.545150 0.000000 0.000000 
#    y 0.000000 1.659990 0.000000 
#    z 0.000000 0.000000 1.658740 
# 
# From -- ./inp_files/26645.got.cif
#   From: 2010.05.17/outbox.cif.g08.bks.cpg/sg59_14_cif.got.tgz:26645.got - 2010.06.03 14:40:33.
