data_PCOD9446976
_publ_section_title
;
Structure prediction by ZEFSAII (Michael W. Deem and Ramdas Pophale) SiO2 
 PCOD9446976
Probable space group: P M M N
;
_chemical_formula_sum "Si O2"
_cell_formula_units_Z 56
_cell_length_a 14.780012
_cell_length_b 7.844129
_cell_length_c 23.319705
_cell_angle_alpha 90.000000
_cell_angle_beta 90.000000
_cell_angle_gamma 90.000000
_cell_volume 2703.600799
_symmetry_space_group_name_H-M "P M M N"
_symmetry_group_IT_number 59
_space_group.IT_coordinate_system_code '2'
_symmetry_cell_setting 'orthorhombic'
loop_
_space_group_symop_operation_xyz
x,y,z
1/2-x,1/2-y,z
1/2+x,-y,-z
-x,1/2+y,-z
-x,-y,-z
1/2+x,1/2+y,-z
1/2-x,y,z
x,1/2-y,z
loop_
_atom_site_type_symbol
_atom_site_label
_atom_site_fract_x
_atom_site_fract_y
_atom_site_fract_z
Si Si1 0.154303 0.042761 0.400793
Si Si2 0.853787 0.450540 0.809661
Si Si3 0.032446 0.047424 0.300790
Si Si4 0.400391 0.045176 0.521524
Si Si5 0.646988 0.450139 0.036352
Si Si6 0.851339 0.544126 0.350922
Si Si7 0.454495 0.449899 0.076388
O O1 0.250000 0.999751 0.372782
O O2 0.147569 0.250000 0.403477
O O3 0.074370 0.979436 0.360712
O O4 0.154178 0.982509 0.466137
O O5 0.750000 0.515687 0.804938
O O6 0.848670 0.250000 0.821664
O O7 0.910698 0.475579 0.751691
O O8 0.909728 0.531109 0.861763
O O9 0.044983 0.250000 0.299191
O O10 0.926615 0.009900 0.305445
O O11 0.389815 0.250000 0.524775
O O12 0.376173 0.979736 0.584626
O O13 0.500000 0.000000 0.500000
O O14 0.750000 0.521174 0.042982
O O15 0.653868 0.250000 0.050493
O O16 0.558329 0.517898 0.071189
O O17 0.611660 0.467659 0.970902
O O18 0.750000 0.487468 0.337059
O O19 0.851923 0.750000 0.352982
O O20 0.458768 0.250000 0.061408
#
# Coordination Sequence:
#
# PCOD9446976 Si02
#       7
#     8   8   8   8   8   8   8
#     4   9  17  30  50  76 104 134 169 212 267 327
#     4  11  24  41  60  82 112 150 188 230 283 340
#     4  11  22  37  58  82 108 140 182 233 282 331
#     4  10  18  31  52  77 106 138 174 218 272 331
#     4   9  18  34  56  84 121 160 192 228 279 333
#     4  10  21  37  57  79 107 145 185 226 278 341
#     4  10  20  34  56  87 119 153 196 240 279 326
#
# _framework density 20.713115999999999
#
# number of rings (size 3 to 8) (size 9 to 14) (size 15 to 20)
#    0.000    2.000    1.429    2.571    0.000    6.286 
#    0.000    0.714    0.000    4.714    0.000    0.000 
#    0.000    0.000    0.000    0.000    0.000    0.000 
#
# Total GULP energy -312274.262965 kJ/mol
# GULP energy per Si atom -5576.326124 kJ/mol
# Density = 2.066597 g / cm^3
# Si number density = 20.713116 Si / 1000 Ang^3
#
#
#
# Elastic Constant Matrix: (Units=GPa)
#
#
# Indices 1 2 3 4 5 6 
#
# 1 181.7917 -3.6672 55.1960 0.0000 0.0000 0.0000
# 2 -3.6672 28.8710 -4.6953 0.0000 0.0000 0.0000
# 3 55.1960 -4.6953 84.5012 0.0000 0.0000 0.0000
# 4 0.0000 0.0000 0.0000 17.3994 0.0000 0.0000
# 5 0.0000 0.0000 0.0000 0.0000 24.7896 0.0000
# 6 0.0000 0.0000 0.0000 0.0000 0.0000 19.3674
#
#
#
# Elastic Compliance Matrix: (Units=1/GPa)
#
#
# Indices 1 2 3 4 5 6 
#
# 1 0.006862 0.000144 -0.004474 0.000000 0.000000 0.000000
# 2 0.000144 0.034956 0.001848 0.000000 0.000000 0.000000
# 3 -0.004474 0.001848 0.014860 0.000000 0.000000 0.000000
# 4 0.000000 0.000000 0.000000 0.057473 0.000000 0.000000
# 5 0.000000 0.000000 0.000000 0.000000 0.040340 0.000000
# 6 0.000000 0.000000 0.000000 0.000000 0.000000 0.051633
#
#
# Mechanical properties :
#
#
# Convention : Reuss Voigt Hill
#
# Bulk Modulus (GPa) = 19.33744 43.20343 31.27043
# Shear Modulus (GPa) = 21.89858 28.86664 25.38261
#
# Velocity S-wave (km/s) = 3.25504 3.73720 3.50442
# Velocity P-wave (km/s) = 4.84594 6.28693 5.61287
#
# Compressibility (1/GPa) = 0.05171316
#
# Stress axis : x y z
#
# Youngs Moduli (GPa) = 145.72529 28.60762 67.29701
#
# Poissons Ratio (x) = -0.00412 0.30111
# Poissons Ratio (y) = -0.02098 -0.12438
# Poissons Ratio (z) = 0.65203 -0.05287
#
# Static dielectric constant tensor:
#      x y z
#    x 1.872860 0.000000 0.000000 
#    y 0.000000 1.771360 0.000000 
#    z 0.000000 0.000000 1.712960 
# 
# From -- ./inp_files/30382.got.cif
#   From: 2010.05.17/outbox.cif.g08.bks.cpg/sg59_16_cif.got.tgz:30382.got - 2010.06.03 14:40:33.
