data_PCOD9446431
_publ_section_title
;
Structure prediction by ZEFSAII (Michael W. Deem and Ramdas Pophale) SiO2 
 PCOD9446431
Probable space group: P M M N
;
_chemical_formula_sum "Si O2"
_cell_formula_units_Z 64
_cell_length_a 8.981384
_cell_length_b 22.038706
_cell_length_c 21.008350
_cell_angle_alpha 90.000000
_cell_angle_beta 90.000000
_cell_angle_gamma 90.000000
_cell_volume 4158.352493
_symmetry_space_group_name_H-M "P M M N"
_symmetry_group_IT_number 59
_space_group.IT_coordinate_system_code '2'
_symmetry_cell_setting 'orthorhombic'
loop_
_space_group_symop_operation_xyz
x,y,z
1/2-x,1/2-y,z
1/2+x,-y,-z
-x,1/2+y,-z
-x,-y,-z
1/2+x,1/2+y,-z
1/2-x,y,z
x,1/2-y,z
loop_
_atom_site_type_symbol
_atom_site_label
_atom_site_fract_x
_atom_site_fract_y
_atom_site_fract_z
Si Si1 0.927912 0.565748 0.012966
Si Si2 0.073702 0.044832 0.590975
Si Si3 0.074215 0.178214 0.364181
Si Si4 0.073616 0.590615 0.534710
Si Si5 0.076955 0.406490 0.122828
Si Si6 0.077480 0.946526 0.139516
Si Si7 0.070487 0.974811 0.277357
Si Si8 0.427301 0.606751 0.748437
O O1 0.750000 0.559615 0.012956
O O2 0.984453 0.583575 0.082847
O O3 0.967217 0.605378 0.950526
O O4 0.000000 0.500000 0.000000
O O5 0.250000 0.056003 0.595919
O O6 0.001377 0.083389 0.534178
O O7 0.992568 0.053405 0.658148
O O8 0.053370 0.974229 0.570331
O O9 0.250000 0.164236 0.359740
O O10 0.055996 0.250000 0.372078
O O11 0.003316 0.141503 0.422621
O O12 0.993288 0.155134 0.300511
O O13 0.250000 0.601160 0.529015
O O14 0.250000 0.389386 0.132414
O O15 0.069620 0.480021 0.130619
O O16 0.977072 0.380318 0.179062
O O17 0.250000 0.929495 0.132088
O O18 0.031109 0.938121 0.212832
O O19 0.250000 0.980612 0.279233
O O20 0.998985 0.041715 0.270277
O O21 0.250000 0.602911 0.743010
#
# Coordination Sequence:
#
# PCOD9446431 Si02
#       8
#     8   8   8   8   8   8   8   8
#     4   9  15  22  33  49  71 102 138 174 209 244
#     4  10  19  30  47  69  91 116 146 183 225 268
#     4  11  23  37  52  67  87 117 148 183 227 272
#     4  10  20  33  49  69  90 114 144 182 225 268
#     4   8  15  26  37  51  74 105 139 176 214 251
#     4   8  15  24  34  51  76 107 140 173 211 250
#     4  10  18  28  42  60  86 117 146 181 221 263
#     4  11  20  29  43  63  83 108 144 184 223 262
#
# _framework density 15.390711
#
# number of rings (size 3 to 8) (size 9 to 14) (size 15 to 20)
#    0.000    2.375    1.250    4.500    0.000    7.500 
#    0.000    0.000    0.000    0.000    0.000    0.000 
#    0.000    0.000    0.000    1.125    0.000   19.375 
#
# Total GULP energy -356581.854479 kJ/mol
# GULP energy per Si atom -5571.591476 kJ/mol
# Density = 1.535568 g / cm^3
# Si number density = 15.390711 Si / 1000 Ang^3
#
#
#
# Elastic Constant Matrix: (Units=GPa)
#
#
# Indices 1 2 3 4 5 6 
#
# 1 97.3128 32.3198 81.6721 0.0000 0.0000 0.0000
# 2 32.3198 27.6270 31.6933 0.0000 0.0000 0.0000
# 3 81.6721 31.6933 172.1492 0.0000 0.0000 0.0000
# 4 0.0000 0.0000 0.0000 7.3221 0.0000 0.0000
# 5 0.0000 0.0000 0.0000 0.0000 33.1184 0.0000
# 6 0.0000 0.0000 0.0000 0.0000 0.0000 12.1509
#
#
#
# Elastic Compliance Matrix: (Units=1/GPa)
#
#
# Indices 1 2 3 4 5 6 
#
# 1 0.022293 -0.017681 -0.007321 0.000000 0.000000 0.000000
# 2 -0.017681 0.059911 -0.002642 0.000000 0.000000 0.000000
# 3 -0.007321 -0.002642 0.009769 0.000000 0.000000 0.000000
# 4 0.000000 0.000000 0.000000 0.136573 0.000000 0.000000
# 5 0.000000 0.000000 0.000000 0.000000 0.030195 0.000000
# 6 0.000000 0.000000 0.000000 0.000000 0.000000 0.082298
#
#
# Mechanical properties :
#
#
# Convention : Reuss Voigt Hill
#
# Bulk Modulus (GPa) = 27.25898 65.38439 46.32168
# Shear Modulus (GPa) = 12.23830 20.61188 16.42509
#
# Velocity S-wave (km/s) = 2.82294 3.66354 3.27036
# Velocity P-wave (km/s) = 5.32683 7.77628 6.66505
#
# Compressibility (1/GPa) = 0.03668516
#
# Stress axis : x y z
#
# Youngs Moduli (GPa) = 44.85752 16.69150 102.36866
#
# Poissons Ratio (x) = 0.29512 0.74946
# Poissons Ratio (y) = 0.79311 0.27042
# Poissons Ratio (z) = 0.32841 0.04409
#
# Static dielectric constant tensor:
#      x y z
#    x 1.509950 0.000000 0.000000 
#    y 0.000000 1.468270 0.000000 
#    z 0.000000 0.000000 1.563520 
# 
# From -- ./inp_files/29715.got.cif
#   From: 2010.05.17/outbox.cif.g08.bks.cpg/sg59_15_cif.got.tgz:29715.got - 2010.06.03 14:40:33.
