data_PCOD9446277
_publ_section_title
;
Structure prediction by ZEFSAII (Michael W. Deem and Ramdas Pophale) SiO2 
 PCOD9446277
Probable space group: P M M N
;
_chemical_formula_sum "Si O2"
_cell_formula_units_Z 64
_cell_length_a 14.612333
_cell_length_b 25.155841
_cell_length_c 9.386696
_cell_angle_alpha 90.000000
_cell_angle_beta 90.000000
_cell_angle_gamma 90.000000
_cell_volume 3450.413583
_symmetry_space_group_name_H-M "P M M N"
_symmetry_group_IT_number 59
_space_group.IT_coordinate_system_code '2'
_symmetry_cell_setting 'orthorhombic'
loop_
_space_group_symop_operation_xyz
x,y,z
1/2-x,1/2-y,z
1/2+x,-y,-z
-x,1/2+y,-z
-x,-y,-z
1/2+x,1/2+y,-z
1/2-x,y,z
x,1/2-y,z
loop_
_atom_site_type_symbol
_atom_site_label
_atom_site_fract_x
_atom_site_fract_y
_atom_site_fract_z
Si Si1 0.355417 0.608916 0.175254
Si Si2 0.641158 0.687288 0.567820
Si Si3 0.861749 0.935487 0.111971
Si Si4 0.119288 0.001050 0.337619
Si Si5 0.859159 0.440128 0.112467
Si Si6 0.352361 0.111117 0.186574
Si Si7 0.932278 0.450295 0.405667
Si Si8 0.522913 0.624112 0.353987
O O1 0.250000 0.628376 0.182166
O O2 0.355235 0.548946 0.241709
O O3 0.432515 0.640059 0.263774
O O4 0.387922 0.598490 0.014381
O O5 0.750000 0.674610 0.549011
O O6 0.632778 0.750000 0.589801
O O7 0.606564 0.654296 0.706178
O O8 0.584226 0.668262 0.430807
O O9 0.750000 0.932608 0.125642
O O10 0.886229 0.997854 0.092922
O O11 0.912389 0.909361 0.246550
O O12 0.891167 0.905195 0.966722
O O13 0.154090 0.056125 0.275747
O O14 0.010800 0.011385 0.345208
O O15 0.139438 0.984504 0.500832
O O16 0.750000 0.440366 0.105822
O O17 0.890239 0.422909 0.268698
O O18 0.250000 0.130745 0.155519
O O19 0.981074 0.410890 0.516365
#
# Coordination Sequence:
#
# PCOD9446277 Si02
#       8
#     8   8   8   8   8   8   8   8
#     4  10  21  33  48  74 110 151 187 220 263 314
#     4  10  22  41  62  83 106 134 176 232 287 334
#     4  10  20  33  51  79 110 150 194 225 266 325
#     4  10  17  30  46  70 107 139 183 219 260 313
#     4  10  20  32  46  72 114 156 189 228 263 306
#     4  10  19  32  53  77 105 141 182 225 272 326
#     4  10  21  30  44  78 105 146 192 219 259 323
#     4  11  22  36  54  77 110 148 182 228 275 324
#
# _framework density 18.548500000000001
#
# number of rings (size 3 to 8) (size 9 to 14) (size 15 to 20)
#    0.000    1.875    2.500    3.000    1.750    3.500 
#    0.000    0.625    0.000    2.625    0.000    0.000 
#    0.000    1.000    0.000    0.000    0.000    0.000 
#
# Total GULP energy -356636.636762 kJ/mol
# GULP energy per Si atom -5572.447449 kJ/mol
# Density = 1.850628 g / cm^3
# Si number density = 18.548500 Si / 1000 Ang^3
#
#
#
# Elastic Constant Matrix: (Units=GPa)
#
#
# Indices 1 2 3 4 5 6 
#
# 1 63.1819 13.5214 42.6558 0.0000 0.0000 0.0000
# 2 13.5214 44.1222 31.3621 0.0000 0.0000 0.0000
# 3 42.6558 31.3621 138.7976 0.0000 0.0000 0.0000
# 4 0.0000 0.0000 0.0000 15.7149 0.0000 0.0000
# 5 0.0000 0.0000 0.0000 0.0000 41.7376 0.0000
# 6 0.0000 0.0000 0.0000 0.0000 0.0000 20.1908
#
#
#
# Elastic Compliance Matrix: (Units=1/GPa)
#
#
# Indices 1 2 3 4 5 6 
#
# 1 0.020135 -0.002111 -0.005711 0.000000 0.000000 0.000000
# 2 -0.002111 0.027222 -0.005502 0.000000 0.000000 0.000000
# 3 -0.005711 -0.005502 0.010203 0.000000 0.000000 0.000000
# 4 0.000000 0.000000 0.000000 0.063634 0.000000 0.000000
# 5 0.000000 0.000000 0.000000 0.000000 0.023959 0.000000
# 6 0.000000 0.000000 0.000000 0.000000 0.000000 0.049527
#
#
# Mechanical properties :
#
#
# Convention : Reuss Voigt Hill
#
# Bulk Modulus (GPa) = 32.35022 46.79781 39.57401
# Shear Modulus (GPa) = 21.58591 26.09949 23.84270
#
# Velocity S-wave (km/s) = 3.41509 3.75520 3.58917
# Velocity P-wave (km/s) = 5.74710 6.63978 6.20950
#
# Compressibility (1/GPa) = 0.03091169
#
# Stress axis : x y z
#
# Youngs Moduli (GPa) = 49.66569 36.73461 98.00962
#
# Poissons Ratio (x) = 0.07755 0.55972
# Poissons Ratio (y) = 0.10485 0.53927
# Poissons Ratio (z) = 0.28363 0.20212
#
# Static dielectric constant tensor:
#      x y z
#    x 1.711040 0.000000 0.000000 
#    y 0.000000 1.616040 0.000000 
#    z 0.000000 0.000000 1.708360 
# 
# From -- ./inp_files/9738.got.cif
#   From: 2010.05.17/outbox.cif.g08.bks.cpg/sg59_5_cif.got.tgz:9738.got - 2010.06.03 14:40:33.
