data_PCOD9446879
_publ_section_title
;
Structure prediction by ZEFSAII (Michael W. Deem and Ramdas Pophale) SiO2 
 PCOD9446879
Probable space group: P M M N
;
_chemical_formula_sum "Si O2"
_cell_formula_units_Z 48
_cell_length_a 19.349590
_cell_length_b 7.364732
_cell_length_c 14.075710
_cell_angle_alpha 90.000000
_cell_angle_beta 90.000000
_cell_angle_gamma 90.000000
_cell_volume 2005.852644
_symmetry_space_group_name_H-M "P M M N"
_symmetry_group_IT_number 59
_space_group.IT_coordinate_system_code '2'
_symmetry_cell_setting 'orthorhombic'
loop_
_space_group_symop_operation_xyz
x,y,z
1/2-x,1/2-y,z
1/2+x,-y,-z
-x,1/2+y,-z
-x,-y,-z
1/2+x,1/2+y,-z
1/2-x,y,z
x,1/2-y,z
loop_
_atom_site_type_symbol
_atom_site_label
_atom_site_fract_x
_atom_site_fract_y
_atom_site_fract_z
Si Si1 0.828690 0.971810 0.505471
Si Si2 0.962408 0.966373 0.599857
Si Si3 0.033771 0.468840 0.193179
Si Si4 0.896374 0.962475 0.102976
Si Si5 0.831503 0.531179 0.295253
Si Si6 0.829190 0.528064 0.906657
O O1 0.750000 0.029451 0.520853
O O2 0.828179 0.750000 0.504497
O O3 0.883980 0.030160 0.582477
O O4 0.852796 0.032244 0.400157
O O5 0.961432 0.750000 0.609608
O O6 0.988468 0.035997 0.701655
O O7 0.000000 0.000000 0.500000
O O8 0.032908 0.250000 0.192103
O O9 0.111750 0.526001 0.168352
O O10 0.978786 0.524874 0.113323
O O11 0.877980 0.750000 0.103431
O O12 0.868399 0.041959 0.202083
O O13 0.859578 0.033470 0.008803
O O14 0.750000 0.494809 0.287300
O O15 0.840020 0.750000 0.296695
O O16 0.750000 0.469390 0.891742
O O17 0.827999 0.750000 0.906009
#
# Coordination Sequence:
#
# PCOD9446879 Si02
#       6
#     8   8   8   8   8   8
#     4   8  14  25  42  65  91 118 155 204 247 282
#     4  10  20  33  50  73 100 132 169 207 251 301
#     4  10  21  34  49  73 105 135 162 202 256 305
#     4  10  18  30  52  76  98 130 169 205 242 292
#     4   8  13  22  40  68  95 117 152 205 251 280
#     4   9  18  33  53  77 103 131 166 207 248 291
#
# _framework density 23.929971999999999
#
# number of rings (size 3 to 8) (size 9 to 14) (size 15 to 20)
#    0.000    2.833    0.000    3.000    0.000    4.667 
#    0.000    3.333    0.000    4.000    0.000    9.333 
#    0.000    0.000    0.000    0.000    0.000    0.000 
#
# Total GULP energy -268004.346891 kJ/mol
# GULP energy per Si atom -5583.423894 kJ/mol
# Density = 2.387551 g / cm^3
# Si number density = 23.929972 Si / 1000 Ang^3
#
#
#
# Elastic Constant Matrix: (Units=GPa)
#
#
# Indices 1 2 3 4 5 6 
#
# 1 50.0039 -14.8728 4.2086 0.0000 0.0000 0.0000
# 2 -14.8728 85.0206 -3.9351 0.0000 0.0000 0.0000
# 3 4.2086 -3.9351 74.0961 0.0000 0.0000 0.0000
# 4 0.0000 0.0000 0.0000 2.1162 0.0000 0.0000
# 5 0.0000 0.0000 0.0000 0.0000 42.7161 0.0000
# 6 0.0000 0.0000 0.0000 0.0000 0.0000 8.3292
#
#
#
# Elastic Compliance Matrix: (Units=1/GPa)
#
#
# Indices 1 2 3 4 5 6 
#
# 1 0.021171 0.003657 -0.001008 0.000000 0.000000 0.000000
# 2 0.003657 0.012422 0.000452 0.000000 0.000000 0.000000
# 3 -0.001008 0.000452 0.013577 0.000000 0.000000 0.000000
# 4 0.000000 0.000000 0.000000 0.472552 0.000000 0.000000
# 5 0.000000 0.000000 0.000000 0.000000 0.023410 0.000000
# 6 0.000000 0.000000 0.000000 0.000000 0.000000 0.120060
#
#
# Mechanical properties :
#
#
# Convention : Reuss Voigt Hill
#
# Bulk Modulus (GPa) = 18.73651 19.99135 19.36393
# Shear Modulus (GPa) = 7.40980 25.54695 16.47838
#
# Velocity S-wave (km/s) = 1.76158 3.27092 2.62698
# Velocity P-wave (km/s) = 3.46183 4.75788 4.16063
#
# Compressibility (1/GPa) = 0.05337174
#
# Stress axis : x y z
#
# Youngs Moduli (GPa) = 47.23455 80.49930 73.65258
#
# Poissons Ratio (x) = -0.29437 0.07426
# Poissons Ratio (y) = -0.17273 -0.03329
# Poissons Ratio (z) = 0.04763 -0.03639
#
# Static dielectric constant tensor:
#      x y z
#    x 1.903830 0.000000 0.000000 
#    y 0.000000 1.960090 0.000000 
#    z 0.000000 0.000000 1.940430 
# 
# From -- ./inp_files/23629.got.cif
#   From: 2010.05.17/outbox.cif.g08.bks.cpg/sg59_12_cif.got.tgz:23629.got - 2010.06.03 14:40:33.
