data_PCOD9446148
_publ_section_title
;
Structure prediction by ZEFSAII (Michael W. Deem and Ramdas Pophale) SiO2 
 PCOD9446148
Probable space group: P M M N
;
_chemical_formula_sum "Si O2"
_cell_formula_units_Z 56
_cell_length_a 7.488758
_cell_length_b 22.267811
_cell_length_c 15.494202
_cell_angle_alpha 90.000000
_cell_angle_beta 90.000000
_cell_angle_gamma 90.000000
_cell_volume 2583.785976
_symmetry_space_group_name_H-M "P M M N"
_symmetry_group_IT_number 59
_space_group.IT_coordinate_system_code '2'
_symmetry_cell_setting 'orthorhombic'
loop_
_space_group_symop_operation_xyz
x,y,z
1/2-x,1/2-y,z
1/2+x,-y,-z
-x,1/2+y,-z
-x,-y,-z
1/2+x,1/2+y,-z
1/2-x,y,z
x,1/2-y,z
loop_
_atom_site_type_symbol
_atom_site_label
_atom_site_fract_x
_atom_site_fract_y
_atom_site_fract_z
Si Si1 0.536805 0.088210 0.772770
Si Si2 0.035386 0.958879 0.697056
Si Si3 0.532318 0.319964 0.635052
Si Si4 0.967935 0.122801 0.458702
Si Si5 0.463804 0.566531 0.033952
Si Si6 0.452533 0.250000 0.208567
Si Si7 0.947097 0.250000 0.394554
Si Si8 0.035260 0.878232 0.859716
O O1 0.750000 0.094830 0.779781
O O2 0.471751 0.147401 0.722701
O O3 0.465341 0.078063 0.869760
O O4 0.506890 0.027964 0.716667
O O5 0.250000 0.953462 0.695976
O O6 0.971336 0.930253 0.605816
O O7 0.970421 0.919611 0.779701
O O8 0.750000 0.318285 0.634846
O O9 0.474941 0.250000 0.623569
O O10 0.479395 0.365867 0.557837
O O11 0.750000 0.119761 0.457599
O O12 0.028273 0.186391 0.418200
O O13 0.250000 0.574609 0.038939
O O14 0.500000 0.500000 0.000000
O O15 0.533501 0.605540 0.954386
O O16 0.250000 0.250000 0.239745
O O17 0.570247 0.250000 0.293114
O O18 0.489662 0.189995 0.157777
O O19 0.750000 0.250000 0.437419
O O20 0.250000 0.885674 0.860468
#
# Coordination Sequence:
#
# PCOD9446148 Si02
#       8
#     8   8   8   8   8   4   4   8
#     4  10  21  35  53  82 112 134 169 227 281 316
#     4  10  19  32  54  81 106 140 181 216 257 318
#     4   9  17  32  54  79 106 139 179 221 263 309
#     4   9  16  28  52  80 103 135 183 218 246 305
#     4  10  20  35  56  80 104 139 181 221 270 325
#     4  12  24  34  50  81 116 144 172 223 288 329
#     4  10  16  30  54  77 102 140 184 219 248 307
#     4  10  20  36  55  76 106 147 188 222 261 323
#
# _framework density 21.673621000000001
#
# number of rings (size 3 to 8) (size 9 to 14) (size 15 to 20)
#    0.000    2.143    3.571    0.643    0.000    1.714 
#    1.286    0.000    0.000    1.286    0.000    0.000 
#    0.000    0.000    0.000    0.000    0.000    0.000 
#
# Total GULP energy -312331.577369 kJ/mol
# GULP energy per Si atom -5577.349596 kJ/mol
# Density = 2.162429 g / cm^3
# Si number density = 21.673621 Si / 1000 Ang^3
#
#
#
# Elastic Constant Matrix: (Units=GPa)
#
#
# Indices 1 2 3 4 5 6 
#
# 1 49.8373 -5.4514 21.4215 0.0000 0.0000 0.0000
# 2 -5.4514 88.5719 65.5784 0.0000 0.0000 0.0000
# 3 21.4215 65.5784 163.0844 0.0000 0.0000 0.0000
# 4 0.0000 0.0000 0.0000 22.2782 0.0000 0.0000
# 5 0.0000 0.0000 0.0000 0.0000 -3.4126 0.0000
# 6 0.0000 0.0000 0.0000 0.0000 0.0000 16.3352
#
#
#
# Elastic Compliance Matrix: (Units=1/GPa)
#
#
# Indices 1 2 3 4 5 6 
#
# 1 0.022809 0.005158 -0.005070 0.000000 0.000000 0.000000
# 2 0.005158 0.017243 -0.007611 0.000000 0.000000 0.000000
# 3 -0.005070 -0.007611 0.009858 0.000000 0.000000 0.000000
# 4 0.000000 0.000000 0.000000 0.044887 0.000000 0.000000
# 5 0.000000 0.000000 0.000000 0.000000 -0.293033 0.000000
# 6 0.000000 0.000000 0.000000 0.000000 0.000000 0.061218
#
#
# Mechanical properties :
#
#
# Convention : Reuss Voigt Hill
#
# Bulk Modulus (GPa) = 28.68372 51.62116 40.15244
# Shear Modulus (GPa) = -45.30977 21.70319 -11.80329
#
# Velocity S-wave (km/s) = -4.57721 3.16787 -2.33618
# Velocity P-wave (km/s) = 3.83032 6.10325 3.35994
#
# Compressibility (1/GPa) = 0.03486298
#
# Stress axis : x y z
#
# Youngs Moduli (GPa) = 43.84309 57.99495 101.43810
#
# Poissons Ratio (x) = -0.29911 0.51428
# Poissons Ratio (y) = -0.22612 0.77205
# Poissons Ratio (z) = 0.22228 0.44140
#
# Static dielectric constant tensor:
#      x y z
#    x 1.902130 0.000000 0.000000 
#    y 0.000000 1.732710 0.000000 
#    z 0.000000 0.000000 1.832800 
# 
# From -- ./inp_files/21112.got.cif
#   From: 2010.05.17/outbox.cif.g08.bks.cpg/sg59_11_cif.got.tgz:21112.got - 2010.06.03 14:40:33.
