data_PCOD9446762
_publ_section_title
;
Structure prediction by ZEFSAII (Michael W. Deem and Ramdas Pophale) SiO2 
 PCOD9446762
Probable space group: P M M N
;
_chemical_formula_sum "Si O2"
_cell_formula_units_Z 48
_cell_length_a 8.714980
_cell_length_b 21.332548
_cell_length_c 14.660100
_cell_angle_alpha 90.000000
_cell_angle_beta 90.000000
_cell_angle_gamma 90.000000
_cell_volume 2725.499201
_symmetry_space_group_name_H-M "P M M N"
_symmetry_group_IT_number 59
_space_group.IT_coordinate_system_code '2'
_symmetry_cell_setting 'orthorhombic'
loop_
_space_group_symop_operation_xyz
x,y,z
1/2-x,1/2-y,z
1/2+x,-y,-z
-x,1/2+y,-z
-x,-y,-z
1/2+x,1/2+y,-z
1/2-x,y,z
x,1/2-y,z
loop_
_atom_site_type_symbol
_atom_site_label
_atom_site_fract_x
_atom_site_fract_y
_atom_site_fract_z
Si Si1 0.064817 0.950742 0.574006
Si Si2 0.934456 0.021034 0.217688
Si Si3 0.930768 0.393626 0.867550
Si Si4 0.934935 0.322636 0.517597
Si Si5 0.567085 0.934973 0.958097
Si Si6 0.921761 0.675719 0.289416
O O1 0.250000 0.954390 0.569246
O O2 0.019862 0.966715 0.677928
O O3 0.020351 0.878783 0.550411
O O4 0.000000 0.000000 0.500000
O O5 0.750000 0.019063 0.211690
O O6 0.997516 0.070383 0.142882
O O7 0.004427 0.955495 0.183305
O O8 0.750000 0.399986 0.881017
O O9 0.975101 0.340293 0.796743
O O10 0.012077 0.386292 0.965361
O O11 0.750000 0.321553 0.522964
O O12 0.983361 0.250000 0.497594
O O13 0.001819 0.343330 0.615431
O O14 0.250000 0.061625 0.045735
O O15 0.500000 0.000000 0.000000
O O16 0.750000 0.648226 0.279771
O O17 0.908515 0.750000 0.295110
#
# Coordination Sequence:
#
# PCOD9446762 Si02
#       6
#     8   8   8   8   8   8
#     4  10  21  33  49  74 102 132 165 207 254 295
#     4  10  19  32  48  70 100 130 162 201 247 294
#     4  11  20  31  49  72  98 127 160 198 243 294
#     4   9  18  34  53  72  97 131 170 206 243 293
#     4  10  18  30  48  70  95 125 159 194 239 293
#     4  10  20  33  49  71  98 127 160 199 244 293
#
# _framework density 17.611453000000001
#
# number of rings (size 3 to 8) (size 9 to 14) (size 15 to 20)
#    0.000    2.000    0.000    7.000    0.000    5.667 
#    0.000    0.000    0.000    1.000    0.000    2.333 
#    0.000    0.000    0.000    0.000    0.000    0.000 
#
# Total GULP energy -267563.670481 kJ/mol
# GULP energy per Si atom -5574.243135 kJ/mol
# Density = 1.757137 g / cm^3
# Si number density = 17.611453 Si / 1000 Ang^3
#
#
#
# Elastic Constant Matrix: (Units=GPa)
#
#
# Indices 1 2 3 4 5 6 
#
# 1 83.3202 15.0594 41.7442 0.0000 0.0000 0.0000
# 2 15.0594 38.1040 34.2263 0.0000 0.0000 0.0000
# 3 41.7442 34.2263 150.0018 0.0000 0.0000 0.0000
# 4 0.0000 0.0000 0.0000 22.3539 0.0000 0.0000
# 5 0.0000 0.0000 0.0000 0.0000 28.5363 0.0000
# 6 0.0000 0.0000 0.0000 0.0000 0.0000 19.9311
#
#
#
# Elastic Compliance Matrix: (Units=1/GPa)
#
#
# Indices 1 2 3 4 5 6 
#
# 1 0.014146 -0.002584 -0.003347 0.000000 0.000000 0.000000
# 2 -0.002584 0.033481 -0.006920 0.000000 0.000000 0.000000
# 3 -0.003347 -0.006920 0.009177 0.000000 0.000000 0.000000
# 4 0.000000 0.000000 0.000000 0.044735 0.000000 0.000000
# 5 0.000000 0.000000 0.000000 0.000000 0.035043 0.000000
# 6 0.000000 0.000000 0.000000 0.000000 0.000000 0.050173
#
#
# Mechanical properties :
#
#
# Convention : Reuss Voigt Hill
#
# Bulk Modulus (GPa) = 32.15333 50.38733 41.27033
# Shear Modulus (GPa) = 22.43909 26.19068 24.31488
#
# Velocity S-wave (km/s) = 3.57335 3.86053 3.71971
# Velocity P-wave (km/s) = 5.94322 6.96737 6.47557
#
# Compressibility (1/GPa) = 0.03110098
#
# Stress axis : x y z
#
# Youngs Moduli (GPa) = 70.69204 29.86733 108.96733
#
# Poissons Ratio (x) = 0.07719 0.36471
# Poissons Ratio (y) = 0.18269 0.75409
# Poissons Ratio (z) = 0.23661 0.20669
#
# Static dielectric constant tensor:
#      x y z
#    x 1.592170 0.000000 0.000000 
#    y 0.000000 1.654800 0.000000 
#    z 0.000000 0.000000 1.641000 
# 
# From -- ./inp_files/20730.got.cif
#   From: 2010.05.17/outbox.cif.g08.bks.cpg/sg59_11_cif.got.tgz:20730.got - 2010.06.03 14:40:33.
