data_PCOD9446362
_publ_section_title
;
Structure prediction by ZEFSAII (Michael W. Deem and Ramdas Pophale) SiO2 
 PCOD9446362
Probable space group: P M M N
;
_chemical_formula_sum "Si O2"
_cell_formula_units_Z 56
_cell_length_a 27.580110
_cell_length_b 8.987813
_cell_length_c 14.775176
_cell_angle_alpha 90.000000
_cell_angle_beta 90.000000
_cell_angle_gamma 90.000000
_cell_volume 3662.542600
_symmetry_space_group_name_H-M "P M M N"
_symmetry_group_IT_number 59
_space_group.IT_coordinate_system_code '2'
_symmetry_cell_setting 'orthorhombic'
loop_
_space_group_symop_operation_xyz
x,y,z
1/2-x,1/2-y,z
1/2+x,-y,-z
-x,1/2+y,-z
-x,-y,-z
1/2+x,1/2+y,-z
1/2-x,y,z
x,1/2-y,z
loop_
_atom_site_type_symbol
_atom_site_label
_atom_site_fract_x
_atom_site_fract_y
_atom_site_fract_z
Si Si1 0.465664 0.072114 0.376733
Si Si2 0.058368 0.429355 0.173453
Si Si3 0.617834 0.427877 0.271431
Si Si4 0.377592 0.424445 0.015978
Si Si5 0.431968 0.426938 0.571787
Si Si6 0.194434 0.570729 0.877903
Si Si7 0.457685 0.424681 0.863223
O O1 0.475737 0.250000 0.377381
O O2 0.442142 0.035154 0.280185
O O3 0.432924 0.039308 0.464612
O O4 0.516451 0.988002 0.391282
O O5 0.053506 0.250000 0.164052
O O6 0.105546 0.473538 0.115613
O O7 0.010830 0.506768 0.132350
O O8 0.616301 0.250000 0.276952
O O9 0.610245 0.497746 0.369869
O O10 0.664913 0.473512 0.212913
O O11 0.572611 0.486800 0.212290
O O12 0.364578 0.250000 0.018040
O O13 0.335587 0.511019 0.963695
O O14 0.425911 0.438749 0.953968
O O15 0.430219 0.250000 0.583867
O O16 0.250000 0.519803 0.877183
O O17 0.193896 0.750000 0.880725
O O18 0.460149 0.250000 0.839915
#
# Coordination Sequence:
#
# PCOD9446362 Si02
#       7
#     8   8   8   8   8   8   8
#     4   9  18  29  42  60  88 125 157 184 216 252
#     4  10  18  29  43  61  89 124 155 181 214 260
#     4  10  18  29  46  65  88 118 149 184 229 276
#     4   9  19  31  44  65  91 117 147 183 223 267
#     4  10  18  28  42  63  89 118 154 190 219 256
#     4   9  19  35  52  69  88 112 145 185 230 280
#     4  10  18  27  40  62  90 119 152 186 216 253
#
# _framework density 15.289925999999999
#
# number of rings (size 3 to 8) (size 9 to 14) (size 15 to 20)
#    0.000    2.429    1.429    1.714    0.000    2.571 
#    0.000    0.000    0.000    0.000    0.000    1.000 
#    0.000    5.714    0.000    0.000    0.000    0.000 
#
# Total GULP energy -312070.747893 kJ/mol
# GULP energy per Si atom -5572.691927 kJ/mol
# Density = 1.525513 g / cm^3
# Si number density = 15.289926 Si / 1000 Ang^3
#
#
#
# Elastic Constant Matrix: (Units=GPa)
#
#
# Indices 1 2 3 4 5 6 
#
# 1 92.2274 29.4811 51.5583 0.0000 0.0000 0.0000
# 2 29.4811 30.5178 34.8490 0.0000 0.0000 0.0000
# 3 51.5583 34.8490 94.6648 0.0000 0.0000 0.0000
# 4 0.0000 0.0000 0.0000 19.9148 0.0000 0.0000
# 5 0.0000 0.0000 0.0000 0.0000 12.4502 0.0000
# 6 0.0000 0.0000 0.0000 0.0000 0.0000 17.4246
#
#
#
# Elastic Compliance Matrix: (Units=1/GPa)
#
#
# Indices 1 2 3 4 5 6 
#
# 1 0.017267 -0.010251 -0.005631 0.000000 0.000000 0.000000
# 2 -0.010251 0.062618 -0.017469 0.000000 0.000000 0.000000
# 3 -0.005631 -0.017469 0.020061 0.000000 0.000000 0.000000
# 4 0.000000 0.000000 0.000000 0.050214 0.000000 0.000000
# 5 0.000000 0.000000 0.000000 0.000000 0.080320 0.000000
# 6 0.000000 0.000000 0.000000 0.000000 0.000000 0.057390
#
#
# Mechanical properties :
#
#
# Convention : Reuss Voigt Hill
#
# Bulk Modulus (GPa) = 30.07870 49.90965 39.99418
# Shear Modulus (GPa) = 13.67414 16.72603 15.20008
#
# Velocity S-wave (km/s) = 2.99377 3.31104 3.15639
# Velocity P-wave (km/s) = 5.62718 6.87971 6.28472
#
# Compressibility (1/GPa) = 0.03324611
#
# Stress axis : x y z
#
# Youngs Moduli (GPa) = 57.91278 15.96973 49.84744
#
# Poissons Ratio (x) = 0.16370 0.28068
# Poissons Ratio (y) = 0.59365 0.87078
# Poissons Ratio (z) = 0.32610 0.27897
#
# Static dielectric constant tensor:
#      x y z
#    x 1.480680 0.000000 0.000000 
#    y 0.000000 1.513520 0.000000 
#    z 0.000000 0.000000 1.551840 
# 
# From -- ./inp_files/21720.got.cif
#   From: 2010.05.17/outbox.cif.g08.bks.cpg/sg59_11_cif.got.tgz:21720.got - 2010.06.03 14:40:33.
