data_PCOD9446928
_publ_section_title
;
Structure prediction by ZEFSAII (Michael W. Deem and Ramdas Pophale) SiO2 
 PCOD9446928
Probable space group: P M M N
;
_chemical_formula_sum "Si O2"
_cell_formula_units_Z 64
_cell_length_a 7.588111
_cell_length_b 23.331649
_cell_length_c 18.162377
_cell_angle_alpha 90.000000
_cell_angle_beta 90.000000
_cell_angle_gamma 90.000000
_cell_volume 3215.524298
_symmetry_space_group_name_H-M "P M M N"
_symmetry_group_IT_number 59
_space_group.IT_coordinate_system_code '2'
_symmetry_cell_setting 'orthorhombic'
loop_
_space_group_symop_operation_xyz
x,y,z
1/2-x,1/2-y,z
1/2+x,-y,-z
-x,1/2+y,-z
-x,-y,-z
1/2+x,1/2+y,-z
1/2-x,y,z
x,1/2-y,z
loop_
_atom_site_type_symbol
_atom_site_label
_atom_site_fract_x
_atom_site_fract_y
_atom_site_fract_z
Si Si1 0.460295 0.972961 0.920507
Si Si2 0.547769 0.842123 0.913597
Si Si3 0.958794 0.566782 0.485062
Si Si4 0.033968 0.415373 0.355141
Si Si5 0.045560 0.545307 0.325034
Si Si6 0.466269 0.313375 0.923882
Si Si7 0.534438 0.686374 0.752302
Si Si8 0.454914 0.420698 0.830815
O O1 0.250000 0.964540 0.912947
O O2 0.544727 0.910956 0.912848
O O3 0.527863 0.019235 0.861410
O O4 0.500000 0.000000 0.000000
O O5 0.750000 0.821687 0.914053
O O6 0.470828 0.821272 0.836329
O O7 0.472146 0.822931 0.992015
O O8 0.750000 0.574560 0.480847
O O9 0.021857 0.596674 0.560255
O O10 0.000000 0.500000 0.500000
O O11 0.029851 0.577026 0.403452
O O12 0.250000 0.416850 0.355421
O O13 0.974426 0.479893 0.333358
O O14 0.976519 0.366242 0.298965
O O15 0.250000 0.539311 0.307446
O O16 0.964612 0.578787 0.256812
O O17 0.250000 0.314860 0.924613
O O18 0.518052 0.250000 0.898743
O O19 0.528883 0.365104 0.872002
O O20 0.750000 0.683592 0.753538
O O21 0.486106 0.750000 0.725649
O O22 0.250000 0.422379 0.852754
#
# Coordination Sequence:
#
# PCOD9446928 Si02
#       8
#     8   8   8   8   8   8   8   8
#     4  11  21  33  49  72 100 130 162 201 250 301
#     4  10  18  31  50  74 100 129 166 206 246 293
#     4   9  16  28  47  71 101 132 160 196 241 296
#     4   8  15  27  43  68 100 128 157 193 239 289
#     4  10  19  31  49  74 100 127 160 203 256 308
#     4   9  17  31  50  69  92 126 168 210 246 286
#     4   9  16  26  45  73 101 130 167 208 244 283
#     4  10  20  33  48  71  99 126 162 205 248 295
#
# _framework density 19.903442999999999
#
# number of rings (size 3 to 8) (size 9 to 14) (size 15 to 20)
#    0.000    2.500    1.250    3.000    0.000    3.500 
#    0.000    0.000    0.000    4.125    0.000    3.500 
#    0.000    0.000    0.000    0.000    0.000    0.000 
#
# Total GULP energy -356957.527575 kJ/mol
# GULP energy per Si atom -5577.461368 kJ/mol
# Density = 1.985814 g / cm^3
# Si number density = 19.903443 Si / 1000 Ang^3
#
#
#
# Elastic Constant Matrix: (Units=GPa)
#
#
# Indices 1 2 3 4 5 6 
#
# 1 45.6753 3.1057 -6.0013 0.0000 0.0000 0.0000
# 2 3.1057 99.8488 46.1233 0.0000 0.0000 0.0000
# 3 -6.0013 46.1233 126.3710 0.0000 0.0000 0.0000
# 4 0.0000 0.0000 0.0000 11.0004 0.0000 0.0000
# 5 0.0000 0.0000 0.0000 0.0000 11.2400 0.0000
# 6 0.0000 0.0000 0.0000 0.0000 0.0000 8.0340
#
#
#
# Elastic Compliance Matrix: (Units=1/GPa)
#
#
# Indices 1 2 3 4 5 6 
#
# 1 0.022196 -0.001416 0.001571 0.000000 0.000000 0.000000
# 2 -0.001416 0.012136 -0.004497 0.000000 0.000000 0.000000
# 3 0.001571 -0.004497 0.009629 0.000000 0.000000 0.000000
# 4 0.000000 0.000000 0.000000 0.090906 0.000000 0.000000
# 5 0.000000 0.000000 0.000000 0.000000 0.088968 0.000000
# 6 0.000000 0.000000 0.000000 0.000000 0.000000 0.124470
#
#
# Mechanical properties :
#
#
# Convention : Reuss Voigt Hill
#
# Bulk Modulus (GPa) = 28.34631 39.81672 34.08152
# Shear Modulus (GPa) = 13.55935 21.29938 17.42937
#
# Velocity S-wave (km/s) = 2.61292 3.27484 2.96243
# Velocity P-wave (km/s) = 4.83487 5.86070 5.37233
#
# Compressibility (1/GPa) = 0.03527796
#
# Stress axis : x y z
#
# Youngs Moduli (GPa) = 45.05238 82.39664 103.85203
#
# Poissons Ratio (x) = 0.11668 -0.16315
# Poissons Ratio (y) = 0.06380 0.46701
# Poissons Ratio (z) = -0.07077 0.37052
#
# Static dielectric constant tensor:
#      x y z
#    x 1.767960 0.000000 0.000000 
#    y 0.000000 1.678400 0.000000 
#    z 0.000000 0.000000 1.718760 
# 
# From -- ./inp_files/26468.got.cif
#   From: 2010.05.17/outbox.cif.g08.bks.cpg/sg59_14_cif.got.tgz:26468.got - 2010.06.03 14:40:33.
