data_PCOD9446142
_publ_section_title
;
Structure prediction by ZEFSAII (Michael W. Deem and Ramdas Pophale) SiO2 
 PCOD9446142
Probable space group: P M M N
;
_chemical_formula_sum "Si O2"
_cell_formula_units_Z 48
_cell_length_a 24.025384
_cell_length_b 7.418669
_cell_length_c 13.886773
_cell_angle_alpha 90.000000
_cell_angle_beta 90.000000
_cell_angle_gamma 90.000000
_cell_volume 2475.128031
_symmetry_space_group_name_H-M "P M M N"
_symmetry_group_IT_number 59
_space_group.IT_coordinate_system_code '2'
_symmetry_cell_setting 'orthorhombic'
loop_
_space_group_symop_operation_xyz
x,y,z
1/2-x,1/2-y,z
1/2+x,-y,-z
-x,1/2+y,-z
-x,-y,-z
1/2+x,1/2+y,-z
1/2-x,y,z
x,1/2-y,z
loop_
_atom_site_type_symbol
_atom_site_label
_atom_site_fract_x
_atom_site_fract_y
_atom_site_fract_z
Si Si1 0.065409 0.966752 0.597287
Si Si2 0.750000 0.968950 0.475708
Si Si3 0.544472 0.529092 0.704432
Si Si4 0.870553 0.468739 0.206243
Si Si5 0.360440 0.454405 0.419636
Si Si6 0.750000 0.463243 0.246714
Si Si7 0.020007 0.534814 0.892683
O O1 0.065036 0.750000 0.585642
O O2 0.104301 0.009791 0.688713
O O3 0.003726 0.024902 0.628452
O O4 0.093551 0.048915 0.504201
O O5 0.750000 0.750000 0.475391
O O6 0.694844 0.034003 0.531949
O O7 0.750000 0.019585 0.363124
O O8 0.545712 0.750000 0.703476
O O9 0.604878 0.465206 0.669384
O O10 0.522210 0.470655 0.808998
O O11 0.868152 0.250000 0.199700
O O12 0.807590 0.537131 0.203892
O O13 0.917570 0.531946 0.131354
O O14 0.345264 0.250000 0.392379
O O15 0.750000 0.250000 0.226872
O O16 0.022154 0.750000 0.880134
O O17 0.000000 0.500000 0.000000
#
# Coordination Sequence:
#
# PCOD9446142 Si02
#       7
#     8   4   8   8   8   4   8
#     4   9  15  26  43  64  86 112 145 182 213 251
#     4  10  20  28  38  61  94 126 154 183 210 245
#     4   8  16  29  45  62  85 115 145 178 220 265
#     4   8  15  26  44  67  89 113 145 180 218 267
#     4  10  18  28  40  59  89 124 151 174 209 253
#     4  10  16  28  48  65  86 122 156 177 210 263
#     4   9  17  32  50  68  87 110 145 189 233 274
#
# _framework density 19.392937
#
# number of rings (size 3 to 8) (size 9 to 14) (size 15 to 20)
#    0.000    3.000    1.667    2.500    0.000    0.000 
#    0.000    5.000    0.000    1.000    0.000    1.167 
#    0.000    0.000    0.000    0.000    0.000    0.000 
#
# Total GULP energy -267560.390488 kJ/mol
# GULP energy per Si atom -5574.174802 kJ/mol
# Density = 1.934880 g / cm^3
# Si number density = 19.392937 Si / 1000 Ang^3
#
#
#
# Elastic Constant Matrix: (Units=GPa)
#
#
# Indices 1 2 3 4 5 6 
#
# 1 142.2612 -2.6767 86.4658 0.0000 0.0000 0.0000
# 2 -2.6767 59.9146 -2.9747 0.0000 0.0000 0.0000
# 3 86.4658 -2.9747 97.0932 0.0000 0.0000 0.0000
# 4 0.0000 0.0000 0.0000 -21.2986 0.0000 0.0000
# 5 0.0000 0.0000 0.0000 0.0000 20.1345 0.0000
# 6 0.0000 0.0000 0.0000 0.0000 0.0000 2.8665
#
#
#
# Elastic Compliance Matrix: (Units=1/GPa)
#
#
# Indices 1 2 3 4 5 6 
#
# 1 0.015323 0.000007 -0.013646 0.000000 0.000000 0.000000
# 2 0.000007 0.016716 0.000506 0.000000 0.000000 0.000000
# 3 -0.013646 0.000506 0.022467 0.000000 0.000000 0.000000
# 4 0.000000 0.000000 0.000000 -0.046951 0.000000 0.000000
# 5 0.000000 0.000000 0.000000 0.000000 0.049666 0.000000
# 6 0.000000 0.000000 0.000000 0.000000 0.000000 0.348857
#
#
# Mechanical properties :
#
#
# Convention : Reuss Voigt Hill
#
# Bulk Modulus (GPa) = 35.41030 51.21085 43.31058
# Shear Modulus (GPa) = 11.31842 14.90413 13.11128
#
# Velocity S-wave (km/s) = 2.41848 2.77525 2.60298
# Velocity P-wave (km/s) = 5.10859 6.06083 5.60497
#
# Compressibility (1/GPa) = 0.02824037
#
# Stress axis : x y z
#
# Youngs Moduli (GPa) = 65.25963 59.82347 44.50936
#
# Poissons Ratio (x) = -0.00042 0.60737
# Poissons Ratio (y) = -0.00046 -0.02251
# Poissons Ratio (z) = 0.89053 -0.03026
#
# Static dielectric constant tensor:
#      x y z
#    x 1.724630 0.000000 0.000000 
#    y 0.000000 1.738890 0.000000 
#    z 0.000000 0.000000 1.652670 
# 
# From -- ./inp_files/18253.got.cif
#   From: 2010.05.17/outbox.cif.g08.bks.cpg/sg59_10_cif.got.tgz:18253.got - 2010.06.03 14:40:33.
