data_PCOD9446646
_publ_section_title
;
Structure prediction by ZEFSAII (Michael W. Deem and Ramdas Pophale) SiO2 
 PCOD9446646
Probable space group: P M M N
;
_chemical_formula_sum "Si O2"
_cell_formula_units_Z 64
_cell_length_a 19.899905
_cell_length_b 7.413536
_cell_length_c 20.000160
_cell_angle_alpha 90.000000
_cell_angle_beta 90.000000
_cell_angle_gamma 90.000000
_cell_volume 2950.596847
_symmetry_space_group_name_H-M "P M M N"
_symmetry_group_IT_number 59
_space_group.IT_coordinate_system_code '2'
_symmetry_cell_setting 'orthorhombic'
loop_
_space_group_symop_operation_xyz
x,y,z
1/2-x,1/2-y,z
1/2+x,-y,-z
-x,1/2+y,-z
-x,-y,-z
1/2+x,1/2+y,-z
1/2-x,y,z
x,1/2-y,z
loop_
_atom_site_type_symbol
_atom_site_label
_atom_site_fract_x
_atom_site_fract_y
_atom_site_fract_z
Si Si1 0.949379 0.529363 0.631692
Si Si2 0.673421 0.029611 0.280134
Si Si3 0.674004 0.961950 0.546067
Si Si4 0.093016 0.967497 0.588337
Si Si5 0.673918 0.970052 0.873196
Si Si6 0.589932 0.464408 0.153860
Si Si7 0.174663 0.465825 0.975006
Si Si8 0.049089 0.029523 0.213649
O O1 0.948981 0.750000 0.630346
O O2 0.880075 0.464420 0.599000
O O3 0.956441 0.475582 0.709016
O O4 0.015484 0.471629 0.590413
O O5 0.750000 0.970637 0.287354
O O6 0.673645 0.250000 0.280005
O O7 0.628459 0.973924 0.342920
O O8 0.641075 0.967780 0.210616
O O9 0.750000 0.036694 0.545738
O O10 0.680155 0.750000 0.561096
O O11 0.637700 0.976805 0.474405
O O12 0.092221 0.750000 0.588178
O O13 0.750000 0.025161 0.856544
O O14 0.673218 0.750000 0.872894
O O15 0.617434 0.030395 0.821776
O O16 0.659351 0.027961 0.949601
O O17 0.586620 0.250000 0.163015
O O18 0.619778 0.493349 0.080705
O O19 0.515572 0.531479 0.171263
O O20 0.250000 0.531471 0.956214
O O21 0.178501 0.250000 0.978468
O O22 0.049629 0.250000 0.213626
#
# Coordination Sequence:
#
# PCOD9446646 Si02
#       8
#     8   8   8   8   8   8   8   8
#     4   9  17  31  50  71  97 127 159 198 243 285
#     4   9  16  26  43  67  92 119 154 194 232 270
#     4  10  21  34  48  72 104 130 154 193 244 290
#     4  10  18  32  53  73  93 125 165 200 234 280
#     4   8  15  28  46  68  95 128 163 197 235 282
#     4  10  18  29  47  72  98 123 156 202 245 281
#     4   9  18  32  47  66  97 133 163 193 234 285
#     4   9  16  28  48  73  97 122 159 203 241 280
#
# _framework density 21.690528
#
# number of rings (size 3 to 8) (size 9 to 14) (size 15 to 20)
#    0.000    2.750    1.250    1.875    0.000    2.500 
#    0.000    3.125    0.000    3.000    0.000    0.000 
#    0.000    2.000    0.000    0.000    0.000    0.000 
#
# Total GULP energy -357361.850671 kJ/mol
# GULP energy per Si atom -5583.778917 kJ/mol
# Density = 2.164116 g / cm^3
# Si number density = 21.690528 Si / 1000 Ang^3
#
#
#
# Elastic Constant Matrix: (Units=GPa)
#
#
# Indices 1 2 3 4 5 6 
#
# 1 198.8964 6.3218 71.7737 0.0000 0.0000 0.0000
# 2 6.3218 68.5595 -5.3611 0.0000 0.0000 0.0000
# 3 71.7737 -5.3611 55.4742 0.0000 0.0000 0.0000
# 4 0.0000 0.0000 0.0000 6.8926 0.0000 0.0000
# 5 0.0000 0.0000 0.0000 0.0000 37.8316 0.0000
# 6 0.0000 0.0000 0.0000 0.0000 0.0000 2.0081
#
#
#
# Elastic Compliance Matrix: (Units=1/GPa)
#
#
# Indices 1 2 3 4 5 6 
#
# 1 0.009666 -0.001884 -0.012689 0.000000 0.000000 0.000000
# 2 -0.001884 0.015064 0.003893 0.000000 0.000000 0.000000
# 3 -0.012689 0.003893 0.034819 0.000000 0.000000 0.000000
# 4 0.000000 0.000000 0.000000 0.145083 0.000000 0.000000
# 5 0.000000 0.000000 0.000000 0.000000 0.026433 0.000000
# 6 0.000000 0.000000 0.000000 0.000000 0.000000 0.497987
#
#
# Mechanical properties :
#
#
# Convention : Reuss Voigt Hill
#
# Bulk Modulus (GPa) = 26.18419 52.04433 39.11426
# Shear Modulus (GPa) = 6.55186 26.02618 16.28902
#
# Velocity S-wave (km/s) = 1.73988 3.46770 2.74336
# Velocity P-wave (km/s) = 4.01673 6.33083 5.30158
#
# Compressibility (1/GPa) = 0.03819099
#
# Stress axis : x y z
#
# Youngs Moduli (GPa) = 103.45070 66.38362 28.71958
#
# Poissons Ratio (x) = 0.12504 0.36441
# Poissons Ratio (y) = 0.19485 -0.11180
# Poissons Ratio (z) = 1.31265 -0.25842
#
# Static dielectric constant tensor:
#      x y z
#    x 1.776790 0.000000 0.000000 
#    y 0.000000 1.860970 0.000000 
#    z 0.000000 0.000000 1.742770 
# 
# From -- ./inp_files/30816.got.cif
#   From: 2010.05.17/outbox.cif.g08.bks.cpg/sg59_16_cif.got.tgz:30816.got - 2010.06.03 14:40:33.
