data_PCOD9446344
_publ_section_title
;
Structure prediction by ZEFSAII (Michael W. Deem and Ramdas Pophale) SiO2 
 PCOD9446344
Probable space group: P M M N
;
_chemical_formula_sum "Si O2"
_cell_formula_units_Z 64
_cell_length_a 21.600020
_cell_length_b 7.270749
_cell_length_c 17.567177
_cell_angle_alpha 90.000000
_cell_angle_beta 90.000000
_cell_angle_gamma 90.000000
_cell_volume 2758.895702
_symmetry_space_group_name_H-M "P M M N"
_symmetry_group_IT_number 59
_space_group.IT_coordinate_system_code '2'
_symmetry_cell_setting 'orthorhombic'
loop_
_space_group_symop_operation_xyz
x,y,z
1/2-x,1/2-y,z
1/2+x,-y,-z
-x,1/2+y,-z
-x,-y,-z
1/2+x,1/2+y,-z
1/2-x,y,z
x,1/2-y,z
loop_
_atom_site_type_symbol
_atom_site_label
_atom_site_fract_x
_atom_site_fract_y
_atom_site_fract_z
Si Si1 0.562247 0.468755 0.953146
Si Si2 0.636753 0.457617 0.387567
Si Si3 0.822136 0.025113 0.054926
Si Si4 0.324414 0.964244 0.774600
Si Si5 0.057664 0.973530 0.216626
Si Si6 0.367971 0.974409 0.450257
Si Si7 0.503194 0.472598 0.624859
Si Si8 0.815995 0.473348 0.709301
O O1 0.571744 0.250000 0.946026
O O2 0.548206 0.539493 0.868452
O O3 0.500000 0.500000 0.000000
O O4 0.624786 0.535125 0.995692
O O5 0.662723 0.250000 0.383698
O O6 0.650288 0.543005 0.304953
O O7 0.656635 0.540222 0.468366
O O8 0.562810 0.452504 0.398328
O O9 0.750000 0.971771 0.039720
O O10 0.821718 0.250000 0.055968
O O11 0.840134 0.963713 0.141078
O O12 0.250000 0.972695 0.770272
O O13 0.344044 0.750000 0.775749
O O14 0.054357 0.750000 0.216674
O O15 0.126357 0.030496 0.241028
O O16 0.015130 0.029575 0.287420
O O17 0.368250 0.750000 0.453527
O O18 0.438144 0.029351 0.426489
O O19 0.327231 0.027856 0.377867
O O20 0.500769 0.250000 0.621996
O O21 0.750000 0.535193 0.738051
O O22 0.816897 0.250000 0.709746
#
# Coordination Sequence:
#
# PCOD9446344 Si02
#       8
#     8   8   8   8   8   8   8   8
#     4  10  20  32  49  73  99 123 153 195 239 282
#     4  10  18  26  43  67  86 110 149 189 217 255
#     4   8  15  29  47  66  91 123 154 186 229 278
#     4   8  15  27  41  61  89 114 138 177 226 264
#     4   8  16  29  42  62  90 118 146 181 224 268
#     4   8  15  26  38  59  89 116 144 181 224 263
#     4   9  17  30  44  57  86 124 147 171 219 271
#     4   8  13  23  41  63  89 119 148 181 223 269
#
# _framework density 23.197686000000001
#
# number of rings (size 3 to 8) (size 9 to 14) (size 15 to 20)
#    0.000    3.375    0.000    2.625    1.750    1.000 
#    0.000    5.000    0.000    0.750    0.000    1.750 
#    0.000   17.000    0.000    0.000    0.000    0.000 
#
# Total GULP energy -357008.244085 kJ/mol
# GULP energy per Si atom -5578.253814 kJ/mol
# Density = 2.314489 g / cm^3
# Si number density = 23.197686 Si / 1000 Ang^3
#
#
#
# Elastic Constant Matrix: (Units=GPa)
#
#
# Indices 1 2 3 4 5 6 
#
# 1 38.9685 -7.9667 21.5615 0.0000 0.0000 0.0000
# 2 -7.9667 102.1071 2.1055 0.0000 0.0000 0.0000
# 3 21.5615 2.1055 152.9899 0.0000 0.0000 0.0000
# 4 0.0000 0.0000 0.0000 -17.3302 0.0000 0.0000
# 5 0.0000 0.0000 0.0000 0.0000 6.6112 0.0000
# 6 0.0000 0.0000 0.0000 0.0000 0.0000 -0.6655
#
#
#
# Elastic Compliance Matrix: (Units=1/GPa)
#
#
# Indices 1 2 3 4 5 6 
#
# 1 0.028360 0.002296 -0.004028 0.000000 0.000000 0.000000
# 2 0.002296 0.009982 -0.000461 0.000000 0.000000 0.000000
# 3 -0.004028 -0.000461 0.007110 0.000000 0.000000 0.000000
# 4 0.000000 0.000000 0.000000 -0.057703 0.000000 0.000000
# 5 0.000000 0.000000 0.000000 0.000000 0.151258 0.000000
# 6 0.000000 0.000000 0.000000 0.000000 0.000000 -1.502658
#
#
# Mechanical properties :
#
#
# Convention : Reuss Voigt Hill
#
# Bulk Modulus (GPa) = 24.35130 36.16289 30.25710
# Shear Modulus (GPa) = -3.71589 16.28078 6.28245
#
# Velocity S-wave (km/s) = -1.26701 2.65208 1.64745
# Velocity P-wave (km/s) = 2.89477 5.00009 4.08537
#
# Compressibility (1/GPa) = 0.04106557
#
# Stress axis : x y z
#
# Youngs Moduli (GPa) = 35.26083 100.17762 140.63756
#
# Poissons Ratio (x) = -0.22999 0.56656
# Poissons Ratio (y) = -0.08095 0.06482
# Poissons Ratio (z) = 0.14205 0.04618
#
# Static dielectric constant tensor:
#      x y z
#    x 1.808820 0.000000 0.000000 
#    y 0.000000 1.962650 0.000000 
#    z 0.000000 0.000000 1.910270 
# 
# From -- ./inp_files/27982.got.cif
#   From: 2010.05.17/outbox.cif.g08.bks.cpg/sg59_14_cif.got.tgz:27982.got - 2010.06.03 14:40:33.
