data_PCOD9446288
_publ_section_title
;
Structure prediction by ZEFSAII (Michael W. Deem and Ramdas Pophale) SiO2 
 PCOD9446288
Probable space group: P M M N
;
_chemical_formula_sum "Si O2"
_cell_formula_units_Z 64
_cell_length_a 19.616298
_cell_length_b 22.884370
_cell_length_c 8.140479
_cell_angle_alpha 90.000000
_cell_angle_beta 90.000000
_cell_angle_gamma 90.000000
_cell_volume 3654.314925
_symmetry_space_group_name_H-M "P M M N"
_symmetry_group_IT_number 59
_space_group.IT_coordinate_system_code '2'
_symmetry_cell_setting 'orthorhombic'
loop_
_space_group_symop_operation_xyz
x,y,z
1/2-x,1/2-y,z
1/2+x,-y,-z
-x,1/2+y,-z
-x,-y,-z
1/2+x,1/2+y,-z
1/2-x,y,z
x,1/2-y,z
loop_
_atom_site_type_symbol
_atom_site_label
_atom_site_fract_x
_atom_site_fract_y
_atom_site_fract_z
Si Si1 0.669408 0.364516 0.936387
Si Si2 0.172439 0.494904 0.060685
Si Si3 0.914501 0.317193 0.624249
Si Si4 0.177056 0.959512 0.519845
Si Si5 0.533126 0.589511 0.385065
Si Si6 0.823492 0.575940 0.277388
Si Si7 0.829195 0.343706 0.298948
Si Si8 0.060523 0.005656 0.313399
O O1 0.750000 0.352452 0.919252
O O2 0.662421 0.435011 0.952717
O O3 0.630431 0.340761 0.777383
O O4 0.647075 0.336014 0.111222
O O5 0.250000 0.485597 0.126919
O O6 0.109871 0.472591 0.170964
O O7 0.170549 0.460114 0.890995
O O8 0.931807 0.250000 0.655294
O O9 0.872478 0.320271 0.452117
O O10 0.981155 0.357388 0.610853
O O11 0.250000 0.944690 0.438112
O O12 0.170484 0.913525 0.665692
O O13 0.179695 0.024789 0.586586
O O14 0.111023 0.960152 0.408205
O O15 0.606899 0.608519 0.318925
O O16 0.503811 0.535459 0.273431
O O17 0.539504 0.557235 0.562639
O O18 0.750000 0.607204 0.278312
O O19 0.750000 0.324544 0.310809
#
# Coordination Sequence:
#
# PCOD9446288 Si02
#       8
#     8   8   8   8   8   8   8   8
#     4  10  20  35  57  84 116 150 189 222 257 317
#     4  10  17  30  52  84 115 144 172 208 269 338
#     4  12  25  41  55  73 108 150 197 240 275 317
#     4   9  14  26  47  73 106 140 168 205 257 315
#     4  10  21  35  49  77 107 143 180 226 280 332
#     4   9  18  31  51  77 107 138 170 213 275 343
#     4  10  19  34  57  80 108 149 189 227 262 303
#     4  10  18  29  50  77 109 138 175 217 266 336
#
# _framework density 17.513542000000001
#
# number of rings (size 3 to 8) (size 9 to 14) (size 15 to 20)
#    0.000    2.000    3.750    0.750    0.000    4.500 
#    2.250    1.250    0.000    0.375    0.000    0.000 
#    0.000    1.000    0.000    0.000    0.000    0.000 
#
# Total GULP energy -356493.631391 kJ/mol
# GULP energy per Si atom -5570.212990 kJ/mol
# Density = 1.747368 g / cm^3
# Si number density = 17.513542 Si / 1000 Ang^3
#
#
#
# Elastic Constant Matrix: (Units=GPa)
#
#
# Indices 1 2 3 4 5 6 
#
# 1 111.8522 32.6302 47.0452 0.0000 0.0000 0.0000
# 2 32.6302 58.3915 22.5583 0.0000 0.0000 0.0000
# 3 47.0452 22.5583 85.2634 0.0000 0.0000 0.0000
# 4 0.0000 0.0000 0.0000 5.8207 0.0000 0.0000
# 5 0.0000 0.0000 0.0000 0.0000 19.8510 0.0000
# 6 0.0000 0.0000 0.0000 0.0000 0.0000 -0.7421
#
#
#
# Elastic Compliance Matrix: (Units=1/GPa)
#
#
# Indices 1 2 3 4 5 6 
#
# 1 0.012800 -0.004928 -0.005759 0.000000 0.000000 0.000000
# 2 -0.004928 0.020973 -0.002830 0.000000 0.000000 0.000000
# 3 -0.005759 -0.002830 0.015655 0.000000 0.000000 0.000000
# 4 0.000000 0.000000 0.000000 0.171800 0.000000 0.000000
# 5 0.000000 0.000000 0.000000 0.000000 0.050375 0.000000
# 6 0.000000 0.000000 0.000000 0.000000 0.000000 -1.347457
#
#
# Mechanical properties :
#
#
# Convention : Reuss Voigt Hill
#
# Bulk Modulus (GPa) = 44.65420 51.10828 47.88124
# Shear Modulus (GPa) = -4.80143 15.20415 5.20136
#
# Velocity S-wave (km/s) = -1.65756 2.94961 1.72521
# Velocity P-wave (km/s) = 4.67856 6.39107 5.60066
#
# Compressibility (1/GPa) = 0.02239431
#
# Stress axis : x y z
#
# Youngs Moduli (GPa) = 78.12354 47.68058 63.87935
#
# Poissons Ratio (x) = 0.23498 0.36787
# Poissons Ratio (y) = 0.38501 0.18075
# Poissons Ratio (z) = 0.44990 0.13492
#
# Static dielectric constant tensor:
#      x y z
#    x 1.677700 0.000000 0.000000 
#    y 0.000000 1.579840 0.000000 
#    z 0.000000 0.000000 1.648210 
# 
# From -- ./inp_files/11771.got.cif
#   From: 2010.05.17/outbox.cif.g08.bks.cpg/sg59_6_cif.got.tgz:11771.got - 2010.06.03 14:40:33.
