data_PCOD9446234
_publ_section_title
;
Structure prediction by ZEFSAII (Michael W. Deem and Ramdas Pophale) SiO2 
 PCOD9446234
Probable space group: P M M N
;
_chemical_formula_sum "Si O2"
_cell_formula_units_Z 64
_cell_length_a 14.970203
_cell_length_b 17.260995
_cell_length_c 12.709305
_cell_angle_alpha 90.000000
_cell_angle_beta 90.000000
_cell_angle_gamma 90.000000
_cell_volume 3284.092027
_symmetry_space_group_name_H-M "P M M N"
_symmetry_group_IT_number 59
_space_group.IT_coordinate_system_code '2'
_symmetry_cell_setting 'orthorhombic'
loop_
_space_group_symop_operation_xyz
x,y,z
1/2-x,1/2-y,z
1/2+x,-y,-z
-x,1/2+y,-z
-x,-y,-z
1/2+x,1/2+y,-z
1/2-x,y,z
x,1/2-y,z
loop_
_atom_site_type_symbol
_atom_site_label
_atom_site_fract_x
_atom_site_fract_y
_atom_site_fract_z
Si Si1 0.645577 0.105430 0.146150
Si Si2 0.972558 0.340867 0.957003
Si Si3 0.848623 0.922322 0.110119
Si Si4 0.343678 0.919477 0.459892
Si Si5 0.400030 0.837064 0.258362
Si Si6 0.080309 0.103497 0.663219
Si Si7 0.032871 0.920174 0.647155
Si Si8 0.651062 0.604442 0.563920
O O1 0.750000 0.129597 0.151689
O O2 0.594936 0.108234 0.258003
O O3 0.644813 0.015396 0.109719
O O4 0.584685 0.149422 0.061815
O O5 0.990365 0.250000 0.937538
O O6 0.066697 0.385850 0.950120
O O7 0.911359 0.369553 0.858960
O O8 0.750000 0.899109 0.071465
O O9 0.857498 0.900523 0.234025
O O10 0.250000 0.896378 0.511940
O O11 0.347715 0.885340 0.344026
O O12 0.423781 0.896512 0.535795
O O13 0.344463 0.011508 0.449192
O O14 0.365597 0.750000 0.253124
O O15 0.500159 0.840688 0.304598
O O16 0.126096 0.129282 0.555107
O O17 0.039355 0.015189 0.650817
O O18 0.932401 0.886899 0.643235
O O19 0.750000 0.632627 0.594732
#
# Coordination Sequence:
#
# PCOD9446234 Si02
#       8
#     8   8   8   8   8   8   8   8
#     4  10  21  37  58  81 106 143 189 234 275 321
#     4  10  22  38  57  78 108 148 184 223 274 334
#     4   9  18  33  57  87 112 139 181 232 278 319
#     4  10  18  30  49  78 108 136 169 208 261 318
#     4  10  19  32  50  73 105 143 173 207 260 315
#     4   9  15  30  50  77 111 142 172 215 261 317
#     4  10  17  32  54  77 106 137 172 226 272 309
#     4  10  17  27  51  81 107 140 173 207 263 323
#
# _framework density 19.487881999999999
#
# number of rings (size 3 to 8) (size 9 to 14) (size 15 to 20)
#    0.000    2.250    2.500    1.875    0.000    4.250 
#    0.000    2.500    0.000    2.625    0.000    0.000 
#    0.000    0.000    0.000    0.000    0.000    0.000 
#
# Total GULP energy -356560.064043 kJ/mol
# GULP energy per Si atom -5571.251001 kJ/mol
# Density = 1.944353 g / cm^3
# Si number density = 19.487882 Si / 1000 Ang^3
#
#
#
# Elastic Constant Matrix: (Units=GPa)
#
#
# Indices 1 2 3 4 5 6 
#
# 1 128.9639 2.0689 36.2805 0.0000 0.0000 0.0000
# 2 2.0689 5.0027 4.8067 0.0000 0.0000 0.0000
# 3 36.2805 4.8067 77.0546 0.0000 0.0000 0.0000
# 4 0.0000 0.0000 0.0000 12.7135 0.0000 0.0000
# 5 0.0000 0.0000 0.0000 0.0000 20.9025 0.0000
# 6 0.0000 0.0000 0.0000 0.0000 0.0000 -12.7356
#
#
#
# Elastic Compliance Matrix: (Units=1/GPa)
#
#
# Indices 1 2 3 4 5 6 
#
# 1 0.008939 0.000369 -0.004232 0.000000 0.000000 0.000000
# 2 0.000369 0.212652 -0.013439 0.000000 0.000000 0.000000
# 3 -0.004232 -0.013439 0.015809 0.000000 0.000000 0.000000
# 4 0.000000 0.000000 0.000000 0.078657 0.000000 0.000000
# 5 0.000000 0.000000 0.000000 0.000000 0.047841 0.000000
# 6 0.000000 0.000000 0.000000 0.000000 0.000000 -0.078520
#
#
# Mechanical properties :
#
#
# Convention : Reuss Voigt Hill
#
# Bulk Modulus (GPa) = 4.93107 33.03704 18.98406
# Shear Modulus (GPa) = 12.90061 15.36708 14.13385
#
# Velocity S-wave (km/s) = 2.57569 2.81115 2.69599
# Velocity P-wave (km/s) = 3.37363 5.24654 4.41064
#
# Compressibility (1/GPa) = 0.20279566
#
# Stress axis : x y z
#
# Youngs Moduli (GPa) = 111.87346 4.70253 63.25656
#
# Poissons Ratio (x) = -0.00174 0.26769
# Poissons Ratio (y) = -0.04132 0.85012
# Poissons Ratio (z) = 0.47342 0.06320
#
# Static dielectric constant tensor:
#      x y z
#    x 1.751350 0.000000 0.000000 
#    y 0.000000 1.674300 0.000000 
#    z 0.000000 0.000000 1.688070 
# 
# From -- ./inp_files/17261.got.cif
#   From: 2010.05.17/outbox.cif.g08.bks.cpg/sg59_9_cif.got.tgz:17261.got - 2010.06.03 14:40:33.
