data_PCOD9446953
_publ_section_title
;
Structure prediction by ZEFSAII (Michael W. Deem and Ramdas Pophale) SiO2 
 PCOD9446953
Probable space group: P M M N
;
_chemical_formula_sum "Si O2"
_cell_formula_units_Z 64
_cell_length_a 8.296178
_cell_length_b 29.494897
_cell_length_c 12.829167
_cell_angle_alpha 90.000000
_cell_angle_beta 90.000000
_cell_angle_gamma 90.000000
_cell_volume 3139.231936
_symmetry_space_group_name_H-M "P M M N"
_symmetry_group_IT_number 59
_space_group.IT_coordinate_system_code '2'
_symmetry_cell_setting 'orthorhombic'
loop_
_space_group_symop_operation_xyz
x,y,z
1/2-x,1/2-y,z
1/2+x,-y,-z
-x,1/2+y,-z
-x,-y,-z
1/2+x,1/2+y,-z
1/2-x,y,z
x,1/2-y,z
loop_
_atom_site_type_symbol
_atom_site_label
_atom_site_fract_x
_atom_site_fract_y
_atom_site_fract_z
Si Si1 0.443624 0.846781 0.251918
Si Si2 0.441919 0.133169 0.352624
Si Si3 0.443212 0.298717 0.178558
Si Si4 0.059963 0.663480 0.022931
Si Si5 0.060162 0.957217 0.739923
Si Si6 0.055405 0.698367 0.464439
Si Si7 0.561705 0.566026 0.968116
Si Si8 0.554833 0.947586 0.199732
O O1 0.250000 0.847422 0.259148
O O2 0.485617 0.824220 0.140828
O O3 0.504246 0.819808 0.352189
O O4 0.499307 0.899064 0.242366
O O5 0.250000 0.137198 0.355455
O O6 0.502160 0.160587 0.250808
O O7 0.484413 0.080773 0.334194
O O8 0.508237 0.160688 0.450781
O O9 0.250000 0.302682 0.166051
O O10 0.476701 0.250000 0.229424
O O11 0.523801 0.300924 0.066245
O O12 0.250000 0.651697 0.022533
O O13 0.958557 0.619481 0.989644
O O14 0.250000 0.956656 0.720663
O O15 0.028785 0.944756 0.861366
O O16 0.000847 0.009199 0.732957
O O17 0.250000 0.700285 0.461797
O O18 0.997828 0.750000 0.485824
O O19 0.750000 0.554780 0.954073
O O20 0.500594 0.545790 0.078575
O O21 0.750000 0.947295 0.196098
#
# Coordination Sequence:
#
# PCOD9446953 Si02
#       8
#     8   8   8   8   8   8   8   8
#     4   9  20  38  60  86 116 149 190 240 288 339
#     4  11  23  39  59  84 114 150 193 241 290 343
#     4  10  21  36  53  76 111 149 183 229 290 349
#     4  10  19  32  53  82 114 149 187 229 279 340
#     4  11  21  34  54  83 117 154 196 237 282 338
#     4  10  22  42  66  88 112 146 190 242 296 346
#     4  10  18  31  51  78 115 157 193 230 276 328
#     4   9  20  35  54  83 119 156 194 237 282 335
#
# _framework density 20.387153999999999
#
# number of rings (size 3 to 8) (size 9 to 14) (size 15 to 20)
#    0.000    2.000    1.250    2.250    0.000    4.500 
#    0.000    1.875    0.000    0.000    0.000    0.000 
#    0.000    0.000    0.000    0.000    0.000    0.000 
#
# Total GULP energy -357101.169456 kJ/mol
# GULP energy per Si atom -5579.705773 kJ/mol
# Density = 2.034075 g / cm^3
# Si number density = 20.387154 Si / 1000 Ang^3
#
#
#
# Elastic Constant Matrix: (Units=GPa)
#
#
# Indices 1 2 3 4 5 6 
#
# 1 16.0260 -0.5682 6.2723 0.0000 0.0000 0.0000
# 2 -0.5682 37.3414 15.0799 0.0000 0.0000 0.0000
# 3 6.2723 15.0799 80.7560 0.0000 0.0000 0.0000
# 4 0.0000 0.0000 0.0000 23.2162 0.0000 0.0000
# 5 0.0000 0.0000 0.0000 0.0000 18.4049 0.0000
# 6 0.0000 0.0000 0.0000 0.0000 0.0000 15.8521
#
#
#
# Elastic Compliance Matrix: (Units=1/GPa)
#
#
# Indices 1 2 3 4 5 6 
#
# 1 0.064720 0.003261 -0.005636 0.000000 0.000000 0.000000
# 2 0.003261 0.029128 -0.005693 0.000000 0.000000 0.000000
# 3 -0.005636 -0.005693 0.013884 0.000000 0.000000 0.000000
# 4 0.000000 0.000000 0.000000 0.043073 0.000000 0.000000
# 5 0.000000 0.000000 0.000000 0.000000 0.054333 0.000000
# 6 0.000000 0.000000 0.000000 0.000000 0.000000 0.063083
#
#
# Mechanical properties :
#
#
# Convention : Reuss Voigt Hill
#
# Bulk Modulus (GPa) = 10.91736 19.52126 15.21931
# Shear Modulus (GPa) = 15.87860 19.05061 17.46461
#
# Velocity S-wave (km/s) = 2.79382 3.06018 2.93003
# Velocity P-wave (km/s) = 3.97164 4.69918 4.35065
#
# Compressibility (1/GPa) = 0.09159724
#
# Stress axis : x y z
#
# Youngs Moduli (GPa) = 15.45116 34.33080 72.02698
#
# Poissons Ratio (x) = -0.11194 0.40592
# Poissons Ratio (y) = -0.05038 0.41001
# Poissons Ratio (z) = 0.08708 0.19543
#
# Static dielectric constant tensor:
#      x y z
#    x 1.717590 0.000000 0.000000 
#    y 0.000000 1.771720 0.000000 
#    z 0.000000 0.000000 1.732030 
# 
# From -- ./inp_files/15083.got.cif
#   From: 2010.05.17/outbox.cif.g08.bks.cpg/sg59_8_cif.got.tgz:15083.got - 2010.06.03 14:40:33.
