data_PCOD9446108
_publ_section_title
;
Structure prediction by ZEFSAII (Michael W. Deem and Ramdas Pophale) SiO2 
 PCOD9446108
Probable space group: P N N M
;
_chemical_formula_sum "Si O2"
_cell_formula_units_Z 48
_cell_length_a 9.000000
_cell_length_b 15.000000
_cell_length_c 18.000000
_cell_angle_alpha 90.000000
_cell_angle_beta 90.000000
_cell_angle_gamma 90.000000
_cell_volume 2430.000000
_symmetry_space_group_name_H-M "P N N M"
_symmetry_group_IT_number 58
_symmetry_cell_setting 'orthorhombic'
loop_
_space_group_symop_operation_xyz
x,y,z
-x,-y,z
1/2+x,1/2-y,1/2-z
1/2-x,1/2+y,1/2-z
-x,-y,-z
x,y,-z
1/2-x,1/2+y,1/2+z
1/2+x,1/2-y,1/2+z
loop_
_atom_site_type_symbol
_atom_site_label
_atom_site_fract_x
_atom_site_fract_y
_atom_site_fract_z
Si Si1 0.419794 0.087946 0.601328
Si Si2 0.575595 0.714042 0.187940
Si Si3 0.925045 0.912083 0.582339
Si Si4 0.404769 0.083820 0.222898
Si Si5 0.438768 0.598210 0.320208
Si Si6 0.648013 0.241930 0.582967
O O1 0.249993 0.081337 0.578758
O O2 0.425061 0.085556 0.689680
O O3 0.510544 0.174714 0.579383
O O4 0.500000 0.000000 0.574778
O O5 0.462906 0.672979 0.129602
O O6 0.544822 0.818463 0.196936
O O7 0.541859 0.655654 0.262219
O O8 0.736921 0.708141 0.147186
O O9 0.990621 0.904775 0.500000
O O10 0.000000 0.000000 0.617779
O O11 0.227779 0.080781 0.210472
O O12 0.500000 0.000000 0.192566
O O13 0.500000 0.500000 0.335421
O O14 0.411839 0.662406 0.390413
O O15 0.716119 0.246144 0.500000
#
# Coordination Sequence:
#
# PCOD9446108 Si02
#       6
#     8   8   8   8   8   8
#     4  11  22  37  60  90 124 162 202 254 311 374
#     4  11  22  41  64  92 122 164 213 260 314 375
#     4  11  23  38  59  90 127 164 201 250 316 380
#     4  10  23  38  62  93 124 155 201 265 315 364
#     4  11  24  40  66  95 124 166 219 265 315 375
#     4  11  25  43  63  94 133 172 210 261 327 384
#
# _framework density 19.753086
#
# number of rings (size 3 to 8) (size 9 to 14) (size 15 to 20)
#    0.000    1.167    3.333    2.500    4.667    4.333 
#    0.000    0.000    0.000   12.500    0.000    0.000 
#    0.000    0.000    0.000    0.000    0.000    0.000 
#
# Total GULP energy -267674.167467 kJ/mol
# GULP energy per Si atom -5576.545156 kJ/mol
# Density = 1.970813 g / cm^3
# Si number density = 19.753086 Si / 1000 Ang^3
#
#
#
# Elastic Constant Matrix: (Units=GPa)
#
#
# Indices 1 2 3 4 5 6 
#
# 1 105.5321 86.1739 32.7383 0.0000 0.0000 0.0000
# 2 86.1739 147.7171 41.5128 0.0000 0.0000 0.0000
# 3 32.7383 41.5128 70.0307 0.0000 0.0000 0.0000
# 4 0.0000 0.0000 0.0000 -30.2088 0.0000 0.0000
# 5 0.0000 0.0000 0.0000 0.0000 47.9876 0.0000
# 6 0.0000 0.0000 0.0000 0.0000 0.0000 41.2960
#
#
#
# Elastic Compliance Matrix: (Units=1/GPa)
#
#
# Indices 1 2 3 4 5 6 
#
# 1 0.018513 -0.010040 -0.002703 0.000000 0.000000 0.000000
# 2 -0.010040 0.013568 -0.003349 0.000000 0.000000 0.000000
# 3 -0.002703 -0.003349 0.017528 0.000000 0.000000 0.000000
# 4 0.000000 0.000000 0.000000 -0.033103 0.000000 0.000000
# 5 0.000000 0.000000 0.000000 0.000000 0.020839 0.000000
# 6 0.000000 0.000000 0.000000 0.000000 0.000000 0.024215
#
#
# Mechanical properties :
#
#
# Convention : Reuss Voigt Hill
#
# Bulk Modulus (GPa) = 57.38991 71.56999 64.47995
# Shear Modulus (GPa) = 50.22435 22.67194 36.44815
#
# Velocity S-wave (km/s) = 5.04790 3.39155 4.30022
# Velocity P-wave (km/s) = 7.94303 7.18664 7.57428
#
# Compressibility (1/GPa) = 0.01742467
#
# Stress axis : x y z
#
# Youngs Moduli (GPa) = 54.01675 73.70203 57.05053
#
# Poissons Ratio (x) = 0.73999 0.15419
# Poissons Ratio (y) = 0.54234 0.19108
# Poissons Ratio (z) = 0.14599 0.24685
#
# Static dielectric constant tensor:
#      x y z
#    x 1.727200 0.000000 0.000000 
#    y 0.000000 1.722620 0.000000 
#    z 0.000000 0.000000 1.753310 
# 
# From -- ./inp_files/25298.got.cif
#   From: 2010.05.17/outbox.ucp.g08.bks.cvg/sg58_13_cif.got.tgz:25298.got - 2010.06.11 16:41:41.
