data_PCOD9446432
_publ_section_title
;
Structure prediction by ZEFSAII (Michael W. Deem and Ramdas Pophale) SiO2 
 PCOD9446432
Probable space group: P M M N
;
_chemical_formula_sum "Si O2"
_cell_formula_units_Z 64
_cell_length_a 26.870513
_cell_length_b 9.129600
_cell_length_c 17.694381
_cell_angle_alpha 90.000000
_cell_angle_beta 90.000000
_cell_angle_gamma 90.000000
_cell_volume 4340.733092
_symmetry_space_group_name_H-M "P M M N"
_symmetry_group_IT_number 59
_space_group.IT_coordinate_system_code '2'
_symmetry_cell_setting 'orthorhombic'
loop_
_space_group_symop_operation_xyz
x,y,z
1/2-x,1/2-y,z
1/2+x,-y,-z
-x,1/2+y,-z
-x,-y,-z
1/2+x,1/2+y,-z
1/2-x,y,z
x,1/2-y,z
loop_
_atom_site_type_symbol
_atom_site_label
_atom_site_fract_x
_atom_site_fract_y
_atom_site_fract_z
Si Si1 0.061102 0.074060 0.337449
Si Si2 0.576645 0.424214 0.146874
Si Si3 0.883712 0.573252 0.519398
Si Si4 0.808637 0.424385 0.406658
Si Si5 0.540971 0.573698 0.831303
Si Si6 0.052849 0.925070 0.018265
Si Si7 0.536147 0.581132 0.397125
Si Si8 0.628173 0.580393 0.281180
O O1 0.059116 0.250000 0.337662
O O2 0.105677 0.031595 0.393989
O O3 0.062410 0.028055 0.249993
O O4 0.010077 0.015450 0.373152
O O5 0.581671 0.250000 0.159483
O O6 0.518550 0.460973 0.165957
O O7 0.613445 0.509658 0.201673
O O8 0.584382 0.453986 0.057651
O O9 0.877621 0.750000 0.513227
O O10 0.838752 0.495706 0.476331
O O11 0.933876 0.535933 0.472128
O O12 0.750000 0.453508 0.412272
O O13 0.816804 0.250000 0.406205
O O14 0.831321 0.493439 0.330188
O O15 0.544832 0.750000 0.839940
O O16 0.567260 0.494485 0.901693
O O17 0.047008 0.750000 0.024678
O O18 0.000000 0.000000 0.000000
O O19 0.520154 0.750000 0.405887
O O20 0.577906 0.574655 0.331758
O O21 0.642527 0.750000 0.273626
#
# Coordination Sequence:
#
# PCOD9446432 Si02
#       8
#     8   8   8   8   8   8   8   8
#     4  10  18  28  42  60  87 119 150 182 217 257
#     4   9  16  27  41  59  85 116 150 184 217 253
#     4   9  19  32  45  64  86 111 145 182 220 262
#     4  10  21  36  52  67  85 111 142 179 224 270
#     4   9  17  27  39  58  85 120 154 183 217 251
#     4   9  17  27  39  56  80 114 153 187 217 249
#     4   9  17  27  38  59  87 114 148 181 214 254
#     4  10  19  29  45  68  89 113 146 182 220 262
#
# _framework density 14.744054
#
# number of rings (size 3 to 8) (size 9 to 14) (size 15 to 20)
#    0.000    2.625    1.250    3.000    0.000    6.500 
#    0.000    0.000    0.000    0.000    0.000    0.000 
#    0.000    1.000    0.000    6.500    0.000    4.875 
#
# Total GULP energy -356472.631449 kJ/mol
# GULP energy per Si atom -5569.884866 kJ/mol
# Density = 1.471050 g / cm^3
# Si number density = 14.744054 Si / 1000 Ang^3
#
#
#
# Elastic Constant Matrix: (Units=GPa)
#
#
# Indices 1 2 3 4 5 6 
#
# 1 46.8215 32.1467 49.5015 0.0000 0.0000 0.0000
# 2 32.1467 40.7123 57.5280 0.0000 0.0000 0.0000
# 3 49.5015 57.5280 149.8339 0.0000 0.0000 0.0000
# 4 0.0000 0.0000 0.0000 24.1061 0.0000 0.0000
# 5 0.0000 0.0000 0.0000 0.0000 9.9063 0.0000
# 6 0.0000 0.0000 0.0000 0.0000 0.0000 16.3205
#
#
#
# Elastic Compliance Matrix: (Units=1/GPa)
#
#
# Indices 1 2 3 4 5 6 
#
# 1 0.047179 -0.033288 -0.002806 0.000000 0.000000 0.000000
# 2 -0.033288 0.077179 -0.018635 0.000000 0.000000 0.000000
# 3 -0.002806 -0.018635 0.014756 0.000000 0.000000 0.000000
# 4 0.000000 0.000000 0.000000 0.041483 0.000000 0.000000
# 5 0.000000 0.000000 0.000000 0.000000 0.100946 0.000000
# 6 0.000000 0.000000 0.000000 0.000000 0.000000 0.061273
#
#
# Mechanical properties :
#
#
# Convention : Reuss Voigt Hill
#
# Bulk Modulus (GPa) = 33.71989 57.30223 45.51106
# Shear Modulus (GPa) = 10.81879 16.61268 13.71573
#
# Velocity S-wave (km/s) = 2.71176 3.36033 3.05332
# Velocity P-wave (km/s) = 5.72055 7.34880 6.58519
#
# Compressibility (1/GPa) = 0.02965609
#
# Stress axis : x y z
#
# Youngs Moduli (GPa) = 21.19580 12.95695 67.76938
#
# Poissons Ratio (x) = 0.43131 0.19017
# Poissons Ratio (y) = 0.70556 1.26288
# Poissons Ratio (z) = 0.05948 0.24145
#
# Static dielectric constant tensor:
#      x y z
#    x 1.448880 0.000000 0.000000 
#    y 0.000000 1.495710 0.000000 
#    z 0.000000 0.000000 1.533460 
# 
# From -- ./inp_files/28461.got.cif
#   From: 2010.05.17/outbox.cif.g08.bks.cpg/sg59_15_cif.got.tgz:28461.got - 2010.06.03 14:40:33.
