data_PCOD9446951
_publ_section_title
;
Structure prediction by ZEFSAII (Michael W. Deem and Ramdas Pophale) SiO2 
 PCOD9446951
Probable space group: P M M N
;
_chemical_formula_sum "Si O2"
_cell_formula_units_Z 64
_cell_length_a 20.141277
_cell_length_b 15.860676
_cell_length_c 10.028500
_cell_angle_alpha 90.000000
_cell_angle_beta 90.000000
_cell_angle_gamma 90.000000
_cell_volume 3203.647134
_symmetry_space_group_name_H-M "P M M N"
_symmetry_group_IT_number 59
_space_group.IT_coordinate_system_code '2'
_symmetry_cell_setting 'orthorhombic'
loop_
_space_group_symop_operation_xyz
x,y,z
1/2-x,1/2-y,z
1/2+x,-y,-z
-x,1/2+y,-z
-x,-y,-z
1/2+x,1/2+y,-z
1/2-x,y,z
x,1/2-y,z
loop_
_atom_site_type_symbol
_atom_site_label
_atom_site_fract_x
_atom_site_fract_y
_atom_site_fract_z
Si Si1 0.504788 0.600381 0.304101
Si Si2 0.829158 0.347258 0.903690
Si Si3 0.632526 0.481703 0.687372
Si Si4 0.578101 0.654692 0.055910
Si Si5 0.376448 0.986807 0.618574
Si Si6 0.674269 0.004784 0.098229
Si Si7 0.523100 0.338601 0.416864
Si Si8 0.396451 0.156657 0.239506
O O1 0.447678 0.529527 0.299814
O O2 0.518273 0.637562 0.158552
O O3 0.575671 0.566784 0.356446
O O4 0.479816 0.658973 0.422993
O O5 0.750000 0.340136 0.922175
O O6 0.855220 0.250000 0.902765
O O7 0.841001 0.400981 0.768069
O O8 0.852867 0.412935 0.018872
O O9 0.651027 0.484054 0.531400
O O10 0.648496 0.573232 0.749466
O O11 0.603463 0.750000 0.084813
O O12 0.630403 0.578655 0.074086
O O13 0.562812 0.652321 0.899034
O O14 0.428946 0.911429 0.628264
O O15 0.327943 0.980377 0.742976
O O16 0.750000 0.990552 0.054533
O O17 0.550367 0.250000 0.368839
O O18 0.449293 0.346615 0.358927
O O19 0.363928 0.250000 0.241938
#
# Coordination Sequence:
#
# PCOD9446951 Si02
#       8
#     8   8   8   8   8   8   8   8
#     4  10  19  33  52  81 117 152 183 219 275 324
#     4  10  23  42  61  81 107 144 188 233 284 332
#     4  11  19  36  60  82 117 150 187 228 270 333
#     4  10  21  35  55  84 114 144 184 231 275 330
#     4  10  20  34  54  82 114 146 187 227 273 322
#     4  10  22  40  60  79 106 146 186 233 285 329
#     4  10  18  31  51  77 114 152 182 216 270 336
#     4  10  19  32  52  84 117 148 182 221 273 326
#
# _framework density 19.977231
#
# number of rings (size 3 to 8) (size 9 to 14) (size 15 to 20)
#    0.000    1.875    3.750    1.125    0.000    5.250 
#    0.000    1.250    0.000    1.875    0.000    0.000 
#    0.000    0.000    0.000    0.000    0.000    0.000 
#
# Total GULP energy -356366.193829 kJ/mol
# GULP energy per Si atom -5568.221779 kJ/mol
# Density = 1.993176 g / cm^3
# Si number density = 19.977231 Si / 1000 Ang^3
#
#
#
# Elastic Constant Matrix: (Units=GPa)
#
#
# Indices 1 2 3 4 5 6 
#
# 1 16.2853 9.1362 -2.3458 0.0000 0.0000 0.0000
# 2 9.1362 148.8794 35.3642 0.0000 0.0000 0.0000
# 3 -2.3458 35.3642 103.6288 0.0000 0.0000 0.0000
# 4 0.0000 0.0000 0.0000 7.1724 0.0000 0.0000
# 5 0.0000 0.0000 0.0000 0.0000 12.8747 0.0000
# 6 0.0000 0.0000 0.0000 0.0000 0.0000 16.5247
#
#
#
# Elastic Compliance Matrix: (Units=1/GPa)
#
#
# Indices 1 2 3 4 5 6 
#
# 1 0.064473 -0.004683 0.003057 0.000000 0.000000 0.000000
# 2 -0.004683 0.007649 -0.002716 0.000000 0.000000 0.000000
# 3 0.003057 -0.002716 0.010646 0.000000 0.000000 0.000000
# 4 0.000000 0.000000 0.000000 0.139423 0.000000 0.000000
# 5 0.000000 0.000000 0.000000 0.000000 0.077672 0.000000
# 6 0.000000 0.000000 0.000000 0.000000 0.000000 0.060515
#
#
# Mechanical properties :
#
#
# Convention : Reuss Voigt Hill
#
# Bulk Modulus (GPa) = 13.49806 39.23363 26.36584
# Shear Modulus (GPa) = 12.69820 22.42362 17.56091
#
# Velocity S-wave (km/s) = 2.52391 3.35395 2.96809
# Velocity P-wave (km/s) = 3.90703 5.88901 4.99727
#
# Compressibility (1/GPa) = 0.07408473
#
# Stress axis : x y z
#
# Youngs Moduli (GPa) = 15.51045 130.72821 93.93159
#
# Poissons Ratio (x) = 0.61216 -0.28719
# Poissons Ratio (y) = 0.07263 0.25516
# Poissons Ratio (z) = -0.04742 0.35512
#
# Static dielectric constant tensor:
#      x y z
#    x 1.692820 0.000000 0.000000 
#    y 0.000000 1.787880 0.000000 
#    z 0.000000 0.000000 1.726990 
# 
# From -- ./inp_files/12246.got.cif
#   From: 2010.05.17/outbox.cif.g08.bks.cpg/sg59_7_cif.got.tgz:12246.got - 2010.06.03 14:40:33.
