data_PCOD9446186
_publ_section_title
;
Structure prediction by ZEFSAII (Michael W. Deem and Ramdas Pophale) SiO2 
 PCOD9446186
Probable space group: P M M N
;
_chemical_formula_sum "Si O2"
_cell_formula_units_Z 64
_cell_length_a 8.905124
_cell_length_b 23.626605
_cell_length_c 20.880743
_cell_angle_alpha 90.000000
_cell_angle_beta 90.000000
_cell_angle_gamma 90.000000
_cell_volume 4393.263376
_symmetry_space_group_name_H-M "P M M N"
_symmetry_group_IT_number 59
_space_group.IT_coordinate_system_code '2'
_symmetry_cell_setting 'orthorhombic'
loop_
_space_group_symop_operation_xyz
x,y,z
1/2-x,1/2-y,z
1/2+x,-y,-z
-x,1/2+y,-z
-x,-y,-z
1/2+x,1/2+y,-z
1/2-x,y,z
x,1/2-y,z
loop_
_atom_site_type_symbol
_atom_site_label
_atom_site_fract_x
_atom_site_fract_y
_atom_site_fract_z
Si Si1 0.076768 0.918976 0.955533
Si Si2 0.068099 0.815497 0.716249
Si Si3 0.569002 0.059082 0.525345
Si Si4 0.930301 0.527646 0.348107
Si Si5 0.431579 0.599256 0.607441
Si Si6 0.570900 0.021942 0.787474
Si Si7 0.570935 0.608155 0.825315
Si Si8 0.576701 0.947607 0.083193
O O1 0.250000 0.901505 0.958213
O O2 0.991534 0.888759 0.897427
O O3 0.073602 0.985974 0.937459
O O4 0.999146 0.914444 0.024571
O O5 0.250000 0.818080 0.718534
O O6 0.023780 0.750000 0.713044
O O7 0.015997 0.851180 0.654106
O O8 0.003684 0.846722 0.778400
O O9 0.750000 0.055188 0.528982
O O10 0.527371 0.101845 0.467666
O O11 0.500000 0.000000 0.500000
O O12 0.500056 0.066058 0.595615
O O13 0.750000 0.530488 0.349918
O O14 0.976201 0.462345 0.364588
O O15 0.992344 0.540650 0.277955
O O16 0.250000 0.599735 0.609068
O O17 0.750000 0.027129 0.782670
O O18 0.534910 0.955226 0.799255
O O19 0.510702 0.054588 0.849872
O O20 0.750000 0.614044 0.825461
O O21 0.750000 0.931447 0.091133
#
# Coordination Sequence:
#
# PCOD9446186 Si02
#       8
#     8   8   8   8   8   8   8   8
#     4   9  16  26  40  55  74 101 134 168 199 237
#     4  10  19  31  46  61  78 104 139 175 212 252
#     4   9  16  26  39  56  77 100 130 165 201 244
#     4  10  17  26  40  57  79 105 134 168 204 244
#     4   8  15  27  41  56  75 100 130 168 207 243
#     4  10  18  26  38  57  80 108 138 167 200 241
#     4  10  19  29  41  57  77 103 135 172 210 246
#     4   9  16  25  37  55  78 104 132 165 199 233
#
# _framework density 14.567759000000001
#
# number of rings (size 3 to 8) (size 9 to 14) (size 15 to 20)
#    0.000    2.625    1.250    3.000    0.000    4.250 
#    0.000    0.625    0.000    0.000    0.000    0.000 
#    0.000    0.000    0.000    1.125    0.000   20.750 
#
# Total GULP energy -356388.771664 kJ/mol
# GULP energy per Si atom -5568.574557 kJ/mol
# Density = 1.453460 g / cm^3
# Si number density = 14.567759 Si / 1000 Ang^3
#
#
#
# Elastic Constant Matrix: (Units=GPa)
#
#
# Indices 1 2 3 4 5 6 
#
# 1 51.5779 16.0347 50.0289 0.0000 0.0000 0.0000
# 2 16.0347 38.5717 41.1348 0.0000 0.0000 0.0000
# 3 50.0289 41.1348 161.9185 0.0000 0.0000 0.0000
# 4 0.0000 0.0000 0.0000 10.8553 0.0000 0.0000
# 5 0.0000 0.0000 0.0000 0.0000 28.8688 0.0000
# 6 0.0000 0.0000 0.0000 0.0000 0.0000 10.0482
#
#
#
# Elastic Compliance Matrix: (Units=1/GPa)
#
#
# Indices 1 2 3 4 5 6 
#
# 1 0.027990 -0.003309 -0.007807 0.000000 0.000000 0.000000
# 2 -0.003309 0.035951 -0.008111 0.000000 0.000000 0.000000
# 3 -0.007807 -0.008111 0.010649 0.000000 0.000000 0.000000
# 4 0.000000 0.000000 0.000000 0.092121 0.000000 0.000000
# 5 0.000000 0.000000 0.000000 0.000000 0.034639 0.000000
# 6 0.000000 0.000000 0.000000 0.000000 0.000000 0.099520
#
#
# Mechanical properties :
#
#
# Convention : Reuss Voigt Hill
#
# Bulk Modulus (GPa) = 27.67431 51.82945 39.75188
# Shear Modulus (GPa) = 14.23000 19.61246 16.92123
#
# Velocity S-wave (km/s) = 3.12879 3.67317 3.41185
# Velocity P-wave (km/s) = 5.66486 7.32427 6.54735
#
# Compressibility (1/GPa) = 0.03613460
#
# Stress axis : x y z
#
# Youngs Moduli (GPa) = 35.72707 27.81547 93.90764
#
# Poissons Ratio (x) = 0.09206 0.73318
# Poissons Ratio (y) = 0.11824 0.76166
# Poissons Ratio (z) = 0.27894 0.22560
#
# Static dielectric constant tensor:
#      x y z
#    x 1.485520 0.000000 0.000000 
#    y 0.000000 1.448200 0.000000 
#    z 0.000000 0.000000 1.505130 
# 
# From -- ./inp_files/29663.got.cif
#   From: 2010.05.17/outbox.cif.g08.bks.cpg/sg59_15_cif.got.tgz:29663.got - 2010.06.03 14:40:33.
