data_PCOD9446998
_publ_section_title
;
Structure prediction by ZEFSAII (Michael W. Deem and Ramdas Pophale) SiO2 
 PCOD9446998
Probable space group: P M M N
;
_chemical_formula_sum "Si O2"
_cell_formula_units_Z 64
_cell_length_a 32.792966
_cell_length_b 7.592641
_cell_length_c 12.435029
_cell_angle_alpha 90.000000
_cell_angle_beta 90.000000
_cell_angle_gamma 90.000000
_cell_volume 3096.138408
_symmetry_space_group_name_H-M "P M M N"
_symmetry_group_IT_number 59
_space_group.IT_coordinate_system_code '2'
_symmetry_cell_setting 'orthorhombic'
loop_
_space_group_symop_operation_xyz
x,y,z
1/2-x,1/2-y,z
1/2+x,-y,-z
-x,1/2+y,-z
-x,-y,-z
1/2+x,1/2+y,-z
1/2-x,y,z
x,1/2-y,z
loop_
_atom_site_type_symbol
_atom_site_label
_atom_site_fract_x
_atom_site_fract_y
_atom_site_fract_z
Si Si1 0.451695 0.538748 0.990057
Si Si2 0.057344 0.965382 0.749330
Si Si3 0.203743 0.965238 0.994592
Si Si4 0.609407 0.541434 0.639340
Si Si5 0.704405 0.035227 0.253365
Si Si6 0.131345 0.961971 0.599147
Si Si7 0.874887 0.456893 0.877251
Si Si8 0.481824 0.461096 0.383157
O O1 0.450013 0.750000 0.992096
O O2 0.418623 0.472582 0.078051
O O3 0.500000 0.500000 0.000000
O O4 0.436628 0.478730 0.871974
O O5 0.057928 0.750000 0.748999
O O6 0.091252 0.024324 0.663789
O O7 0.013366 0.024674 0.706520
O O8 0.250000 0.021551 0.024550
O O9 0.204317 0.750000 0.998606
O O10 0.196418 0.015138 0.870160
O O11 0.165746 0.029349 0.065418
O O12 0.606708 0.750000 0.652554
O O13 0.630907 0.507581 0.525965
O O14 0.628299 0.472973 0.749292
O O15 0.563507 0.467076 0.628555
O O16 0.750000 0.979036 0.282271
O O17 0.703815 0.250000 0.254654
O O18 0.670441 0.973024 0.335724
O O19 0.130791 0.750000 0.605358
O O20 0.875233 0.250000 0.904090
O O21 0.500000 0.500000 0.500000
O O22 0.479819 0.250000 0.373396
#
# Coordination Sequence:
#
# PCOD9446998 Si02
#       8
#     8   8   8   8   8   8   8   8
#     4  10  20  34  51  74 105 137 171 208 253 309
#     4   9  17  30  50  73  96 124 159 202 249 295
#     4   8  14  28  53  84 110 129 162 217 271 312
#     4  11  23  36  50  71 103 140 173 213 258 301
#     4   8  14  26  49  82 110 127 153 204 263 308
#     4  10  18  31  53  76  99 130 167 205 248 302
#     4  10  20  34  54  78 103 138 179 217 258 311
#     4  10  19  32  49  69  95 129 167 206 248 291
#
# _framework density 20.670911
#
# number of rings (size 3 to 8) (size 9 to 14) (size 15 to 20)
#    0.000    2.500    1.250    2.625    0.000    5.000 
#    0.000    1.875    0.000    6.750    0.000    1.750 
#    0.000    0.000    0.000    0.000    0.000    0.000 
#
# Total GULP energy -357167.743373 kJ/mol
# GULP energy per Si atom -5580.745990 kJ/mol
# Density = 2.062386 g / cm^3
# Si number density = 20.670911 Si / 1000 Ang^3
#
#
#
# Elastic Constant Matrix: (Units=GPa)
#
#
# Indices 1 2 3 4 5 6 
#
# 1 159.7427 7.7403 90.2635 0.0000 0.0000 0.0000
# 2 7.7403 45.3385 -3.5438 0.0000 0.0000 0.0000
# 3 90.2635 -3.5438 132.2238 0.0000 0.0000 0.0000
# 4 0.0000 0.0000 0.0000 1.8479 0.0000 0.0000
# 5 0.0000 0.0000 0.0000 0.0000 38.0840 0.0000
# 6 0.0000 0.0000 0.0000 0.0000 0.0000 6.7543
#
#
#
# Elastic Compliance Matrix: (Units=1/GPa)
#
#
# Indices 1 2 3 4 5 6 
#
# 1 0.010434 -0.002343 -0.007186 0.000000 0.000000 0.000000
# 2 -0.002343 0.022629 0.002206 0.000000 0.000000 0.000000
# 3 -0.007186 0.002206 0.012527 0.000000 0.000000 0.000000
# 4 0.000000 0.000000 0.000000 0.541168 0.000000 0.000000
# 5 0.000000 0.000000 0.000000 0.000000 0.026258 0.000000
# 6 0.000000 0.000000 0.000000 0.000000 0.000000 0.148053
#
#
# Mechanical properties :
#
#
# Convention : Reuss Voigt Hill
#
# Bulk Modulus (GPa) = 32.31562 58.46944 45.39253
# Shear Modulus (GPa) = 6.36109 25.52690 15.94400
#
# Velocity S-wave (km/s) = 1.75613 3.51795 2.78029
# Velocity P-wave (km/s) = 4.44739 6.69691 5.68454
#
# Compressibility (1/GPa) = 0.03094479
#
# Stress axis : x y z
#
# Youngs Moduli (GPa) = 95.84232 44.19158 79.82569
#
# Poissons Ratio (x) = 0.10354 0.57359
# Poissons Ratio (y) = 0.22455 -0.17609
# Poissons Ratio (z) = 0.68868 -0.09748
#
# Static dielectric constant tensor:
#      x y z
#    x 1.750070 0.000000 0.000000 
#    y 0.000000 1.784640 0.000000 
#    z 0.000000 0.000000 1.717750 
# 
# From -- ./inp_files/19286.got.cif
#   From: 2010.05.17/outbox.cif.g08.bks.cpg/sg59_10_cif.got.tgz:19286.got - 2010.06.03 14:40:33.
