data_PCOD9446402
_publ_section_title
;
Structure prediction by ZEFSAII (Michael W. Deem and Ramdas Pophale) SiO2 
 PCOD9446402
Probable space group: P M M N
;
_chemical_formula_sum "Si O2"
_cell_formula_units_Z 64
_cell_length_a 9.008122
_cell_length_b 27.212457
_cell_length_c 17.643175
_cell_angle_alpha 90.000000
_cell_angle_beta 90.000000
_cell_angle_gamma 90.000000
_cell_volume 4324.926756
_symmetry_space_group_name_H-M "P M M N"
_symmetry_group_IT_number 59
_space_group.IT_coordinate_system_code '2'
_symmetry_cell_setting 'orthorhombic'
loop_
_space_group_symop_operation_xyz
x,y,z
1/2-x,1/2-y,z
1/2+x,-y,-z
-x,1/2+y,-z
-x,-y,-z
1/2+x,1/2+y,-z
1/2-x,y,z
x,1/2-y,z
loop_
_atom_site_type_symbol
_atom_site_label
_atom_site_fract_x
_atom_site_fract_y
_atom_site_fract_z
Si Si1 0.927849 0.947197 0.517892
Si Si2 0.570706 0.562839 0.828992
Si Si3 0.070736 0.193629 0.906123
Si Si4 0.427147 0.425851 0.648260
Si Si5 0.922098 0.371398 0.782831
Si Si6 0.427980 0.958530 0.671248
Si Si7 0.428208 0.109462 0.020966
Si Si8 0.421999 0.959414 0.095594
O O1 0.750000 0.951717 0.525163
O O2 0.958737 0.917154 0.440871
O O3 0.999683 0.932858 0.597697
O O4 0.000000 0.000000 0.500000
O O5 0.750000 0.563413 0.818081
O O6 0.490434 0.563853 0.748662
O O7 0.528027 0.603705 0.891353
O O8 0.531240 0.511029 0.869091
O O9 0.250000 0.191745 0.903235
O O10 0.025391 0.250000 0.916946
O O11 0.007117 0.170936 0.828644
O O12 0.021510 0.157720 0.974885
O O13 0.250000 0.422423 0.659403
O O14 0.507575 0.388510 0.704039
O O15 0.468523 0.482864 0.667638
O O16 0.750000 0.358482 0.773788
O O17 0.931515 0.419040 0.837744
O O18 0.250000 0.955748 0.667311
O O19 0.250000 0.108682 0.019384
O O20 0.484726 0.062627 0.973261
O O21 0.250000 0.963686 0.072013
#
# Coordination Sequence:
#
# PCOD9446402 Si02
#       8
#     8   8   8   8   8   8   8   8
#     4   9  17  28  41  58  82 114 150 183 212 244
#     4  10  18  28  40  57  84 113 144 180 216 255
#     4   9  18  33  49  63  84 112 141 178 222 264
#     4   9  17  28  41  59  83 112 146 177 207 249
#     4  10  18  27  43  65  86 110 142 178 214 256
#     4  10  19  28  40  59  83 117 153 181 213 250
#     4   9  18  29  43  61  79 107 144 178 215 260
#     4   9  17  27  38  56  82 111 139 172 215 253
#
# _framework density 14.797939
#
# number of rings (size 3 to 8) (size 9 to 14) (size 15 to 20)
#    0.000    2.625    1.250    2.250    0.000    4.250 
#    0.000    0.000    0.000    0.000    0.000    0.000 
#    0.000    1.000    0.000    7.750    0.000    1.875 
#
# Total GULP energy -356467.703955 kJ/mol
# GULP energy per Si atom -5569.807874 kJ/mol
# Density = 1.476426 g / cm^3
# Si number density = 14.797939 Si / 1000 Ang^3
#
#
#
# Elastic Constant Matrix: (Units=GPa)
#
#
# Indices 1 2 3 4 5 6 
#
# 1 30.3482 20.9721 48.1494 0.0000 0.0000 0.0000
# 2 20.9721 48.4066 39.4477 0.0000 0.0000 0.0000
# 3 48.1494 39.4477 146.6673 0.0000 0.0000 0.0000
# 4 0.0000 0.0000 0.0000 11.7410 0.0000 0.0000
# 5 0.0000 0.0000 0.0000 0.0000 24.8381 0.0000
# 6 0.0000 0.0000 0.0000 0.0000 0.0000 12.1608
#
#
#
# Elastic Compliance Matrix: (Units=1/GPa)
#
#
# Indices 1 2 3 4 5 6 
#
# 1 0.077889 -0.016531 -0.021124 0.000000 0.000000 0.000000
# 2 -0.016531 0.029966 -0.002633 0.000000 0.000000 0.000000
# 3 -0.021124 -0.002633 0.014461 0.000000 0.000000 0.000000
# 4 0.000000 0.000000 0.000000 0.085172 0.000000 0.000000
# 5 0.000000 0.000000 0.000000 0.000000 0.040261 0.000000
# 6 0.000000 0.000000 0.000000 0.000000 0.000000 0.082231
#
#
# Mechanical properties :
#
#
# Convention : Reuss Voigt Hill
#
# Bulk Modulus (GPa) = 23.95737 49.17339 36.56538
# Shear Modulus (GPa) = 11.77942 17.53818 14.65880
#
# Velocity S-wave (km/s) = 2.82444 3.44637 3.15079
# Velocity P-wave (km/s) = 5.18280 7.00990 6.16442
#
# Compressibility (1/GPa) = 0.04174081
#
# Stress axis : x y z
#
# Youngs Moduli (GPa) = 12.83870 33.37144 69.15104
#
# Poissons Ratio (x) = 0.55166 1.46076
# Poissons Ratio (y) = 0.21224 0.18205
# Poissons Ratio (z) = 0.27121 0.08786
#
# Static dielectric constant tensor:
#      x y z
#    x 1.493700 0.000000 0.000000 
#    y 0.000000 1.469770 0.000000 
#    z 0.000000 0.000000 1.517310 
# 
# From -- ./inp_files/26669.got.cif
#   From: 2010.05.17/outbox.cif.g08.bks.cpg/sg59_14_cif.got.tgz:26669.got - 2010.06.03 14:40:33.
