data_PCOD9446959
_publ_section_title
;
Structure prediction by ZEFSAII (Michael W. Deem and Ramdas Pophale) SiO2 
 PCOD9446959
Probable space group: P M M N
;
_chemical_formula_sum "Si O2"
_cell_formula_units_Z 64
_cell_length_a 7.533970
_cell_length_b 18.667636
_cell_length_c 20.661564
_cell_angle_alpha 90.000000
_cell_angle_beta 90.000000
_cell_angle_gamma 90.000000
_cell_volume 2905.871485
_symmetry_space_group_name_H-M "P M M N"
_symmetry_group_IT_number 59
_space_group.IT_coordinate_system_code '2'
_symmetry_cell_setting 'orthorhombic'
loop_
_space_group_symop_operation_xyz
x,y,z
1/2-x,1/2-y,z
1/2+x,-y,-z
-x,1/2+y,-z
-x,-y,-z
1/2+x,1/2+y,-z
1/2-x,y,z
x,1/2-y,z
loop_
_atom_site_type_symbol
_atom_site_label
_atom_site_fract_x
_atom_site_fract_y
_atom_site_fract_z
Si Si1 0.464905 0.592980 0.550608
Si Si2 0.531917 0.668253 0.898321
Si Si3 0.538638 0.171409 0.856007
Si Si4 0.031387 0.587540 0.265423
Si Si5 0.534933 0.329503 0.323858
Si Si6 0.458698 0.930514 0.410031
Si Si7 0.046839 0.436994 0.212550
Si Si8 0.459240 0.418612 0.979363
O O1 0.250000 0.591008 0.547889
O O2 0.516215 0.652263 0.602656
O O3 0.522584 0.516003 0.579014
O O4 0.531947 0.601592 0.477245
O O5 0.750000 0.669109 0.896384
O O6 0.474926 0.750000 0.887122
O O7 0.468906 0.611832 0.844261
O O8 0.470643 0.637131 0.967102
O O9 0.750000 0.176914 0.851302
O O10 0.469060 0.250000 0.876180
O O11 0.475677 0.148680 0.784656
O O12 0.508754 0.108888 0.908329
O O13 0.250000 0.585610 0.267653
O O14 0.969367 0.591039 0.339772
O O15 0.969334 0.512964 0.233077
O O16 0.750000 0.333638 0.319728
O O17 0.479415 0.250000 0.304833
O O18 0.457444 0.387977 0.276069
O O19 0.250000 0.913024 0.408469
O O20 0.250000 0.451880 0.192791
O O21 0.250000 0.412818 0.982450
O O22 0.500000 0.500000 0.000000
#
# Coordination Sequence:
#
# PCOD9446959 Si02
#       8
#     8   8   8   8   8   8   8   8
#     4   9  17  29  46  69  97 130 169 213 263 315
#     4   9  18  32  51  75 102 133 168 208 255 304
#     4  10  21  38  59  83 113 146 179 221 276 332
#     4   9  17  31  52  78 105 134 172 219 264 307
#     4  10  20  32  44  65 103 140 166 204 262 318
#     4   9  16  29  50  72  95 127 170 218 261 306
#     4  10  18  31  52  74  96 128 172 214 247 296
#     4  11  22  38  60  83 109 141 180 226 271 322
#
# _framework density 22.024374000000002
#
# number of rings (size 3 to 8) (size 9 to 14) (size 15 to 20)
#    0.000    2.375    1.250    1.875    0.000    3.500 
#    0.000    4.375    0.000    6.750    0.000    0.000 
#    0.000    3.000    0.000    0.000    0.000    0.000 
#
# Total GULP energy -357193.686222 kJ/mol
# GULP energy per Si atom -5581.151347 kJ/mol
# Density = 2.197425 g / cm^3
# Si number density = 22.024374 Si / 1000 Ang^3
#
#
#
# Elastic Constant Matrix: (Units=GPa)
#
#
# Indices 1 2 3 4 5 6 
#
# 1 54.4317 -1.8548 2.8033 0.0000 0.0000 0.0000
# 2 -1.8548 59.6208 21.7967 0.0000 0.0000 0.0000
# 3 2.8033 21.7967 146.6890 0.0000 0.0000 0.0000
# 4 0.0000 0.0000 0.0000 -15.1283 0.0000 0.0000
# 5 0.0000 0.0000 0.0000 0.0000 13.2468 0.0000
# 6 0.0000 0.0000 0.0000 0.0000 0.0000 1.6894
#
#
#
# Elastic Compliance Matrix: (Units=1/GPa)
#
#
# Indices 1 2 3 4 5 6 
#
# 1 0.018421 0.000742 -0.000462 0.000000 0.000000 0.000000
# 2 0.000742 0.017766 -0.002654 0.000000 0.000000 0.000000
# 3 -0.000462 -0.002654 0.007220 0.000000 0.000000 0.000000
# 4 0.000000 0.000000 0.000000 -0.066101 0.000000 0.000000
# 5 0.000000 0.000000 0.000000 0.000000 0.075490 0.000000
# 6 0.000000 0.000000 0.000000 0.000000 0.000000 0.591935
#
#
# Mechanical properties :
#
#
# Convention : Reuss Voigt Hill
#
# Bulk Modulus (GPa) = 25.86749 34.02579 29.94664
# Shear Modulus (GPa) = 7.54870 15.82800 11.68835
#
# Velocity S-wave (km/s) = 1.85334 2.68369 2.30619
# Velocity P-wave (km/s) = 4.04355 5.00855 4.55170
#
# Compressibility (1/GPa) = 0.03865856
#
# Stress axis : x y z
#
# Youngs Moduli (GPa) = 54.28662 56.28716 138.49748
#
# Poissons Ratio (x) = -0.04177 0.06403
# Poissons Ratio (y) = -0.04028 0.36758
# Poissons Ratio (z) = 0.02510 0.14939
#
# Static dielectric constant tensor:
#      x y z
#    x 1.877650 0.000000 0.000000 
#    y 0.000000 1.765950 0.000000 
#    z 0.000000 0.000000 1.826080 
# 
# From -- ./inp_files/29520.got.cif
#   From: 2010.05.17/outbox.cif.g08.bks.cpg/sg59_15_cif.got.tgz:29520.got - 2010.06.03 14:40:33.
