data_PCOD9446274
_publ_section_title
;
Structure prediction by ZEFSAII (Michael W. Deem and Ramdas Pophale) SiO2 
 PCOD9446274
Probable space group: P M M N
;
_chemical_formula_sum "Si O2"
_cell_formula_units_Z 48
_cell_length_a 14.186260
_cell_length_b 17.958274
_cell_length_c 12.035178
_cell_angle_alpha 90.000000
_cell_angle_beta 90.000000
_cell_angle_gamma 90.000000
_cell_volume 3066.090903
_symmetry_space_group_name_H-M "P M M N"
_symmetry_group_IT_number 59
_space_group.IT_coordinate_system_code '2'
_symmetry_cell_setting 'orthorhombic'
loop_
_space_group_symop_operation_xyz
x,y,z
1/2-x,1/2-y,z
1/2+x,-y,-z
-x,1/2+y,-z
-x,-y,-z
1/2+x,1/2+y,-z
1/2-x,y,z
x,1/2-y,z
loop_
_atom_site_type_symbol
_atom_site_label
_atom_site_fract_x
_atom_site_fract_y
_atom_site_fract_z
Si Si1 0.641314 0.466796 0.807506
Si Si2 0.363928 0.250000 0.694689
Si Si3 0.363544 0.250000 0.439298
Si Si4 0.139288 0.523151 0.927438
Si Si5 0.861197 0.631792 0.743053
Si Si6 0.462670 0.378738 0.832499
Si Si7 0.016316 0.668073 0.921946
O O1 0.750000 0.441950 0.795746
O O2 0.627706 0.542675 0.738799
O O3 0.562478 0.405778 0.781974
O O4 0.627293 0.487343 0.938780
O O5 0.250000 0.250000 0.700898
O O6 0.395605 0.250000 0.565964
O O7 0.405197 0.322648 0.755873
O O8 0.250000 0.250000 0.444692
O O9 0.389507 0.322573 0.366699
O O10 0.250000 0.528016 0.905372
O O11 0.094246 0.453737 0.863523
O O12 0.086212 0.599604 0.898402
O O13 0.750000 0.646122 0.764752
O O14 0.925570 0.659776 0.843560
O O15 0.485186 0.340152 0.950285
O O16 0.058683 0.750000 0.904722
#
# Coordination Sequence:
#
# PCOD9446274 Si02
#       7
#     8   4   4   8   8   8   8
#     4   9  17  30  51  77 103 131 163 205 250 294
#     4  11  24  37  50  70 101 137 169 207 253 305
#     4   9  20  35  49  72 101 129 164 213 260 297
#     4  10  19  31  48  73 110 145 166 195 244 303
#     4  10  17  29  52  75  99 126 161 210 257 293
#     4  11  19  34  50  76 108 133 169 201 248 309
#     4  11  19  30  49  79 106 129 167 207 249 301
#
# _framework density 15.655113
#
# number of rings (size 3 to 8) (size 9 to 14) (size 15 to 20)
#    0.000    1.833    5.000    1.500    0.000    1.000 
#    0.000    1.250    0.000    0.000    0.000    1.167 
#    0.000    0.000    0.000    0.000    0.000    0.000 
#
# Total GULP energy -267578.318092 kJ/mol
# GULP energy per Si atom -5574.548294 kJ/mol
# Density = 1.561948 g / cm^3
# Si number density = 15.655113 Si / 1000 Ang^3
#
#
#
# Elastic Constant Matrix: (Units=GPa)
#
#
# Indices 1 2 3 4 5 6 
#
# 1 91.3477 61.5106 39.5102 0.0000 0.0000 0.0000
# 2 61.5106 129.3632 45.1186 0.0000 0.0000 0.0000
# 3 39.5102 45.1186 58.0313 0.0000 0.0000 0.0000
# 4 0.0000 0.0000 0.0000 7.4890 0.0000 0.0000
# 5 0.0000 0.0000 0.0000 0.0000 13.3565 0.0000
# 6 0.0000 0.0000 0.0000 0.0000 0.0000 24.9125
#
#
#
# Elastic Compliance Matrix: (Units=1/GPa)
#
#
# Indices 1 2 3 4 5 6 
#
# 1 0.018385 -0.006004 -0.007849 0.000000 0.000000 0.000000
# 2 -0.006004 0.012567 -0.005683 0.000000 0.000000 0.000000
# 3 -0.007849 -0.005683 0.026994 0.000000 0.000000 0.000000
# 4 0.000000 0.000000 0.000000 0.133528 0.000000 0.000000
# 5 0.000000 0.000000 0.000000 0.000000 0.074870 0.000000
# 6 0.000000 0.000000 0.000000 0.000000 0.000000 0.040141
#
#
# Mechanical properties :
#
#
# Convention : Reuss Voigt Hill
#
# Bulk Modulus (GPa) = 52.98230 63.44678 58.21454
# Shear Modulus (GPa) = 14.21060 17.99179 16.10120
#
# Velocity S-wave (km/s) = 3.01612 3.39375 3.21049
# Velocity P-wave (km/s) = 6.78574 7.48148 7.14209
#
# Compressibility (1/GPa) = 0.01887423
#
# Stress axis : x y z
#
# Youngs Moduli (GPa) = 54.39124 79.57226 37.04467
#
# Poissons Ratio (x) = 0.47778 0.29077
# Poissons Ratio (y) = 0.32659 0.21052
# Poissons Ratio (z) = 0.42693 0.45219
#
# Static dielectric constant tensor:
#      x y z
#    x 1.525240 0.000000 0.000000 
#    y 0.000000 1.540870 0.000000 
#    z 0.000000 0.000000 1.500290 
# 
# From -- ./inp_files/9061.got.cif
#   From: 2010.05.17/outbox.cif.g08.bks.cpg/sg59_5_cif.got.tgz:9061.got - 2010.06.03 14:40:33.
