data_PCOD9446592
_publ_section_title
;
Structure prediction by ZEFSAII (Michael W. Deem and Ramdas Pophale) SiO2 
 PCOD9446592
Probable space group: P M M N
;
_chemical_formula_sum "Si O2"
_cell_formula_units_Z 48
_cell_length_a 17.038187
_cell_length_b 14.659503
_cell_length_c 9.667053
_cell_angle_alpha 90.000000
_cell_angle_beta 90.000000
_cell_angle_gamma 90.000000
_cell_volume 2414.552912
_symmetry_space_group_name_H-M "P M M N"
_symmetry_group_IT_number 59
_space_group.IT_coordinate_system_code '2'
_symmetry_cell_setting 'orthorhombic'
loop_
_space_group_symop_operation_xyz
x,y,z
1/2-x,1/2-y,z
1/2+x,-y,-z
-x,1/2+y,-z
-x,-y,-z
1/2+x,1/2+y,-z
1/2-x,y,z
x,1/2-y,z
loop_
_atom_site_type_symbol
_atom_site_label
_atom_site_fract_x
_atom_site_fract_y
_atom_site_fract_z
Si Si1 0.160703 0.860514 0.222360
Si Si2 0.488928 0.359633 0.282161
Si Si3 0.836777 0.861706 0.889483
Si Si4 0.947610 0.409506 0.009629
Si Si5 0.987683 0.361963 0.593975
Si Si6 0.912242 0.850851 0.160717
O O1 0.250000 0.885487 0.255819
O O2 0.158010 0.750000 0.206993
O O3 0.095887 0.885965 0.337684
O O4 0.130882 0.904934 0.078953
O O5 0.486192 0.250000 0.288627
O O6 0.406417 0.390441 0.213272
O O7 0.555248 0.385219 0.170318
O O8 0.501838 0.393306 0.437126
O O9 0.750000 0.888521 0.844719
O O10 0.839721 0.750000 0.894347
O O11 0.853984 0.892983 0.047534
O O12 0.000000 0.500000 0.000000
O O13 0.007295 0.342432 0.928494
O O14 0.991615 0.250000 0.595749
O O15 0.056846 0.394886 0.697800
O O16 0.881558 0.750000 0.194910
#
# Coordination Sequence:
#
# PCOD9446592 Si02
#       6
#     8   8   8   8   8   8
#     4   9  17  32  53  73  95 126 165 207 248 293
#     4   9  16  28  46  67  93 123 154 195 245 295
#     4   8  13  22  38  60  84 112 147 183 218 260
#     4  10  18  29  45  69  94 123 160 195 236 292
#     4   8  14  26  46  69  89 113 150 194 242 294
#     4   8  14  27  44  59  81 116 153 186 225 283
#
# _framework density 19.879456000000001
#
# number of rings (size 3 to 8) (size 9 to 14) (size 15 to 20)
#    0.000    3.333    0.000    3.500    0.000    0.000 
#    0.000    8.333    0.000    8.000    0.000    4.667 
#    0.000    0.000    0.000    0.000    0.000    0.000 
#
# Total GULP energy -267269.050970 kJ/mol
# GULP energy per Si atom -5568.105229 kJ/mol
# Density = 1.983421 g / cm^3
# Si number density = 19.879456 Si / 1000 Ang^3
#
#
#
# Elastic Constant Matrix: (Units=GPa)
#
#
# Indices 1 2 3 4 5 6 
#
# 1 104.2539 5.6324 63.6633 0.0000 0.0000 0.0000
# 2 5.6324 45.9906 17.4636 0.0000 0.0000 0.0000
# 3 63.6633 17.4636 196.6691 0.0000 0.0000 0.0000
# 4 0.0000 0.0000 0.0000 15.1357 0.0000 0.0000
# 5 0.0000 0.0000 0.0000 0.0000 20.3962 0.0000
# 6 0.0000 0.0000 0.0000 0.0000 0.0000 9.7216
#
#
#
# Elastic Compliance Matrix: (Units=1/GPa)
#
#
# Indices 1 2 3 4 5 6 
#
# 1 0.011955 0.000006 -0.003870 0.000000 0.000000 0.000000
# 2 0.000006 0.022502 -0.002000 0.000000 0.000000 0.000000
# 3 -0.003870 -0.002000 0.006515 0.000000 0.000000 0.000000
# 4 0.000000 0.000000 0.000000 0.066069 0.000000 0.000000
# 5 0.000000 0.000000 0.000000 0.000000 0.049029 0.000000
# 6 0.000000 0.000000 0.000000 0.000000 0.000000 0.102864
#
#
# Mechanical properties :
#
#
# Convention : Reuss Voigt Hill
#
# Bulk Modulus (GPa) = 34.19625 57.82579 46.01102
# Shear Modulus (GPa) = 17.83092 26.39431 22.11262
#
# Velocity S-wave (km/s) = 2.99817 3.64774 3.33879
# Velocity P-wave (km/s) = 5.40597 6.84782 6.16916
#
# Compressibility (1/GPa) = 0.02924297
#
# Stress axis : x y z
#
# Youngs Moduli (GPa) = 83.64561 44.43991 153.48776
#
# Poissons Ratio (x) = -0.00025 0.59407
# Poissons Ratio (y) = -0.00047 0.30697
# Poissons Ratio (z) = 0.32375 0.08888
#
# Static dielectric constant tensor:
#      x y z
#    x 1.708630 0.000000 0.000000 
#    y 0.000000 1.801670 0.000000 
#    z 0.000000 0.000000 1.722980 
# 
# From -- ./inp_files/10406.got.cif
#   From: 2010.05.17/outbox.cif.g08.bks.cpg/sg59_6_cif.got.tgz:10406.got - 2010.06.03 14:40:33.
