data_PCOD9446130
_publ_section_title
;
Structure prediction by ZEFSAII (Michael W. Deem and Ramdas Pophale) SiO2 
 PCOD9446130
Probable space group: P M M N
;
_chemical_formula_sum "Si O2"
_cell_formula_units_Z 64
_cell_length_a 34.476946
_cell_length_b 15.441560
_cell_length_c 5.548740
_cell_angle_alpha 90.000000
_cell_angle_beta 90.000000
_cell_angle_gamma 90.000000
_cell_volume 2954.026162
_symmetry_space_group_name_H-M "P M M N"
_symmetry_group_IT_number 59
_space_group.IT_coordinate_system_code '2'
_symmetry_cell_setting 'orthorhombic'
loop_
_space_group_symop_operation_xyz
x,y,z
1/2-x,1/2-y,z
1/2+x,-y,-z
-x,1/2+y,-z
-x,-y,-z
1/2+x,1/2+y,-z
1/2-x,y,z
x,1/2-y,z
loop_
_atom_site_type_symbol
_atom_site_label
_atom_site_fract_x
_atom_site_fract_y
_atom_site_fract_z
Si Si1 0.378803 0.906386 0.500000
Si Si2 0.417694 0.153596 0.500000
Si Si3 0.296524 0.352321 0.000000
Si Si4 0.470022 0.621981 0.000000
Si Si5 0.616582 0.377816 1.000000
Si Si6 0.573696 0.551763 1.000000
Si Si7 0.475977 0.910108 0.500000
Si Si8 0.835161 0.909544 0.500000
O O1 0.366819 0.857888 0.742214
O O2 0.356602 0.997384 0.500000
O O3 0.427416 0.918526 0.500000
O O4 0.366819 0.857888 0.257787
O O5 0.433649 0.250000 0.500000
O O6 0.426927 0.104861 0.752651
O O7 0.371079 0.156017 0.500000
O O8 0.426927 0.104861 0.247349
O O9 0.250000 0.357897 0.000000
O O10 0.307433 0.250000 0.000000
O O11 0.312131 0.394234 0.750174
O O12 0.312131 0.394234 0.249826
O O13 0.426809 0.658705 0.000000
O O14 0.487295 0.639953 0.742103
O O15 0.539139 0.481849 1.000000
O O16 0.487295 0.639953 0.257897
O O17 0.609732 0.483569 1.000000
O O18 0.500000 0.000000 0.500000
#
# Coordination Sequence:
#
# PCOD9446130 Si02
#       8
#     8   8   8   8   8   8   8   8
#     4  10  16  27  39  55  65  87 107 122 142 186
#     4  12  20  25  37  57  68  78 101 132 164 192
#     4  11  24  37  45  55  68  82 103 138 182 217
#     4   8  15  24  35  43  58  91 109 116 142 174
#     4   8  13  24  37  43  64  80 104 118 140 164
#     4  10  16  29  35  45  69  87 103 127 148 184
#     4  10  16  24  35  54  74  87 102 126 146 168
#     4  12  19  33  45  54  66  85 105 127 156 207
#
# _framework density 21.665348000000002
#
# number of rings (size 3 to 8) (size 9 to 14) (size 15 to 20)
#    0.750    1.125    2.500    4.500    0.000    1.000 
#    0.000    0.000    0.000    0.000    0.000    0.000 
#    0.000    0.000    0.000    0.000    0.000    0.000 
#
# Total GULP energy -356639.735367 kJ/mol
# GULP energy per Si atom -5572.495865 kJ/mol
# Density = 2.161604 g / cm^3
# Si number density = 21.665348 Si / 1000 Ang^3
#
#
#
# Elastic Constant Matrix: (Units=GPa)
#
#
# Indices 1 2 3 4 5 6 
#
# 1 78.8721 14.4177 34.5193 0.0000 0.0000 0.0000
# 2 14.4177 92.9861 48.5644 0.0000 0.0000 0.0000
# 3 34.5193 48.5644 274.3757 0.0000 0.0000 0.0000
# 4 0.0000 0.0000 0.0000 -140.2850 0.0000 0.0000
# 5 0.0000 0.0000 0.0000 0.0000 10.8772 0.0000
# 6 0.0000 0.0000 0.0000 0.0000 0.0000 -19.6294
#
#
#
# Elastic Compliance Matrix: (Units=1/GPa)
#
#
# Indices 1 2 3 4 5 6 
#
# 1 0.013566 -0.001336 -0.001470 0.000000 0.000000 0.000000
# 2 -0.001336 0.011981 -0.001953 0.000000 0.000000 0.000000
# 3 -0.001470 -0.001953 0.004175 0.000000 0.000000 0.000000
# 4 0.000000 0.000000 0.000000 -0.007128 0.000000 0.000000
# 5 0.000000 0.000000 0.000000 0.000000 0.091935 0.000000
# 6 0.000000 0.000000 0.000000 0.000000 0.000000 -0.050944
#
#
# Mechanical properties :
#
#
# Convention : Reuss Voigt Hill
#
# Bulk Modulus (GPa) = 49.49105 71.24852 60.36979
# Shear Modulus (GPa) = 62.62657 -6.55860 28.03398
#
# Velocity S-wave (km/s) = 5.38229 -1.74178 3.60106
# Velocity P-wave (km/s) = 7.84337 5.37701 6.72424
#
# Compressibility (1/GPa) = 0.02020567
#
# Stress axis : x y z
#
# Youngs Moduli (GPa) = 73.71134 83.46417 239.50682
#
# Poissons Ratio (x) = 0.11147 0.35217
# Poissons Ratio (y) = 0.09845 0.46767
# Poissons Ratio (z) = 0.10839 0.16298
#
# Static dielectric constant tensor:
#      x y z
#    x 1.789660 0.000000 0.000000 
#    y 0.000000 1.813860 0.000000 
#    z 0.000000 0.000000 1.919640 
# 
# From -- ./inp_files/4342.got.cif
#   From: 2010.05.17/outbox.cif.g08.bks.cpg/sg59_3_cif.got.tgz:4342.got - 2010.06.03 14:40:33.
