data_PCOD9446053
_publ_section_title
;
Structure prediction by ZEFSAII (Michael W. Deem and Ramdas Pophale) SiO2 
 PCOD9446053
Probable space group: P N N M
;
_chemical_formula_sum "Si O2"
_cell_formula_units_Z 64
_cell_length_a 15.000000
_cell_length_b 9.000000
_cell_length_c 24.000000
_cell_angle_alpha 90.000000
_cell_angle_beta 90.000000
_cell_angle_gamma 90.000000
_cell_volume 3240.000000
_symmetry_space_group_name_H-M "P N N M"
_symmetry_group_IT_number 58
_symmetry_cell_setting 'orthorhombic'
loop_
_space_group_symop_operation_xyz
x,y,z
-x,-y,z
1/2+x,1/2-y,1/2-z
1/2-x,1/2+y,1/2-z
-x,-y,-z
x,y,-z
1/2-x,1/2+y,1/2+z
1/2+x,1/2-y,1/2+z
loop_
_atom_site_type_symbol
_atom_site_label
_atom_site_fract_x
_atom_site_fract_y
_atom_site_fract_z
Si Si1 0.372594 0.750349 0.254205
Si Si2 0.690545 0.051863 0.435742
Si Si3 0.794832 0.985853 0.934881
Si Si4 0.030510 0.671411 0.328530
Si Si5 0.639905 0.744369 0.065662
Si Si6 0.936378 0.772717 0.879059
Si Si7 0.816859 0.402495 0.759631
Si Si8 0.145527 0.736559 0.119723
O O1 0.447952 0.751628 0.205204
O O2 0.418878 0.709925 0.313135
O O3 0.286684 0.643381 0.247771
O O4 0.334907 0.920071 0.258527
O O5 0.675819 0.095401 0.500000
O O6 0.788915 0.112906 0.421034
O O7 0.612789 0.121835 0.398018
O O8 0.681214 0.879193 0.425623
O O9 0.795284 0.118687 0.890876
O O10 0.705370 0.887896 0.930237
O O11 0.880346 0.889836 0.915547
O O12 0.804456 0.029271 0.000000
O O13 0.063428 0.740886 0.387469
O O14 0.117293 0.665246 0.287666
O O15 0.000000 0.500000 0.337733
O O16 0.611760 0.731343 0.000000
O O17 0.041334 0.771880 0.890030
O O18 0.844539 0.334241 0.819311
#
# Coordination Sequence:
#
# PCOD9446053 Si02
#       8
#     8   8   8   8   8   8   8   8
#     4  11  24  43  64  93 125 167 215 262 321 385
#     4  10  21  36  62  90 122 168 210 254 318 384
#     4  10  23  39  60  91 129 173 216 262 321 380
#     4  10  22  40  67  95 124 161 217 257 314 386
#     4   9  20  42  67  93 124 164 213 264 316 376
#     4  11  21  39  58  86 129 166 214 264 314 381
#     4  11  24  40  64  91 128 168 205 269 322 375
#     4  12  23  35  59  89 131 164 209 266 322 378
#
# _framework density 19.753086
#
# number of rings (size 3 to 8) (size 9 to 14) (size 15 to 20)
#    0.000    1.500    2.500    3.750    5.250    3.250 
#    0.000    0.625    0.000    0.000    0.000    1.750 
#    0.000    0.000    0.000    0.000    0.000    0.000 
#
# Total GULP energy -357454.352407 kJ/mol
# GULP energy per Si atom -5585.224256 kJ/mol
# Density = 1.970813 g / cm^3
# Si number density = 19.753086 Si / 1000 Ang^3
#
#
#
# Elastic Constant Matrix: (Units=GPa)
#
#
# Indices 1 2 3 4 5 6 
#
# 1 101.8342 7.1997 42.3189 0.0000 0.0000 0.0000
# 2 7.1997 35.4492 3.6463 0.0000 0.0000 0.0000
# 3 42.3189 3.6463 108.7730 0.0000 0.0000 0.0000
# 4 0.0000 0.0000 0.0000 19.4997 0.0000 0.0000
# 5 0.0000 0.0000 0.0000 0.0000 36.0278 0.0000
# 6 0.0000 0.0000 0.0000 0.0000 0.0000 11.7220
#
#
#
# Elastic Compliance Matrix: (Units=1/GPa)
#
#
# Indices 1 2 3 4 5 6 
#
# 1 0.011845 -0.001938 -0.004543 0.000000 0.000000 0.000000
# 2 -0.001938 0.028624 -0.000205 0.000000 0.000000 0.000000
# 3 -0.004543 -0.000205 0.010968 0.000000 0.000000 0.000000
# 4 0.000000 0.000000 0.000000 0.051283 0.000000 0.000000
# 5 0.000000 0.000000 0.000000 0.000000 0.027756 0.000000
# 6 0.000000 0.000000 0.000000 0.000000 0.000000 0.085309
#
#
# Mechanical properties :
#
#
# Convention : Reuss Voigt Hill
#
# Bulk Modulus (GPa) = 26.27238 39.15403 32.71320
# Shear Modulus (GPa) = 20.67417 26.30934 23.49175
#
# Velocity S-wave (km/s) = 3.23868 3.65349 3.45232
# Velocity P-wave (km/s) = 5.22634 6.13695 5.69986
#
# Compressibility (1/GPa) = 0.03806279
#
# Stress axis : x y z
#
# Youngs Moduli (GPa) = 84.42371 34.93552 91.17445
#
# Poissons Ratio (x) = 0.06772 0.41424
# Poissons Ratio (y) = 0.16365 0.01873
# Poissons Ratio (z) = 0.38357 0.00718
#
# Static dielectric constant tensor:
#      x y z
#    x 1.657350 0.000000 0.000000 
#    y 0.000000 1.754820 0.000000 
#    z 0.000000 0.000000 1.687510 
# 
# From -- ./inp_files/32214.got.cif
#   From: 2010.05.17/outbox.ucp.g08.bks.cvg/sg58_17_cif.got.tgz:32214.got - 2010.06.11 16:41:41.
