data_PCOD9446767
_publ_section_title
;
Structure prediction by ZEFSAII (Michael W. Deem and Ramdas Pophale) SiO2 
 PCOD9446767
Probable space group: P M M N
;
_chemical_formula_sum "Si O2"
_cell_formula_units_Z 64
_cell_length_a 8.598281
_cell_length_b 22.330546
_cell_length_c 19.547954
_cell_angle_alpha 90.000000
_cell_angle_beta 90.000000
_cell_angle_gamma 90.000000
_cell_volume 3753.291408
_symmetry_space_group_name_H-M "P M M N"
_symmetry_group_IT_number 59
_space_group.IT_coordinate_system_code '2'
_symmetry_cell_setting 'orthorhombic'
loop_
_space_group_symop_operation_xyz
x,y,z
1/2-x,1/2-y,z
1/2+x,-y,-z
-x,1/2+y,-z
-x,-y,-z
1/2+x,1/2+y,-z
1/2-x,y,z
x,1/2-y,z
loop_
_atom_site_type_symbol
_atom_site_label
_atom_site_fract_x
_atom_site_fract_y
_atom_site_fract_z
Si Si1 0.064821 0.613500 0.409181
Si Si2 0.564410 0.559786 0.537407
Si Si3 0.437129 0.494017 0.182911
Si Si4 0.567632 0.370255 0.841988
Si Si5 0.061777 0.058212 0.041184
Si Si6 0.435850 0.316918 0.974409
Si Si7 0.926562 0.819938 0.291751
Si Si8 0.935075 0.494182 0.334724
O O1 0.250000 0.613573 0.412702
O O2 0.993903 0.609973 0.485019
O O3 0.996771 0.667782 0.365850
O O4 0.011071 0.555168 0.364873
O O5 0.500000 0.500000 0.500000
O O6 0.750000 0.557589 0.539870
O O7 0.495311 0.557172 0.613450
O O8 0.250000 0.493181 0.192807
O O9 0.478341 0.560154 0.154711
O O10 0.478514 0.449492 0.121317
O O11 0.514892 0.484729 0.256466
O O12 0.750000 0.364892 0.857289
O O13 0.474214 0.330009 0.895235
O O14 0.532135 0.350670 0.765109
O O15 0.250000 0.056477 0.035633
O O16 0.006078 0.122724 0.012708
O O17 0.000000 0.000000 0.000000
O O18 0.250000 0.315787 0.983751
O O19 0.494871 0.250000 0.993280
O O20 0.750000 0.843997 0.287908
O O21 0.922649 0.750000 0.277223
O O22 0.750000 0.499400 0.340175
#
# Coordination Sequence:
#
# PCOD9446767 Si02
#       8
#     8   8   8   8   8   8   8   8
#     4  11  20  32  49  70  98 131 168 208 250 299
#     4  10  18  30  48  70  98 129 161 199 243 292
#     4  10  20  33  49  73 102 135 170 211 260 313
#     4  11  21  33  51  73 101 136 174 213 255 307
#     4  10  20  35  54  74 102 134 171 215 262 315
#     4  10  21  36  54  76 102 135 174 216 262 313
#     4  11  23  36  49  68  97 135 178 217 253 300
#     4  11  20  31  49  73 100 130 164 204 251 304
#
# _framework density 17.0517
#
# number of rings (size 3 to 8) (size 9 to 14) (size 15 to 20)
#    0.000    1.500    2.500    6.000    0.000    3.750 
#    0.000    0.000    0.000    0.000    0.000    0.875 
#    0.000    5.000    0.000    0.000    0.000    0.000 
#
# Total GULP energy -357035.075104 kJ/mol
# GULP energy per Si atom -5578.673049 kJ/mol
# Density = 1.701289 g / cm^3
# Si number density = 17.051700 Si / 1000 Ang^3
#
#
#
# Elastic Constant Matrix: (Units=GPa)
#
#
# Indices 1 2 3 4 5 6 
#
# 1 41.0026 7.5908 10.2844 0.0000 0.0000 0.0000
# 2 7.5908 73.3966 31.8925 0.0000 0.0000 0.0000
# 3 10.2844 31.8925 82.8763 0.0000 0.0000 0.0000
# 4 0.0000 0.0000 0.0000 20.5879 0.0000 0.0000
# 5 0.0000 0.0000 0.0000 0.0000 25.2283 0.0000
# 6 0.0000 0.0000 0.0000 0.0000 0.0000 15.6842
#
#
#
# Elastic Compliance Matrix: (Units=1/GPa)
#
#
# Indices 1 2 3 4 5 6 
#
# 1 0.025310 -0.001504 -0.002562 0.000000 0.000000 0.000000
# 2 -0.001504 0.016450 -0.006143 0.000000 0.000000 0.000000
# 3 -0.002562 -0.006143 0.014748 0.000000 0.000000 0.000000
# 4 0.000000 0.000000 0.000000 0.048572 0.000000 0.000000
# 5 0.000000 0.000000 0.000000 0.000000 0.039638 0.000000
# 6 0.000000 0.000000 0.000000 0.000000 0.000000 0.063759
#
#
# Mechanical properties :
#
#
# Convention : Reuss Voigt Hill
#
# Bulk Modulus (GPa) = 27.70989 32.97900 30.34445
# Shear Modulus (GPa) = 20.75333 22.13394 21.44363
#
# Velocity S-wave (km/s) = 3.49246 3.60675 3.55006
# Velocity P-wave (km/s) = 5.70515 6.06032 5.88542
#
# Compressibility (1/GPa) = 0.03608819
#
# Stress axis : x y z
#
# Youngs Moduli (GPa) = 39.51044 60.79147 67.80474
#
# Poissons Ratio (x) = 0.09145 0.17371
# Poissons Ratio (y) = 0.05944 0.41656
# Poissons Ratio (z) = 0.10122 0.37347
#
# Static dielectric constant tensor:
#      x y z
#    x 1.581070 0.000000 0.000000 
#    y 0.000000 1.637590 0.000000 
#    z 0.000000 0.000000 1.593670 
# 
# From -- ./inp_files/26556.got.cif
#   From: 2010.05.17/outbox.cif.g08.bks.cpg/sg59_14_cif.got.tgz:26556.got - 2010.06.03 14:40:33.
