data_PCOD9446230
_publ_section_title
;
Structure prediction by ZEFSAII (Michael W. Deem and Ramdas Pophale) SiO2 
 PCOD9446230
Probable space group: P M M N
;
_chemical_formula_sum "Si O2"
_cell_formula_units_Z 64
_cell_length_a 22.309894
_cell_length_b 7.416110
_cell_length_c 15.833853
_cell_angle_alpha 90.000000
_cell_angle_beta 90.000000
_cell_angle_gamma 90.000000
_cell_volume 2619.752590
_symmetry_space_group_name_H-M "P M M N"
_symmetry_group_IT_number 59
_space_group.IT_coordinate_system_code '2'
_symmetry_cell_setting 'orthorhombic'
loop_
_space_group_symop_operation_xyz
x,y,z
1/2-x,1/2-y,z
1/2+x,-y,-z
-x,1/2+y,-z
-x,-y,-z
1/2+x,1/2+y,-z
1/2-x,y,z
x,1/2-y,z
loop_
_atom_site_type_symbol
_atom_site_label
_atom_site_fract_x
_atom_site_fract_y
_atom_site_fract_z
Si Si1 0.351138 0.967561 0.715522
Si Si2 0.513519 0.468638 0.308219
Si Si3 0.819508 0.468447 0.743947
Si Si4 0.876924 0.471346 0.922765
Si Si5 0.355732 0.954446 0.898239
Si Si6 0.092608 0.458536 0.411850
Si Si7 0.312670 0.462929 0.534044
Si Si8 0.506486 0.958606 0.119043
O O1 0.351837 0.750000 0.722062
O O2 0.418156 0.029811 0.691951
O O3 0.334817 0.036040 0.809101
O O4 0.313717 0.016274 0.634178
O O5 0.513188 0.250000 0.308795
O O6 0.470323 0.537269 0.381434
O O7 0.488748 0.528476 0.217632
O O8 0.750000 0.523848 0.734167
O O9 0.821267 0.250000 0.742005
O O10 0.845441 0.525218 0.835594
O O11 0.861998 0.534029 0.668129
O O12 0.877944 0.250000 0.923799
O O13 0.946926 0.529081 0.926516
O O14 0.845010 0.533047 0.009055
O O15 0.332573 0.750000 0.900747
O O16 0.428871 0.949218 0.889713
O O17 0.079944 0.250000 0.432169
O O18 0.128759 0.541504 0.489630
O O19 0.250000 0.538566 0.500123
O O20 0.312879 0.250000 0.515065
O O21 0.515355 0.750000 0.097295
#
# Coordination Sequence:
#
# PCOD9446230 Si02
#       8
#     8   8   8   8   8   8   8   8
#     4   9  19  35  54  78 107 136 173 219 263 308
#     4   9  18  33  53  79 110 140 169 207 262 318
#     4  10  20  34  52  76 108 142 176 217 262 308
#     4   9  17  30  48  73 104 138 174 211 253 302
#     4   9  18  33  51  72 105 140 173 213 258 306
#     4  10  20  36  58  80 105 137 173 211 259 321
#     4  10  22  39  57  77 102 135 176 219 264 313
#     4  10  17  27  47  76 108 137 172 210 249 305
#
# _framework density 24.429787999999999
#
# number of rings (size 3 to 8) (size 9 to 14) (size 15 to 20)
#    0.000    2.500    1.250    1.875    0.000    4.000 
#    0.000    1.875    0.000    2.250    0.000    0.000 
#    0.000    0.000    0.000    0.000    0.000    0.000 
#
# Total GULP energy -357468.777754 kJ/mol
# GULP energy per Si atom -5585.449652 kJ/mol
# Density = 2.437418 g / cm^3
# Si number density = 24.429788 Si / 1000 Ang^3
#
#
#
# Elastic Constant Matrix: (Units=GPa)
#
#
# Indices 1 2 3 4 5 6 
#
# 1 41.2911 -2.5917 8.5590 0.0000 0.0000 0.0000
# 2 -2.5917 90.3900 -11.8308 0.0000 0.0000 0.0000
# 3 8.5590 -11.8308 107.8062 0.0000 0.0000 0.0000
# 4 0.0000 0.0000 0.0000 25.2386 0.0000 0.0000
# 5 0.0000 0.0000 0.0000 0.0000 -57.8112 0.0000
# 6 0.0000 0.0000 0.0000 0.0000 0.0000 52.2772
#
#
#
# Elastic Compliance Matrix: (Units=1/GPa)
#
#
# Indices 1 2 3 4 5 6 
#
# 1 0.024642 0.000457 -0.001906 0.000000 0.000000 0.000000
# 2 0.000457 0.011233 0.001196 0.000000 0.000000 0.000000
# 3 -0.001906 0.001196 0.009559 0.000000 0.000000 0.000000
# 4 0.000000 0.000000 0.000000 0.039622 0.000000 0.000000
# 5 0.000000 0.000000 0.000000 0.000000 -0.017298 0.000000
# 6 0.000000 0.000000 0.000000 0.000000 0.000000 0.019129
#
#
# Mechanical properties :
#
#
# Convention : Reuss Voigt Hill
#
# Bulk Modulus (GPa) = 22.25783 25.30669 23.78226
# Shear Modulus (GPa) = 48.84339 20.29764 34.57052
#
# Velocity S-wave (km/s) = 4.47625 2.88558 3.76586
# Velocity P-wave (km/s) = 5.98719 4.63504 5.35397
#
# Compressibility (1/GPa) = 0.04492801
#
# Stress axis : x y z
#
# Youngs Moduli (GPa) = 40.58092 89.02439 104.61848
#
# Poissons Ratio (x) = -0.04069 0.19943
# Poissons Ratio (y) = -0.01855 -0.12517
# Poissons Ratio (z) = 0.07736 -0.10651
#
# Static dielectric constant tensor:
#      x y z
#    x 1.935560 0.000000 0.000000 
#    y 0.000000 1.908720 0.000000 
#    z 0.000000 0.000000 1.969040 
# 
# From -- ./inp_files/24782.got.cif
#   From: 2010.05.17/outbox.cif.g08.bks.cpg/sg59_13_cif.got.tgz:24782.got - 2010.06.03 14:40:33.
