data_PCOD9446497
_publ_section_title
;
Structure prediction by ZEFSAII (Michael W. Deem and Ramdas Pophale) SiO2 
 PCOD9446497
Probable space group: P M M N
;
_chemical_formula_sum "Si O2"
_cell_formula_units_Z 48
_cell_length_a 8.972251
_cell_length_b 21.707512
_cell_length_c 15.536860
_cell_angle_alpha 90.000000
_cell_angle_beta 90.000000
_cell_angle_gamma 90.000000
_cell_volume 3026.040364
_symmetry_space_group_name_H-M "P M M N"
_symmetry_group_IT_number 59
_space_group.IT_coordinate_system_code '2'
_symmetry_cell_setting 'orthorhombic'
loop_
_space_group_symop_operation_xyz
x,y,z
1/2-x,1/2-y,z
1/2+x,-y,-z
-x,1/2+y,-z
-x,-y,-z
1/2+x,1/2+y,-z
1/2-x,y,z
x,1/2-y,z
loop_
_atom_site_type_symbol
_atom_site_label
_atom_site_fract_x
_atom_site_fract_y
_atom_site_fract_z
Si Si1 0.927262 0.541434 0.874683
Si Si2 0.927530 0.452556 0.303121
Si Si3 0.928490 0.934125 0.523723
Si Si4 0.427659 0.677972 0.189973
Si Si5 0.072882 0.098125 0.662383
Si Si6 0.572757 0.914114 0.062383
O O1 0.750000 0.535377 0.862308
O O2 0.003440 0.565545 0.788197
O O3 0.996228 0.474582 0.896681
O O4 0.953938 0.582166 0.960001
O O5 0.750000 0.444833 0.304670
O O6 0.958149 0.526236 0.314924
O O7 0.001626 0.418206 0.384263
O O8 0.750000 0.940204 0.530520
O O9 0.960300 0.893276 0.439157
O O10 0.000000 0.000000 0.500000
O O11 0.250000 0.671523 0.182197
O O12 0.465217 0.750000 0.194700
O O13 0.483430 0.642112 0.274624
O O14 0.505963 0.644791 0.109494
O O15 0.250000 0.107271 0.675404
O O16 0.750000 0.918047 0.077373
#
# Coordination Sequence:
#
# PCOD9446497 Si02
#       6
#     8   8   8   8   8   8
#     4  10  19  30  48  71  97 128 159 197 244 293
#     4  10  18  28  45  71  99 127 159 190 233 291
#     4   9  17  28  43  65  94 125 157 191 231 279
#     4  11  23  35  49  70  95 128 168 205 243 287
#     4   9  18  31  46  66  93 126 162 197 234 283
#     4  10  20  33  48  69  95 126 163 200 244 294
#
# _framework density 15.862313
#
# number of rings (size 3 to 8) (size 9 to 14) (size 15 to 20)
#    0.000    2.167    1.667    3.500    0.000    6.667 
#    0.000    0.000    0.000    0.000    0.000    1.167 
#    0.000    9.333    0.000    0.000    0.000    0.000 
#
# Total GULP energy -267632.510941 kJ/mol
# GULP energy per Si atom -5575.677311 kJ/mol
# Density = 1.582621 g / cm^3
# Si number density = 15.862313 Si / 1000 Ang^3
#
#
#
# Elastic Constant Matrix: (Units=GPa)
#
#
# Indices 1 2 3 4 5 6 
#
# 1 76.1609 38.6355 71.0359 0.0000 0.0000 0.0000
# 2 38.6355 51.2066 37.0277 0.0000 0.0000 0.0000
# 3 71.0359 37.0277 150.9686 0.0000 0.0000 0.0000
# 4 0.0000 0.0000 0.0000 12.4318 0.0000 0.0000
# 5 0.0000 0.0000 0.0000 0.0000 32.4249 0.0000
# 6 0.0000 0.0000 0.0000 0.0000 0.0000 18.2303
#
#
#
# Elastic Compliance Matrix: (Units=1/GPa)
#
#
# Indices 1 2 3 4 5 6 
#
# 1 0.031197 -0.015710 -0.010826 0.000000 0.000000 0.000000
# 2 -0.015710 0.031650 -0.000371 0.000000 0.000000 0.000000
# 3 -0.010826 -0.000371 0.011809 0.000000 0.000000 0.000000
# 4 0.000000 0.000000 0.000000 0.080439 0.000000 0.000000
# 5 0.000000 0.000000 0.000000 0.000000 0.030840 0.000000
# 6 0.000000 0.000000 0.000000 0.000000 0.000000 0.054854
#
#
# Mechanical properties :
#
#
# Convention : Reuss Voigt Hill
#
# Bulk Modulus (GPa) = 47.97890 63.52605 55.75248
# Shear Modulus (GPa) = 16.58098 21.39320 18.98709
#
# Velocity S-wave (km/s) = 3.23663 3.67642 3.46351
# Velocity P-wave (km/s) = 6.65436 7.62606 7.15672
#
# Compressibility (1/GPa) = 0.02084249
#
# Stress axis : x y z
#
# Youngs Moduli (GPa) = 32.05404 31.59565 84.68165
#
# Poissons Ratio (x) = 0.49637 0.91679
# Poissons Ratio (y) = 0.50357 0.03139
# Poissons Ratio (z) = 0.34703 0.01171
#
# Static dielectric constant tensor:
#      x y z
#    x 1.524950 0.000000 0.000000 
#    y 0.000000 1.490160 0.000000 
#    z 0.000000 0.000000 1.575290 
# 
# From -- ./inp_files/20710.got.cif
#   From: 2010.05.17/outbox.cif.g08.bks.cpg/sg59_11_cif.got.tgz:20710.got - 2010.06.03 14:40:33.
