data_PCOD9446068
_publ_section_title
;
Structure prediction by ZEFSAII (Michael W. Deem and Ramdas Pophale) SiO2 
 PCOD9446068
Probable space group: P N N M
;
_chemical_formula_sum "Si O2"
_cell_formula_units_Z 64
_cell_length_a 30.000000
_cell_length_b 12.000000
_cell_length_c 9.000000
_cell_angle_alpha 90.000000
_cell_angle_beta 90.000000
_cell_angle_gamma 90.000000
_cell_volume 3240.000000
_symmetry_space_group_name_H-M "P N N M"
_symmetry_group_IT_number 58
_symmetry_cell_setting 'orthorhombic'
loop_
_space_group_symop_operation_xyz
x,y,z
-x,-y,z
1/2+x,1/2-y,1/2-z
1/2-x,1/2+y,1/2-z
-x,-y,-z
x,y,-z
1/2-x,1/2+y,1/2+z
1/2+x,1/2-y,1/2+z
loop_
_atom_site_type_symbol
_atom_site_label
_atom_site_fract_x
_atom_site_fract_y
_atom_site_fract_z
Si Si1 0.122729 0.610650 0.670695
Si Si2 0.299185 0.947535 0.821360
Si Si3 0.477796 0.378809 0.333087
Si Si4 0.342970 0.717022 0.819825
Si Si5 0.116122 0.873339 0.670884
Si Si6 0.051914 0.471402 0.828286
Si Si7 0.440872 0.740575 0.824033
Si Si8 0.205039 0.998091 0.320640
O O1 0.112640 0.575132 0.500000
O O2 0.168788 0.551486 0.714215
O O3 0.126162 0.742440 0.671292
O O4 0.083066 0.572009 0.776836
O O5 0.325924 0.837559 0.770818
O O6 0.250845 0.957582 0.749483
O O7 0.294143 0.942236 0.000000
O O8 0.500000 0.500000 0.338311
O O9 0.472261 0.334711 0.500000
O O10 0.429916 0.389534 0.256703
O O11 0.514039 0.304506 0.248210
O O12 0.393556 0.688655 0.770983
O O13 0.306672 0.625048 0.779399
O O14 0.345350 0.719414 0.000000
O O15 0.109255 0.911471 0.500000
O O16 0.160593 0.932581 0.728261
O O17 0.063092 0.369183 0.721008
O O18 0.000000 0.500000 0.813617
O O19 0.060557 0.441551 0.000000
O O20 0.444299 0.725930 0.000000
O O21 0.208132 0.988754 0.500000
#
# Coordination Sequence:
#
# PCOD9446068 Si02
#       8
#     8   8   8   8   8   8   8   8
#     4  10  21  39  60  83 116 156 199 245 297 359
#     4  10  21  39  60  85 117 154 195 243 303 360
#     4  11  24  40  59  88 127 163 201 251 305 360
#     4   9  19  38  61  85 116 152 194 244 293 355
#     4  10  22  40  62  89 121 159 205 253 298 359
#     4  11  23  37  55  85 122 156 193 243 301 359
#     4  11  21  38  64  88 115 158 205 250 300 357
#     4  10  22  39  61  89 117 150 199 249 298 356
#
# _framework density 19.753086
#
# number of rings (size 3 to 8) (size 9 to 14) (size 15 to 20)
#    0.000    1.750    1.250    2.625    1.750    6.500 
#    0.000    1.250    0.000    0.000    0.000    0.000 
#    0.000    0.000    0.000    0.000    0.000    0.000 
#
# Total GULP energy -357343.191593 kJ/mol
# GULP energy per Si atom -5583.487369 kJ/mol
# Density = 1.970813 g / cm^3
# Si number density = 19.753086 Si / 1000 Ang^3
#
#
#
# Elastic Constant Matrix: (Units=GPa)
#
#
# Indices 1 2 3 4 5 6 
#
# 1 169.8274 35.0640 55.5216 0.0000 0.0000 0.0000
# 2 35.0640 49.2344 15.5447 0.0000 0.0000 0.0000
# 3 55.5216 15.5447 46.8287 0.0000 0.0000 0.0000
# 4 0.0000 0.0000 0.0000 31.9557 0.0000 0.0000
# 5 0.0000 0.0000 0.0000 0.0000 30.6770 0.0000
# 6 0.0000 0.0000 0.0000 0.0000 0.0000 30.8027
#
#
#
# Elastic Compliance Matrix: (Units=1/GPa)
#
#
# Indices 1 2 3 4 5 6 
#
# 1 0.010233 -0.003862 -0.010851 0.000000 0.000000 0.000000
# 2 -0.003862 0.024146 -0.003436 0.000000 0.000000 0.000000
# 3 -0.010851 -0.003436 0.035360 0.000000 0.000000 0.000000
# 4 0.000000 0.000000 0.000000 0.031293 0.000000 0.000000
# 5 0.000000 0.000000 0.000000 0.000000 0.032598 0.000000
# 6 0.000000 0.000000 0.000000 0.000000 0.000000 0.032465
#
#
# Mechanical properties :
#
#
# Convention : Reuss Voigt Hill
#
# Bulk Modulus (GPa) = 29.90311 53.12790 41.51551
# Shear Modulus (GPa) = 23.41472 29.33777 26.37625
#
# Velocity S-wave (km/s) = 3.44666 3.85804 3.65814
# Velocity P-wave (km/s) = 5.56871 6.84108 6.23742
#
# Compressibility (1/GPa) = 0.03344134
#
# Stress axis : x y z
#
# Youngs Moduli (GPa) = 97.72164 41.41394 28.28045
#
# Poissons Ratio (x) = 0.15994 0.30686
# Poissons Ratio (y) = 0.37740 0.09718
# Poissons Ratio (z) = 1.06035 0.14232
#
# Static dielectric constant tensor:
#      x y z
#    x 1.663940 0.000000 0.000000 
#    y 0.000000 1.735100 0.000000 
#    z 0.000000 0.000000 1.691960 
# 
# From -- ./inp_files/11004.got.cif
#   From: 2010.05.17/outbox.ucp.g08.bks.cvg/sg58_6_cif.got.tgz:11004.got - 2010.06.11 16:41:41.
