data_PCOD9446563
_publ_section_title
;
Structure prediction by ZEFSAII (Michael W. Deem and Ramdas Pophale) SiO2 
 PCOD9446563
Probable space group: P M M N
;
_chemical_formula_sum "Si O2"
_cell_formula_units_Z 64
_cell_length_a 24.696941
_cell_length_b 12.321733
_cell_length_c 13.166787
_cell_angle_alpha 90.000000
_cell_angle_beta 90.000000
_cell_angle_gamma 90.000000
_cell_volume 4006.773272
_symmetry_space_group_name_H-M "P M M N"
_symmetry_group_IT_number 59
_space_group.IT_coordinate_system_code '2'
_symmetry_cell_setting 'orthorhombic'
loop_
_space_group_symop_operation_xyz
x,y,z
1/2-x,1/2-y,z
1/2+x,-y,-z
-x,1/2+y,-z
-x,-y,-z
1/2+x,1/2+y,-z
1/2-x,y,z
x,1/2-y,z
loop_
_atom_site_type_symbol
_atom_site_label
_atom_site_fract_x
_atom_site_fract_y
_atom_site_fract_z
Si Si1 0.080475 0.980676 0.985780
Si Si2 0.584529 0.626429 0.211628
Si Si3 0.984254 0.628234 0.872344
Si Si4 0.311290 0.622818 0.529654
Si Si5 0.009838 0.967093 0.659913
Si Si6 0.688613 0.379284 0.063731
Si Si7 0.430751 0.877865 0.461219
Si Si8 0.810616 0.982567 0.267207
O O1 0.139804 0.931227 0.999497
O O2 0.039949 0.892838 0.935116
O O3 0.081890 0.074930 0.900388
O O4 0.055007 0.034668 0.085011
O O5 0.567419 0.750000 0.210838
O O6 0.548394 0.554896 0.286359
O O7 0.645337 0.609329 0.250963
O O8 0.964859 0.750000 0.892253
O O9 0.993186 0.610592 0.752665
O O10 0.250000 0.605011 0.486685
O O11 0.313222 0.750000 0.560471
O O12 0.365655 0.605157 0.464236
O O13 0.316681 0.546732 0.627824
O O14 0.042837 0.904612 0.571796
O O15 0.960575 0.036070 0.611782
O O16 0.750000 0.404831 0.029168
O O17 0.683118 0.250000 0.067994
O O18 0.682308 0.430326 0.176180
O O19 0.440818 0.750000 0.437356
O O20 0.750000 0.939177 0.260708
#
# Coordination Sequence:
#
# PCOD9446563 Si02
#       8
#     8   8   8   8   8   8   8   8
#     4   9  19  31  47  73  97 123 158 197 235 276
#     4  10  18  29  43  63  94 130 159 193 232 275
#     4  10  19  33  51  70  95 127 161 196 233 279
#     4   9  16  27  46  70  93 118 148 188 239 285
#     4  10  20  32  47  70  93 122 161 193 237 280
#     4   9  16  27  45  69  98 127 154 190 236 282
#     4  10  19  32  49  70  96 122 152 194 238 284
#     4   9  16  26  40  64  94 125 159 191 224 278
#
# _framework density 15.972953
#
# number of rings (size 3 to 8) (size 9 to 14) (size 15 to 20)
#    0.000    2.500    1.250    1.875    0.000    1.750 
#    0.000    1.875    0.000    1.875    0.000    1.750 
#    0.000    0.000    0.000    0.000    0.000    0.000 
#
# Total GULP energy -356416.815020 kJ/mol
# GULP energy per Si atom -5569.012735 kJ/mol
# Density = 1.593660 g / cm^3
# Si number density = 15.972953 Si / 1000 Ang^3
#
#
#
# Elastic Constant Matrix: (Units=GPa)
#
#
# Indices 1 2 3 4 5 6 
#
# 1 85.7668 11.0639 12.8093 0.0000 0.0000 0.0000
# 2 11.0639 45.0031 2.9699 0.0000 0.0000 0.0000
# 3 12.8093 2.9699 36.4961 0.0000 0.0000 0.0000
# 4 0.0000 0.0000 0.0000 6.8278 0.0000 0.0000
# 5 0.0000 0.0000 0.0000 0.0000 16.8917 0.0000
# 6 0.0000 0.0000 0.0000 0.0000 0.0000 20.3957
#
#
#
# Elastic Compliance Matrix: (Units=1/GPa)
#
#
# Indices 1 2 3 4 5 6 
#
# 1 0.012654 -0.002833 -0.004211 0.000000 0.000000 0.000000
# 2 -0.002833 0.022975 -0.000875 0.000000 0.000000 0.000000
# 3 -0.004211 -0.000875 0.028949 0.000000 0.000000 0.000000
# 4 0.000000 0.000000 0.000000 0.146460 0.000000 0.000000
# 5 0.000000 0.000000 0.000000 0.000000 0.059201 0.000000
# 6 0.000000 0.000000 0.000000 0.000000 0.000000 0.049030
#
#
# Mechanical properties :
#
#
# Convention : Reuss Voigt Hill
#
# Bulk Modulus (GPa) = 20.51696 24.55022 22.53359
# Shear Modulus (GPa) = 14.23070 18.18457 16.20763
#
# Velocity S-wave (km/s) = 2.98807 3.37777 3.18888
# Velocity P-wave (km/s) = 4.97770 5.53314 5.26275
#
# Compressibility (1/GPa) = 0.04874017
#
# Stress axis : x y z
#
# Youngs Moduli (GPa) = 79.02736 43.52564 34.54315
#
# Poissons Ratio (x) = 0.12331 0.14545
# Poissons Ratio (y) = 0.22389 0.03023
# Poissons Ratio (z) = 0.33276 0.03810
#
# Static dielectric constant tensor:
#      x y z
#    x 1.569120 0.000000 0.000000 
#    y 0.000000 1.507690 0.000000 
#    z 0.000000 0.000000 1.518950 
# 
# From -- ./inp_files/18776.got.cif
#   From: 2010.05.17/outbox.cif.g08.bks.cpg/sg59_10_cif.got.tgz:18776.got - 2010.06.03 14:40:33.
