data_PCOD9446596
_publ_section_title
;
Structure prediction by ZEFSAII (Michael W. Deem and Ramdas Pophale) SiO2 
 PCOD9446596
Probable space group: P M M N
;
_chemical_formula_sum "Si O2"
_cell_formula_units_Z 64
_cell_length_a 7.770099
_cell_length_b 29.738586
_cell_length_c 16.138487
_cell_angle_alpha 90.000000
_cell_angle_beta 90.000000
_cell_angle_gamma 90.000000
_cell_volume 3729.148552
_symmetry_space_group_name_H-M "P M M N"
_symmetry_group_IT_number 59
_space_group.IT_coordinate_system_code '2'
_symmetry_cell_setting 'orthorhombic'
loop_
_space_group_symop_operation_xyz
x,y,z
1/2-x,1/2-y,z
1/2+x,-y,-z
-x,1/2+y,-z
-x,-y,-z
1/2+x,1/2+y,-z
1/2-x,y,z
x,1/2-y,z
loop_
_atom_site_type_symbol
_atom_site_label
_atom_site_fract_x
_atom_site_fract_y
_atom_site_fract_z
Si Si1 0.046694 0.301061 0.187384
Si Si2 0.960302 0.801761 0.497809
Si Si3 0.950469 0.195583 0.005286
Si Si4 0.541563 0.641543 0.658790
Si Si5 0.457726 0.698418 0.174761
Si Si6 0.457199 0.143018 0.662823
Si Si7 0.045868 0.549611 0.582913
Si Si8 0.450278 0.450533 0.604393
O O1 0.250000 0.297165 0.203308
O O2 0.974111 0.250000 0.192923
O O3 0.978124 0.334280 0.257714
O O4 0.027458 0.318097 0.093259
O O5 0.750000 0.801561 0.497520
O O6 0.016349 0.750000 0.500264
O O7 0.014149 0.829212 0.579111
O O8 0.018890 0.826718 0.414372
O O9 0.750000 0.183371 0.008792
O O10 0.963096 0.250000 0.002919
O O11 0.021777 0.181613 0.915471
O O12 0.750000 0.641147 0.659174
O O13 0.484067 0.590541 0.644705
O O14 0.250000 0.700387 0.168718
O O15 0.517964 0.750000 0.189082
O O16 0.503164 0.666861 0.250946
O O17 0.250000 0.140759 0.654781
O O18 0.525568 0.092191 0.652399
O O19 0.250000 0.545003 0.567459
O O20 0.977645 0.500993 0.612845
O O21 0.962365 0.560305 0.493788
O O22 0.250000 0.453636 0.628268
#
# Coordination Sequence:
#
# PCOD9446596 Si02
#       8
#     8   8   8   8   8   8   8   8
#     4   9  17  28  45  69  92 117 152 190 222 256
#     4   9  16  26  41  60  85 120 155 178 204 252
#     4   8  15  29  46  62  86 121 151 179 222 268
#     4  10  18  30  45  63  92 123 149 181 223 264
#     4   9  18  31  45  64  93 124 150 180 222 267
#     4  10  18  29  46  66  87 116 154 187 218 259
#     4  10  19  30  47  67  87 113 150 190 226 266
#     4   9  18  33  48  64  87 115 147 189 234 267
#
# _framework density 17.162094
#
# number of rings (size 3 to 8) (size 9 to 14) (size 15 to 20)
#    0.000    2.750    1.250    1.875    0.000    4.250 
#    0.000    1.250    0.000    1.125    0.000    0.875 
#    0.000    0.000    0.000    0.000    0.000    0.000 
#
# Total GULP energy -356616.086075 kJ/mol
# GULP energy per Si atom -5572.126345 kJ/mol
# Density = 1.712303 g / cm^3
# Si number density = 17.162094 Si / 1000 Ang^3
#
#
#
# Elastic Constant Matrix: (Units=GPa)
#
#
# Indices 1 2 3 4 5 6 
#
# 1 20.0781 1.4098 -0.1540 0.0000 0.0000 0.0000
# 2 1.4098 121.5583 78.8044 0.0000 0.0000 0.0000
# 3 -0.1540 78.8044 132.1398 0.0000 0.0000 0.0000
# 4 0.0000 0.0000 0.0000 10.6452 0.0000 0.0000
# 5 0.0000 0.0000 0.0000 0.0000 -70.4535 0.0000
# 6 0.0000 0.0000 0.0000 0.0000 0.0000 10.5289
#
#
#
# Elastic Compliance Matrix: (Units=1/GPa)
#
#
# Indices 1 2 3 4 5 6 
#
# 1 0.049881 -0.001005 0.000657 0.000000 0.000000 0.000000
# 2 -0.001005 0.013432 -0.008012 0.000000 0.000000 0.000000
# 3 0.000657 -0.008012 0.012346 0.000000 0.000000 0.000000
# 4 0.000000 0.000000 0.000000 0.093939 0.000000 0.000000
# 5 0.000000 0.000000 0.000000 0.000000 -0.014194 0.000000
# 6 0.000000 0.000000 0.000000 0.000000 0.000000 0.094977
#
#
# Mechanical properties :
#
#
# Convention : Reuss Voigt Hill
#
# Bulk Modulus (GPa) = 16.96595 48.21072 32.58833
# Shear Modulus (GPa) = 17.43701 3.05853 10.24777
#
# Velocity S-wave (km/s) = 3.19096 1.33642 2.44625
# Velocity P-wave (km/s) = 4.84598 5.52573 5.19698
#
# Compressibility (1/GPa) = 0.05894157
#
# Stress axis : x y z
#
# Youngs Moduli (GPa) = 20.04768 74.44931 80.99524
#
# Poissons Ratio (x) = 0.07479 -0.05323
# Poissons Ratio (y) = 0.02014 0.64890
# Poissons Ratio (z) = -0.01318 0.59646
#
# Static dielectric constant tensor:
#      x y z
#    x 1.642020 0.000000 0.000000 
#    y 0.000000 1.590110 0.000000 
#    z 0.000000 0.000000 1.579790 
# 
# From -- ./inp_files/21935.got.cif
#   From: 2010.05.17/outbox.cif.g08.bks.cpg/sg59_11_cif.got.tgz:21935.got - 2010.06.03 14:40:33.
