data_PCOD9446375
_publ_section_title
;
Structure prediction by ZEFSAII (Michael W. Deem and Ramdas Pophale) SiO2 
 PCOD9446375
Probable space group: P M M N
;
_chemical_formula_sum "Si O2"
_cell_formula_units_Z 64
_cell_length_a 26.446598
_cell_length_b 7.651372
_cell_length_c 17.886444
_cell_angle_alpha 90.000000
_cell_angle_beta 90.000000
_cell_angle_gamma 90.000000
_cell_volume 3619.371300
_symmetry_space_group_name_H-M "P M M N"
_symmetry_group_IT_number 59
_space_group.IT_coordinate_system_code '2'
_symmetry_cell_setting 'orthorhombic'
loop_
_space_group_symop_operation_xyz
x,y,z
1/2-x,1/2-y,z
1/2+x,-y,-z
-x,1/2+y,-z
-x,-y,-z
1/2+x,1/2+y,-z
1/2-x,y,z
x,1/2-y,z
loop_
_atom_site_type_symbol
_atom_site_label
_atom_site_fract_x
_atom_site_fract_y
_atom_site_fract_z
Si Si1 0.403450 0.039740 0.179202
Si Si2 0.447461 0.541676 0.337625
Si Si3 0.500806 0.460079 0.087428
Si Si4 0.693074 0.539626 0.082273
Si Si5 0.692578 0.536468 0.911734
Si Si6 0.565386 0.044473 0.338703
Si Si7 0.559778 0.459624 0.500737
Si Si8 0.597079 0.458869 0.180201
O O1 0.402948 0.250000 0.172675
O O2 0.450863 0.974290 0.130021
O O3 0.350749 0.975683 0.144597
O O4 0.414438 0.998164 0.265229
O O5 0.453523 0.750000 0.343215
O O6 0.504471 0.468925 0.328354
O O7 0.424172 0.477845 0.416794
O O8 0.500629 0.250000 0.094417
O O9 0.551377 0.526850 0.128215
O O10 0.500000 0.500000 0.000000
O O11 0.750000 0.478317 0.100324
O O12 0.694365 0.750000 0.080538
O O13 0.650278 0.488634 0.140471
O O14 0.680792 0.482446 0.997263
O O15 0.750000 0.481427 0.894130
O O16 0.692611 0.750000 0.911081
O O17 0.577873 0.250000 0.341856
O O18 0.578895 0.969910 0.420804
O O19 0.591135 0.969879 0.264357
O O20 0.500000 0.500000 0.500000
O O21 0.566792 0.250000 0.499073
O O22 0.589925 0.250000 0.185501
#
# Coordination Sequence:
#
# PCOD9446375 Si02
#       8
#     8   8   8   8   8   8   8   8
#     4  10  18  30  46  63  89 121 149 180 221 266
#     4  10  18  27  41  66  93 116 148 184 217 260
#     4  10  20  31  42  61  88 121 153 179 217 267
#     4   9  18  33  51  68  86 112 148 189 231 267
#     4   8  15  29  49  68  83 108 152 195 223 256
#     4   9  16  30  46  61  88 122 150 178 217 263
#     4   8  15  26  42  61  84 116 148 179 215 256
#     4  10  19  30  45  66  91 117 149 183 219 264
#
# _framework density 17.682628999999999
#
# number of rings (size 3 to 8) (size 9 to 14) (size 15 to 20)
#    0.000    2.750    1.250    1.875    0.000    3.250 
#    0.000    0.625    0.000    1.125    0.000    0.875 
#    0.000    5.000    0.000    0.000    0.000    0.000 
#
# Total GULP energy -356615.730092 kJ/mol
# GULP energy per Si atom -5572.120783 kJ/mol
# Density = 1.764238 g / cm^3
# Si number density = 17.682629 Si / 1000 Ang^3
#
#
#
# Elastic Constant Matrix: (Units=GPa)
#
#
# Indices 1 2 3 4 5 6 
#
# 1 92.5566 -1.0470 93.8729 0.0000 0.0000 0.0000
# 2 -1.0470 31.2406 0.8071 0.0000 0.0000 0.0000
# 3 93.8729 0.8071 205.5557 0.0000 0.0000 0.0000
# 4 0.0000 0.0000 0.0000 15.1922 0.0000 0.0000
# 5 0.0000 0.0000 0.0000 0.0000 20.8632 0.0000
# 6 0.0000 0.0000 0.0000 0.0000 0.0000 11.0387
#
#
#
# Elastic Compliance Matrix: (Units=1/GPa)
#
#
# Indices 1 2 3 4 5 6 
#
# 1 0.020152 0.000913 -0.009207 0.000000 0.000000 0.000000
# 2 0.000913 0.032054 -0.000543 0.000000 0.000000 0.000000
# 3 -0.009207 -0.000543 0.009071 0.000000 0.000000 0.000000
# 4 0.000000 0.000000 0.000000 0.065823 0.000000 0.000000
# 5 0.000000 0.000000 0.000000 0.000000 0.047931 0.000000
# 6 0.000000 0.000000 0.000000 0.000000 0.000000 0.090590
#
#
# Mechanical properties :
#
#
# Convention : Reuss Voigt Hill
#
# Bulk Modulus (GPa) = 22.93306 57.40209 40.16758
# Shear Modulus (GPa) = 16.78808 25.13349 20.96079
#
# Velocity S-wave (km/s) = 3.08459 3.77419 3.44668
# Velocity P-wave (km/s) = 5.06791 7.17813 6.21326
#
# Compressibility (1/GPa) = 0.04360517
#
# Stress axis : x y z
#
# Youngs Moduli (GPa) = 49.62278 31.19714 110.23608
#
# Poissons Ratio (x) = -0.02849 1.01490
# Poissons Ratio (y) = -0.04532 0.05985
# Poissons Ratio (z) = 0.45686 0.01694
#
# Static dielectric constant tensor:
#      x y z
#    x 1.574510 0.000000 0.000000 
#    y 0.000000 1.678840 0.000000 
#    z 0.000000 0.000000 1.647930 
# 
# From -- ./inp_files/28447.got.cif
#   From: 2010.05.17/outbox.cif.g08.bks.cpg/sg59_15_cif.got.tgz:28447.got - 2010.06.03 14:40:33.
