data_PCOD9446202
_publ_section_title
;
Structure prediction by ZEFSAII (Michael W. Deem and Ramdas Pophale) SiO2 
 PCOD9446202
Probable space group: P M M N
;
_chemical_formula_sum "Si O2"
_cell_formula_units_Z 64
_cell_length_a 20.363482
_cell_length_b 7.535336
_cell_length_c 18.431341
_cell_angle_alpha 90.000000
_cell_angle_beta 90.000000
_cell_angle_gamma 90.000000
_cell_volume 2828.209635
_symmetry_space_group_name_H-M "P M M N"
_symmetry_group_IT_number 59
_space_group.IT_coordinate_system_code '2'
_symmetry_cell_setting 'orthorhombic'
loop_
_space_group_symop_operation_xyz
x,y,z
1/2-x,1/2-y,z
1/2+x,-y,-z
-x,1/2+y,-z
-x,-y,-z
1/2+x,1/2+y,-z
1/2-x,y,z
x,1/2-y,z
loop_
_atom_site_type_symbol
_atom_site_label
_atom_site_fract_x
_atom_site_fract_y
_atom_site_fract_z
Si Si1 0.143292 0.951715 0.926824
Si Si2 0.529723 0.540867 0.720496
Si Si3 0.675588 0.032521 0.384550
Si Si4 0.504644 0.955996 0.116811
Si Si5 0.538619 0.037570 0.426977
Si Si6 0.327966 0.550023 0.773627
Si Si7 0.141824 0.532599 0.082483
Si Si8 0.321140 0.535689 0.241818
O O1 0.169866 0.750000 0.923450
O O2 0.159906 0.041048 0.850279
O O3 0.064437 0.946754 0.921628
O O4 0.165388 0.028304 0.003623
O O5 0.517655 0.750000 0.723855
O O6 0.498069 0.467685 0.795147
O O7 0.498010 0.470524 0.645912
O O8 0.609006 0.515728 0.723321
O O9 0.750000 0.973460 0.401254
O O10 0.678459 0.250000 0.382327
O O11 0.614433 0.977187 0.433271
O O12 0.653993 0.971817 0.303703
O O13 0.510859 0.750000 0.097480
O O14 0.433839 0.021945 0.091472
O O15 0.541081 0.250000 0.418783
O O16 0.500000 0.000000 0.500000
O O17 0.250000 0.567755 0.767654
O O18 0.357606 0.750000 0.776958
O O19 0.143793 0.750000 0.080697
O O20 0.175755 0.478762 0.157136
O O21 0.250000 0.477138 0.272300
O O22 0.321327 0.750000 0.242485
#
# Coordination Sequence:
#
# PCOD9446202 Si02
#       8
#     8   8   8   8   8   8   8   8
#     4  10  17  26  43  67  95 127 165 211 262 313
#     4  10  20  35  55  78 103 133 172 216 261 315
#     4   8  14  28  50  74 101 132 166 202 239 288
#     4  10  19  31  46  66  94 129 170 212 257 308
#     4  10  21  36  56  83 111 136 163 202 254 308
#     4   8  14  24  41  67  94 119 153 198 242 284
#     4   8  16  28  42  64  94 128 166 210 260 310
#     4   9  18  34  54  75 102 138 181 228 275 320
#
# _framework density 22.629155000000001
#
# number of rings (size 3 to 8) (size 9 to 14) (size 15 to 20)
#    0.000    2.875    0.000    3.375    0.000    3.750 
#    0.000    5.625    0.000    3.000    0.000    1.750 
#    0.000    0.000    0.000    0.000    0.000    0.000 
#
# Total GULP energy -356897.112132 kJ/mol
# GULP energy per Si atom -5576.517377 kJ/mol
# Density = 2.257765 g / cm^3
# Si number density = 22.629155 Si / 1000 Ang^3
#
#
#
# Elastic Constant Matrix: (Units=GPa)
#
#
# Indices 1 2 3 4 5 6 
#
# 1 129.7336 1.2804 60.0791 0.0000 0.0000 0.0000
# 2 1.2804 62.6366 -3.4822 0.0000 0.0000 0.0000
# 3 60.0791 -3.4822 108.0820 0.0000 0.0000 0.0000
# 4 0.0000 0.0000 0.0000 2.5297 0.0000 0.0000
# 5 0.0000 0.0000 0.0000 0.0000 3.7408 0.0000
# 6 0.0000 0.0000 0.0000 0.0000 0.0000 -10.1427
#
#
#
# Elastic Compliance Matrix: (Units=1/GPa)
#
#
# Indices 1 2 3 4 5 6 
#
# 1 0.010398 -0.000535 -0.005797 0.000000 0.000000 0.000000
# 2 -0.000535 0.016021 0.000813 0.000000 0.000000 0.000000
# 3 -0.005797 0.000813 0.012501 0.000000 0.000000 0.000000
# 4 0.000000 0.000000 0.000000 0.395304 0.000000 0.000000
# 5 0.000000 0.000000 0.000000 0.000000 0.267324 0.000000
# 6 0.000000 0.000000 0.000000 0.000000 0.000000 -0.098593
#
#
# Mechanical properties :
#
#
# Convention : Reuss Voigt Hill
#
# Bulk Modulus (GPa) = 35.86395 46.24519 41.05457
# Shear Modulus (GPa) = 8.02198 15.39720 11.70959
#
# Velocity S-wave (km/s) = 1.88485 2.61131 2.27723
# Velocity P-wave (km/s) = 4.54091 5.43805 5.00960
#
# Compressibility (1/GPa) = 0.02788316
#
# Stress axis : x y z
#
# Youngs Moduli (GPa) = 96.17223 62.41706 79.99438
#
# Poissons Ratio (x) = 0.03338 0.46374
# Poissons Ratio (y) = 0.05144 -0.06507
# Poissons Ratio (z) = 0.55752 -0.05077
#
# Static dielectric constant tensor:
#      x y z
#    x 1.877750 0.000000 0.000000 
#    y 0.000000 1.907920 0.000000 
#    z 0.000000 0.000000 1.854580 
# 
# From -- ./inp_files/28260.got.cif
#   From: 2010.05.17/outbox.cif.g08.bks.cpg/sg59_15_cif.got.tgz:28260.got - 2010.06.03 14:40:33.
