data_PCOD9446853
_publ_section_title
;
Structure prediction by ZEFSAII (Michael W. Deem and Ramdas Pophale) SiO2 
 PCOD9446853
Probable space group: P M M N
;
_chemical_formula_sum "Si O2"
_cell_formula_units_Z 64
_cell_length_a 29.721016
_cell_length_b 8.537110
_cell_length_c 12.695125
_cell_angle_alpha 90.000000
_cell_angle_beta 90.000000
_cell_angle_gamma 90.000000
_cell_volume 3221.154161
_symmetry_space_group_name_H-M "P M M N"
_symmetry_group_IT_number 59
_space_group.IT_coordinate_system_code '2'
_symmetry_cell_setting 'orthorhombic'
loop_
_space_group_symop_operation_xyz
x,y,z
1/2-x,1/2-y,z
1/2+x,-y,-z
-x,1/2+y,-z
-x,-y,-z
1/2+x,1/2+y,-z
1/2-x,y,z
x,1/2-y,z
loop_
_atom_site_type_symbol
_atom_site_label
_atom_site_fract_x
_atom_site_fract_y
_atom_site_fract_z
Si Si1 0.602682 0.063477 0.647415
Si Si2 0.074025 0.067533 0.569881
Si Si3 0.201498 0.562265 0.418473
Si Si4 0.700241 0.439044 0.128913
Si Si5 0.677210 0.932341 0.358364
Si Si6 0.541781 0.564347 0.212962
Si Si7 0.106835 0.563882 0.958274
Si Si8 0.051638 0.432715 0.152774
O O1 0.602129 0.250000 0.667286
O O2 0.654599 0.007836 0.632872
O O3 0.577259 0.029006 0.537351
O O4 0.579386 0.975079 0.742770
O O5 0.065539 0.250000 0.543585
O O6 0.123478 0.057720 0.623556
O O7 0.040892 0.016644 0.663689
O O8 0.250000 0.504547 0.377176
O O9 0.201059 0.750000 0.409145
O O10 0.198250 0.518185 0.541308
O O11 0.750000 0.491092 0.094929
O O12 0.699531 0.250000 0.129379
O O13 0.691450 0.495517 0.247811
O O14 0.658234 0.490365 0.057815
O O15 0.689820 0.750000 0.360797
O O16 0.551640 0.750000 0.210602
O O17 0.580023 0.474053 0.148816
O O18 0.494483 0.529656 0.158372
O O19 0.106256 0.750000 0.977635
O O20 0.081086 0.478951 0.052178
O O21 0.040291 0.250000 0.149433
#
# Coordination Sequence:
#
# PCOD9446853 Si02
#       8
#     8   8   8   8   8   8   8   8
#     4  10  21  38  60  85 116 155 198 242 290 346
#     4   9  19  35  57  86 122 156 186 230 287 344
#     4   9  18  33  54  81 113 151 195 240 287 343
#     4  10  21  36  56  84 118 155 193 234 284 343
#     4  10  18  30  50  82 120 155 189 231 284 339
#     4  11  22  40  65  92 121 152 192 240 293 352
#     4  11  23  41  64  88 118 154 197 244 291 343
#     4  12  26  43  62  84 114 153 198 246 297 352
#
# _framework density 19.868653999999999
#
# number of rings (size 3 to 8) (size 9 to 14) (size 15 to 20)
#    0.000    1.750    1.250    3.375    0.000    5.000 
#    0.000    0.625    0.000    3.750    0.000    0.000 
#    0.000    0.000    0.000    0.000    0.000    0.000 
#
# Total GULP energy -357512.583511 kJ/mol
# GULP energy per Si atom -5586.134117 kJ/mol
# Density = 1.982343 g / cm^3
# Si number density = 19.868654 Si / 1000 Ang^3
#
#
#
# Elastic Constant Matrix: (Units=GPa)
#
#
# Indices 1 2 3 4 5 6 
#
# 1 58.2015 -5.9671 1.1900 0.0000 0.0000 0.0000
# 2 -5.9671 18.5796 -0.9496 0.0000 0.0000 0.0000
# 3 1.1900 -0.9496 41.5063 0.0000 0.0000 0.0000
# 4 0.0000 0.0000 0.0000 29.8449 0.0000 0.0000
# 5 0.0000 0.0000 0.0000 0.0000 6.5780 0.0000
# 6 0.0000 0.0000 0.0000 0.0000 0.0000 8.8897
#
#
#
# Elastic Compliance Matrix: (Units=1/GPa)
#
#
# Indices 1 2 3 4 5 6 
#
# 1 0.017773 0.005689 -0.000379 0.000000 0.000000 0.000000
# 2 0.005689 0.055706 0.001111 0.000000 0.000000 0.000000
# 3 -0.000379 0.001111 0.024129 0.000000 0.000000 0.000000
# 4 0.000000 0.000000 0.000000 0.033507 0.000000 0.000000
# 5 0.000000 0.000000 0.000000 0.000000 0.152021 0.000000
# 6 0.000000 0.000000 0.000000 0.000000 0.000000 0.112490
#
#
# Mechanical properties :
#
#
# Convention : Reuss Voigt Hill
#
# Bulk Modulus (GPa) = 9.05395 11.87043 10.46219
# Shear Modulus (GPa) = 11.91609 17.33014 14.62312
#
# Velocity S-wave (km/s) = 2.45162 2.95657 2.71586
# Velocity P-wave (km/s) = 3.54693 4.20029 3.88736
#
# Compressibility (1/GPa) = 0.11044904
#
# Stress axis : x y z
#
# Youngs Moduli (GPa) = 56.26621 17.95134 41.44381
#
# Poissons Ratio (x) = -0.10212 0.01572
# Poissons Ratio (y) = -0.32007 -0.04606
# Poissons Ratio (z) = 0.02135 -0.01995
#
# Static dielectric constant tensor:
#      x y z
#    x 1.762990 0.000000 0.000000 
#    y 0.000000 1.871640 0.000000 
#    z 0.000000 0.000000 1.668130 
# 
# From -- ./inp_files/19233.got.cif
#   From: 2010.05.17/outbox.cif.g08.bks.cpg/sg59_10_cif.got.tgz:19233.got - 2010.06.03 14:40:33.
