data_PCOD9446214
_publ_section_title
;
Structure prediction by ZEFSAII (Michael W. Deem and Ramdas Pophale) SiO2 
 PCOD9446214
Probable space group: P M M N
;
_chemical_formula_sum "Si O2"
_cell_formula_units_Z 56
_cell_length_a 29.936475
_cell_length_b 7.493401
_cell_length_c 13.751243
_cell_angle_alpha 90.000000
_cell_angle_beta 90.000000
_cell_angle_gamma 90.000000
_cell_volume 3084.761498
_symmetry_space_group_name_H-M "P M M N"
_symmetry_group_IT_number 59
_space_group.IT_coordinate_system_code '2'
_symmetry_cell_setting 'orthorhombic'
loop_
_space_group_symop_operation_xyz
x,y,z
1/2-x,1/2-y,z
1/2+x,-y,-z
-x,1/2+y,-z
-x,-y,-z
1/2+x,1/2+y,-z
1/2-x,y,z
x,1/2-y,z
loop_
_atom_site_type_symbol
_atom_site_label
_atom_site_fract_x
_atom_site_fract_y
_atom_site_fract_z
Si Si1 0.800280 0.532010 0.009266
Si Si2 0.981032 0.538392 0.394129
Si Si3 0.887860 0.955091 0.909682
Si Si4 0.108653 0.040942 0.692851
Si Si5 0.530157 0.539248 0.803314
Si Si6 0.439706 0.534280 0.895414
Si Si7 0.800105 0.968167 0.234727
O O1 0.750000 0.479824 0.980921
O O2 0.801813 0.750000 0.009554
O O3 0.807345 0.478187 0.121901
O O4 0.840225 0.465835 0.940972
O O5 0.977766 0.750000 0.383065
O O6 0.931045 0.464378 0.373955
O O7 0.000000 0.500000 0.500000
O O8 0.013441 0.478715 0.306936
O O9 0.878469 0.750000 0.881684
O O10 0.921276 0.036085 0.829700
O O11 0.917586 0.959816 0.007869
O O12 0.113156 0.250000 0.668262
O O13 0.158799 0.967245 0.699630
O O14 0.089077 0.023388 0.801941
O O15 0.532787 0.750000 0.823732
O O16 0.490039 0.470393 0.872037
O O17 0.439347 0.750000 0.900513
O O18 0.750000 0.022637 0.263188
O O19 0.800925 0.750000 0.235072
#
# Coordination Sequence:
#
# PCOD9446214 Si02
#       7
#     8   8   8   8   8   8   8
#     4   8  13  21  37  61  85 112 147 181 209 239
#     4  10  20  33  50  67  86 110 138 177 220 265
#     4  10  17  27  43  60  84 118 150 179 208 245
#     4   9  16  28  45  64  84 113 147 173 208 257
#     4   9  19  31  43  62  86 112 144 178 212 251
#     4  10  18  26  37  58  89 119 145 175 208 242
#     4   8  12  20  38  63  87 110 141 178 207 239
#
# _framework density 18.153753999999999
#
# number of rings (size 3 to 8) (size 9 to 14) (size 15 to 20)
#    0.000    2.857    1.429    2.143    0.000    1.714 
#    0.000    0.000    0.000    1.714    0.000    1.000 
#    0.000    8.000    0.000    0.000    0.000    0.000 
#
# Total GULP energy -312032.825750 kJ/mol
# GULP energy per Si atom -5572.014746 kJ/mol
# Density = 1.811244 g / cm^3
# Si number density = 18.153754 Si / 1000 Ang^3
#
#
#
# Elastic Constant Matrix: (Units=GPa)
#
#
# Indices 1 2 3 4 5 6 
#
# 1 195.7793 1.6327 66.2718 0.0000 0.0000 0.0000
# 2 1.6327 48.9113 -10.1179 0.0000 0.0000 0.0000
# 3 66.2718 -10.1179 54.9079 0.0000 0.0000 0.0000
# 4 0.0000 0.0000 0.0000 10.9023 0.0000 0.0000
# 5 0.0000 0.0000 0.0000 0.0000 22.5273 0.0000
# 6 0.0000 0.0000 0.0000 0.0000 0.0000 7.6312
#
#
#
# Elastic Compliance Matrix: (Units=1/GPa)
#
#
# Indices 1 2 3 4 5 6 
#
# 1 0.008951 -0.002634 -0.011289 0.000000 0.000000 0.000000
# 2 -0.002634 0.022031 0.007239 0.000000 0.000000 0.000000
# 3 -0.011289 0.007239 0.033172 0.000000 0.000000 0.000000
# 4 0.000000 0.000000 0.000000 0.091723 0.000000 0.000000
# 5 0.000000 0.000000 0.000000 0.000000 0.044391 0.000000
# 6 0.000000 0.000000 0.000000 0.000000 0.000000 0.131041
#
#
# Mechanical properties :
#
#
# Convention : Reuss Voigt Hill
#
# Bulk Modulus (GPa) = 19.69099 46.13017 32.91058
# Shear Modulus (GPa) = 13.82722 24.33296 19.08009
#
# Velocity S-wave (km/s) = 2.76284 3.66509 3.24547
# Velocity P-wave (km/s) = 4.58781 6.58609 5.67559
#
# Compressibility (1/GPa) = 0.05078466
#
# Stress axis : x y z
#
# Youngs Moduli (GPa) = 111.71767 45.39160 30.14617
#
# Poissons Ratio (x) = 0.11956 0.34032
# Poissons Ratio (y) = 0.29427 -0.21822
# Poissons Ratio (z) = 1.26119 -0.32858
#
# Static dielectric constant tensor:
#      x y z
#    x 1.699340 0.000000 0.000000 
#    y 0.000000 1.679470 0.000000 
#    z 0.000000 0.000000 1.542090 
# 
# From -- ./inp_files/21723.got.cif
#   From: 2010.05.17/outbox.cif.g08.bks.cpg/sg59_11_cif.got.tgz:21723.got - 2010.06.03 14:40:33.
