data_PCOD9446704
_publ_section_title
;
Structure prediction by ZEFSAII (Michael W. Deem and Ramdas Pophale) SiO2 
 PCOD9446704
Probable space group: P M M N
;
_chemical_formula_sum "Si O2"
_cell_formula_units_Z 64
_cell_length_a 8.157872
_cell_length_b 28.892668
_cell_length_c 14.439740
_cell_angle_alpha 90.000000
_cell_angle_beta 90.000000
_cell_angle_gamma 90.000000
_cell_volume 3403.485522
_symmetry_space_group_name_H-M "P M M N"
_symmetry_group_IT_number 59
_space_group.IT_coordinate_system_code '2'
_symmetry_cell_setting 'orthorhombic'
loop_
_space_group_symop_operation_xyz
x,y,z
1/2-x,1/2-y,z
1/2+x,-y,-z
-x,1/2+y,-z
-x,-y,-z
1/2+x,1/2+y,-z
1/2-x,y,z
x,1/2-y,z
loop_
_atom_site_type_symbol
_atom_site_label
_atom_site_fract_x
_atom_site_fract_y
_atom_site_fract_z
Si Si1 0.562713 0.693870 0.620189
Si Si2 0.552361 0.983959 0.398977
Si Si3 0.053620 0.107928 0.076603
Si Si4 0.951138 0.803004 0.823650
Si Si5 0.549774 0.568069 0.117501
Si Si6 0.557336 0.197684 0.580037
Si Si7 0.551960 0.471801 0.208425
Si Si8 0.553608 0.889337 0.308003
O O1 0.750000 0.677318 0.612516
O O2 0.565605 0.750000 0.623514
O O3 0.494486 0.680843 0.720756
O O4 0.473248 0.681477 0.525704
O O5 0.750000 0.983500 0.397217
O O6 0.494358 0.932175 0.371785
O O7 0.500000 0.000000 0.500000
O O8 0.499110 0.017024 0.313691
O O9 0.250000 0.110728 0.067370
O O10 0.994820 0.159436 0.101622
O O11 0.014785 0.074119 0.161647
O O12 0.988831 0.085980 0.981258
O O13 0.750000 0.802534 0.820314
O O14 0.002811 0.750000 0.840241
O O15 0.750000 0.568030 0.115174
O O16 0.501164 0.515996 0.145573
O O17 0.497385 0.600478 0.203258
O O18 0.750000 0.200641 0.594413
O O19 0.487132 0.250000 0.589695
O O20 0.489747 0.159910 0.650041
O O21 0.750000 0.469993 0.207795
O O22 0.750000 0.892749 0.306171
#
# Coordination Sequence:
#
# PCOD9446704 Si02
#       8
#     8   8   8   8   8   8   8   8
#     4   8  14  27  46  64  86 121 157 184 220 275
#     4   9  19  34  51  71  98 130 160 194 237 287
#     4  10  18  29  50  76  95 117 157 201 232 269
#     4   8  15  28  45  67  96 124 149 185 232 273
#     4   8  16  32  51  70  94 122 154 195 238 278
#     4  10  20  32  47  71  99 124 157 203 245 277
#     4   9  18  33  49  68  98 129 153 186 237 286
#     4   9  18  34  52  68  92 129 165 194 233 286
#
# _framework density 18.804252000000002
#
# number of rings (size 3 to 8) (size 9 to 14) (size 15 to 20)
#    0.000    3.125    0.000    3.000    0.000    2.750 
#    0.000    7.500    0.000    3.375    0.000    0.000 
#    0.000    0.000    0.000    0.000    0.000    0.000 
#
# Total GULP energy -356567.472322 kJ/mol
# GULP energy per Si atom -5571.366755 kJ/mol
# Density = 1.876145 g / cm^3
# Si number density = 18.804252 Si / 1000 Ang^3
#
#
#
# Elastic Constant Matrix: (Units=GPa)
#
#
# Indices 1 2 3 4 5 6 
#
# 1 3.8122 4.1309 4.3639 0.0000 0.0000 0.0000
# 2 4.1309 98.1902 71.8682 0.0000 0.0000 0.0000
# 3 4.3639 71.8682 107.6393 0.0000 0.0000 0.0000
# 4 0.0000 0.0000 0.0000 26.4176 0.0000 0.0000
# 5 0.0000 0.0000 0.0000 0.0000 9.0114 0.0000
# 6 0.0000 0.0000 0.0000 0.0000 0.0000 17.7004
#
#
#
# Elastic Compliance Matrix: (Units=1/GPa)
#
#
# Indices 1 2 3 4 5 6 
#
# 1 0.277332 -0.006724 -0.006754 0.000000 0.000000 0.000000
# 2 -0.006724 0.020081 -0.013135 0.000000 0.000000 0.000000
# 3 -0.006754 -0.013135 0.018334 0.000000 0.000000 0.000000
# 4 0.000000 0.000000 0.000000 0.037854 0.000000 0.000000
# 5 0.000000 0.000000 0.000000 0.000000 0.110971 0.000000
# 6 0.000000 0.000000 0.000000 0.000000 0.000000 0.056496
#
#
# Mechanical properties :
#
#
# Convention : Reuss Voigt Hill
#
# Bulk Modulus (GPa) = 3.80921 41.15198 22.48060
# Shear Modulus (GPa) = 7.55514 19.24447 13.39980
#
# Velocity S-wave (km/s) = 2.00661 3.20255 2.67234
# Velocity P-wave (km/s) = 2.72007 5.96716 4.63712
#
# Compressibility (1/GPa) = 0.26252132
#
# Stress axis : x y z
#
# Youngs Moduli (GPa) = 3.60578 49.79792 54.54315
#
# Poissons Ratio (x) = 0.33485 0.36838
# Poissons Ratio (y) = 0.02425 0.71643
# Poissons Ratio (z) = 0.02435 0.65410
#
# Static dielectric constant tensor:
#      x y z
#    x 1.674270 0.000000 0.000000 
#    y 0.000000 1.658870 0.000000 
#    z 0.000000 0.000000 1.657200 
# 
# From -- ./inp_files/14943.got.cif
#   From: 2010.05.17/outbox.cif.g08.bks.cpg/sg59_8_cif.got.tgz:14943.got - 2010.06.03 14:40:33.
