data_PCOD9446691
_publ_section_title
;
Structure prediction by ZEFSAII (Michael W. Deem and Ramdas Pophale) SiO2 
 PCOD9446691
Probable space group: P M M N
;
_chemical_formula_sum "Si O2"
_cell_formula_units_Z 64
_cell_length_a 20.242919
_cell_length_b 8.487976
_cell_length_c 20.514367
_cell_angle_alpha 90.000000
_cell_angle_beta 90.000000
_cell_angle_gamma 90.000000
_cell_volume 3524.807476
_symmetry_space_group_name_H-M "P M M N"
_symmetry_group_IT_number 59
_space_group.IT_coordinate_system_code '2'
_symmetry_cell_setting 'orthorhombic'
loop_
_space_group_symop_operation_xyz
x,y,z
1/2-x,1/2-y,z
1/2+x,-y,-z
-x,1/2+y,-z
-x,-y,-z
1/2+x,1/2+y,-z
1/2-x,y,z
x,1/2-y,z
loop_
_atom_site_type_symbol
_atom_site_label
_atom_site_fract_x
_atom_site_fract_y
_atom_site_fract_z
Si Si1 0.030316 0.441354 0.343852
Si Si2 0.939239 0.562331 0.802780
Si Si3 0.078040 0.062973 0.847482
Si Si4 0.674686 0.559960 0.038311
Si Si5 0.072444 0.060443 0.479949
Si Si6 0.324355 0.936648 0.740852
Si Si7 0.614824 0.938543 0.384336
Si Si8 0.825297 0.438085 0.894190
O O1 0.022555 0.250000 0.343534
O O2 0.054417 0.490873 0.272587
O O3 0.078792 0.484711 0.404094
O O4 0.958864 0.515187 0.359731
O O5 0.932804 0.750000 0.802530
O O6 0.877422 0.491253 0.840598
O O7 0.007267 0.516389 0.838550
O O8 0.068276 0.250000 0.853535
O O9 0.121352 0.004828 0.908862
O O10 0.122185 0.026608 0.784074
O O11 0.750000 0.505143 0.052813
O O12 0.675403 0.750000 0.040856
O O13 0.657925 0.507442 0.965274
O O14 0.072052 0.250000 0.481967
O O15 0.119120 0.009818 0.539734
O O16 0.000000 0.000000 0.500000
O O17 0.250000 0.979949 0.760711
O O18 0.333571 0.750000 0.749976
O O19 0.335968 0.979222 0.665559
O O20 0.622728 0.750000 0.380401
O O21 0.750000 0.489019 0.878870
O O22 0.826133 0.250000 0.899158
#
# Coordination Sequence:
#
# PCOD9446691 Si02
#       8
#     8   8   8   8   8   8   8   8
#     4   9  17  31  50  74 107 139 171 214 265 320
#     4  11  22  35  56  83 113 147 178 217 270 326
#     4  11  22  36  56  82 112 142 178 226 272 319
#     4   9  19  37  59  81 107 141 180 221 267 320
#     4   8  15  27  45  71  99 130 168 212 261 311
#     4  11  23  36  50  71 105 149 190 226 269 324
#     4  10  18  29  49  74 101 134 176 224 269 314
#     4  10  22  40  61  83 106 136 177 224 272 323
#
# _framework density 18.157019999999999
#
# number of rings (size 3 to 8) (size 9 to 14) (size 15 to 20)
#    0.000    2.125    1.250    2.250    0.000    4.750 
#    0.000    1.250    0.000    0.750    0.000    5.250 
#    0.000    0.000    0.000    0.000    0.000    0.000 
#
# Total GULP energy -356954.793430 kJ/mol
# GULP energy per Si atom -5577.418647 kJ/mol
# Density = 1.811569 g / cm^3
# Si number density = 18.157020 Si / 1000 Ang^3
#
#
#
# Elastic Constant Matrix: (Units=GPa)
#
#
# Indices 1 2 3 4 5 6 
#
# 1 56.7694 1.9312 50.3439 0.0000 0.0000 0.0000
# 2 1.9312 5.9876 6.8111 0.0000 0.0000 0.0000
# 3 50.3439 6.8111 123.5521 0.0000 0.0000 0.0000
# 4 0.0000 0.0000 0.0000 21.4703 0.0000 0.0000
# 5 0.0000 0.0000 0.0000 0.0000 21.4059 0.0000
# 6 0.0000 0.0000 0.0000 0.0000 0.0000 17.0700
#
#
#
# Elastic Compliance Matrix: (Units=1/GPa)
#
#
# Indices 1 2 3 4 5 6 
#
# 1 0.027679 0.004163 -0.011508 0.000000 0.000000 0.000000
# 2 0.004163 0.178813 -0.011554 0.000000 0.000000 0.000000
# 3 -0.011508 -0.011554 0.013420 0.000000 0.000000 0.000000
# 4 0.000000 0.000000 0.000000 0.046576 0.000000 0.000000
# 5 0.000000 0.000000 0.000000 0.000000 0.046716 0.000000
# 6 0.000000 0.000000 0.000000 0.000000 0.000000 0.058582
#
#
# Mechanical properties :
#
#
# Convention : Reuss Voigt Hill
#
# Bulk Modulus (GPa) = 5.49104 33.83128 19.66116
# Shear Modulus (GPa) = 10.63178 20.47077 15.55127
#
# Velocity S-wave (km/s) = 2.42243 3.36137 2.92976
# Velocity P-wave (km/s) = 3.29469 5.80845 4.72192
#
# Compressibility (1/GPa) = 0.18211479
#
# Stress axis : x y z
#
# Youngs Moduli (GPa) = 36.12872 5.59242 74.51674
#
# Poissons Ratio (x) = -0.02328 0.85753
# Poissons Ratio (y) = -0.15041 0.86096
# Poissons Ratio (z) = 0.41576 0.06461
#
# Static dielectric constant tensor:
#      x y z
#    x 1.599800 0.000000 0.000000 
#    y 0.000000 1.614810 0.000000 
#    z 0.000000 0.000000 1.657010 
# 
# From -- ./inp_files/30759.got.cif
#   From: 2010.05.17/outbox.cif.g08.bks.cpg/sg59_16_cif.got.tgz:30759.got - 2010.06.03 14:40:33.
