data_PCOD9446456
_publ_section_title
;
Structure prediction by ZEFSAII (Michael W. Deem and Ramdas Pophale) SiO2 
 PCOD9446456
Probable space group: P M M N
;
_chemical_formula_sum "Si O2"
_cell_formula_units_Z 64
_cell_length_a 7.658566
_cell_length_b 24.434429
_cell_length_c 17.076249
_cell_angle_alpha 90.000000
_cell_angle_beta 90.000000
_cell_angle_gamma 90.000000
_cell_volume 3195.524362
_symmetry_space_group_name_H-M "P M M N"
_symmetry_group_IT_number 59
_space_group.IT_coordinate_system_code '2'
_symmetry_cell_setting 'orthorhombic'
loop_
_space_group_symop_operation_xyz
x,y,z
1/2-x,1/2-y,z
1/2+x,-y,-z
-x,1/2+y,-z
-x,-y,-z
1/2+x,1/2+y,-z
1/2-x,y,z
x,1/2-y,z
loop_
_atom_site_type_symbol
_atom_site_label
_atom_site_fract_x
_atom_site_fract_y
_atom_site_fract_z
Si Si1 0.535891 0.892398 0.943853
Si Si2 0.949223 0.409020 0.287146
Si Si3 0.447724 0.010421 0.152917
Si Si4 0.961393 0.689181 0.074166
Si Si5 0.543030 0.511705 0.589360
Si Si6 0.459392 0.311418 0.195550
Si Si7 0.034735 0.571763 0.276724
Si Si8 0.454636 0.808995 0.256006
O O1 0.750000 0.894971 0.943666
O O2 0.473975 0.952768 0.917135
O O3 0.481462 0.849132 0.876715
O O4 0.480279 0.862902 0.023529
O O5 0.750000 0.417976 0.263975
O O6 0.057647 0.446370 0.226095
O O7 0.975017 0.431772 0.373906
O O8 0.995727 0.346343 0.272313
O O9 0.250000 0.996261 0.129885
O O10 0.526205 0.957218 0.195573
O O11 0.750000 0.687660 0.076835
O O12 0.007439 0.750000 0.040849
O O13 0.031118 0.687385 0.161930
O O14 0.500000 0.500000 0.500000
O O15 0.750000 0.513069 0.596528
O O16 0.479022 0.465044 0.649742
O O17 0.250000 0.308579 0.189225
O O18 0.528480 0.250000 0.194196
O O19 0.250000 0.571601 0.273767
O O20 0.972419 0.633689 0.285811
O O21 0.250000 0.807963 0.276997
O O22 0.531724 0.750000 0.279195
#
# Coordination Sequence:
#
# PCOD9446456 Si02
#       8
#     8   8   8   8   8   8   8   8
#     4   8  13  23  41  62  83 113 155 197 233 271
#     4  10  18  28  43  66  96 123 148 182 223 266
#     4   8  14  27  45  62  83 115 153 189 228 274
#     4   9  16  26  40  59  84 114 151 196 238 271
#     4  10  19  33  53  75  95 115 142 177 221 272
#     4   9  16  27  44  64  87 122 165 198 225 264
#     4   8  15  29  49  69  89 115 146 180 219 269
#     4   9  17  30  47  65  86 116 153 187 221 265
#
# _framework density 20.028009999999998
#
# number of rings (size 3 to 8) (size 9 to 14) (size 15 to 20)
#    0.000    3.125    0.000    3.375    0.000    1.750 
#    0.000    6.250    0.000    3.750    0.000    1.750 
#    0.000    0.000    0.000    0.000    0.000    0.000 
#
# Total GULP energy -356518.504691 kJ/mol
# GULP energy per Si atom -5570.601636 kJ/mol
# Density = 1.998243 g / cm^3
# Si number density = 20.028010 Si / 1000 Ang^3
#
#
#
# Elastic Constant Matrix: (Units=GPa)
#
#
# Indices 1 2 3 4 5 6 
#
# 1 47.3620 1.4383 -5.8190 0.0000 0.0000 0.0000
# 2 1.4383 106.2302 11.7869 0.0000 0.0000 0.0000
# 3 -5.8190 11.7869 33.0209 0.0000 0.0000 0.0000
# 4 0.0000 0.0000 0.0000 19.5189 0.0000 0.0000
# 5 0.0000 0.0000 0.0000 0.0000 14.6346 0.0000
# 6 0.0000 0.0000 0.0000 0.0000 0.0000 0.9163
#
#
#
# Elastic Compliance Matrix: (Units=1/GPa)
#
#
# Indices 1 2 3 4 5 6 
#
# 1 0.021638 -0.000746 0.004079 0.000000 0.000000 0.000000
# 2 -0.000746 0.009827 -0.003639 0.000000 0.000000 0.000000
# 3 0.004079 -0.003639 0.032302 0.000000 0.000000 0.000000
# 4 0.000000 0.000000 0.000000 0.051232 0.000000 0.000000
# 5 0.000000 0.000000 0.000000 0.000000 0.068331 0.000000
# 6 0.000000 0.000000 0.000000 0.000000 0.000000 1.091361
#
#
# Mechanical properties :
#
#
# Convention : Reuss Voigt Hill
#
# Bulk Modulus (GPa) = 15.83392 22.38061 19.10727
# Shear Modulus (GPa) = 3.85697 18.96106 11.40902
#
# Velocity S-wave (km/s) = 1.38923 3.08023 2.38933
# Velocity P-wave (km/s) = 3.23981 4.88358 4.14401
#
# Compressibility (1/GPa) = 0.06315555
#
# Stress axis : x y z
#
# Youngs Moduli (GPa) = 46.21546 101.75610 30.95805
#
# Poissons Ratio (x) = 0.07587 -0.12628
# Poissons Ratio (y) = 0.03446 0.11267
# Poissons Ratio (z) = -0.18852 0.37032
#
# Static dielectric constant tensor:
#      x y z
#    x 1.736130 0.000000 0.000000 
#    y 0.000000 1.772510 0.000000 
#    z 0.000000 0.000000 1.708190 
# 
# From -- ./inp_files/26538.got.cif
#   From: 2010.05.17/outbox.cif.g08.bks.cpg/sg59_14_cif.got.tgz:26538.got - 2010.06.03 14:40:33.
