data_PCOD9446766
_publ_section_title
;
Structure prediction by ZEFSAII (Michael W. Deem and Ramdas Pophale) SiO2 
 PCOD9446766
Probable space group: P M M N
;
_chemical_formula_sum "Si O2"
_cell_formula_units_Z 64
_cell_length_a 8.099103
_cell_length_b 25.273556
_cell_length_c 15.529952
_cell_angle_alpha 90.000000
_cell_angle_beta 90.000000
_cell_angle_gamma 90.000000
_cell_volume 3178.874534
_symmetry_space_group_name_H-M "P M M N"
_symmetry_group_IT_number 59
_space_group.IT_coordinate_system_code '2'
_symmetry_cell_setting 'orthorhombic'
loop_
_space_group_symop_operation_xyz
x,y,z
1/2-x,1/2-y,z
1/2+x,-y,-z
-x,1/2+y,-z
-x,-y,-z
1/2+x,1/2+y,-z
1/2-x,y,z
x,1/2-y,z
loop_
_atom_site_type_symbol
_atom_site_label
_atom_site_fract_x
_atom_site_fract_y
_atom_site_fract_z
Si Si1 0.547458 0.808360 0.428484
Si Si2 0.446659 0.616508 0.792185
Si Si3 0.435139 0.545639 0.559971
Si Si4 0.053591 0.189379 0.051070
Si Si5 0.444336 0.688710 0.138333
Si Si6 0.437731 0.502886 0.753488
Si Si7 0.943504 0.888112 0.283547
Si Si8 0.063489 0.153291 0.393253
O O1 0.750000 0.810873 0.430027
O O2 0.502471 0.750000 0.394112
O O3 0.489532 0.856223 0.366875
O O4 0.490972 0.812874 0.527983
O O5 0.250000 0.611773 0.797664
O O6 0.510288 0.651830 0.869906
O O7 0.514787 0.555880 0.795674
O O8 0.483036 0.644520 0.700054
O O9 0.500000 0.500000 0.500000
O O10 0.250000 0.563246 0.535661
O O11 0.425459 0.521686 0.655007
O O12 0.556316 0.594991 0.564425
O O13 0.250000 0.189447 0.038682
O O14 0.000191 0.250000 0.069465
O O15 0.972840 0.172839 0.960808
O O16 0.250000 0.685581 0.158156
O O17 0.497773 0.750000 0.145670
O O18 0.540072 0.652022 0.204447
O O19 0.250000 0.496371 0.788899
O O20 0.517078 0.444682 0.746283
O O21 0.750000 0.898899 0.302511
O O22 0.250000 0.171252 0.377470
#
# Coordination Sequence:
#
# PCOD9446766 Si02
#       8
#     8   8   8   8   8   8   8   8
#     4   9  18  31  49  75 106 142 184 227 269 315
#     4  10  20  36  56  80 113 146 177 219 273 326
#     4  10  18  30  48  70  97 131 175 224 270 315
#     4  10  21  38  61  86 107 133 176 223 264 316
#     4  10  21  37  56  81 112 140 169 214 273 327
#     4   8  17  32  50  74 104 138 175 218 265 316
#     4  10  18  33  57  79 102 138 184 225 263 311
#     4  10  19  32  50  73 104 142 181 219 262 314
#
# _framework density 20.132909999999999
#
# number of rings (size 3 to 8) (size 9 to 14) (size 15 to 20)
#    0.000    2.375    0.000    3.750    0.000    4.500 
#    0.000    8.125    0.000    2.625    0.000    0.000 
#    0.000    0.000    0.000    0.000    0.000    0.000 
#
# Total GULP energy -356690.501657 kJ/mol
# GULP energy per Si atom -5573.289088 kJ/mol
# Density = 2.008709 g / cm^3
# Si number density = 20.132910 Si / 1000 Ang^3
#
#
#
# Elastic Constant Matrix: (Units=GPa)
#
#
# Indices 1 2 3 4 5 6 
#
# 1 27.5173 0.1246 -3.9725 0.0000 0.0000 0.0000
# 2 0.1246 91.4983 40.0397 0.0000 0.0000 0.0000
# 3 -3.9725 40.0397 60.8911 0.0000 0.0000 0.0000
# 4 0.0000 0.0000 0.0000 31.5063 0.0000 0.0000
# 5 0.0000 0.0000 0.0000 0.0000 16.5816 0.0000
# 6 0.0000 0.0000 0.0000 0.0000 0.0000 11.6145
#
#
#
# Elastic Compliance Matrix: (Units=1/GPa)
#
#
# Indices 1 2 3 4 5 6 
#
# 1 0.036842 -0.001547 0.003421 0.000000 0.000000 0.000000
# 2 -0.001547 0.015410 -0.010234 0.000000 0.000000 0.000000
# 3 0.003421 -0.010234 0.023375 0.000000 0.000000 0.000000
# 4 0.000000 0.000000 0.000000 0.031740 0.000000 0.000000
# 5 0.000000 0.000000 0.000000 0.000000 0.060308 0.000000
# 6 0.000000 0.000000 0.000000 0.000000 0.000000 0.086100
#
#
# Mechanical properties :
#
#
# Convention : Reuss Voigt Hill
#
# Bulk Modulus (GPa) = 16.97602 28.03224 22.50413
# Shear Modulus (GPa) = 17.23370 21.52145 19.37758
#
# Velocity S-wave (km/s) = 2.92892 3.27306 3.10576
# Velocity P-wave (km/s) = 4.45964 5.31391 4.90541
#
# Compressibility (1/GPa) = 0.05890662
#
# Stress axis : x y z
#
# Youngs Moduli (GPa) = 27.14315 64.89489 42.78031
#
# Poissons Ratio (x) = 0.10040 -0.14635
# Poissons Ratio (y) = 0.04200 0.43780
# Poissons Ratio (z) = -0.09285 0.66411
#
# Static dielectric constant tensor:
#      x y z
#    x 1.525150 0.000000 0.000000 
#    y 0.000000 1.747900 0.000000 
#    z 0.000000 0.000000 1.628990 
# 
# From -- ./inp_files/21444.got.cif
#   From: 2010.05.17/outbox.cif.g08.bks.cpg/sg59_11_cif.got.tgz:21444.got - 2010.06.03 14:40:33.
