data_PCOD9446642
_publ_section_title
;
Structure prediction by ZEFSAII (Michael W. Deem and Ramdas Pophale) SiO2 
 PCOD9446642
Probable space group: P M M N
;
_chemical_formula_sum "Si O2"
_cell_formula_units_Z 64
_cell_length_a 19.302851
_cell_length_b 7.371188
_cell_length_c 20.579838
_cell_angle_alpha 90.000000
_cell_angle_beta 90.000000
_cell_angle_gamma 90.000000
_cell_volume 2928.201090
_symmetry_space_group_name_H-M "P M M N"
_symmetry_group_IT_number 59
_space_group.IT_coordinate_system_code '2'
_symmetry_cell_setting 'orthorhombic'
loop_
_space_group_symop_operation_xyz
x,y,z
1/2-x,1/2-y,z
1/2+x,-y,-z
-x,1/2+y,-z
-x,-y,-z
1/2+x,1/2+y,-z
1/2-x,y,z
x,1/2-y,z
loop_
_atom_site_type_symbol
_atom_site_label
_atom_site_fract_x
_atom_site_fract_y
_atom_site_fract_z
Si Si1 0.930579 0.538147 0.640050
Si Si2 0.671325 0.971616 0.288114
Si Si3 0.670322 0.972206 0.532330
Si Si4 0.079310 0.031235 0.590517
Si Si5 0.670641 0.971178 0.882243
Si Si6 0.599942 0.536045 0.157923
Si Si7 0.169695 0.470578 0.971465
Si Si8 0.050965 0.031198 0.213864
O O1 0.915518 0.750000 0.649958
O O2 0.866451 0.465122 0.598595
O O3 0.945808 0.462616 0.711837
O O4 0.999752 0.524993 0.596592
O O5 0.750000 0.026200 0.301304
O O6 0.670024 0.750000 0.287997
O O7 0.619342 0.030103 0.344614
O O8 0.645299 0.035669 0.217970
O O9 0.750000 0.028489 0.525729
O O10 0.670145 0.750000 0.531991
O O11 0.622213 0.029817 0.472133
O O12 0.079763 0.250000 0.589928
O O13 0.750000 0.026357 0.869729
O O14 0.670155 0.750000 0.881830
O O15 0.616073 0.031805 0.828625
O O16 0.651193 0.029422 0.955506
O O17 0.615132 0.750000 0.155218
O O18 0.621882 0.464200 0.087477
O O19 0.520430 0.515727 0.178178
O O20 0.250000 0.519708 0.959037
O O21 0.167273 0.250000 0.973099
O O22 0.052720 0.250000 0.215889
#
# Coordination Sequence:
#
# PCOD9446642 Si02
#       8
#     8   8   8   8   8   8   8   8
#     4  10  20  33  49  70  99 131 158 191 236 284
#     4   9  16  26  44  70  94 118 153 192 227 267
#     4   9  18  32  51  75  97 119 157 205 242 273
#     4  10  18  31  52  74  95 123 156 195 239 283
#     4   8  15  29  48  69  92 121 160 202 239 275
#     4  10  18  29  47  71  97 124 155 195 239 282
#     4   8  14  26  46  71  95 119 155 203 243 273
#     4  10  20  32  47  69  98 129 159 192 232 281
#
# _framework density 21.856422999999999
#
# number of rings (size 3 to 8) (size 9 to 14) (size 15 to 20)
#    0.000    2.750    1.250    1.875    0.000    4.000 
#    0.000    2.500    0.000    5.250    0.000    3.500 
#    0.000    0.000    0.000    0.000    0.000    0.000 
#
# Total GULP energy -357435.150073 kJ/mol
# GULP energy per Si atom -5584.924220 kJ/mol
# Density = 2.180668 g / cm^3
# Si number density = 21.856423 Si / 1000 Ang^3
#
#
#
# Elastic Constant Matrix: (Units=GPa)
#
#
# Indices 1 2 3 4 5 6 
#
# 1 60.9824 -17.2352 65.0681 0.0000 0.0000 0.0000
# 2 -17.2352 74.2703 -5.2949 0.0000 0.0000 0.0000
# 3 65.0681 -5.2949 125.4444 0.0000 0.0000 0.0000
# 4 0.0000 0.0000 0.0000 -3.4623 0.0000 0.0000
# 5 0.0000 0.0000 0.0000 0.0000 38.0948 0.0000
# 6 0.0000 0.0000 0.0000 0.0000 0.0000 12.6936
#
#
#
# Elastic Compliance Matrix: (Units=1/GPa)
#
#
# Indices 1 2 3 4 5 6 
#
# 1 0.040990 0.008020 -0.020923 0.000000 0.000000 0.000000
# 2 0.008020 0.015074 -0.003524 0.000000 0.000000 0.000000
# 3 -0.020923 -0.003524 0.018676 0.000000 0.000000 0.000000
# 4 0.000000 0.000000 0.000000 -0.288828 0.000000 0.000000
# 5 0.000000 0.000000 0.000000 0.000000 0.026250 0.000000
# 6 0.000000 0.000000 0.000000 0.000000 0.000000 0.078780
#
#
# Mechanical properties :
#
#
# Convention : Reuss Voigt Hill
#
# Bulk Modulus (GPa) = 23.87379 38.41923 31.14651
# Shear Modulus (GPa) = -80.32893 24.00918 -28.15988
#
# Velocity S-wave (km/s) = -6.06900 3.31795 -3.59333
# Velocity P-wave (km/s) = 6.17768 5.68283 1.71305
#
# Compressibility (1/GPa) = 0.04188694
#
# Stress axis : x y z
#
# Youngs Moduli (GPa) = 24.39641 66.33791 53.54576
#
# Poissons Ratio (x) = -0.53206 1.12033
# Poissons Ratio (y) = -0.19567 0.18869
# Poissons Ratio (z) = 0.51044 0.23377
#
# Static dielectric constant tensor:
#      x y z
#    x 1.742470 0.000000 0.000000 
#    y 0.000000 1.864350 0.000000 
#    z 0.000000 0.000000 1.789050 
# 
# From -- ./inp_files/30814.got.cif
#   From: 2010.05.17/outbox.cif.g08.bks.cpg/sg59_16_cif.got.tgz:30814.got - 2010.06.03 14:40:33.
