data_PCOD9446731
_publ_section_title
;
Structure prediction by ZEFSAII (Michael W. Deem and Ramdas Pophale) SiO2 
 PCOD9446731
Probable space group: P M M N
;
_chemical_formula_sum "Si O2"
_cell_formula_units_Z 56
_cell_length_a 22.297126
_cell_length_b 12.530796
_cell_length_c 12.826060
_cell_angle_alpha 90.000000
_cell_angle_beta 90.000000
_cell_angle_gamma 90.000000
_cell_volume 3583.610621
_symmetry_space_group_name_H-M "P M M N"
_symmetry_group_IT_number 59
_space_group.IT_coordinate_system_code '2'
_symmetry_cell_setting 'orthorhombic'
loop_
_space_group_symop_operation_xyz
x,y,z
1/2-x,1/2-y,z
1/2+x,-y,-z
-x,1/2+y,-z
-x,-y,-z
1/2+x,1/2+y,-z
1/2-x,y,z
x,1/2-y,z
loop_
_atom_site_type_symbol
_atom_site_label
_atom_site_fract_x
_atom_site_fract_y
_atom_site_fract_z
Si Si1 0.014282 0.976745 0.151177
Si Si2 0.923344 0.628316 0.997636
Si Si3 0.821271 0.555871 0.151442
Si Si4 0.518138 0.376135 0.627614
Si Si5 0.596141 0.126665 0.216642
Si Si6 0.910327 0.033163 0.440954
Si Si7 0.821243 0.867660 0.386200
O O1 0.963203 0.065031 0.177624
O O2 0.979363 0.894604 0.075644
O O3 0.032905 0.918542 0.256993
O O4 0.066583 0.039886 0.091626
O O5 0.925254 0.750000 0.959951
O O6 0.862531 0.608513 0.062938
O O7 0.750000 0.559914 0.132336
O O8 0.847368 0.436888 0.168829
O O9 0.834078 0.612556 0.263120
O O10 0.506342 0.250000 0.628647
O O11 0.568754 0.405631 0.543233
O O12 0.460515 0.444918 0.590910
O O13 0.595151 0.250000 0.188977
O O14 0.596935 0.110183 0.341584
O O15 0.851042 0.962292 0.450387
O O16 0.750000 0.870090 0.397182
O O17 0.843527 0.750000 0.415498
#
# Coordination Sequence:
#
# PCOD9446731 Si02
#       7
#     8   8   8   8   8   8   8
#     4   9  19  30  44  68  89 116 155 186 219 268
#     4  10  18  30  47  65  90 118 146 186 229 265
#     4   9  18  29  44  69  93 116 151 186 221 272
#     4  10  18  30  47  66  94 124 148 181 223 265
#     4   9  16  28  44  63  94 125 147 179 221 264
#     4   9  18  28  44  72  94 115 151 184 215 264
#     4   9  16  28  46  67  93 120 144 178 224 270
#
# _framework density 15.626697999999999
#
# number of rings (size 3 to 8) (size 9 to 14) (size 15 to 20)
#    0.000    2.714    0.000    3.000    0.000    1.143 
#    0.000    2.857    0.000    2.143    0.000    0.000 
#    0.000    0.000    0.000    0.000    0.000    0.000 
#
# Total GULP energy -312001.718889 kJ/mol
# GULP energy per Si atom -5571.459266 kJ/mol
# Density = 1.559113 g / cm^3
# Si number density = 15.626698 Si / 1000 Ang^3
#
#
#
# Elastic Constant Matrix: (Units=GPa)
#
#
# Indices 1 2 3 4 5 6 
#
# 1 44.3033 8.7900 10.4694 0.0000 0.0000 0.0000
# 2 8.7900 77.0486 10.3037 0.0000 0.0000 0.0000
# 3 10.4694 10.3037 55.6293 0.0000 0.0000 0.0000
# 4 0.0000 0.0000 0.0000 12.6309 0.0000 0.0000
# 5 0.0000 0.0000 0.0000 0.0000 19.9311 0.0000
# 6 0.0000 0.0000 0.0000 0.0000 0.0000 14.4963
#
#
#
# Elastic Compliance Matrix: (Units=1/GPa)
#
#
# Indices 1 2 3 4 5 6 
#
# 1 0.023976 -0.002186 -0.004107 0.000000 0.000000 0.000000
# 2 -0.002186 0.013508 -0.002091 0.000000 0.000000 0.000000
# 3 -0.004107 -0.002091 0.019136 0.000000 0.000000 0.000000
# 4 0.000000 0.000000 0.000000 0.079171 0.000000 0.000000
# 5 0.000000 0.000000 0.000000 0.000000 0.050173 0.000000
# 6 0.000000 0.000000 0.000000 0.000000 0.000000 0.068983
#
#
# Mechanical properties :
#
#
# Convention : Reuss Voigt Hill
#
# Bulk Modulus (GPa) = 25.09264 26.23418 25.66341
# Shear Modulus (GPa) = 17.54391 19.23952 18.39172
#
# Velocity S-wave (km/s) = 3.35429 3.51265 3.43438
# Velocity P-wave (km/s) = 5.57621 5.76854 5.67319
#
# Compressibility (1/GPa) = 0.03985233
#
# Stress axis : x y z
#
# Youngs Moduli (GPa) = 41.70833 74.03144 52.25660
#
# Poissons Ratio (x) = 0.16183 0.21464
# Poissons Ratio (y) = 0.09117 0.10924
# Poissons Ratio (z) = 0.17131 0.15476
#
# Static dielectric constant tensor:
#      x y z
#    x 1.521560 0.000000 0.000000 
#    y 0.000000 1.523990 0.000000 
#    z 0.000000 0.000000 1.525100 
# 
# From -- ./inp_files/18696.got.cif
#   From: 2010.05.17/outbox.cif.g08.bks.cpg/sg59_10_cif.got.tgz:18696.got - 2010.06.03 14:40:33.
