data_PCOD9446857
_publ_section_title
;
Structure prediction by ZEFSAII (Michael W. Deem and Ramdas Pophale) SiO2 
 PCOD9446857
Probable space group: P M M N
;
_chemical_formula_sum "Si O2"
_cell_formula_units_Z 64
_cell_length_a 18.544442
_cell_length_b 7.773001
_cell_length_c 22.304520
_cell_angle_alpha 90.000000
_cell_angle_beta 90.000000
_cell_angle_gamma 90.000000
_cell_volume 3215.106586
_symmetry_space_group_name_H-M "P M M N"
_symmetry_group_IT_number 59
_space_group.IT_coordinate_system_code '2'
_symmetry_cell_setting 'orthorhombic'
loop_
_space_group_symop_operation_xyz
x,y,z
1/2-x,1/2-y,z
1/2+x,-y,-z
-x,1/2+y,-z
-x,-y,-z
1/2+x,1/2+y,-z
1/2-x,y,z
x,1/2-y,z
loop_
_atom_site_type_symbol
_atom_site_label
_atom_site_fract_x
_atom_site_fract_y
_atom_site_fract_z
Si Si1 0.104740 0.460620 0.755935
Si Si2 0.018983 0.549996 0.932643
Si Si3 0.591547 0.542095 0.376768
Si Si4 0.331154 0.544399 0.500852
Si Si5 0.832214 0.039598 0.725988
Si Si6 0.074131 0.960157 0.390033
Si Si7 0.454258 0.951681 0.189703
Si Si8 0.828640 0.542069 0.121100
O O1 0.104781 0.250000 0.756080
O O2 0.119884 0.516149 0.688325
O O3 0.156707 0.513269 0.810113
O O4 0.024816 0.521192 0.775833
O O5 0.006787 0.750000 0.925591
O O6 0.970221 0.466272 0.880668
O O7 0.102395 0.511691 0.917379
O O8 0.000000 0.500000 0.000000
O O9 0.590438 0.750000 0.375889
O O10 0.639141 0.488275 0.432925
O O11 0.508651 0.482699 0.384661
O O12 0.250000 0.475824 0.493150
O O13 0.327561 0.750000 0.492271
O O14 0.386871 0.479388 0.450666
O O15 0.750000 0.977750 0.725544
O O16 0.828541 0.250000 0.725821
O O17 0.877393 0.989935 0.666958
O O18 0.879804 0.981200 0.783028
O O19 0.072107 0.750000 0.390280
O O20 0.454150 0.750000 0.204320
O O21 0.750000 0.481611 0.100709
O O22 0.828510 0.750000 0.120640
#
# Coordination Sequence:
#
# PCOD9446857 Si02
#       8
#     8   8   8   8   8   8   8   8
#     4   8  14  27  49  75 100 129 165 206 253 308
#     4  11  22  37  58  82 109 146 187 222 256 301
#     4  10  18  30  51  74  95 127 173 218 255 305
#     4  10  21  34  45  63  97 135 169 213 269 318
#     4   9  15  25  49  82 106 127 164 216 267 314
#     4   9  16  29  49  72  97 129 170 215 261 312
#     4   9  16  31  53  77 106 134 165 210 261 317
#     4   9  18  34  57  84 113 142 173 214 267 320
#
# _framework density 19.906027000000002
#
# number of rings (size 3 to 8) (size 9 to 14) (size 15 to 20)
#    0.000    2.625    1.250    2.625    0.000    2.500 
#    0.000    4.375    0.000    3.375    0.000    0.000 
#    0.000    0.000    0.000    0.000    0.000    0.000 
#
# Total GULP energy -356987.840457 kJ/mol
# GULP energy per Si atom -5577.935007 kJ/mol
# Density = 1.986072 g / cm^3
# Si number density = 19.906027 Si / 1000 Ang^3
#
#
#
# Elastic Constant Matrix: (Units=GPa)
#
#
# Indices 1 2 3 4 5 6 
#
# 1 57.4490 -2.8413 18.9269 0.0000 0.0000 0.0000
# 2 -2.8413 18.2725 -15.5532 0.0000 0.0000 0.0000
# 3 18.9269 -15.5532 108.9518 0.0000 0.0000 0.0000
# 4 0.0000 0.0000 0.0000 19.0651 0.0000 0.0000
# 5 0.0000 0.0000 0.0000 0.0000 18.8345 0.0000
# 6 0.0000 0.0000 0.0000 0.0000 0.0000 10.1410
#
#
#
# Elastic Compliance Matrix: (Units=1/GPa)
#
#
# Indices 1 2 3 4 5 6 
#
# 1 0.018464 0.000160 -0.003185 0.000000 0.000000 0.000000
# 2 0.000160 0.062298 0.008865 0.000000 0.000000 0.000000
# 3 -0.003185 0.008865 0.010997 0.000000 0.000000 0.000000
# 4 0.000000 0.000000 0.000000 0.052452 0.000000 0.000000
# 5 0.000000 0.000000 0.000000 0.000000 0.053094 0.000000
# 6 0.000000 0.000000 0.000000 0.000000 0.000000 0.098609
#
#
# Mechanical properties :
#
#
# Convention : Reuss Voigt Hill
#
# Bulk Modulus (GPa) = 9.66734 20.63756 15.15245
# Shear Modulus (GPa) = 15.68813 21.88419 18.78616
#
# Velocity S-wave (km/s) = 2.81037 3.31928 3.07537
# Velocity P-wave (km/s) = 3.92402 5.00801 4.49878
#
# Compressibility (1/GPa) = 0.10344108
#
# Stress axis : x y z
#
# Youngs Moduli (GPa) = 54.15988 16.05192 90.93263
#
# Poissons Ratio (x) = -0.00257 0.28958
# Poissons Ratio (y) = -0.00869 -0.80615
# Poissons Ratio (z) = 0.17248 -0.14231
#
# Static dielectric constant tensor:
#      x y z
#    x 1.707910 0.000000 0.000000 
#    y 0.000000 1.754470 0.000000 
#    z 0.000000 0.000000 1.651840 
# 
# From -- ./inp_files/30939.got.cif
#   From: 2010.05.17/outbox.cif.g08.bks.cpg/sg59_16_cif.got.tgz:30939.got - 2010.06.03 14:40:33.
