data_PCOD9446504
_publ_section_title
;
Structure prediction by ZEFSAII (Michael W. Deem and Ramdas Pophale) SiO2 
 PCOD9446504
Probable space group: P M M N
;
_chemical_formula_sum "Si O2"
_cell_formula_units_Z 56
_cell_length_a 14.641723
_cell_length_b 7.336701
_cell_length_c 21.922073
_cell_angle_alpha 90.000000
_cell_angle_beta 90.000000
_cell_angle_gamma 90.000000
_cell_volume 2354.911693
_symmetry_space_group_name_H-M "P M M N"
_symmetry_group_IT_number 59
_space_group.IT_coordinate_system_code '2'
_symmetry_cell_setting 'orthorhombic'
loop_
_space_group_symop_operation_xyz
x,y,z
1/2-x,1/2-y,z
1/2+x,-y,-z
-x,1/2+y,-z
-x,-y,-z
1/2+x,1/2+y,-z
1/2-x,y,z
x,1/2-y,z
loop_
_atom_site_type_symbol
_atom_site_label
_atom_site_fract_x
_atom_site_fract_y
_atom_site_fract_z
Si Si1 0.956274 0.961880 0.280287
Si Si2 0.453044 0.471433 0.587012
Si Si3 0.647242 0.462621 0.536712
Si Si4 0.143257 0.029018 0.840056
Si Si5 0.854359 0.970899 0.767461
Si Si6 0.398692 0.465990 0.976334
Si Si7 0.854740 0.953843 0.896234
O O1 0.929685 0.750000 0.279865
O O2 0.926244 0.036066 0.345604
O O3 0.913981 0.039907 0.217859
O O4 0.066360 0.973769 0.278190
O O5 0.455834 0.250000 0.587104
O O6 0.556188 0.536709 0.570343
O O7 0.382578 0.524807 0.534219
O O8 0.750000 0.538043 0.546831
O O9 0.652002 0.250000 0.553434
O O10 0.250000 0.988448 0.831475
O O11 0.132953 0.250000 0.842265
O O12 0.115752 0.963365 0.908192
O O13 0.750000 0.030359 0.753944
O O14 0.853749 0.750000 0.770330
O O15 0.890788 0.040784 0.834239
O O16 0.375469 0.250000 0.972784
O O17 0.500000 0.500000 0.000000
O O18 0.350626 0.540054 0.037137
O O19 0.750000 0.932087 0.878250
O O20 0.895834 0.750000 0.902605
#
# Coordination Sequence:
#
# PCOD9446504 Si02
#       7
#     8   8   8   8   8   8   8
#     4  10  20  33  51  75 103 135 168 204 246 292
#     4   9  19  34  52  77 106 135 167 202 244 296
#     4   9  18  34  55  77 102 131 164 205 249 291
#     4   9  18  32  49  71 100 134 173 212 249 297
#     4   9  18  32  49  70  98 132 169 210 256 305
#     4  10  18  28  46  68  89 118 157 204 255 298
#     4   8  14  26  44  63  82 111 155 199 237 282
#
# _framework density 23.780085
#
# number of rings (size 3 to 8) (size 9 to 14) (size 15 to 20)
#    0.000    2.857    0.000    2.143    0.000    4.000 
#    0.000    2.857    0.000    3.857    0.000    0.000 
#    0.000    0.000    0.000    0.000    0.000    0.000 
#
# Total GULP energy -311988.863089 kJ/mol
# GULP energy per Si atom -5571.229698 kJ/mol
# Density = 2.372596 g / cm^3
# Si number density = 23.780085 Si / 1000 Ang^3
#
#
#
# Elastic Constant Matrix: (Units=GPa)
#
#
# Indices 1 2 3 4 5 6 
#
# 1 72.2489 -10.7947 -9.2764 0.0000 0.0000 0.0000
# 2 -10.7947 94.7881 -7.3295 0.0000 0.0000 0.0000
# 3 -9.2764 -7.3295 85.7325 0.0000 0.0000 0.0000
# 4 0.0000 0.0000 0.0000 -18.3375 0.0000 0.0000
# 5 0.0000 0.0000 0.0000 0.0000 13.6733 0.0000
# 6 0.0000 0.0000 0.0000 0.0000 0.0000 12.1413
#
#
#
# Elastic Compliance Matrix: (Units=1/GPa)
#
#
# Indices 1 2 3 4 5 6 
#
# 1 0.014323 0.001763 0.001700 0.000000 0.000000 0.000000
# 2 0.001763 0.010837 0.001117 0.000000 0.000000 0.000000
# 3 0.001700 0.001117 0.011944 0.000000 0.000000 0.000000
# 4 0.000000 0.000000 0.000000 -0.054533 0.000000 0.000000
# 5 0.000000 0.000000 0.000000 0.000000 0.073135 0.000000
# 6 0.000000 0.000000 0.000000 0.000000 0.000000 0.082363
#
#
# Mechanical properties :
#
#
# Convention : Reuss Voigt Hill
#
# Bulk Modulus (GPa) = 21.61517 21.99648 21.80582
# Shear Modulus (GPa) = 34.64284 20.17342 27.40813
#
# Velocity S-wave (km/s) = 3.82095 2.91577 3.39863
# Velocity P-wave (km/s) = 5.34561 4.53935 4.95889
#
# Compressibility (1/GPa) = 0.04626381
#
# Stress axis : x y z
#
# Youngs Moduli (GPa) = 69.81916 92.27672 83.72622
#
# Poissons Ratio (x) = -0.16265 -0.14237
# Poissons Ratio (y) = -0.12306 -0.09354
# Poissons Ratio (z) = -0.11872 -0.10309
#
# Static dielectric constant tensor:
#      x y z
#    x 1.793660 0.000000 0.000000 
#    y 0.000000 1.956460 0.000000 
#    z 0.000000 0.000000 1.950010 
# 
# From -- ./inp_files/30077.got.cif
#   From: 2010.05.17/outbox.cif.g08.bks.cpg/sg59_16_cif.got.tgz:30077.got - 2010.06.03 14:40:33.
