data_PCOD9446561
_publ_section_title
;
Structure prediction by ZEFSAII (Michael W. Deem and Ramdas Pophale) SiO2 
 PCOD9446561
Probable space group: P M M N
;
_chemical_formula_sum "Si O2"
_cell_formula_units_Z 64
_cell_length_a 30.990882
_cell_length_b 7.559963
_cell_length_c 15.453557
_cell_angle_alpha 90.000000
_cell_angle_beta 90.000000
_cell_angle_gamma 90.000000
_cell_volume 3620.612653
_symmetry_space_group_name_H-M "P M M N"
_symmetry_group_IT_number 59
_space_group.IT_coordinate_system_code '2'
_symmetry_cell_setting 'orthorhombic'
loop_
_space_group_symop_operation_xyz
x,y,z
1/2-x,1/2-y,z
1/2+x,-y,-z
-x,1/2+y,-z
-x,-y,-z
1/2+x,1/2+y,-z
1/2-x,y,z
x,1/2-y,z
loop_
_atom_site_type_symbol
_atom_site_label
_atom_site_fract_x
_atom_site_fract_y
_atom_site_fract_z
Si Si1 0.465230 0.453414 0.630345
Si Si2 0.890387 0.540266 0.041770
Si Si3 0.461956 0.032411 0.825255
Si Si4 0.797989 0.960537 0.991422
Si Si5 0.797519 0.463773 0.788120
Si Si6 0.555863 0.541879 0.554379
Si Si7 0.384638 0.536370 0.295665
Si Si8 0.441957 0.536480 0.133493
O O1 0.450786 0.250000 0.636763
O O2 0.458880 0.529409 0.725771
O O3 0.516060 0.457506 0.606728
O O4 0.443271 0.529818 0.543665
O O5 0.886155 0.750000 0.056670
O O6 0.922197 0.471364 0.116099
O O7 0.841608 0.467419 0.035270
O O8 0.915027 0.517673 0.950531
O O9 0.462430 0.250000 0.825094
O O10 0.508287 0.977445 0.864465
O O11 0.750000 0.031585 0.013764
O O12 0.796687 0.750000 0.007386
O O13 0.803866 0.986137 0.888356
O O14 0.750000 0.526031 0.761420
O O15 0.797611 0.250000 0.785271
O O16 0.837256 0.526789 0.730833
O O17 0.545527 0.750000 0.548366
O O18 0.598193 0.518951 0.611192
O O19 0.384699 0.750000 0.293858
O O20 0.417620 0.476021 0.220531
O O21 0.442033 0.750000 0.134787
#
# Coordination Sequence:
#
# PCOD9446561 Si02
#       8
#     8   8   8   8   8   8   8   8
#     4   9  17  32  47  61  85 114 143 178 217 254
#     4  10  19  29  43  62  83 113 148 177 205 248
#     4   9  17  30  45  59  82 117 149 173 207 252
#     4   9  17  28  41  60  86 110 135 176 222 250
#     4   9  17  29  45  63  82 110 148 178 205 253
#     4  10  19  28  45  68  86 109 144 181 214 255
#     4  10  18  29  45  63  88 119 142 172 216 258
#     4  10  18  29  43  60  86 119 146 170 207 249
#
# _framework density 17.676568
#
# number of rings (size 3 to 8) (size 9 to 14) (size 15 to 20)
#    0.000    2.500    2.500    0.750    0.000    1.500 
#    0.000    0.625    0.000    0.000    0.000    0.875 
#    0.000    3.000    0.000    0.000    0.000    0.000 
#
# Total GULP energy -356848.037624 kJ/mol
# GULP energy per Si atom -5575.750588 kJ/mol
# Density = 1.763634 g / cm^3
# Si number density = 17.676568 Si / 1000 Ang^3
#
#
#
# Elastic Constant Matrix: (Units=GPa)
#
#
# Indices 1 2 3 4 5 6 
#
# 1 164.7540 6.5241 71.4524 0.0000 0.0000 0.0000
# 2 6.5241 41.6977 -0.5002 0.0000 0.0000 0.0000
# 3 71.4524 -0.5002 92.8253 0.0000 0.0000 0.0000
# 4 0.0000 0.0000 0.0000 8.1666 0.0000 0.0000
# 5 0.0000 0.0000 0.0000 0.0000 24.7860 0.0000
# 6 0.0000 0.0000 0.0000 0.0000 0.0000 6.9720
#
#
#
# Elastic Compliance Matrix: (Units=1/GPa)
#
#
# Indices 1 2 3 4 5 6 
#
# 1 0.009207 -0.001526 -0.007096 0.000000 0.000000 0.000000
# 2 -0.001526 0.024237 0.001305 0.000000 0.000000 0.000000
# 3 -0.007096 0.001305 0.016242 0.000000 0.000000 0.000000
# 4 0.000000 0.000000 0.000000 0.122450 0.000000 0.000000
# 5 0.000000 0.000000 0.000000 0.000000 0.040345 0.000000
# 6 0.000000 0.000000 0.000000 0.000000 0.000000 0.143431
#
#
# Mechanical properties :
#
#
# Convention : Reuss Voigt Hill
#
# Bulk Modulus (GPa) = 28.52817 50.46998 39.49907
# Shear Modulus (GPa) = 13.08115 22.77163 17.92639
#
# Velocity S-wave (km/s) = 2.72330 3.59310 3.18800
# Velocity P-wave (km/s) = 5.10514 6.76962 5.99542
#
# Compressibility (1/GPa) = 0.03505308
#
# Stress axis : x y z
#
# Youngs Moduli (GPa) = 108.60847 41.26006 61.56942
#
# Poissons Ratio (x) = 0.06295 0.43687
# Poissons Ratio (y) = 0.16571 -0.08035
# Poissons Ratio (z) = 0.77064 -0.05385
#
# Static dielectric constant tensor:
#      x y z
#    x 1.620770 0.000000 0.000000 
#    y 0.000000 1.676230 0.000000 
#    z 0.000000 0.000000 1.592790 
# 
# From -- ./inp_files/21915.got.cif
#   From: 2010.05.17/outbox.cif.g08.bks.cpg/sg59_11_cif.got.tgz:21915.got - 2010.06.03 14:40:33.
