data_PCOD9446485
_publ_section_title
;
Structure prediction by ZEFSAII (Michael W. Deem and Ramdas Pophale) SiO2 
 PCOD9446485
Probable space group: P M M N
;
_chemical_formula_sum "Si O2"
_cell_formula_units_Z 64
_cell_length_a 7.949116
_cell_length_b 20.601137
_cell_length_c 20.740574
_cell_angle_alpha 90.000000
_cell_angle_beta 90.000000
_cell_angle_gamma 90.000000
_cell_volume 3396.493566
_symmetry_space_group_name_H-M "P M M N"
_symmetry_group_IT_number 59
_space_group.IT_coordinate_system_code '2'
_symmetry_cell_setting 'orthorhombic'
loop_
_space_group_symop_operation_xyz
x,y,z
1/2-x,1/2-y,z
1/2+x,-y,-z
-x,1/2+y,-z
-x,-y,-z
1/2+x,1/2+y,-z
1/2-x,y,z
x,1/2-y,z
loop_
_atom_site_type_symbol
_atom_site_label
_atom_site_fract_x
_atom_site_fract_y
_atom_site_fract_z
Si Si1 0.948384 0.444391 0.907378
Si Si2 0.953207 0.922951 0.736770
Si Si3 0.044291 0.322348 0.157195
Si Si4 0.046833 0.085120 0.045074
Si Si5 0.544143 0.674734 0.490064
Si Si6 0.952560 0.582457 0.377829
Si Si7 0.057230 0.065509 0.765859
Si Si8 0.548258 0.937256 0.589489
O O1 0.750000 0.452000 0.904483
O O2 0.018062 0.516471 0.925495
O O3 0.997247 0.416813 0.837607
O O4 0.994284 0.404844 0.971389
O O5 0.750000 0.931693 0.741789
O O6 0.003925 0.863116 0.780336
O O7 0.995541 0.915752 0.662063
O O8 0.036951 0.987791 0.763460
O O9 0.250000 0.321297 0.156503
O O10 0.981528 0.250000 0.159835
O O11 0.989577 0.359277 0.093166
O O12 0.250000 0.082749 0.046242
O O13 0.750000 0.676007 0.492755
O O14 0.489621 0.750000 0.499345
O O15 0.494124 0.643109 0.421515
O O16 0.487390 0.619127 0.541138
O O17 0.750000 0.583675 0.374128
O O18 0.020717 0.584928 0.304069
O O19 0.992894 0.513067 0.412334
O O20 0.250000 0.085540 0.762948
O O21 0.750000 0.939074 0.582677
#
# Coordination Sequence:
#
# PCOD9446485 Si02
#       8
#     8   8   8   8   8   8   8   8
#     4  10  18  29  47  69  92 117 145 189 238 273
#     4   9  16  28  43  66  95 120 151 187 226 274
#     4   9  16  27  44  64  90 123 153 183 218 262
#     4   9  17  29  44  66  92 118 150 185 222 271
#     4   9  17  30  48  71  98 126 160 203 246 287
#     4   9  18  31  48  70  96 127 161 198 242 289
#     4  10  18  28  45  68  92 119 152 193 237 280
#     4   9  17  28  48  73  97 125 158 199 240 283
#
# _framework density 18.842962
#
# number of rings (size 3 to 8) (size 9 to 14) (size 15 to 20)
#    0.000    2.750    1.250    1.125    0.000    1.500 
#    0.000    2.500    0.000    3.750    0.000    7.000 
#    0.000    0.000    0.000    0.000    0.000    0.000 
#
# Total GULP energy -356353.759803 kJ/mol
# GULP energy per Si atom -5568.027497 kJ/mol
# Density = 1.880007 g / cm^3
# Si number density = 18.842962 Si / 1000 Ang^3
#
#
#
# Elastic Constant Matrix: (Units=GPa)
#
#
# Indices 1 2 3 4 5 6 
#
# 1 10.1713 3.1636 13.0021 0.0000 0.0000 0.0000
# 2 3.1636 46.7369 36.8407 0.0000 0.0000 0.0000
# 3 13.0021 36.8407 100.3258 0.0000 0.0000 0.0000
# 4 0.0000 0.0000 0.0000 13.5904 0.0000 0.0000
# 5 0.0000 0.0000 0.0000 0.0000 14.4164 0.0000
# 6 0.0000 0.0000 0.0000 0.0000 0.0000 12.8152
#
#
#
# Elastic Compliance Matrix: (Units=1/GPa)
#
#
# Indices 1 2 3 4 5 6 
#
# 1 0.118932 0.005769 -0.017532 0.000000 0.000000 0.000000
# 2 0.005769 0.030393 -0.011908 0.000000 0.000000 0.000000
# 3 -0.017532 -0.011908 0.016612 0.000000 0.000000 0.000000
# 4 0.000000 0.000000 0.000000 0.073582 0.000000 0.000000
# 5 0.000000 0.000000 0.000000 0.000000 0.069366 0.000000
# 6 0.000000 0.000000 0.000000 0.000000 0.000000 0.078033
#
#
# Mechanical properties :
#
#
# Convention : Reuss Voigt Hill
#
# Bulk Modulus (GPa) = 8.43202 29.24966 18.84084
# Shear Modulus (GPa) = 10.55318 15.11289 12.83303
#
# Velocity S-wave (km/s) = 2.36912 2.83511 2.61253
# Velocity P-wave (km/s) = 3.45952 5.12579 4.37275
#
# Compressibility (1/GPa) = 0.11859555
#
# Stress axis : x y z
#
# Youngs Moduli (GPa) = 8.40813 32.90284 60.19578
#
# Poissons Ratio (x) = -0.18982 1.05536
# Poissons Ratio (y) = -0.04851 0.71682
# Poissons Ratio (z) = 0.14741 0.39181
#
# Static dielectric constant tensor:
#      x y z
#    x 1.692850 0.000000 0.000000 
#    y 0.000000 1.640860 0.000000 
#    z 0.000000 0.000000 1.704520 
# 
# From -- ./inp_files/29796.got.cif
#   From: 2010.05.17/outbox.cif.g08.bks.cpg/sg59_15_cif.got.tgz:29796.got - 2010.06.03 14:40:33.
