data_PCOD9446123
_publ_section_title
;
Structure prediction by ZEFSAII (Michael W. Deem and Ramdas Pophale) SiO2 
 PCOD9446123
Probable space group: P M M N
;
_chemical_formula_sum "Si O2"
_cell_formula_units_Z 48
_cell_length_a 21.570093
_cell_length_b 15.137528
_cell_length_c 9.497260
_cell_angle_alpha 90.000000
_cell_angle_beta 90.000000
_cell_angle_gamma 90.000000
_cell_volume 3101.025265
_symmetry_space_group_name_H-M "P M M N"
_symmetry_group_IT_number 59
_space_group.IT_coordinate_system_code '2'
_symmetry_cell_setting 'orthorhombic'
loop_
_space_group_symop_operation_xyz
x,y,z
1/2-x,1/2-y,z
1/2+x,-y,-z
-x,1/2+y,-z
-x,-y,-z
1/2+x,1/2+y,-z
1/2-x,y,z
x,1/2-y,z
loop_
_atom_site_type_symbol
_atom_site_label
_atom_site_fract_x
_atom_site_fract_y
_atom_site_fract_z
Si Si1 0.900240 0.463475 0.746906
Si Si2 0.970184 0.852442 0.248296
Si Si3 0.928889 0.501970 0.444999
Si Si4 0.415055 0.649331 0.785518
Si Si5 0.466261 0.089048 0.054554
Si Si6 0.177625 0.645389 0.040492
O O1 0.888933 0.490717 0.585862
O O2 0.916370 0.551179 0.836809
O O3 0.847513 0.410378 0.828462
O O4 0.961696 0.399585 0.749055
O O5 0.975538 0.750000 0.286079
O O6 0.927103 0.908565 0.353731
O O7 0.946235 0.862717 0.087796
O O8 0.916845 0.420667 0.340100
O O9 0.000000 0.500000 0.500000
O O10 0.403738 0.750000 0.738861
O O11 0.481482 0.643340 0.863097
O O12 0.364230 0.624640 0.903677
O O13 0.500000 0.000000 0.000000
O O14 0.250000 0.629649 0.014127
O O15 0.168705 0.750000 0.068195
#
# Coordination Sequence:
#
# PCOD9446123 Si02
#       6
#     8   8   8   8   8   8
#     4  10  18  31  46  66 101 133 158 200 245 289
#     4  10  17  27  45  68  98 131 156 190 247 299
#     4  10  19  31  43  70 102 132 157 198 245 317
#     4  11  19  31  49  70 101 136 164 204 253 289
#     4  10  15  28  47  67  93 129 160 203 243 293
#     4  10  20  33  50  71  95 133 182 211 229 277
#
# _framework density 15.478752
#
# number of rings (size 3 to 8) (size 9 to 14) (size 15 to 20)
#    0.000    1.833    8.333    1.000    0.000    3.333 
#    0.000    0.833    0.000    2.000    0.000    0.000 
#    0.000   29.333    0.000    0.000    0.000    0.000 
#
# Total GULP energy -267307.968938 kJ/mol
# GULP energy per Si atom -5568.916020 kJ/mol
# Density = 1.544352 g / cm^3
# Si number density = 15.478752 Si / 1000 Ang^3
#
#
#
# Elastic Constant Matrix: (Units=GPa)
#
#
# Indices 1 2 3 4 5 6 
#
# 1 47.9138 19.1600 31.6241 0.0000 0.0000 0.0000
# 2 19.1600 78.0700 44.0920 0.0000 0.0000 0.0000
# 3 31.6241 44.0920 117.3097 0.0000 0.0000 0.0000
# 4 0.0000 0.0000 0.0000 14.7480 0.0000 0.0000
# 5 0.0000 0.0000 0.0000 0.0000 8.7838 0.0000
# 6 0.0000 0.0000 0.0000 0.0000 0.0000 16.6334
#
#
#
# Elastic Compliance Matrix: (Units=1/GPa)
#
#
# Indices 1 2 3 4 5 6 
#
# 1 0.025955 -0.003070 -0.005843 0.000000 0.000000 0.000000
# 2 -0.003070 0.016624 -0.005421 0.000000 0.000000 0.000000
# 3 -0.005843 -0.005421 0.012137 0.000000 0.000000 0.000000
# 4 0.000000 0.000000 0.000000 0.067806 0.000000 0.000000
# 5 0.000000 0.000000 0.000000 0.000000 0.113846 0.000000
# 6 0.000000 0.000000 0.000000 0.000000 0.000000 0.060120
#
#
# Mechanical properties :
#
#
# Convention : Reuss Voigt Hill
#
# Bulk Modulus (GPa) = 38.38970 48.11618 43.25294
# Shear Modulus (GPa) = 14.97733 17.92754 16.45243
#
# Velocity S-wave (km/s) = 3.11401 3.40693 3.26376
# Velocity P-wave (km/s) = 6.14693 6.82854 6.49668
#
# Compressibility (1/GPa) = 0.02604865
#
# Stress axis : x y z
#
# Youngs Moduli (GPa) = 38.52837 60.15438 82.39257
#
# Poissons Ratio (x) = 0.18467 0.48142
# Poissons Ratio (y) = 0.11828 0.44662
# Poissons Ratio (z) = 0.22512 0.32608
#
# Static dielectric constant tensor:
#      x y z
#    x 1.501230 0.000000 0.000000 
#    y 0.000000 1.550030 0.000000 
#    z 0.000000 0.000000 1.556340 
# 
# From -- ./inp_files/11293.got.cif
#   From: 2010.05.17/outbox.cif.g08.bks.cpg/sg59_6_cif.got.tgz:11293.got - 2010.06.03 14:40:33.
