data_PCOD9446912
_publ_section_title
;
Structure prediction by ZEFSAII (Michael W. Deem and Ramdas Pophale) SiO2 
 PCOD9446912
Probable space group: P M M N
;
_chemical_formula_sum "Si O2"
_cell_formula_units_Z 40
_cell_length_a 7.944635
_cell_length_b 25.579233
_cell_length_c 9.658616
_cell_angle_alpha 90.000000
_cell_angle_beta 90.000000
_cell_angle_gamma 90.000000
_cell_volume 1962.801437
_symmetry_space_group_name_H-M "P M M N"
_symmetry_group_IT_number 59
_space_group.IT_coordinate_system_code '2'
_symmetry_cell_setting 'orthorhombic'
loop_
_space_group_symop_operation_xyz
x,y,z
1/2-x,1/2-y,z
1/2+x,-y,-z
-x,1/2+y,-z
-x,-y,-z
1/2+x,1/2+y,-z
1/2-x,y,z
x,1/2-y,z
loop_
_atom_site_type_symbol
_atom_site_label
_atom_site_fract_x
_atom_site_fract_y
_atom_site_fract_z
Si Si1 0.054192 0.534827 0.193896
Si Si2 0.543709 0.917973 0.775751
Si Si3 0.053952 0.089171 0.539464
Si Si4 0.946822 0.191290 0.694606
Si Si5 0.055965 0.136286 0.960651
O O1 0.250000 0.538439 0.153249
O O2 0.991897 0.475956 0.175944
O O3 0.040239 0.550366 0.355938
O O4 0.953922 0.579175 0.112235
O O5 0.750000 0.917552 0.778128
O O6 0.490514 0.910451 0.617598
O O7 0.487944 0.874403 0.885616
O O8 0.250000 0.073799 0.538353
O O9 0.037804 0.146750 0.606053
O O10 0.750000 0.189234 0.658216
O O11 0.010295 0.250000 0.673291
O O12 0.963854 0.174742 0.855472
O O13 0.250000 0.152877 0.968125
#
# Coordination Sequence:
#
# PCOD9446912 Si02
#       5
#     8   8   8   8   8
#     4  10  18  31  49  72 105 140 170 197 235 284
#     4   9  19  32  48  74 107 136 162 201 243 284
#     4  10  19  33  52  75 101 130 168 205 241 287
#     4  10  21  38  56  73  95 124 161 206 254 301
#     4  10  19  33  52  75 101 130 168 205 241 287
#
# _framework density 20.379035999999999
#
# number of rings (size 3 to 8) (size 9 to 14) (size 15 to 20)
#    0.000    2.200    0.000    6.000    0.000    1.600 
#    0.000   11.000    0.000    6.000    0.000    0.000 
#    0.000    0.000    0.000    0.000    0.000    0.000 
#
# Total GULP energy -223332.981000 kJ/mol
# GULP energy per Si atom -5583.324525 kJ/mol
# Density = 2.033265 g / cm^3
# Si number density = 20.379036 Si / 1000 Ang^3
#
#
#
# Elastic Constant Matrix: (Units=GPa)
#
#
# Indices 1 2 3 4 5 6 
#
# 1 36.0848 -6.7650 -11.6814 0.0000 0.0000 0.0000
# 2 -6.7650 50.5194 -16.2326 0.0000 0.0000 0.0000
# 3 -11.6814 -16.2326 60.9496 0.0000 0.0000 0.0000
# 4 0.0000 0.0000 0.0000 11.1651 0.0000 0.0000
# 5 0.0000 0.0000 0.0000 0.0000 15.7737 0.0000
# 6 0.0000 0.0000 0.0000 0.0000 0.0000 18.9403
#
#
#
# Elastic Compliance Matrix: (Units=1/GPa)
#
#
# Indices 1 2 3 4 5 6 
#
# 1 0.031511 0.006737 0.007834 0.000000 0.000000 0.000000
# 2 0.006737 0.023087 0.007440 0.000000 0.000000 0.000000
# 3 0.007834 0.007440 0.019890 0.000000 0.000000 0.000000
# 4 0.000000 0.000000 0.000000 0.089565 0.000000 0.000000
# 5 0.000000 0.000000 0.000000 0.000000 0.063397 0.000000
# 6 0.000000 0.000000 0.000000 0.000000 0.000000 0.052798
#
#
# Mechanical properties :
#
#
# Convention : Reuss Voigt Hill
#
# Bulk Modulus (GPa) = 8.43821 8.68839 8.56330
# Shear Modulus (GPa) = 18.13371 21.32467 19.72919
#
# Velocity S-wave (km/s) = 2.98622 3.23832 3.11483
# Velocity P-wave (km/s) = 4.00496 4.27258 4.14093
#
# Compressibility (1/GPa) = 0.11850861
#
# Stress axis : x y z
#
# Youngs Moduli (GPa) = 31.73457 43.31432 50.27695
#
# Poissons Ratio (x) = -0.29180 -0.39385
# Poissons Ratio (y) = -0.21379 -0.37406
# Poissons Ratio (z) = -0.24859 -0.32225
#
# Static dielectric constant tensor:
#      x y z
#    x 1.715120 0.000000 0.000000 
#    y 0.000000 1.703680 0.000000 
#    z 0.000000 0.000000 1.764090 
# 
# From -- ./inp_files/5830.got.cif
#   From: 2010.05.17/outbox.cif.g08.bks.cpg/sg59_3_cif.got.tgz:5830.got - 2010.06.03 14:40:33.
