data_PCOD9446114
_publ_section_title
;
Structure prediction by ZEFSAII (Michael W. Deem and Ramdas Pophale) SiO2 
 PCOD9446114
Probable space group: P N N M
;
_chemical_formula_sum "Si O2"
_cell_formula_units_Z 64
_cell_length_a 12.000000
_cell_length_b 30.000000
_cell_length_c 9.000000
_cell_angle_alpha 90.000000
_cell_angle_beta 90.000000
_cell_angle_gamma 90.000000
_cell_volume 3240.000000
_symmetry_space_group_name_H-M "P N N M"
_symmetry_group_IT_number 58
_symmetry_cell_setting 'orthorhombic'
loop_
_space_group_symop_operation_xyz
x,y,z
-x,-y,z
1/2+x,1/2-y,1/2-z
1/2-x,1/2+y,1/2-z
-x,-y,-z
x,y,-z
1/2-x,1/2+y,1/2+z
1/2+x,1/2-y,1/2+z
loop_
_atom_site_type_symbol
_atom_site_label
_atom_site_fract_x
_atom_site_fract_y
_atom_site_fract_z
Si Si1 0.215003 0.042202 0.174776
Si Si2 0.269799 0.441985 0.327518
Si Si3 0.794103 0.790129 0.323928
Si Si4 0.854552 0.379001 0.175854
Si Si5 0.094112 0.363627 0.677451
Si Si6 0.730827 0.700227 0.821901
Si Si7 0.503525 0.425583 0.822658
Si Si8 0.997552 0.168678 0.821403
O O1 0.290338 0.079406 0.251882
O O2 0.094842 0.041069 0.255352
O O3 0.267349 0.993084 0.186964
O O4 0.199843 0.052285 0.000000
O O5 0.306460 0.435157 0.500000
O O6 0.171534 0.407233 0.298131
O O7 0.376788 0.434934 0.223997
O O8 0.804667 0.780277 0.500000
O O9 0.722588 0.835224 0.308307
O O10 0.734347 0.750523 0.236791
O O11 0.914346 0.797127 0.248629
O O12 0.971862 0.371087 0.256937
O O13 0.871471 0.386566 0.000000
O O14 0.089816 0.355184 0.500000
O O15 0.158385 0.324131 0.762128
O O16 0.625086 0.677454 0.742985
O O17 0.722560 0.697274 0.000000
O O18 0.533089 0.379086 0.742902
O O19 0.514620 0.422617 0.000000
O O20 0.998101 0.169701 0.000000
#
# Coordination Sequence:
#
# PCOD9446114 Si02
#       8
#     8   8   8   8   8   8   8   8
#     4  11  23  41  66  94 128 169 217 265 321 387
#     4  10  23  42  65  94 127 171 218 264 319 386
#     4  11  25  45  68  96 131 171 215 264 319 382
#     4  11  25  44  66  93 130 168 215 269 322 381
#     4  11  24  44  68  92 128 172 218 266 320 381
#     4  12  26  44  68  99 133 170 215 265 321 381
#     4  12  23  38  63  97 133 169 211 265 326 383
#     4  12  24  42  69  98 132 172 214 264 321 379
#
# _framework density 19.753086
#
# number of rings (size 3 to 8) (size 9 to 14) (size 15 to 20)
#    0.000    0.750    2.500    5.250    1.750    5.000 
#    0.000    2.500    0.000    0.000    0.000    0.000 
#    0.000    0.000    0.000    0.000    0.000    0.000 
#
# Total GULP energy -358048.034719 kJ/mol
# GULP energy per Si atom -5594.500542 kJ/mol
# Density = 1.970813 g / cm^3
# Si number density = 19.753086 Si / 1000 Ang^3
#
#
#
# Elastic Constant Matrix: (Units=GPa)
#
#
# Indices 1 2 3 4 5 6 
#
# 1 88.1723 5.4633 47.7449 0.0000 0.0000 0.0000
# 2 5.4633 67.1367 39.4027 0.0000 0.0000 0.0000
# 3 47.7449 39.4027 171.4786 0.0000 0.0000 0.0000
# 4 0.0000 0.0000 0.0000 24.5884 0.0000 0.0000
# 5 0.0000 0.0000 0.0000 0.0000 249.3519 0.0000
# 6 0.0000 0.0000 0.0000 0.0000 0.0000 24.3733
#
#
#
# Elastic Compliance Matrix: (Units=1/GPa)
#
#
# Indices 1 2 3 4 5 6 
#
# 1 0.013449 0.001275 -0.004038 0.000000 0.000000 0.000000
# 2 0.001275 0.017338 -0.004339 0.000000 0.000000 0.000000
# 3 -0.004038 -0.004339 0.007953 0.000000 0.000000 0.000000
# 4 0.000000 0.000000 0.000000 0.040670 0.000000 0.000000
# 5 0.000000 0.000000 0.000000 0.000000 0.004010 0.000000
# 6 0.000000 0.000000 0.000000 0.000000 0.000000 0.041028
#
#
# Mechanical properties :
#
#
# Convention : Reuss Voigt Hill
#
# Bulk Modulus (GPa) = 40.75517 56.88994 48.82255
# Shear Modulus (GPa) = 34.05315 75.27450 54.66383
#
# Velocity S-wave (km/s) = 4.15654 6.17984 5.26627
# Velocity P-wave (km/s) = 6.61157 8.93217 7.85801
#
# Compressibility (1/GPa) = 0.02453676
#
# Stress axis : x y z
#
# Youngs Moduli (GPa) = 74.35637 57.67755 125.74123
#
# Poissons Ratio (x) = -0.07355 0.50769
# Poissons Ratio (y) = -0.09482 0.54559
# Poissons Ratio (z) = 0.30022 0.25026
#
# Static dielectric constant tensor:
#      x y z
#    x 1.668130 0.000000 0.000000 
#    y 0.000000 1.763210 0.000000 
#    z 0.000000 0.000000 1.654350 
# 
# From -- ./inp_files/4673.got.cif
#   From: 2010.05.17/outbox.ucp.g08.bks.cvg/sg58_3_cif.got.tgz:4673.got - 2010.06.11 16:41:41.
