data_PCOD9446043
_publ_section_title
;
Structure prediction by ZEFSAII (Michael W. Deem and Ramdas Pophale) SiO2 
 PCOD9446043
Probable space group: P N N M
;
_chemical_formula_sum "Si O2"
_cell_formula_units_Z 32
_cell_length_a 9.000000
_cell_length_b 21.000000
_cell_length_c 9.000000
_cell_angle_alpha 90.000000
_cell_angle_beta 90.000000
_cell_angle_gamma 90.000000
_cell_volume 1701.000000
_symmetry_space_group_name_H-M "P N N M"
_symmetry_group_IT_number 58
_symmetry_cell_setting 'orthorhombic'
loop_
_space_group_symop_operation_xyz
x,y,z
-x,-y,z
1/2+x,1/2-y,1/2-z
1/2-x,1/2+y,1/2-z
-x,-y,-z
x,y,-z
1/2-x,1/2+y,1/2+z
1/2+x,1/2-y,1/2+z
loop_
_atom_site_type_symbol
_atom_site_label
_atom_site_fract_x
_atom_site_fract_y
_atom_site_fract_z
Si Si1 0.706947 0.317169 0.822145
Si Si2 0.120239 0.046709 0.827842
Si Si3 0.108957 0.448135 0.671869
Si Si4 0.435496 0.811636 0.322320
O O1 0.655457 0.385553 0.751155
O O2 0.632415 0.253263 0.750381
O O3 0.885497 0.312014 0.800311
O O4 0.677376 0.317770 0.000000
O O5 0.250646 0.994562 0.837668
O O6 0.076718 0.062438 0.000000
O O7 0.000000 0.000000 0.752550
O O8 0.059637 0.434619 0.500000
O O9 0.120942 0.379362 0.751694
O O10 0.000000 0.500000 0.747790
O O11 0.405678 0.811118 0.500000
#
# Coordination Sequence:
#
# PCOD9446043 Si02
#       4
#     8   8   8   8
#     4  11  25  43  63  90 124 163 207 253 305 365
#     4  10  22  40  63  91 125 161 201 251 304 361
#     4  10  20  38  64  90 119 159 201 246 302 362
#     4  11  25  42  63  90 124 163 205 255 307 363
#
# _framework density 18.812463000000001
#
# number of rings (size 3 to 8) (size 9 to 14) (size 15 to 20)
#    0.000    1.500    2.500    1.500    3.500    5.000 
#    0.000    0.000    0.000    0.000    0.000    0.000 
#    0.000    0.000    0.000    0.000    0.000    0.000 
#
# Total GULP energy -178146.405088 kJ/mol
# GULP energy per Si atom -5567.075159 kJ/mol
# Density = 1.876965 g / cm^3
# Si number density = 18.812463 Si / 1000 Ang^3
#
#
#
# Elastic Constant Matrix: (Units=GPa)
#
#
# Indices 1 2 3 4 5 6 
#
# 1 46.0180 47.3125 16.2918 0.0000 0.0000 0.0000
# 2 47.3125 246.0865 90.1462 0.0000 0.0000 0.0000
# 3 16.2918 90.1462 113.6372 0.0000 0.0000 0.0000
# 4 0.0000 0.0000 0.0000 257.4881 0.0000 0.0000
# 5 0.0000 0.0000 0.0000 0.0000 25.1556 0.0000
# 6 0.0000 0.0000 0.0000 0.0000 0.0000 43.5433
#
#
#
# Elastic Compliance Matrix: (Units=1/GPa)
#
#
# Indices 1 2 3 4 5 6 
#
# 1 0.027094 -0.005337 0.000349 0.000000 0.000000 0.000000
# 2 -0.005337 0.006780 -0.004613 0.000000 0.000000 0.000000
# 3 0.000349 -0.004613 0.012409 0.000000 0.000000 0.000000
# 4 0.000000 0.000000 0.000000 0.003884 0.000000 0.000000
# 5 0.000000 0.000000 0.000000 0.000000 0.039753 0.000000
# 6 0.000000 0.000000 0.000000 0.000000 0.000000 0.022966
#
#
# Mechanical properties :
#
#
# Convention : Reuss Voigt Hill
#
# Bulk Modulus (GPa) = 36.92534 79.24919 58.08727
# Shear Modulus (GPa) = 35.43254 82.03679 58.73466
#
# Velocity S-wave (km/s) = 4.34459 6.61078 5.59365
# Velocity P-wave (km/s) = 6.69612 10.02433 8.52424
#
# Compressibility (1/GPa) = 0.02708167
#
# Stress axis : x y z
#
# Youngs Moduli (GPa) = 36.90832 147.50309 80.58558
#
# Poissons Ratio (x) = 0.78724 -0.02816
# Poissons Ratio (y) = 0.19698 0.37173
# Poissons Ratio (z) = -0.01290 0.68042
#
# Static dielectric constant tensor:
#      x y z
#    x 2.133060 0.000000 0.000000 
#    y 0.000000 1.610620 0.000000 
#    z 0.000000 0.000000 1.661520 
# 
# From -- ./inp_files/2161.got.cif
#   From: 2010.05.17/outbox.ucp.g08.bks.cvg/sg58_2_cif.got.tgz:2161.got - 2010.06.11 16:41:41.
