data_PCOD9446309
_publ_section_title
;
Structure prediction by ZEFSAII (Michael W. Deem and Ramdas Pophale) SiO2 
 PCOD9446309
Probable space group: P M M N
;
_chemical_formula_sum "Si O2"
_cell_formula_units_Z 56
_cell_length_a 15.517066
_cell_length_b 19.191727
_cell_length_c 10.237324
_cell_angle_alpha 90.000000
_cell_angle_beta 90.000000
_cell_angle_gamma 90.000000
_cell_volume 3048.667865
_symmetry_space_group_name_H-M "P M M N"
_symmetry_group_IT_number 59
_space_group.IT_coordinate_system_code '2'
_symmetry_cell_setting 'orthorhombic'
loop_
_space_group_symop_operation_xyz
x,y,z
1/2-x,1/2-y,z
1/2+x,-y,-z
-x,1/2+y,-z
-x,-y,-z
1/2+x,1/2+y,-z
1/2-x,y,z
x,1/2-y,z
loop_
_atom_site_type_symbol
_atom_site_label
_atom_site_fract_x
_atom_site_fract_y
_atom_site_fract_z
Si Si1 0.096320 0.919875 0.689715
Si Si2 0.844605 0.604787 0.527566
Si Si3 0.656483 0.168910 0.074727
Si Si4 0.346661 0.942440 0.400786
Si Si5 0.968686 0.831932 0.040808
Si Si6 0.465755 0.420544 0.706275
Si Si7 0.430743 0.169028 0.247717
O O1 0.150362 0.884756 0.805410
O O2 0.140484 0.914831 0.548771
O O3 0.008380 0.876147 0.694048
O O4 0.070209 0.000338 0.712940
O O5 0.750000 0.612129 0.466971
O O6 0.851462 0.526202 0.583349
O O7 0.917365 0.613210 0.417913
O O8 0.854829 0.654678 0.651703
O O9 0.750000 0.160537 0.009089
O O10 0.651743 0.250000 0.120478
O O11 0.570905 0.158377 0.989320
O O12 0.250000 0.924212 0.353393
O O13 0.431199 0.920877 0.319660
O O14 0.954149 0.750000 0.067632
O O15 0.944925 0.879346 0.162310
O O16 0.921105 0.850820 0.904554
O O17 0.454190 0.250000 0.246613
#
# Coordination Sequence:
#
# PCOD9446309 Si02
#       7
#     8   8   8   8   8   8   8
#     4  10  17  33  54  81 110 147 185 230 280 328
#     4  10  20  37  58  81 108 142 187 231 277 331
#     4   9  18  33  53  78 111 149 190 230 271 331
#     4  10  19  33  55  83 115 146 177 228 285 330
#     4   9  21  37  55  78 110 150 183 226 287 334
#     4  11  20  36  58  83 116 148 182 230 286 334
#     4  10  19  35  56  78 107 143 186 231 274 323
#
# _framework density 18.368679
#
# number of rings (size 3 to 8) (size 9 to 14) (size 15 to 20)
#    0.000    2.143    2.857    2.571    0.000    4.286 
#    0.000    0.714    0.000    2.571    0.000    0.000 
#    0.000    0.000    0.000    0.000    0.000    0.000 
#
# Total GULP energy -312026.030038 kJ/mol
# GULP energy per Si atom -5571.893394 kJ/mol
# Density = 1.832687 g / cm^3
# Si number density = 18.368679 Si / 1000 Ang^3
#
#
#
# Elastic Constant Matrix: (Units=GPa)
#
#
# Indices 1 2 3 4 5 6 
#
# 1 74.2651 13.0355 26.9210 0.0000 0.0000 0.0000
# 2 13.0355 46.3496 49.0926 0.0000 0.0000 0.0000
# 3 26.9210 49.0926 96.4023 0.0000 0.0000 0.0000
# 4 0.0000 0.0000 0.0000 11.8307 0.0000 0.0000
# 5 0.0000 0.0000 0.0000 0.0000 3.7725 0.0000
# 6 0.0000 0.0000 0.0000 0.0000 0.0000 11.7383
#
#
#
# Elastic Compliance Matrix: (Units=1/GPa)
#
#
# Indices 1 2 3 4 5 6 
#
# 1 0.014987 0.000473 -0.004426 0.000000 0.000000 0.000000
# 2 0.000473 0.046855 -0.023993 0.000000 0.000000 0.000000
# 3 -0.004426 -0.023993 0.023827 0.000000 0.000000 0.000000
# 4 0.000000 0.000000 0.000000 0.084526 0.000000 0.000000
# 5 0.000000 0.000000 0.000000 0.000000 0.265074 0.000000
# 6 0.000000 0.000000 0.000000 0.000000 0.000000 0.085191
#
#
# Mechanical properties :
#
#
# Convention : Reuss Voigt Hill
#
# Bulk Modulus (GPa) = 33.58246 43.90170 38.74208
# Shear Modulus (GPa) = 8.52839 13.99950 11.26394
#
# Velocity S-wave (km/s) = 2.15708 2.76368 2.47900
# Velocity P-wave (km/s) = 4.95239 5.84261 5.41582
#
# Compressibility (1/GPa) = 0.02977745
#
# Stress axis : x y z
#
# Youngs Moduli (GPa) = 66.72594 21.34253 41.96838
#
# Poissons Ratio (x) = -0.01010 0.18575
# Poissons Ratio (y) = -0.03157 1.00694
# Poissons Ratio (z) = 0.29533 0.51207
#
# Static dielectric constant tensor:
#      x y z
#    x 1.687770 0.000000 0.000000 
#    y 0.000000 1.615730 0.000000 
#    z 0.000000 0.000000 1.620000 
# 
# From -- ./inp_files/10608.got.cif
#   From: 2010.05.17/outbox.cif.g08.bks.cpg/sg59_6_cif.got.tgz:10608.got - 2010.06.03 14:40:33.
