data_PCOD9446229
_publ_section_title
;
Structure prediction by ZEFSAII (Michael W. Deem and Ramdas Pophale) SiO2 
 PCOD9446229
Probable space group: P M M N
;
_chemical_formula_sum "Si O2"
_cell_formula_units_Z 64
_cell_length_a 15.004240
_cell_length_b 14.604815
_cell_length_c 16.293478
_cell_angle_alpha 90.000000
_cell_angle_beta 90.000000
_cell_angle_gamma 90.000000
_cell_volume 3570.457443
_symmetry_space_group_name_H-M "P M M N"
_symmetry_group_IT_number 59
_space_group.IT_coordinate_system_code '2'
_symmetry_cell_setting 'orthorhombic'
loop_
_space_group_symop_operation_xyz
x,y,z
1/2-x,1/2-y,z
1/2+x,-y,-z
-x,1/2+y,-z
-x,-y,-z
1/2+x,1/2+y,-z
1/2-x,y,z
x,1/2-y,z
loop_
_atom_site_type_symbol
_atom_site_label
_atom_site_fract_x
_atom_site_fract_y
_atom_site_fract_z
Si Si1 0.111841 0.851725 0.886302
Si Si2 0.383979 0.851487 0.697527
Si Si3 0.857525 0.858697 0.185428
Si Si4 0.356989 0.144591 0.482290
Si Si5 0.599597 0.528692 0.026415
Si Si6 0.894195 0.856367 0.874547
Si Si7 0.401883 0.144637 0.305470
Si Si8 0.146755 0.449776 0.645901
O O1 0.136150 0.750000 0.914637
O O2 0.143814 0.863262 0.792604
O O3 0.003033 0.855005 0.881064
O O4 0.142965 0.934485 0.942668
O O5 0.355461 0.750000 0.669816
O O6 0.491255 0.852006 0.697354
O O7 0.355568 0.940580 0.648302
O O8 0.750000 0.871450 0.178218
O O9 0.874365 0.750000 0.189991
O O10 0.900144 0.904483 0.105110
O O11 0.890441 0.908926 0.268695
O O12 0.250000 0.147755 0.487051
O O13 0.390259 0.250000 0.484884
O O14 0.377700 0.102452 0.393010
O O15 0.391998 0.090736 0.561781
O O16 0.500000 0.500000 0.000000
O O17 0.639570 0.581853 0.948847
O O18 0.866272 0.750000 0.882210
O O19 0.871366 0.891715 0.783084
O O20 0.368456 0.250000 0.308314
O O21 0.250000 0.420284 0.647506
#
# Coordination Sequence:
#
# PCOD9446229 Si02
#       8
#     8   8   8   8   8   8   8   8
#     4   8  14  25  40  61  88 116 148 189 228 263
#     4   9  16  28  45  64  90 119 150 191 234 273
#     4  10  20  33  47  68 101 131 153 187 240 293
#     4   9  17  30  47  67  91 120 154 187 223 276
#     4  10  17  27  47  68  89 127 163 195 227 276
#     4   8  14  24  40  64  89 113 148 190 231 271
#     4   8  15  28  45  64  89 119 150 190 234 271
#     4  10  19  30  46  68  94 125 156 184 226 285
#
# _framework density 17.924873999999999
#
# number of rings (size 3 to 8) (size 9 to 14) (size 15 to 20)
#    0.000    3.000    1.250    2.250    0.000    2.750 
#    0.000    0.625    0.000    2.625    0.000    0.875 
#    0.000    0.000    0.000    0.000    0.000    0.000 
#
# Total GULP energy -356331.164909 kJ/mol
# GULP energy per Si atom -5567.674452 kJ/mol
# Density = 1.788408 g / cm^3
# Si number density = 17.924874 Si / 1000 Ang^3
#
#
#
# Elastic Constant Matrix: (Units=GPa)
#
#
# Indices 1 2 3 4 5 6 
#
# 1 29.2790 7.7392 9.8588 0.0000 0.0000 0.0000
# 2 7.7392 103.3058 79.7748 0.0000 0.0000 0.0000
# 3 9.8588 79.7748 176.1629 0.0000 0.0000 0.0000
# 4 0.0000 0.0000 0.0000 21.7542 0.0000 0.0000
# 5 0.0000 0.0000 0.0000 0.0000 -7.0962 0.0000
# 6 0.0000 0.0000 0.0000 0.0000 0.0000 6.0042
#
#
#
# Elastic Compliance Matrix: (Units=1/GPa)
#
#
# Indices 1 2 3 4 5 6 
#
# 1 0.035005 -0.001706 -0.001186 0.000000 0.000000 0.000000
# 2 -0.001706 0.014969 -0.006683 0.000000 0.000000 0.000000
# 3 -0.001186 -0.006683 0.008769 0.000000 0.000000 0.000000
# 4 0.000000 0.000000 0.000000 0.045968 0.000000 0.000000
# 5 0.000000 0.000000 0.000000 0.000000 -0.140920 0.000000
# 6 0.000000 0.000000 0.000000 0.000000 0.000000 0.166549
#
#
# Mechanical properties :
#
#
# Convention : Reuss Voigt Hill
#
# Bulk Modulus (GPa) = 25.25806 55.94371 40.60088
# Shear Modulus (GPa) = 30.73363 18.22409 24.47886
#
# Velocity S-wave (km/s) = 4.14524 3.19202 3.69946
# Velocity P-wave (km/s) = 6.08542 6.69800 6.39904
#
# Compressibility (1/GPa) = 0.03959133
#
# Stress axis : x y z
#
# Youngs Moduli (GPa) = 28.56765 66.80678 114.03398
#
# Poissons Ratio (x) = 0.11399 0.13528
# Poissons Ratio (y) = 0.04874 0.76208
# Poissons Ratio (z) = 0.03389 0.44647
#
# Static dielectric constant tensor:
#      x y z
#    x 1.655520 0.000000 0.000000 
#    y 0.000000 1.626650 0.000000 
#    z 0.000000 0.000000 1.647630 
# 
# From -- ./inp_files/24016.got.cif
#   From: 2010.05.17/outbox.cif.g08.bks.cpg/sg59_13_cif.got.tgz:24016.got - 2010.06.03 14:40:33.
