data_PCOD9446614
_publ_section_title
;
Structure prediction by ZEFSAII (Michael W. Deem and Ramdas Pophale) SiO2 
 PCOD9446614
Probable space group: P M M N
;
_chemical_formula_sum "Si O2"
_cell_formula_units_Z 64
_cell_length_a 22.180287
_cell_length_b 8.619651
_cell_length_c 19.750838
_cell_angle_alpha 90.000000
_cell_angle_beta 90.000000
_cell_angle_gamma 90.000000
_cell_volume 3776.090291
_symmetry_space_group_name_H-M "P M M N"
_symmetry_group_IT_number 59
_space_group.IT_coordinate_system_code '2'
_symmetry_cell_setting 'orthorhombic'
loop_
_space_group_symop_operation_xyz
x,y,z
1/2-x,1/2-y,z
1/2+x,-y,-z
-x,1/2+y,-z
-x,-y,-z
1/2+x,1/2+y,-z
1/2-x,y,z
x,1/2-y,z
loop_
_atom_site_type_symbol
_atom_site_label
_atom_site_fract_x
_atom_site_fract_y
_atom_site_fract_z
Si Si1 0.011966 0.931267 0.324715
Si Si2 0.558512 0.933523 0.540826
Si Si3 0.059973 0.436784 0.036951
Si Si4 0.819854 0.570474 0.221086
Si Si5 0.989105 0.935635 0.826131
Si Si6 0.884574 0.428953 0.341918
Si Si7 0.318365 0.563918 0.522924
Si Si8 0.893262 0.935039 0.098119
O O1 0.025073 0.750000 0.328452
O O2 0.018289 0.988804 0.247344
O O3 0.943020 0.964408 0.346871
O O4 0.050829 0.020969 0.380539
O O5 0.556997 0.750000 0.532086
O O6 0.500000 0.000000 0.500000
O O7 0.623204 0.996280 0.515220
O O8 0.056901 0.250000 0.039900
O O9 0.058540 0.487173 0.115226
O O10 0.109483 0.481576 0.980712
O O11 0.000000 0.500000 0.000000
O O12 0.750000 0.555546 0.235390
O O13 0.838287 0.750000 0.235424
O O14 0.856891 0.457330 0.268651
O O15 0.834404 0.540178 0.142814
O O16 0.987032 0.750000 0.817748
O O17 0.052792 0.982624 0.860601
O O18 0.903607 0.250000 0.350915
O O19 0.834570 0.465141 0.398233
O O20 0.250000 0.508271 0.507087
O O21 0.318603 0.750000 0.512881
O O22 0.906662 0.750000 0.099358
#
# Coordination Sequence:
#
# PCOD9446614 Si02
#       8
#     8   8   8   8   8   8   8   8
#     4  12  23  35  53  77 106 141 176 218 271 325
#     4  12  24  39  59  83 111 144 181 223 272 325
#     4   8  15  26  42  64  90 122 159 198 244 295
#     4  10  20  31  44  66  99 138 178 215 253 303
#     4  10  18  29  46  70  97 126 164 209 257 311
#     4  11  21  34  53  75 103 140 180 219 260 310
#     4  10  22  40  60  82 110 145 183 224 270 320
#     4   9  16  28  44  63  93 131 167 206 251 300
#
# _framework density 16.948747000000001
#
# number of rings (size 3 to 8) (size 9 to 14) (size 15 to 20)
#    0.000    1.750    2.500    3.375    0.000    2.000 
#    0.000    0.000    0.000    0.000    0.000    0.875 
#    0.000    3.000    0.000    0.000    0.000    0.000 
#
# Total GULP energy -356586.690318 kJ/mol
# GULP energy per Si atom -5571.667036 kJ/mol
# Density = 1.691017 g / cm^3
# Si number density = 16.948747 Si / 1000 Ang^3
#
#
#
# Elastic Constant Matrix: (Units=GPa)
#
#
# Indices 1 2 3 4 5 6 
#
# 1 70.7662 26.7868 40.9240 0.0000 0.0000 0.0000
# 2 26.7868 42.5784 23.0334 0.0000 0.0000 0.0000
# 3 40.9240 23.0334 95.9246 0.0000 0.0000 0.0000
# 4 0.0000 0.0000 0.0000 17.2181 0.0000 0.0000
# 5 0.0000 0.0000 0.0000 0.0000 20.5027 0.0000
# 6 0.0000 0.0000 0.0000 0.0000 0.0000 17.2801
#
#
#
# Elastic Compliance Matrix: (Units=1/GPa)
#
#
# Indices 1 2 3 4 5 6 
#
# 1 0.021957 -0.010052 -0.006954 0.000000 0.000000 0.000000
# 2 -0.010052 0.031594 -0.003298 0.000000 0.000000 0.000000
# 3 -0.006954 -0.003298 0.014183 0.000000 0.000000 0.000000
# 4 0.000000 0.000000 0.000000 0.058078 0.000000 0.000000
# 5 0.000000 0.000000 0.000000 0.000000 0.048774 0.000000
# 6 0.000000 0.000000 0.000000 0.000000 0.000000 0.057870
#
#
# Mechanical properties :
#
#
# Convention : Reuss Voigt Hill
#
# Bulk Modulus (GPa) = 36.86329 43.41752 40.14041
# Shear Modulus (GPa) = 17.72375 18.90185 18.31280
#
# Velocity S-wave (km/s) = 3.23728 3.34314 3.29063
# Velocity P-wave (km/s) = 5.98083 6.36982 6.17839
#
# Compressibility (1/GPa) = 0.02712726
#
# Stress axis : x y z
#
# Youngs Moduli (GPa) = 45.54271 31.65163 70.50449
#
# Poissons Ratio (x) = 0.31816 0.49028
# Poissons Ratio (y) = 0.45779 0.23252
# Poissons Ratio (z) = 0.31670 0.10438
#
# Static dielectric constant tensor:
#      x y z
#    x 1.576460 0.000000 0.000000 
#    y 0.000000 1.608170 0.000000 
#    z 0.000000 0.000000 1.624640 
# 
# From -- ./inp_files/28403.got.cif
#   From: 2010.05.17/outbox.cif.g08.bks.cpg/sg59_15_cif.got.tgz:28403.got - 2010.06.03 14:40:33.
