data_PCOD9446813
_publ_section_title
;
Structure prediction by ZEFSAII (Michael W. Deem and Ramdas Pophale) SiO2 
 PCOD9446813
Probable space group: P M M N
;
_chemical_formula_sum "Si O2"
_cell_formula_units_Z 48
_cell_length_a 8.473093
_cell_length_b 18.567184
_cell_length_c 17.022039
_cell_angle_alpha 90.000000
_cell_angle_beta 90.000000
_cell_angle_gamma 90.000000
_cell_volume 2677.932313
_symmetry_space_group_name_H-M "P M M N"
_symmetry_group_IT_number 59
_space_group.IT_coordinate_system_code '2'
_symmetry_cell_setting 'orthorhombic'
loop_
_space_group_symop_operation_xyz
x,y,z
1/2-x,1/2-y,z
1/2+x,-y,-z
-x,1/2+y,-z
-x,-y,-z
1/2+x,1/2+y,-z
1/2-x,y,z
x,1/2-y,z
loop_
_atom_site_type_symbol
_atom_site_label
_atom_site_fract_x
_atom_site_fract_y
_atom_site_fract_z
Si Si1 0.937575 0.024868 0.415901
Si Si2 0.441429 0.399735 0.178232
Si Si3 0.941325 0.581949 0.994893
Si Si4 0.561086 0.047546 0.739002
Si Si5 0.940704 0.667467 0.149798
Si Si6 0.558754 0.830475 0.660874
O O1 0.750000 0.024219 0.415856
O O2 0.996430 0.104814 0.392570
O O3 0.000000 0.000000 0.500000
O O4 0.999161 0.972269 0.347053
O O5 0.250000 0.397386 0.177424
O O6 0.494198 0.386323 0.089401
O O7 0.487896 0.480382 0.205051
O O8 0.491624 0.347849 0.249145
O O9 0.750000 0.581086 0.995513
O O10 0.994881 0.628035 0.069719
O O11 0.000000 0.500000 0.000000
O O12 0.750000 0.048717 0.737058
O O13 0.497705 0.120198 0.777053
O O14 0.750000 0.667270 0.149167
O O15 0.994314 0.750000 0.152795
O O16 0.750000 0.833410 0.659019
O O17 0.509158 0.750000 0.638213
#
# Coordination Sequence:
#
# PCOD9446813 Si02
#       6
#     8   8   8   8   8   8
#     4  11  22  38  61  87 114 143 179 222 269 329
#     4   8  15  28  49  76 103 138 181 222 263 316
#     4  10  18  30  49  74 105 145 190 232 273 318
#     4  10  19  35  57  79 104 138 182 226 272 328
#     4  10  21  34  49  75 111 148 187 232 281 329
#     4   9  18  34  56  83 116 149 182 223 272 324
#
# _framework density 17.924277
#
# number of rings (size 3 to 8) (size 9 to 14) (size 15 to 20)
#    0.000    2.333    1.667    3.000    0.000    1.333 
#    0.000    4.167    0.000    5.000    0.000    2.333 
#    0.000    0.000    0.000    0.000    0.000    0.000 
#
# Total GULP energy -267753.486841 kJ/mol
# GULP energy per Si atom -5578.197643 kJ/mol
# Density = 1.788348 g / cm^3
# Si number density = 17.924277 Si / 1000 Ang^3
#
#
#
# Elastic Constant Matrix: (Units=GPa)
#
#
# Indices 1 2 3 4 5 6 
#
# 1 30.1044 33.5002 26.5912 0.0000 0.0000 0.0000
# 2 33.5002 152.2932 90.7551 0.0000 0.0000 0.0000
# 3 26.5912 90.7551 157.2851 0.0000 0.0000 0.0000
# 4 0.0000 0.0000 0.0000 19.3943 0.0000 0.0000
# 5 0.0000 0.0000 0.0000 0.0000 19.0090 0.0000
# 6 0.0000 0.0000 0.0000 0.0000 0.0000 24.7363
#
#
#
# Elastic Compliance Matrix: (Units=1/GPa)
#
#
# Indices 1 2 3 4 5 6 
#
# 1 0.044824 -0.008145 -0.002879 0.000000 0.000000 0.000000
# 2 -0.008145 0.011487 -0.005251 0.000000 0.000000 0.000000
# 3 -0.002879 -0.005251 0.009875 0.000000 0.000000 0.000000
# 4 0.000000 0.000000 0.000000 0.051561 0.000000 0.000000
# 5 0.000000 0.000000 0.000000 0.000000 0.052607 0.000000
# 6 0.000000 0.000000 0.000000 0.000000 0.000000 0.040426
#
#
# Mechanical properties :
#
#
# Convention : Reuss Voigt Hill
#
# Bulk Modulus (GPa) = 29.72943 71.26396 50.49669
# Shear Modulus (GPa) = 19.64318 25.21700 22.43009
#
# Velocity S-wave (km/s) = 3.31403 3.75489 3.54132
# Velocity P-wave (km/s) = 5.59159 7.65791 6.70483
#
# Compressibility (1/GPa) = 0.03363670
#
# Stress axis : x y z
#
# Youngs Moduli (GPa) = 22.30962 87.05320 101.27002
#
# Poissons Ratio (x) = 0.70901 0.29151
# Poissons Ratio (y) = 0.18170 0.53180
# Poissons Ratio (z) = 0.06422 0.45714
#
# Static dielectric constant tensor:
#      x y z
#    x 1.617410 0.000000 0.000000 
#    y 0.000000 1.600480 0.000000 
#    z 0.000000 0.000000 1.611450 
# 
# From -- ./inp_files/20398.got.cif
#   From: 2010.05.17/outbox.cif.g08.bks.cpg/sg59_11_cif.got.tgz:20398.got - 2010.06.03 14:40:33.
