data_PCOD9446223
_publ_section_title
;
Structure prediction by ZEFSAII (Michael W. Deem and Ramdas Pophale) SiO2 
 PCOD9446223
Probable space group: P M M N
;
_chemical_formula_sum "Si O2"
_cell_formula_units_Z 56
_cell_length_a 7.385354
_cell_length_b 22.094490
_cell_length_c 17.476954
_cell_angle_alpha 90.000000
_cell_angle_beta 90.000000
_cell_angle_gamma 90.000000
_cell_volume 2851.812981
_symmetry_space_group_name_H-M "P M M N"
_symmetry_group_IT_number 59
_space_group.IT_coordinate_system_code '2'
_symmetry_cell_setting 'orthorhombic'
loop_
_space_group_symop_operation_xyz
x,y,z
1/2-x,1/2-y,z
1/2+x,-y,-z
-x,1/2+y,-z
-x,-y,-z
1/2+x,1/2+y,-z
1/2-x,y,z
x,1/2-y,z
loop_
_atom_site_type_symbol
_atom_site_label
_atom_site_fract_x
_atom_site_fract_y
_atom_site_fract_z
Si Si1 0.032600 0.937787 0.547159
Si Si2 0.471728 0.681127 0.144732
Si Si3 0.959619 0.480699 0.293032
Si Si4 0.459808 0.597048 0.018066
Si Si5 0.531081 0.119860 0.699394
Si Si6 0.529237 0.020356 0.119921
Si Si7 0.029197 0.681578 0.455917
O O1 0.250000 0.932938 0.551115
O O2 0.961875 0.946276 0.633658
O O3 0.968577 0.875895 0.506843
O O4 0.000000 0.000000 0.500000
O O5 0.250000 0.678878 0.144201
O O6 0.525362 0.750000 0.154149
O O7 0.537593 0.652610 0.065430
O O8 0.530640 0.642765 0.218057
O O9 0.750000 0.462179 0.286872
O O10 0.035248 0.474351 0.207132
O O11 0.967436 0.551715 0.313593
O O12 0.250000 0.610788 0.003019
O O13 0.469472 0.541312 0.078265
O O14 0.534059 0.573093 0.937745
O O15 0.750000 0.118072 0.699699
O O16 0.477097 0.164232 0.630910
O O17 0.750000 0.018822 0.119889
O O18 0.250000 0.681975 0.458522
O O19 0.970553 0.750000 0.476032
#
# Coordination Sequence:
#
# PCOD9446223 Si02
#       7
#     8   8   8   8   8   8   8
#     4  10  19  31  48  68  90 118 151 188 227 268
#     4   9  16  25  40  64  90 113 142 181 217 251
#     4  10  19  29  43  65  95 121 140 176 229 271
#     4   9  16  27  44  63  82 110 147 178 206 248
#     4  10  17  27  45  67  89 115 148 181 217 264
#     4   9  17  28  42  61  87 114 138 172 217 258
#     4   9  17  29  46  67  89 116 152 190 224 263
#
# _framework density 19.63663
#
# number of rings (size 3 to 8) (size 9 to 14) (size 15 to 20)
#    0.000    2.571    2.857    0.429    0.000    1.714 
#    0.000    0.000    0.000    5.143    0.000    6.000 
#    0.000    0.000    0.000    6.571    0.000    8.000 
#
# Total GULP energy -312317.952298 kJ/mol
# GULP energy per Si atom -5577.106291 kJ/mol
# Density = 1.959194 g / cm^3
# Si number density = 19.636630 Si / 1000 Ang^3
#
#
#
# Elastic Constant Matrix: (Units=GPa)
#
#
# Indices 1 2 3 4 5 6 
#
# 1 68.6814 -6.2956 -3.5678 0.0000 0.0000 0.0000
# 2 -6.2956 100.9761 52.9224 0.0000 0.0000 0.0000
# 3 -3.5678 52.9224 126.4376 0.0000 0.0000 0.0000
# 4 0.0000 0.0000 0.0000 29.5314 0.0000 0.0000
# 5 0.0000 0.0000 0.0000 0.0000 2.4569 0.0000
# 6 0.0000 0.0000 0.0000 0.0000 0.0000 9.7490
#
#
#
# Elastic Compliance Matrix: (Units=1/GPa)
#
#
# Indices 1 2 3 4 5 6 
#
# 1 0.014644 0.000892 0.000040 0.000000 0.000000 0.000000
# 2 0.000892 0.012741 -0.005308 0.000000 0.000000 0.000000
# 3 0.000040 -0.005308 0.010132 0.000000 0.000000 0.000000
# 4 0.000000 0.000000 0.000000 0.033862 0.000000 0.000000
# 5 0.000000 0.000000 0.000000 0.000000 0.407009 0.000000
# 6 0.000000 0.000000 0.000000 0.000000 0.000000 0.102575
#
#
# Mechanical properties :
#
#
# Convention : Reuss Voigt Hill
#
# Bulk Modulus (GPa) = 34.76460 42.46814 38.61637
# Shear Modulus (GPa) = 8.34304 25.21654 16.77979
#
# Velocity S-wave (km/s) = 2.06348 3.58740 2.92638
# Velocity P-wave (km/s) = 4.83938 6.23163 5.57911
#
# Compressibility (1/GPa) = 0.02876490
#
# Stress axis : x y z
#
# Youngs Moduli (GPa) = 68.28813 78.48838 98.69949
#
# Poissons Ratio (x) = -0.07002 -0.00393
# Poissons Ratio (y) = -0.06092 0.52386
# Poissons Ratio (z) = -0.00272 0.41659
#
# Static dielectric constant tensor:
#      x y z
#    x 1.747050 0.000000 0.000000 
#    y 0.000000 1.664780 0.000000 
#    z 0.000000 0.000000 1.710430 
# 
# From -- ./inp_files/26129.got.cif
#   From: 2010.05.17/outbox.cif.g08.bks.cpg/sg59_14_cif.got.tgz:26129.got - 2010.06.03 14:40:33.
