data_PCOD9446554
_publ_section_title
;
Structure prediction by ZEFSAII (Michael W. Deem and Ramdas Pophale) SiO2 
 PCOD9446554
Probable space group: P M M N
;
_chemical_formula_sum "Si O2"
_cell_formula_units_Z 40
_cell_length_a 7.328148
_cell_length_b 17.010980
_cell_length_c 12.073436
_cell_angle_alpha 90.000000
_cell_angle_beta 90.000000
_cell_angle_gamma 90.000000
_cell_volume 1505.062206
_symmetry_space_group_name_H-M "P M M N"
_symmetry_group_IT_number 59
_space_group.IT_coordinate_system_code '2'
_symmetry_cell_setting 'orthorhombic'
loop_
_space_group_symop_operation_xyz
x,y,z
1/2-x,1/2-y,z
1/2+x,-y,-z
-x,1/2+y,-z
-x,-y,-z
1/2+x,1/2+y,-z
1/2-x,y,z
x,1/2-y,z
loop_
_atom_site_type_symbol
_atom_site_label
_atom_site_fract_x
_atom_site_fract_y
_atom_site_fract_z
Si Si1 0.955575 0.750000 0.018155
Si Si2 0.535854 0.996720 0.259867
Si Si3 0.032260 0.414887 0.947997
Si Si4 0.972937 0.162379 0.309479
Si Si5 0.028614 0.750000 0.277169
Si Si6 0.968828 0.386013 0.556417
O O1 0.750000 0.750000 0.972658
O O2 0.042461 0.835564 0.995254
O O3 0.952842 0.750000 0.153350
O O4 0.750000 0.001031 0.235181
O O5 0.462912 0.084881 0.244416
O O6 0.458617 0.931959 0.175905
O O7 0.519759 0.968500 0.386475
O O8 0.250000 0.401488 0.944615
O O9 0.000000 0.500000 0.000000
O O10 0.750000 0.162663 0.307145
O O11 0.031143 0.250000 0.276092
O O12 0.029838 0.143307 0.436272
O O13 0.250000 0.750000 0.269084
O O14 0.969855 0.823373 0.351865
O O15 0.750000 0.384673 0.551405
#
# Coordination Sequence:
#
# PCOD9446554 Si02
#       6
#     4   8   8   8   4   8
#     4  10  20  38  60  79 108 142 174 219 282 329
#     4  10  20  34  54  79 105 137 177 220 268 312
#     4  10  22  39  58  82 108 139 178 225 277 329
#     4   9  17  31  50  74 108 146 180 213 253 308
#     4  10  18  28  50  81 106 138 180 215 250 299
#     4  10  18  30  51  78 108 142 177 213 255 303
#
# _framework density 26.576975000000001
#
# number of rings (size 3 to 8) (size 9 to 14) (size 15 to 20)
#    0.000    2.200    3.000    0.600    0.000    1.600 
#    1.800    0.000    0.000    1.800    0.000    0.000 
#    0.000    0.000    0.000    0.000    0.000    0.000 
#
# Total GULP energy -223519.495804 kJ/mol
# GULP energy per Si atom -5587.987395 kJ/mol
# Density = 2.651648 g / cm^3
# Si number density = 26.576975 Si / 1000 Ang^3
#
#
#
# Elastic Constant Matrix: (Units=GPa)
#
#
# Indices 1 2 3 4 5 6 
#
# 1 117.5550 3.5981 -4.1571 0.0000 0.0000 0.0000
# 2 3.5981 244.6321 20.0599 0.0000 0.0000 0.0000
# 3 -4.1571 20.0599 49.0627 0.0000 0.0000 0.0000
# 4 0.0000 0.0000 0.0000 41.0456 0.0000 0.0000
# 5 0.0000 0.0000 0.0000 0.0000 9.7787 0.0000
# 6 0.0000 0.0000 0.0000 0.0000 0.0000 10.4085
#
#
#
# Elastic Compliance Matrix: (Units=1/GPa)
#
#
# Indices 1 2 3 4 5 6 
#
# 1 0.008541 -0.000191 0.000802 0.000000 0.000000 0.000000
# 2 -0.000191 0.004234 -0.001747 0.000000 0.000000 0.000000
# 3 0.000802 -0.001747 0.021164 0.000000 0.000000 0.000000
# 4 0.000000 0.000000 0.000000 0.024363 0.000000 0.000000
# 5 0.000000 0.000000 0.000000 0.000000 0.102263 0.000000
# 6 0.000000 0.000000 0.000000 0.000000 0.000000 0.096075
#
#
# Mechanical properties :
#
#
# Convention : Reuss Voigt Hill
#
# Bulk Modulus (GPa) = 31.57992 50.02795 40.80394
# Shear Modulus (GPa) = 18.55502 38.36317 28.45910
#
# Velocity S-wave (km/s) = 2.64514 3.80343 3.27589
# Velocity P-wave (km/s) = 4.60839 6.17679 5.44931
#
# Compressibility (1/GPa) = 0.03166569
#
# Stress axis : x y z
#
# Youngs Moduli (GPa) = 117.08407 236.19084 47.24909
#
# Poissons Ratio (x) = 0.04520 -0.03789
# Poissons Ratio (y) = 0.02241 0.08256
# Poissons Ratio (z) = -0.09389 0.41269
#
# Static dielectric constant tensor:
#      x y z
#    x 1.989410 0.000000 0.000000 
#    y 0.000000 2.170310 0.000000 
#    z 0.000000 0.000000 2.111390 
# 
# From -- ./inp_files/19923.got.cif
#   From: 2010.05.17/outbox.cif.g08.bks.cpg/sg59_10_cif.got.tgz:19923.got - 2010.06.03 14:40:33.
