data_PCOD9446948
_publ_section_title
;
Structure prediction by ZEFSAII (Michael W. Deem and Ramdas Pophale) SiO2 
 PCOD9446948
Probable space group: P M M N
;
_chemical_formula_sum "Si O2"
_cell_formula_units_Z 64
_cell_length_a 12.854703
_cell_length_b 22.495465
_cell_length_c 12.208767
_cell_angle_alpha 90.000000
_cell_angle_beta 90.000000
_cell_angle_gamma 90.000000
_cell_volume 3530.439937
_symmetry_space_group_name_H-M "P M M N"
_symmetry_group_IT_number 59
_space_group.IT_coordinate_system_code '2'
_symmetry_cell_setting 'orthorhombic'
loop_
_space_group_symop_operation_xyz
x,y,z
1/2-x,1/2-y,z
1/2+x,-y,-z
-x,1/2+y,-z
-x,-y,-z
1/2+x,1/2+y,-z
1/2-x,y,z
x,1/2-y,z
loop_
_atom_site_type_symbol
_atom_site_label
_atom_site_fract_x
_atom_site_fract_y
_atom_site_fract_z
Si Si1 0.365665 0.881942 0.766893
Si Si2 0.872531 0.180190 0.804572
Si Si3 0.968899 0.526499 0.669893
Si Si4 0.131174 0.472880 0.093288
Si Si5 0.560079 0.403762 0.000321
Si Si6 0.360122 0.681727 0.560853
Si Si7 0.369161 0.437867 0.559523
Si Si8 0.969130 0.820120 0.399123
O O1 0.250000 0.908165 0.759563
O O2 0.448770 0.924389 0.710108
O O3 0.392422 0.873459 0.892347
O O4 0.366818 0.824129 0.690740
O O5 0.750000 0.164672 0.783692
O O6 0.873697 0.250000 0.835480
O O7 0.948429 0.174370 0.700130
O O8 0.921223 0.139131 0.898549
O O9 0.904704 0.514131 0.781352
O O10 0.898735 0.548934 0.568153
O O11 0.041590 0.472721 0.627538
O O12 0.250000 0.453399 0.092555
O O13 0.055612 0.424819 0.035399
O O14 0.117392 0.534188 0.026806
O O15 0.250000 0.652749 0.527216
O O16 0.355514 0.750000 0.526600
O O17 0.461731 0.659004 0.502845
O O18 0.250000 0.457996 0.578165
O O19 0.379180 0.369040 0.597870
O O20 0.938484 0.750000 0.406728
#
# Coordination Sequence:
#
# PCOD9446948 Si02
#       8
#     8   8   8   8   8   8   8   8
#     4  10  18  31  51  76 109 140 171 220 274 323
#     4  10  20  35  56  82 113 147 183 227 275 324
#     4  10  21  36  53  79 107 140 182 223 272 326
#     4  10  20  37  58  78 106 145 185 225 270 326
#     4  10  21  34  53  83 111 140 183 227 273 323
#     4   9  17  30  50  76 104 137 175 217 269 321
#     4  11  22  36  54  79 111 144 181 226 276 330
#     4  10  20  36  55  78 108 143 185 226 265 320
#
# _framework density 18.128053000000001
#
# number of rings (size 3 to 8) (size 9 to 14) (size 15 to 20)
#    0.000    2.000    1.250    3.000    0.000    2.250 
#    0.000    7.500    0.000    1.125    0.000    0.000 
#    0.000    0.000    0.000    0.000    0.000    0.000 
#
# Total GULP energy -356393.321899 kJ/mol
# GULP energy per Si atom -5568.645655 kJ/mol
# Density = 1.808679 g / cm^3
# Si number density = 18.128053 Si / 1000 Ang^3
#
#
#
# Elastic Constant Matrix: (Units=GPa)
#
#
# Indices 1 2 3 4 5 6 
#
# 1 99.3752 18.0230 23.2447 0.0000 0.0000 0.0000
# 2 18.0230 40.3362 18.9445 0.0000 0.0000 0.0000
# 3 23.2447 18.9445 73.2932 0.0000 0.0000 0.0000
# 4 0.0000 0.0000 0.0000 29.4024 0.0000 0.0000
# 5 0.0000 0.0000 0.0000 0.0000 8.9742 0.0000
# 6 0.0000 0.0000 0.0000 0.0000 0.0000 8.5527
#
#
#
# Elastic Compliance Matrix: (Units=1/GPa)
#
#
# Indices 1 2 3 4 5 6 
#
# 1 0.011373 -0.003856 -0.002610 0.000000 0.000000 0.000000
# 2 -0.003856 0.029524 -0.006409 0.000000 0.000000 0.000000
# 3 -0.002610 -0.006409 0.016128 0.000000 0.000000 0.000000
# 4 0.000000 0.000000 0.000000 0.034011 0.000000 0.000000
# 5 0.000000 0.000000 0.000000 0.000000 0.111430 0.000000
# 6 0.000000 0.000000 0.000000 0.000000 0.000000 0.116922
#
#
# Mechanical properties :
#
#
# Convention : Reuss Voigt Hill
#
# Bulk Modulus (GPa) = 31.97302 37.04764 34.51033
# Shear Modulus (GPa) = 14.06224 19.57203 16.81714
#
# Velocity S-wave (km/s) = 2.78819 3.28937 3.04910
# Velocity P-wave (km/s) = 5.29537 5.90827 5.61020
#
# Compressibility (1/GPa) = 0.03127637
#
# Stress axis : x y z
#
# Youngs Moduli (GPa) = 87.92993 33.87043 62.00352
#
# Poissons Ratio (x) = 0.13059 0.16184
# Poissons Ratio (y) = 0.33902 0.39735
# Poissons Ratio (z) = 0.22952 0.21706
#
# Static dielectric constant tensor:
#      x y z
#    x 1.669270 0.000000 0.000000 
#    y 0.000000 1.632020 0.000000 
#    z 0.000000 0.000000 1.632970 
# 
# From -- ./inp_files/16233.got.cif
#   From: 2010.05.17/outbox.cif.g08.bks.cpg/sg59_9_cif.got.tgz:16233.got - 2010.06.03 14:40:33.
