data_PCOD9446213
_publ_section_title
;
Structure prediction by ZEFSAII (Michael W. Deem and Ramdas Pophale) SiO2 
 PCOD9446213
Probable space group: P M M N
;
_chemical_formula_sum "Si O2"
_cell_formula_units_Z 56
_cell_length_a 7.905239
_cell_length_b 26.970971
_cell_length_c 15.178695
_cell_angle_alpha 90.000000
_cell_angle_beta 90.000000
_cell_angle_gamma 90.000000
_cell_volume 3236.279491
_symmetry_space_group_name_H-M "P M M N"
_symmetry_group_IT_number 59
_space_group.IT_coordinate_system_code '2'
_symmetry_cell_setting 'orthorhombic'
loop_
_space_group_symop_operation_xyz
x,y,z
1/2-x,1/2-y,z
1/2+x,-y,-z
-x,1/2+y,-z
-x,-y,-z
1/2+x,1/2+y,-z
1/2-x,y,z
x,1/2-y,z
loop_
_atom_site_type_symbol
_atom_site_label
_atom_site_fract_x
_atom_site_fract_y
_atom_site_fract_z
Si Si1 0.042434 0.109534 0.483582
Si Si2 0.055546 0.030893 0.623971
Si Si3 0.044331 0.044232 0.116566
Si Si4 0.045553 0.193689 0.619178
Si Si5 0.944240 0.385637 0.751903
Si Si6 0.549009 0.931244 0.075923
Si Si7 0.945709 0.572288 0.695145
O O1 0.250000 0.108848 0.483500
O O2 0.991103 0.060331 0.538147
O O3 0.989150 0.157284 0.539926
O O4 0.981680 0.105980 0.383242
O O5 0.250000 0.015738 0.610216
O O6 0.050570 0.072695 0.700202
O O7 0.953933 0.983407 0.655895
O O8 0.250000 0.044429 0.118359
O O9 0.979743 0.068663 0.206868
O O10 0.988330 0.069638 0.025337
O O11 0.991234 0.986744 0.110559
O O12 0.250000 0.194146 0.617247
O O13 0.985094 0.250000 0.611555
O O14 0.990929 0.166789 0.709229
O O15 0.750000 0.396588 0.731293
O O16 0.972674 0.392640 0.855310
O O17 0.750000 0.924806 0.075751
O O18 0.750000 0.586946 0.705756
#
# Coordination Sequence:
#
# PCOD9446213 Si02
#       7
#     8   8   8   8   8   8   8
#     4   8  16  28  43  64  89 116 147 181 221 269
#     4  10  18  28  41  61  89 122 156 185 217 262
#     4   9  18  28  41  62  89 123 159 191 224 259
#     4   9  18  34  53  71  91 115 145 183 229 280
#     4  11  20  30  46  67  91 119 153 191 231 275
#     4  10  18  29  43  61  88 122 158 194 227 265
#     4  10  17  27  42  62  90 122 153 186 221 261
#
# _framework density 17.303820999999999
#
# number of rings (size 3 to 8) (size 9 to 14) (size 15 to 20)
#    0.000    2.429    1.429    3.429    0.000    0.857 
#    0.000    2.857    0.000    0.000    0.000    1.000 
#    0.000    5.714    0.000    0.000    0.000    0.429 
#
# Total GULP energy -312211.761323 kJ/mol
# GULP energy per Si atom -5575.210024 kJ/mol
# Density = 1.726444 g / cm^3
# Si number density = 17.303821 Si / 1000 Ang^3
#
#
#
# Elastic Constant Matrix: (Units=GPa)
#
#
# Indices 1 2 3 4 5 6 
#
# 1 31.0972 1.1122 4.8331 0.0000 0.0000 0.0000
# 2 1.1122 69.9528 49.8795 0.0000 0.0000 0.0000
# 3 4.8331 49.8795 163.1820 0.0000 0.0000 0.0000
# 4 0.0000 0.0000 0.0000 13.8507 0.0000 0.0000
# 5 0.0000 0.0000 0.0000 0.0000 10.6305 0.0000
# 6 0.0000 0.0000 0.0000 0.0000 0.0000 12.3452
#
#
#
# Elastic Compliance Matrix: (Units=1/GPa)
#
#
# Indices 1 2 3 4 5 6 
#
# 1 0.032308 0.000216 -0.001023 0.000000 0.000000 0.000000
# 2 0.000216 0.018281 -0.005594 0.000000 0.000000 0.000000
# 3 -0.001023 -0.005594 0.007868 0.000000 0.000000 0.000000
# 4 0.000000 0.000000 0.000000 0.072198 0.000000 0.000000
# 5 0.000000 0.000000 0.000000 0.000000 0.094069 0.000000
# 6 0.000000 0.000000 0.000000 0.000000 0.000000 0.081003
#
#
# Mechanical properties :
#
#
# Convention : Reuss Voigt Hill
#
# Bulk Modulus (GPa) = 21.90348 41.76464 31.83406
# Shear Modulus (GPa) = 14.98130 21.25910 18.12020
#
# Velocity S-wave (km/s) = 2.94561 3.50891 3.23953
# Velocity P-wave (km/s) = 4.92488 6.37221 5.69471
#
# Compressibility (1/GPa) = 0.04565485
#
# Stress axis : x y z
#
# Youngs Moduli (GPa) = 30.95161 54.70195 127.09045
#
# Poissons Ratio (x) = -0.01180 0.12999
# Poissons Ratio (y) = -0.00667 0.71098
# Poissons Ratio (z) = 0.03166 0.30602
#
# Static dielectric constant tensor:
#      x y z
#    x 1.625570 0.000000 0.000000 
#    y 0.000000 1.553280 0.000000 
#    z 0.000000 0.000000 1.651650 
# 
# From -- ./inp_files/21775.got.cif
#   From: 2010.05.17/outbox.cif.g08.bks.cpg/sg59_11_cif.got.tgz:21775.got - 2010.06.03 14:40:33.
