data_PCOD9446466
_publ_section_title
;
Structure prediction by ZEFSAII (Michael W. Deem and Ramdas Pophale) SiO2 
 PCOD9446466
Probable space group: P M M N
;
_chemical_formula_sum "Si O2"
_cell_formula_units_Z 64
_cell_length_a 7.426714
_cell_length_b 17.130954
_cell_length_c 24.308391
_cell_angle_alpha 90.000000
_cell_angle_beta 90.000000
_cell_angle_gamma 90.000000
_cell_volume 3092.676270
_symmetry_space_group_name_H-M "P M M N"
_symmetry_group_IT_number 59
_space_group.IT_coordinate_system_code '2'
_symmetry_cell_setting 'orthorhombic'
loop_
_space_group_symop_operation_xyz
x,y,z
1/2-x,1/2-y,z
1/2+x,-y,-z
-x,1/2+y,-z
-x,-y,-z
1/2+x,1/2+y,-z
1/2-x,y,z
x,1/2-y,z
loop_
_atom_site_type_symbol
_atom_site_label
_atom_site_fract_x
_atom_site_fract_y
_atom_site_fract_z
Si Si1 0.467543 0.336542 0.323416
Si Si2 0.547060 0.417390 0.636557
Si Si3 0.970795 0.162774 0.531895
Si Si4 0.535302 0.419031 0.968165
Si Si5 0.532654 0.336223 0.074211
Si Si6 0.459066 0.930359 0.571433
Si Si7 0.536180 0.997974 0.863315
Si Si8 0.971143 0.991360 0.739383
O O1 0.250000 0.336772 0.323272
O O2 0.528991 0.250000 0.308221
O O3 0.527240 0.360167 0.384618
O O4 0.526088 0.406228 0.283193
O O5 0.750000 0.390267 0.648379
O O6 0.465350 0.357147 0.593345
O O7 0.554073 0.496972 0.600297
O O8 0.466733 0.444994 0.694422
O O9 0.750000 0.159520 0.532220
O O10 0.022504 0.250000 0.515647
O O11 0.030089 0.099827 0.486740
O O12 0.750000 0.407073 0.963250
O O13 0.463811 0.438782 0.907371
O O14 0.500000 0.500000 0.000000
O O15 0.468724 0.354894 0.011667
O O16 0.750000 0.335147 0.072917
O O17 0.471154 0.250000 0.092070
O O18 0.485505 0.410283 0.112270
O O19 0.250000 0.951865 0.565554
O O20 0.750000 0.011042 0.860281
O O21 0.466710 0.003758 0.801437
O O22 0.750000 0.992473 0.738390
#
# Coordination Sequence:
#
# PCOD9446466 Si02
#       8
#     8   8   8   8   8   8   8   8
#     4   9  17  29  43  59  83 115 145 170 203 252
#     4   9  17  31  48  62  82 113 144 172 205 251
#     4   9  17  28  44  66  87 107 134 172 218 259
#     4   8  14  25  41  59  79 105 134 162 194 231
#     4   9  17  28  41  60  88 115 134 159 202 250
#     4  10  18  28  44  65  88 110 136 173 213 252
#     4   9  16  27  44  63  81 105 141 177 201 230
#     4   8  15  27  43  62  81 106 141 175 204 234
#
# _framework density 20.694049
#
# number of rings (size 3 to 8) (size 9 to 14) (size 15 to 20)
#    0.000    3.125    0.000    1.875    0.000    1.500 
#    0.000    4.375    0.000    2.625    0.000    5.250 
#    0.000    0.000    0.000    9.875    0.000   12.250 
#
# Total GULP energy -356653.278695 kJ/mol
# GULP energy per Si atom -5572.707480 kJ/mol
# Density = 2.064695 g / cm^3
# Si number density = 20.694049 Si / 1000 Ang^3
#
#
#
# Elastic Constant Matrix: (Units=GPa)
#
#
# Indices 1 2 3 4 5 6 
#
# 1 71.3093 -4.7786 1.0312 0.0000 0.0000 0.0000
# 2 -4.7786 18.7426 11.9310 0.0000 0.0000 0.0000
# 3 1.0312 11.9310 153.8344 0.0000 0.0000 0.0000
# 4 0.0000 0.0000 0.0000 18.0141 0.0000 0.0000
# 5 0.0000 0.0000 0.0000 0.0000 30.3945 0.0000
# 6 0.0000 0.0000 0.0000 0.0000 0.0000 6.6009
#
#
#
# Elastic Compliance Matrix: (Units=1/GPa)
#
#
# Indices 1 2 3 4 5 6 
#
# 1 0.014290 0.003897 -0.000398 0.000000 0.000000 0.000000
# 2 0.003897 0.057188 -0.004461 0.000000 0.000000 0.000000
# 3 -0.000398 -0.004461 0.006849 0.000000 0.000000 0.000000
# 4 0.000000 0.000000 0.000000 0.055512 0.000000 0.000000
# 5 0.000000 0.000000 0.000000 0.000000 0.032901 0.000000
# 6 0.000000 0.000000 0.000000 0.000000 0.000000 0.151495
#
#
# Mechanical properties :
#
#
# Convention : Reuss Voigt Hill
#
# Bulk Modulus (GPa) = 13.08866 28.91706 21.00286
# Shear Modulus (GPa) = 14.46644 26.71541 20.59092
#
# Velocity S-wave (km/s) = 2.64685 3.59691 3.15781
# Velocity P-wave (km/s) = 3.95975 5.59055 4.84427
#
# Compressibility (1/GPa) = 0.07640204
#
# Stress axis : x y z
#
# Youngs Moduli (GPa) = 69.97755 17.48619 146.00273
#
# Poissons Ratio (x) = -0.06814 0.05811
# Poissons Ratio (y) = -0.27269 0.65139
# Poissons Ratio (z) = 0.02785 0.07801
#
# Static dielectric constant tensor:
#      x y z
#    x 1.789690 0.000000 0.000000 
#    y 0.000000 1.728950 0.000000 
#    z 0.000000 0.000000 1.764820 
# 
# From -- ./inp_files/31759.got.cif
#   From: 2010.05.17/outbox.cif.g08.bks.cpg/sg59_16_cif.got.tgz:31759.got - 2010.06.03 14:40:33.
