data_PCOD9446594
_publ_section_title
;
Structure prediction by ZEFSAII (Michael W. Deem and Ramdas Pophale) SiO2 
 PCOD9446594
Probable space group: P M M N
;
_chemical_formula_sum "Si O2"
_cell_formula_units_Z 64
_cell_length_a 20.090641
_cell_length_b 7.494772
_cell_length_c 23.022121
_cell_angle_alpha 90.000000
_cell_angle_beta 90.000000
_cell_angle_gamma 90.000000
_cell_volume 3466.550658
_symmetry_space_group_name_H-M "P M M N"
_symmetry_group_IT_number 59
_space_group.IT_coordinate_system_code '2'
_symmetry_cell_setting 'orthorhombic'
loop_
_space_group_symop_operation_xyz
x,y,z
1/2-x,1/2-y,z
1/2+x,-y,-z
-x,1/2+y,-z
-x,-y,-z
1/2+x,1/2+y,-z
1/2-x,y,z
x,1/2-y,z
loop_
_atom_site_type_symbol
_atom_site_label
_atom_site_fract_x
_atom_site_fract_y
_atom_site_fract_z
Si Si1 0.895782 0.464170 0.478784
Si Si2 0.034492 0.962959 0.412234
Si Si3 0.962045 0.536015 0.301806
Si Si4 0.176121 0.532498 0.015247
Si Si5 0.323698 0.534899 0.633167
Si Si6 0.038163 0.457556 0.826989
Si Si7 0.175924 0.965584 0.880473
Si Si8 0.461886 0.535745 0.060299
O O1 0.888291 0.250000 0.482575
O O2 0.907549 0.531704 0.544629
O O3 0.841043 0.528661 0.432637
O O4 0.965286 0.504703 0.446313
O O5 0.044333 0.750000 0.407375
O O6 0.016293 0.033227 0.348389
O O7 0.969678 0.750000 0.299801
O O8 0.887007 0.507711 0.326189
O O9 0.971575 0.463969 0.236963
O O10 0.250000 0.474826 0.033346
O O11 0.176016 0.750000 0.015745
O O12 0.113651 0.470609 0.052523
O O13 0.166113 0.480316 0.947799
O O14 0.250000 0.472511 0.651339
O O15 0.321705 0.750000 0.631452
O O16 0.018519 0.250000 0.823578
O O17 0.116116 0.465835 0.842086
O O18 0.999624 0.535264 0.882827
O O19 0.250000 0.021669 0.862459
O O20 0.173973 0.750000 0.879094
O O21 0.459909 0.750000 0.065276
O O22 0.500000 0.500000 0.000000
#
# Coordination Sequence:
#
# PCOD9446594 Si02
#       8
#     8   8   8   8   8   8   8   8
#     4   8  13  22  38  58  75  94 124 162 199 227
#     4   8  13  23  39  55  72  97 127 158 194 231
#     4   9  18  30  40  54  80 111 140 166 195 241
#     4   8  14  26  44  63  80 100 129 164 204 251
#     4   9  17  28  41  59  83 108 137 171 200 229
#     4  10  20  30  41  61  86 111 140 175 216 254
#     4   9  17  29  44  60  79 107 142 174 204 247
#     4  10  18  29  46  65  84 106 134 173 219 257
#
# _framework density 18.462156
#
# number of rings (size 3 to 8) (size 9 to 14) (size 15 to 20)
#    0.000    3.125    1.250    0.750    0.000    1.500 
#    0.000    2.500    0.000    0.375    0.000    0.875 
#    0.000    7.000    0.000    0.000    0.000   28.500 
#
# Total GULP energy -356274.267738 kJ/mol
# GULP energy per Si atom -5566.785433 kJ/mol
# Density = 1.842014 g / cm^3
# Si number density = 18.462156 Si / 1000 Ang^3
#
#
#
# Elastic Constant Matrix: (Units=GPa)
#
#
# Indices 1 2 3 4 5 6 
#
# 1 57.5038 0.0279 57.4475 0.0000 0.0000 0.0000
# 2 0.0279 52.7372 6.5856 0.0000 0.0000 0.0000
# 3 57.4475 6.5856 154.3209 0.0000 0.0000 0.0000
# 4 0.0000 0.0000 0.0000 10.6498 0.0000 0.0000
# 5 0.0000 0.0000 0.0000 0.0000 18.9640 0.0000
# 6 0.0000 0.0000 0.0000 0.0000 0.0000 7.2022
#
#
#
# Elastic Compliance Matrix: (Units=1/GPa)
#
#
# Indices 1 2 3 4 5 6 
#
# 1 0.027773 0.001283 -0.010393 0.000000 0.000000 0.000000
# 2 0.001283 0.019123 -0.001294 0.000000 0.000000 0.000000
# 3 -0.010393 -0.001294 0.010404 0.000000 0.000000 0.000000
# 4 0.000000 0.000000 0.000000 0.093899 0.000000 0.000000
# 5 0.000000 0.000000 0.000000 0.000000 0.052732 0.000000
# 6 0.000000 0.000000 0.000000 0.000000 0.000000 0.138847
#
#
# Mechanical properties :
#
#
# Convention : Reuss Voigt Hill
#
# Bulk Modulus (GPa) = 27.40337 43.63156 35.51747
# Shear Modulus (GPa) = 13.30676 20.72991 17.01834
#
# Velocity S-wave (km/s) = 2.68761 3.35450 3.03940
# Velocity P-wave (km/s) = 4.95037 6.21996 5.62112
#
# Compressibility (1/GPa) = 0.03649186
#
# Stress axis : x y z
#
# Youngs Moduli (GPa) = 36.00643 52.29356 96.11423
#
# Poissons Ratio (x) = -0.06710 0.99896
# Poissons Ratio (y) = -0.04620 0.12435
# Poissons Ratio (z) = 0.37423 0.06765
#
# Static dielectric constant tensor:
#      x y z
#    x 1.644190 0.000000 0.000000 
#    y 0.000000 1.681540 0.000000 
#    z 0.000000 0.000000 1.633690 
# 
# From -- ./inp_files/30999.got.cif
#   From: 2010.05.17/outbox.cif.g08.bks.cpg/sg59_16_cif.got.tgz:30999.got - 2010.06.03 14:40:33.
